MODEL        1
REMARK 921   NORMALIZED FREE ENERGY PREDICTED BY IDOCK:   -5.98 KCAL/MOL
REMARK 922        TOTAL FREE ENERGY PREDICTED BY IDOCK:   -6.65 KCAL/MOL
REMARK 923 INTER-LIGAND FREE ENERGY PREDICTED BY IDOCK:   -6.33 KCAL/MOL
REMARK 924 INTRA-LIGAND FREE ENERGY PREDICTED BY IDOCK:   -0.32 KCAL/MOL
REMARK 927      BINDING AFFINITY PREDICTED BY RF-SCORE:    0.00 PKD
ROOT
HETATM    1  C   UNL     1     -14.062  15.527  72.448  1.00  0.00    -0.627 C  
HETATM    2  C   UNL     1     -12.646  16.037  72.736  1.00  0.00    -0.565 C  
HETATM    3  C   UNL     1     -12.452  16.164  74.249  1.00  0.00    -0.684 C  
HETATM    4  C   UNL     1     -11.555  15.124  72.129  1.00  0.00    -0.490 C  
ENDROOT
BRANCH   4   5
HETATM    5  C   UNL     1     -11.649  14.986  70.625  1.00  0.00    -0.358 A  
HETATM    6  C   UNL     1     -11.966  13.757  70.034  1.00  0.00    -0.407 A  
HETATM    7  C   UNL     1     -11.932  13.603  68.646  1.00  0.00    -0.395 A  
HETATM    8  C   UNL     1     -11.584  14.681  67.816  1.00  0.00    -0.382 A  
HETATM    9  C   UNL     1     -11.373  14.490  66.322  1.00  0.00    -0.352 C  
HETATM   10  C   UNL     1     -11.341  15.929  68.406  1.00  0.00    -0.361 A  
HETATM   11  C   UNL     1     -10.200  13.555  66.022  1.00  0.00    -0.305 C  
HETATM   12  C   UNL     1     -11.369  16.078  69.794  1.00  0.00    -0.331 A  
HETATM   13  C   UNL     1     -12.642  14.020  65.608  1.00  0.00    -0.542 C  
HETATM   14  O   UNL     1      -9.060  13.873  66.688  1.00  0.00    -0.247 OA 
HETATM   15  O   UNL     1     -10.230  12.632  65.222  1.00  0.00    -0.286 OA 
ENDBRANCH   4   5
TORSDOF 1
ENDMDL
MODEL        2
REMARK 921   NORMALIZED FREE ENERGY PREDICTED BY IDOCK:   -5.75 KCAL/MOL
REMARK 922        TOTAL FREE ENERGY PREDICTED BY IDOCK:   -6.40 KCAL/MOL
REMARK 923 INTER-LIGAND FREE ENERGY PREDICTED BY IDOCK:   -6.03 KCAL/MOL
REMARK 924 INTRA-LIGAND FREE ENERGY PREDICTED BY IDOCK:   -0.37 KCAL/MOL
REMARK 927      BINDING AFFINITY PREDICTED BY RF-SCORE:    0.00 PKD
ROOT
HETATM    1  C   UNL     1     -10.316  19.393  66.112  1.00  0.00    -0.595 C  
HETATM    2  C   UNL     1      -8.952  19.022  66.703  1.00  0.00    -0.337 C  
HETATM    3  C   UNL     1      -8.279  20.284  67.250  1.00  0.00    -0.393 C  
HETATM    4  C   UNL     1      -9.061  17.949  67.811  1.00  0.00    -0.258 C  
ENDROOT
BRANCH   4   5
HETATM    5  C   UNL     1      -9.674  16.649  67.336  1.00  0.00    -0.251 A  
HETATM    6  C   UNL     1      -9.065  15.892  66.330  1.00  0.00    -0.379 A  
HETATM    7  C   UNL     1      -9.695  14.759  65.809  1.00  0.00    -0.347 A  
HETATM    8  C   UNL     1     -10.951  14.355  66.291  1.00  0.00    -0.318 A  
HETATM    9  C   UNL     1     -11.728  13.231  65.622  1.00  0.00    -0.389 C  
HETATM   10  C   UNL     1     -11.523  15.071  67.352  1.00  0.00    -0.326 A  
HETATM   11  C   UNL     1     -12.112  13.577  64.183  1.00  0.00    -0.435 C  
HETATM   12  C   UNL     1     -10.894  16.207  67.864  1.00  0.00    -0.332 A  
HETATM   13  C   UNL     1     -10.990  11.893  65.684  1.00  0.00    -0.353 C  
HETATM   14  O   UNL     1     -12.703  14.792  64.048  1.00  0.00    -0.786 OA 
HETATM   15  O   UNL     1     -11.969  12.833  63.224  1.00  0.00    -0.534 OA 
ENDBRANCH   4   5
TORSDOF 1
ENDMDL
MODEL        3
REMARK 921   NORMALIZED FREE ENERGY PREDICTED BY IDOCK:   -5.72 KCAL/MOL
REMARK 922        TOTAL FREE ENERGY PREDICTED BY IDOCK:   -6.37 KCAL/MOL
REMARK 923 INTER-LIGAND FREE ENERGY PREDICTED BY IDOCK:   -6.36 KCAL/MOL
REMARK 924 INTRA-LIGAND FREE ENERGY PREDICTED BY IDOCK:   -0.01 KCAL/MOL
REMARK 927      BINDING AFFINITY PREDICTED BY RF-SCORE:    0.00 PKD
ROOT
HETATM    1  C   UNL     1     -10.042   9.453  70.816  1.00  0.00    -0.366 C  
HETATM    2  C   UNL     1     -11.557   9.266  70.681  1.00  0.00    -0.305 C  
HETATM    3  C   UNL     1     -12.103   8.629  71.961  1.00  0.00    -0.442 C  
HETATM    4  C   UNL     1     -12.291  10.595  70.387  1.00  0.00    -0.428 C  
ENDROOT
BRANCH   4   5
HETATM    5  C   UNL     1     -11.841  11.266  69.108  1.00  0.00    -0.423 A  
HETATM    6  C   UNL     1     -12.026  12.640  68.913  1.00  0.00    -0.284 A  
HETATM    7  C   UNL     1     -11.721  13.233  67.685  1.00  0.00    -0.408 A  
HETATM    8  C   UNL     1     -11.217  12.462  66.625  1.00  0.00    -0.366 A  
HETATM    9  C   UNL     1     -11.043  13.053  65.234  1.00  0.00    -0.311 C  
HETATM   10  C   UNL     1     -10.962  11.102  66.848  1.00  0.00    -0.333 A  
HETATM   11  C   UNL     1     -12.378  13.480  64.620  1.00  0.00    -0.372 C  
HETATM   12  C   UNL     1     -11.274  10.511  68.074  1.00  0.00    -0.361 A  
HETATM   13  C   UNL     1     -10.037  14.205  65.210  1.00  0.00    -0.364 C  
HETATM   14  O   UNL     1     -13.342  12.526  64.681  1.00  0.00    -0.804 OA 
HETATM   15  O   UNL     1     -12.581  14.551  64.068  1.00  0.00    -0.797 OA 
ENDBRANCH   4   5
TORSDOF 1
ENDMDL
MODEL        4
REMARK 921   NORMALIZED FREE ENERGY PREDICTED BY IDOCK:   -5.39 KCAL/MOL
REMARK 922        TOTAL FREE ENERGY PREDICTED BY IDOCK:   -6.03 KCAL/MOL
REMARK 923 INTER-LIGAND FREE ENERGY PREDICTED BY IDOCK:   -6.32 KCAL/MOL
REMARK 924 INTRA-LIGAND FREE ENERGY PREDICTED BY IDOCK:    0.29 KCAL/MOL
REMARK 927      BINDING AFFINITY PREDICTED BY RF-SCORE:    0.00 PKD
ROOT
HETATM    1  C   UNL     1     -13.599  13.877  71.753  1.00  0.00    -0.466 C  
HETATM    2  C   UNL     1     -13.256  15.370  71.725  1.00  0.00    -0.544 C  
HETATM    3  C   UNL     1     -13.449  15.959  73.124  1.00  0.00    -0.650 C  
HETATM    4  C   UNL     1     -11.817  15.634  71.224  1.00  0.00    -0.473 C  
ENDROOT
BRANCH   4   5
HETATM    5  C   UNL     1     -11.558  15.122  69.824  1.00  0.00    -0.338 A  
HETATM    6  C   UNL     1     -11.251  16.004  68.781  1.00  0.00    -0.360 A  
HETATM    7  C   UNL     1     -11.134  15.542  67.468  1.00  0.00    -0.305 A  
HETATM    8  C   UNL     1     -11.317  14.182  67.170  1.00  0.00    -0.348 A  
HETATM    9  C   UNL     1     -11.365  13.690  65.732  1.00  0.00    -0.315 C  
HETATM   10  C   UNL     1     -11.550  13.291  68.226  1.00  0.00    -0.369 A  
HETATM   11  C   UNL     1     -12.551  14.276  64.963  1.00  0.00    -0.347 C  
HETATM   12  C   UNL     1     -11.673  13.757  69.537  1.00  0.00    -0.380 A  
HETATM   13  C   UNL     1     -10.053  13.938  64.984  1.00  0.00    -0.319 C  
HETATM   14  O   UNL     1     -13.739  14.157  65.610  1.00  0.00    -0.291 OA 
HETATM   15  O   UNL     1     -12.486  14.764  63.844  1.00  0.00    -0.811 OA 
ENDBRANCH   4   5
TORSDOF 1
ENDMDL
MODEL        5
REMARK 921   NORMALIZED FREE ENERGY PREDICTED BY IDOCK:   -5.34 KCAL/MOL
REMARK 922        TOTAL FREE ENERGY PREDICTED BY IDOCK:   -5.97 KCAL/MOL
REMARK 923 INTER-LIGAND FREE ENERGY PREDICTED BY IDOCK:   -5.62 KCAL/MOL
REMARK 924 INTRA-LIGAND FREE ENERGY PREDICTED BY IDOCK:   -0.35 KCAL/MOL
REMARK 927      BINDING AFFINITY PREDICTED BY RF-SCORE:    0.00 PKD
ROOT
HETATM    1  C   UNL     1     -10.646  19.347  66.155  1.00  0.00    -0.571 C  
HETATM    2  C   UNL     1      -9.293  19.160  66.849  1.00  0.00    -0.363 C  
HETATM    3  C   UNL     1      -8.655  20.530  67.092  1.00  0.00    -0.364 C  
HETATM    4  C   UNL     1      -9.415  18.381  68.179  1.00  0.00    -0.327 C  
ENDROOT
BRANCH   4   5
HETATM    5  C   UNL     1      -9.994  16.992  68.017  1.00  0.00    -0.283 A  
HETATM    6  C   UNL     1      -9.439  16.083  67.109  1.00  0.00    -0.225 A  
HETATM    7  C   UNL     1     -10.048  14.848  66.873  1.00  0.00    -0.242 A  
HETATM    8  C   UNL     1     -11.228  14.494  67.547  1.00  0.00    -0.333 A  
HETATM    9  C   UNL     1     -11.998  13.235  67.179  1.00  0.00    -0.400 C  
HETATM   10  C   UNL     1     -11.739  15.374  68.511  1.00  0.00    -0.355 A  
HETATM   11  C   UNL     1     -12.535  13.287  65.747  1.00  0.00    -0.417 C  
HETATM   12  C   UNL     1     -11.131  16.610  68.739  1.00  0.00    -0.270 A  
HETATM   13  C   UNL     1     -11.181  11.961  67.409  1.00  0.00    -0.366 C  
HETATM   14  O   UNL     1     -13.205  14.431  65.453  1.00  0.00    -0.607 OA 
HETATM   15  O   UNL     1     -12.439  12.382  64.932  1.00  0.00    -0.497 OA 
ENDBRANCH   4   5
TORSDOF 1
ENDMDL
MODEL        6
REMARK 921   NORMALIZED FREE ENERGY PREDICTED BY IDOCK:   -5.29 KCAL/MOL
REMARK 922        TOTAL FREE ENERGY PREDICTED BY IDOCK:   -5.92 KCAL/MOL
REMARK 923 INTER-LIGAND FREE ENERGY PREDICTED BY IDOCK:   -6.24 KCAL/MOL
REMARK 924 INTRA-LIGAND FREE ENERGY PREDICTED BY IDOCK:    0.32 KCAL/MOL
REMARK 927      BINDING AFFINITY PREDICTED BY RF-SCORE:    0.00 PKD
ROOT
HETATM    1  C   UNL     1     -12.618  12.849  71.197  1.00  0.00    -0.373 C  
HETATM    2  C   UNL     1     -12.079  11.490  70.738  1.00  0.00    -0.410 C  
HETATM    3  C   UNL     1     -12.703  10.384  71.592  1.00  0.00    -0.560 C  
HETATM    4  C   UNL     1     -12.346  11.226  69.238  1.00  0.00    -0.172 C  
ENDROOT
BRANCH   4   5
HETATM    5  C   UNL     1     -11.718  12.253  68.321  1.00  0.00    -0.392 A  
HETATM    6  C   UNL     1     -12.066  13.606  68.411  1.00  0.00    -0.312 A  
HETATM    7  C   UNL     1     -11.578  14.531  67.485  1.00  0.00    -0.403 A  
HETATM    8  C   UNL     1     -10.724  14.121  66.448  1.00  0.00    -0.288 A  
HETATM    9  C   UNL     1     -10.323  15.076  65.334  1.00  0.00    -0.410 C  
HETATM   10  C   UNL     1     -10.318  12.780  66.406  1.00  0.00    -0.271 A  
HETATM   11  C   UNL     1     -11.526  15.527  64.503  1.00  0.00    -0.308 C  
HETATM   12  C   UNL     1     -10.813  11.857  67.329  1.00  0.00    -0.294 A  
HETATM   13  C   UNL     1      -9.534  16.280  65.851  1.00  0.00    -0.318 C  
HETATM   14  O   UNL     1     -12.314  14.507  64.078  1.00  0.00    -0.697 OA 
HETATM   15  O   UNL     1     -11.760  16.684  64.184  1.00  0.00    -1.034 OA 
ENDBRANCH   4   5
TORSDOF 1
ENDMDL
MODEL        7
REMARK 921   NORMALIZED FREE ENERGY PREDICTED BY IDOCK:   -5.26 KCAL/MOL
REMARK 922        TOTAL FREE ENERGY PREDICTED BY IDOCK:   -5.89 KCAL/MOL
REMARK 923 INTER-LIGAND FREE ENERGY PREDICTED BY IDOCK:   -5.62 KCAL/MOL
REMARK 924 INTRA-LIGAND FREE ENERGY PREDICTED BY IDOCK:   -0.27 KCAL/MOL
REMARK 927      BINDING AFFINITY PREDICTED BY RF-SCORE:    0.00 PKD
ROOT
HETATM    1  C   UNL     1     -10.649  11.857  64.769  1.00  0.00    -0.346 C  
HETATM    2  C   UNL     1     -11.736  12.737  64.144  1.00  0.00    -0.465 C  
HETATM    3  C   UNL     1     -12.781  11.846  63.468  1.00  0.00    -0.530 C  
HETATM    4  C   UNL     1     -12.411  13.666  65.180  1.00  0.00    -0.488 C  
ENDROOT
BRANCH   4   5
HETATM    5  C   UNL     1     -11.449  14.615  65.861  1.00  0.00    -0.338 A  
HETATM    6  C   UNL     1     -11.486  14.805  67.247  1.00  0.00    -0.378 A  
HETATM    7  C   UNL     1     -10.681  15.771  67.856  1.00  0.00    -0.302 A  
HETATM    8  C   UNL     1      -9.815  16.566  67.088  1.00  0.00    -0.255 A  
HETATM    9  C   UNL     1      -9.062  17.734  67.706  1.00  0.00    -0.249 C  
HETATM   10  C   UNL     1      -9.725  16.322  65.711  1.00  0.00    -0.299 A  
HETATM   11  C   UNL     1     -10.009  18.820  68.221  1.00  0.00    -0.385 C  
HETATM   12  C   UNL     1     -10.536  15.360  65.104  1.00  0.00    -0.458 A  
HETATM   13  C   UNL     1      -8.092  17.290  68.803  1.00  0.00    -0.242 C  
HETATM   14  O   UNL     1     -10.947  19.204  67.318  1.00  0.00    -0.478 OA 
HETATM   15  O   UNL     1      -9.926  19.357  69.316  1.00  0.00    -0.404 OA 
ENDBRANCH   4   5
TORSDOF 1
ENDMDL
MODEL        8
REMARK 921   NORMALIZED FREE ENERGY PREDICTED BY IDOCK:   -5.17 KCAL/MOL
REMARK 922        TOTAL FREE ENERGY PREDICTED BY IDOCK:   -5.79 KCAL/MOL
REMARK 923 INTER-LIGAND FREE ENERGY PREDICTED BY IDOCK:   -5.63 KCAL/MOL
REMARK 924 INTRA-LIGAND FREE ENERGY PREDICTED BY IDOCK:   -0.16 KCAL/MOL
REMARK 927      BINDING AFFINITY PREDICTED BY RF-SCORE:    0.00 PKD
ROOT
HETATM    1  C   UNL     1     -13.376   9.383  71.342  1.00  0.00    -0.417 C  
HETATM    2  C   UNL     1     -11.872   9.478  71.621  1.00  0.00    -0.468 C  
HETATM    3  C   UNL     1     -11.458   8.334  72.550  1.00  0.00    -0.454 C  
HETATM    4  C   UNL     1     -11.029   9.450  70.325  1.00  0.00    -0.305 C  
ENDROOT
BRANCH   4   5
HETATM    5  C   UNL     1     -11.346  10.581  69.371  1.00  0.00    -0.331 A  
HETATM    6  C   UNL     1     -11.281  10.393  67.986  1.00  0.00    -0.340 A  
HETATM    7  C   UNL     1     -11.455  11.469  67.111  1.00  0.00    -0.313 A  
HETATM    8  C   UNL     1     -11.704  12.759  67.607  1.00  0.00    -0.422 A  
HETATM    9  C   UNL     1     -11.724  13.968  66.683  1.00  0.00    -0.420 C  
HETATM   10  C   UNL     1     -11.844  12.930  68.991  1.00  0.00    -0.352 A  
HETATM   11  C   UNL     1     -10.364  14.211  66.026  1.00  0.00    -0.309 C  
HETATM   12  C   UNL     1     -11.662  11.854  69.862  1.00  0.00    -0.383 A  
HETATM   13  C   UNL     1     -12.831  13.882  65.632  1.00  0.00    -0.467 C  
HETATM   14  O   UNL     1      -9.324  14.220  66.899  1.00  0.00    -0.235 OA 
HETATM   15  O   UNL     1     -10.193  14.435  64.837  1.00  0.00    -0.417 OA 
ENDBRANCH   4   5
TORSDOF 1
ENDMDL
MODEL        9
REMARK 921   NORMALIZED FREE ENERGY PREDICTED BY IDOCK:   -5.15 KCAL/MOL
REMARK 922        TOTAL FREE ENERGY PREDICTED BY IDOCK:   -5.77 KCAL/MOL
REMARK 923 INTER-LIGAND FREE ENERGY PREDICTED BY IDOCK:   -5.47 KCAL/MOL
REMARK 924 INTRA-LIGAND FREE ENERGY PREDICTED BY IDOCK:   -0.31 KCAL/MOL
REMARK 927      BINDING AFFINITY PREDICTED BY RF-SCORE:    0.00 PKD
ROOT
HETATM    1  C   UNL     1      -9.100   9.633  70.097  1.00  0.00    -0.280 C  
HETATM    2  C   UNL     1      -9.343   8.447  69.157  1.00  0.00    -0.151 C  
HETATM    3  C   UNL     1      -9.488   7.168  69.985  1.00  0.00    -0.164 C  
HETATM    4  C   UNL     1     -10.586   8.651  68.261  1.00  0.00    -0.181 C  
ENDROOT
BRANCH   4   5
HETATM    5  C   UNL     1     -10.499   9.874  67.373  1.00  0.00    -0.325 A  
HETATM    6  C   UNL     1     -11.334  10.977  67.585  1.00  0.00    -0.355 A  
HETATM    7  C   UNL     1     -11.336  12.052  66.692  1.00  0.00    -0.399 A  
HETATM    8  C   UNL     1     -10.496  12.047  65.567  1.00  0.00    -0.307 A  
HETATM    9  C   UNL     1     -10.608  13.121  64.495  1.00  0.00    -0.425 C  
HETATM   10  C   UNL     1      -9.608  10.976  65.399  1.00  0.00    -0.267 A  
HETATM   11  C   UNL     1     -11.967  13.093  63.793  1.00  0.00    -0.508 C  
HETATM   12  C   UNL     1      -9.613   9.901  66.289  1.00  0.00    -0.265 A  
HETATM   13  C   UNL     1     -10.301  14.519  65.035  1.00  0.00    -0.442 C  
HETATM   14  O   UNL     1     -12.335  11.861  63.358  1.00  0.00    -0.557 OA 
HETATM   15  O   UNL     1     -12.660  14.075  63.575  1.00  0.00    -0.842 OA 
ENDBRANCH   4   5
TORSDOF 1
ENDMDL
MODEL       10
REMARK 921   NORMALIZED FREE ENERGY PREDICTED BY IDOCK:   -5.11 KCAL/MOL
REMARK 922        TOTAL FREE ENERGY PREDICTED BY IDOCK:   -5.73 KCAL/MOL
REMARK 923 INTER-LIGAND FREE ENERGY PREDICTED BY IDOCK:   -5.50 KCAL/MOL
REMARK 924 INTRA-LIGAND FREE ENERGY PREDICTED BY IDOCK:   -0.23 KCAL/MOL
REMARK 927      BINDING AFFINITY PREDICTED BY RF-SCORE:    0.00 PKD
ROOT
HETATM    1  C   UNL     1     -10.543  13.876  68.848  1.00  0.00    -0.228 C  
HETATM    2  C   UNL     1     -11.821  13.370  68.171  1.00  0.00    -0.396 C  
HETATM    3  C   UNL     1     -12.071  14.180  66.897  1.00  0.00    -0.466 C  
HETATM    4  C   UNL     1     -11.757  11.860  67.844  1.00  0.00    -0.368 C  
ENDROOT
BRANCH   4   5
HETATM    5  C   UNL     1     -11.559  10.984  69.063  1.00  0.00    -0.392 A  
HETATM    6  C   UNL     1     -10.696   9.883  69.023  1.00  0.00    -0.244 A  
HETATM    7  C   UNL     1     -10.609   9.007  70.109  1.00  0.00    -0.250 A  
HETATM    8  C   UNL     1     -11.381   9.219  71.262  1.00  0.00    -0.423 A  
HETATM    9  C   UNL     1     -11.429   8.187  72.379  1.00  0.00    -0.462 C  
HETATM   10  C   UNL     1     -12.186  10.365  71.327  1.00  0.00    -0.491 A  
HETATM   11  C   UNL     1     -12.036   6.863  71.912  1.00  0.00    -0.333 C  
HETATM   12  C   UNL     1     -12.276  11.234  70.239  1.00  0.00    -0.428 A  
HETATM   13  C   UNL     1     -10.061   7.963  73.027  1.00  0.00    -0.384 C  
HETATM   14  O   UNL     1     -13.217   7.000  71.257  1.00  0.00    -0.358 OA 
HETATM   15  O   UNL     1     -11.561   5.760  72.136  1.00  0.00    -0.276 OA 
ENDBRANCH   4   5
TORSDOF 1
ENDMDL
MODEL       11
REMARK 921   NORMALIZED FREE ENERGY PREDICTED BY IDOCK:   -5.11 KCAL/MOL
REMARK 922        TOTAL FREE ENERGY PREDICTED BY IDOCK:   -5.72 KCAL/MOL
REMARK 923 INTER-LIGAND FREE ENERGY PREDICTED BY IDOCK:   -5.43 KCAL/MOL
REMARK 924 INTRA-LIGAND FREE ENERGY PREDICTED BY IDOCK:   -0.29 KCAL/MOL
REMARK 927      BINDING AFFINITY PREDICTED BY RF-SCORE:    0.00 PKD
ROOT
HETATM    1  C   UNL     1     -13.373  15.439  71.086  1.00  0.00    -0.580 C  
HETATM    2  C   UNL     1     -12.531  14.173  71.277  1.00  0.00    -0.446 C  
HETATM    3  C   UNL     1     -13.320  13.163  72.112  1.00  0.00    -0.621 C  
HETATM    4  C   UNL     1     -12.104  13.541  69.932  1.00  0.00    -0.408 C  
ENDROOT
BRANCH   4   5
HETATM    5  C   UNL     1     -11.275  14.464  69.065  1.00  0.00    -0.288 A  
HETATM    6  C   UNL     1     -10.237  15.225  69.613  1.00  0.00    -0.253 A  
HETATM    7  C   UNL     1      -9.555  16.166  68.836  1.00  0.00    -0.245 A  
HETATM    8  C   UNL     1      -9.895  16.360  67.488  1.00  0.00    -0.239 A  
HETATM    9  C   UNL     1      -9.286  17.493  66.677  1.00  0.00    -0.277 C  
HETATM   10  C   UNL     1     -10.883  15.542  66.922  1.00  0.00    -0.301 A  
HETATM   11  C   UNL     1      -9.668  18.867  67.231  1.00  0.00    -0.311 C  
HETATM   12  C   UNL     1     -11.568  14.609  67.703  1.00  0.00    -0.383 A  
HETATM   13  C   UNL     1      -7.768  17.363  66.538  1.00  0.00    -0.319 C  
HETATM   14  O   UNL     1     -10.999  19.020  67.451  1.00  0.00    -0.459 OA 
HETATM   15  O   UNL     1      -8.885  19.786  67.419  1.00  0.00    -0.305 OA 
ENDBRANCH   4   5
TORSDOF 1
ENDMDL
MODEL       12
REMARK 921   NORMALIZED FREE ENERGY PREDICTED BY IDOCK:   -5.08 KCAL/MOL
REMARK 922        TOTAL FREE ENERGY PREDICTED BY IDOCK:   -5.69 KCAL/MOL
REMARK 923 INTER-LIGAND FREE ENERGY PREDICTED BY IDOCK:   -5.36 KCAL/MOL
REMARK 924 INTRA-LIGAND FREE ENERGY PREDICTED BY IDOCK:   -0.33 KCAL/MOL
REMARK 927      BINDING AFFINITY PREDICTED BY RF-SCORE:    0.00 PKD
ROOT
HETATM    1  C   UNL     1     -12.097  12.919  65.886  1.00  0.00    -0.503 C  
HETATM    2  C   UNL     1     -11.341  12.607  67.182  1.00  0.00    -0.373 C  
HETATM    3  C   UNL     1     -11.150  11.093  67.303  1.00  0.00    -0.366 C  
HETATM    4  C   UNL     1      -9.976  13.329  67.256  1.00  0.00    -0.231 C  
ENDROOT
BRANCH   4   5
HETATM    5  C   UNL     1     -10.083  14.837  67.191  1.00  0.00    -0.240 A  
HETATM    6  C   UNL     1      -9.407  15.563  66.205  1.00  0.00    -0.380 A  
HETATM    7  C   UNL     1      -9.409  16.961  66.221  1.00  0.00    -0.292 A  
HETATM    8  C   UNL     1     -10.096  17.662  67.225  1.00  0.00    -0.331 A  
HETATM    9  C   UNL     1      -9.968  19.172  67.360  1.00  0.00    -0.432 C  
HETATM   10  C   UNL     1     -10.834  16.932  68.167  1.00  0.00    -0.351 A  
HETATM   11  C   UNL     1      -8.537  19.600  67.690  1.00  0.00    -0.320 C  
HETATM   12  C   UNL     1     -10.824  15.536  68.152  1.00  0.00    -0.296 A  
HETATM   13  C   UNL     1     -10.491  19.915  66.129  1.00  0.00    -0.581 C  
HETATM   14  O   UNL     1      -7.984  18.920  68.727  1.00  0.00    -0.334 OA 
HETATM   15  O   UNL     1      -7.932  20.504  67.131  1.00  0.00    -0.333 OA 
ENDBRANCH   4   5
TORSDOF 1
ENDMDL
MODEL       13
REMARK 921   NORMALIZED FREE ENERGY PREDICTED BY IDOCK:   -5.03 KCAL/MOL
REMARK 922        TOTAL FREE ENERGY PREDICTED BY IDOCK:   -5.65 KCAL/MOL
REMARK 923 INTER-LIGAND FREE ENERGY PREDICTED BY IDOCK:   -5.31 KCAL/MOL
REMARK 924 INTRA-LIGAND FREE ENERGY PREDICTED BY IDOCK:   -0.34 KCAL/MOL
REMARK 927      BINDING AFFINITY PREDICTED BY RF-SCORE:    0.00 PKD
ROOT
HETATM    1  C   UNL     1      -9.712  12.106  65.757  1.00  0.00    -0.245 C  
HETATM    2  C   UNL     1     -10.472  12.676  64.555  1.00  0.00    -0.379 C  
HETATM    3  C   UNL     1     -10.893  11.528  63.634  1.00  0.00    -0.488 C  
HETATM    4  C   UNL     1     -11.706  13.507  64.977  1.00  0.00    -0.354 C  
ENDROOT
BRANCH   4   5
HETATM    5  C   UNL     1     -11.366  14.693  65.854  1.00  0.00    -0.338 A  
HETATM    6  C   UNL     1     -10.659  15.786  65.341  1.00  0.00    -0.441 A  
HETATM    7  C   UNL     1     -10.241  16.822  66.181  1.00  0.00    -0.363 A  
HETATM    8  C   UNL     1     -10.529  16.788  67.555  1.00  0.00    -0.319 A  
HETATM    9  C   UNL     1      -9.937  17.814  68.510  1.00  0.00    -0.370 C  
HETATM   10  C   UNL     1     -11.303  15.729  68.051  1.00  0.00    -0.310 A  
HETATM   11  C   UNL     1      -8.411  17.728  68.572  1.00  0.00    -0.296 C  
HETATM   12  C   UNL     1     -11.712  14.692  67.211  1.00  0.00    -0.406 A  
HETATM   13  C   UNL     1     -10.392  19.239  68.191  1.00  0.00    -0.496 C  
HETATM   14  O   UNL     1      -7.939  16.471  68.775  1.00  0.00    -0.213 OA 
HETATM   15  O   UNL     1      -7.654  18.685  68.505  1.00  0.00    -0.292 OA 
ENDBRANCH   4   5
TORSDOF 1
ENDMDL
MODEL       14
REMARK 921   NORMALIZED FREE ENERGY PREDICTED BY IDOCK:   -5.01 KCAL/MOL
REMARK 922        TOTAL FREE ENERGY PREDICTED BY IDOCK:   -5.62 KCAL/MOL
REMARK 923 INTER-LIGAND FREE ENERGY PREDICTED BY IDOCK:   -6.06 KCAL/MOL
REMARK 924 INTRA-LIGAND FREE ENERGY PREDICTED BY IDOCK:    0.44 KCAL/MOL
REMARK 927      BINDING AFFINITY PREDICTED BY RF-SCORE:    0.00 PKD
ROOT
HETATM    1  C   UNL     1     -12.440  11.557  70.932  1.00  0.00    -0.464 C  
HETATM    2  C   UNL     1     -11.450  10.409  70.710  1.00  0.00    -0.422 C  
HETATM    3  C   UNL     1     -11.712   9.309  71.743  1.00  0.00    -0.456 C  
HETATM    4  C   UNL     1     -11.528   9.831  69.278  1.00  0.00     0.023 C  
ENDROOT
BRANCH   4   5
HETATM    5  C   UNL     1     -11.232  10.848  68.197  1.00  0.00    -0.363 A  
HETATM    6  C   UNL     1     -11.881  12.088  68.181  1.00  0.00    -0.352 A  
HETATM    7  C   UNL     1     -11.697  12.974  67.116  1.00  0.00    -0.439 A  
HETATM    8  C   UNL     1     -10.853  12.639  66.045  1.00  0.00    -0.306 A  
HETATM    9  C   UNL     1     -10.775  13.510  64.801  1.00  0.00    -0.412 C  
HETATM   10  C   UNL     1     -10.147  11.430  66.102  1.00  0.00    -0.271 A  
HETATM   11  C   UNL     1     -12.111  13.570  64.057  1.00  0.00    -0.441 C  
HETATM   12  C   UNL     1     -10.338  10.543  67.164  1.00  0.00    -0.285 A  
HETATM   13  C   UNL     1     -10.254  14.917  65.103  1.00  0.00    -0.409 C  
HETATM   14  O   UNL     1     -12.666  12.354  63.826  1.00  0.00    -0.693 OA 
HETATM   15  O   UNL     1     -12.634  14.595  63.643  1.00  0.00    -0.773 OA 
ENDBRANCH   4   5
TORSDOF 1
ENDMDL
MODEL       15
REMARK 921   NORMALIZED FREE ENERGY PREDICTED BY IDOCK:   -4.99 KCAL/MOL
REMARK 922        TOTAL FREE ENERGY PREDICTED BY IDOCK:   -5.60 KCAL/MOL
REMARK 923 INTER-LIGAND FREE ENERGY PREDICTED BY IDOCK:   -5.27 KCAL/MOL
REMARK 924 INTRA-LIGAND FREE ENERGY PREDICTED BY IDOCK:   -0.33 KCAL/MOL
REMARK 927      BINDING AFFINITY PREDICTED BY RF-SCORE:    0.00 PKD
ROOT
HETATM    1  C   UNL     1     -10.169  19.755  66.195  1.00  0.00    -0.618 C  
HETATM    2  C   UNL     1      -8.819  19.328  66.781  1.00  0.00    -0.344 C  
HETATM    3  C   UNL     1      -8.122  20.549  67.386  1.00  0.00    -0.345 C  
HETATM    4  C   UNL     1      -8.963  18.211  67.841  1.00  0.00    -0.273 C  
ENDROOT
BRANCH   4   5
HETATM    5  C   UNL     1      -9.602  16.947  67.306  1.00  0.00    -0.246 A  
HETATM    6  C   UNL     1     -10.836  16.504  67.795  1.00  0.00    -0.304 A  
HETATM    7  C   UNL     1     -11.364  15.275  67.389  1.00  0.00    -0.285 A  
HETATM    8  C   UNL     1     -10.668  14.465  66.478  1.00  0.00    -0.306 A  
HETATM    9  C   UNL     1     -11.140  13.055  66.157  1.00  0.00    -0.311 C  
HETATM   10  C   UNL     1      -9.470  14.947  65.933  1.00  0.00    -0.290 A  
HETATM   11  C   UNL     1     -11.098  12.143  67.385  1.00  0.00    -0.276 C  
HETATM   12  C   UNL     1      -8.942  16.171  66.346  1.00  0.00    -0.353 A  
HETATM   13  C   UNL     1     -12.525  13.035  65.508  1.00  0.00    -0.496 C  
HETATM   14  O   UNL     1      -9.918  12.175  68.054  1.00  0.00    -0.191 OA 
HETATM   15  O   UNL     1     -12.003  11.398  67.732  1.00  0.00    -0.637 OA 
ENDBRANCH   4   5
TORSDOF 1
ENDMDL
MODEL       16
REMARK 921   NORMALIZED FREE ENERGY PREDICTED BY IDOCK:   -4.91 KCAL/MOL
REMARK 922        TOTAL FREE ENERGY PREDICTED BY IDOCK:   -5.52 KCAL/MOL
REMARK 923 INTER-LIGAND FREE ENERGY PREDICTED BY IDOCK:   -5.15 KCAL/MOL
REMARK 924 INTRA-LIGAND FREE ENERGY PREDICTED BY IDOCK:   -0.37 KCAL/MOL
REMARK 927      BINDING AFFINITY PREDICTED BY RF-SCORE:    0.00 PKD
ROOT
HETATM    1  C   UNL     1      -7.539  20.446  66.627  1.00  0.00    -0.291 C  
HETATM    2  C   UNL     1      -6.700  19.848  67.761  1.00  0.00    -0.280 C  
HETATM    3  C   UNL     1      -5.749  20.917  68.303  1.00  0.00    -0.385 C  
HETATM    4  C   UNL     1      -7.573  19.277  68.903  1.00  0.00    -0.384 C  
ENDROOT
BRANCH   4   5
HETATM    5  C   UNL     1      -8.511  18.176  68.456  1.00  0.00    -0.312 A  
HETATM    6  C   UNL     1      -8.018  17.013  67.854  1.00  0.00    -0.192 A  
HETATM    7  C   UNL     1      -8.892  16.055  67.333  1.00  0.00    -0.197 A  
HETATM    8  C   UNL     1     -10.282  16.240  67.408  1.00  0.00    -0.275 A  
HETATM    9  C   UNL     1     -11.242  15.298  66.697  1.00  0.00    -0.232 C  
HETATM   10  C   UNL     1     -10.772  17.370  68.078  1.00  0.00    -0.359 A  
HETATM   11  C   UNL     1     -11.067  15.339  65.178  1.00  0.00    -0.404 C  
HETATM   12  C   UNL     1      -9.896  18.328  68.592  1.00  0.00    -0.400 A  
HETATM   13  C   UNL     1     -11.149  13.864  67.220  1.00  0.00    -0.312 C  
HETATM   14  O   UNL     1     -11.062  16.593  64.658  1.00  0.00    -0.763 OA 
HETATM   15  O   UNL     1     -10.991  14.354  64.458  1.00  0.00    -0.363 OA 
ENDBRANCH   4   5
TORSDOF 1
ENDMDL
MODEL       17
REMARK 921   NORMALIZED FREE ENERGY PREDICTED BY IDOCK:   -4.88 KCAL/MOL
REMARK 922        TOTAL FREE ENERGY PREDICTED BY IDOCK:   -5.48 KCAL/MOL
REMARK 923 INTER-LIGAND FREE ENERGY PREDICTED BY IDOCK:   -5.12 KCAL/MOL
REMARK 924 INTRA-LIGAND FREE ENERGY PREDICTED BY IDOCK:   -0.36 KCAL/MOL
REMARK 927      BINDING AFFINITY PREDICTED BY RF-SCORE:    0.00 PKD
ROOT
HETATM    1  C   UNL     1      -9.256  12.474  67.810  1.00  0.00    -0.198 C  
HETATM    2  C   UNL     1     -10.580  12.276  67.064  1.00  0.00    -0.248 C  
HETATM    3  C   UNL     1     -11.052  10.832  67.249  1.00  0.00    -0.339 C  
HETATM    4  C   UNL     1     -11.674  13.263  67.533  1.00  0.00    -0.410 C  
ENDROOT
BRANCH   4   5
HETATM    5  C   UNL     1     -11.302  14.717  67.339  1.00  0.00    -0.361 A  
HETATM    6  C   UNL     1     -10.933  15.202  66.079  1.00  0.00    -0.332 A  
HETATM    7  C   UNL     1     -10.473  16.513  65.927  1.00  0.00    -0.335 A  
HETATM    8  C   UNL     1     -10.378  17.370  67.035  1.00  0.00    -0.318 A  
HETATM    9  C   UNL     1      -9.720  18.737  66.920  1.00  0.00    -0.344 C  
HETATM   10  C   UNL     1     -10.820  16.905  68.281  1.00  0.00    -0.357 A  
HETATM   11  C   UNL     1      -8.238  18.632  66.558  1.00  0.00    -0.286 C  
HETATM   12  C   UNL     1     -11.272  15.592  68.431  1.00  0.00    -0.352 A  
HETATM   13  C   UNL     1     -10.457  19.660  65.948  1.00  0.00    -0.591 C  
HETATM   14  O   UNL     1      -7.541  17.765  67.336  1.00  0.00    -0.196 OA 
HETATM   15  O   UNL     1      -7.683  19.292  65.691  1.00  0.00    -0.450 OA 
ENDBRANCH   4   5
TORSDOF 1
ENDMDL
MODEL       18
REMARK 921   NORMALIZED FREE ENERGY PREDICTED BY IDOCK:   -4.87 KCAL/MOL
REMARK 922        TOTAL FREE ENERGY PREDICTED BY IDOCK:   -5.48 KCAL/MOL
REMARK 923 INTER-LIGAND FREE ENERGY PREDICTED BY IDOCK:   -5.14 KCAL/MOL
REMARK 924 INTRA-LIGAND FREE ENERGY PREDICTED BY IDOCK:   -0.33 KCAL/MOL
REMARK 927      BINDING AFFINITY PREDICTED BY RF-SCORE:    0.00 PKD
ROOT
HETATM    1  C   UNL     1      -9.410  13.801  67.832  1.00  0.00    -0.211 C  
HETATM    2  C   UNL     1     -10.894  14.142  67.665  1.00  0.00    -0.266 C  
HETATM    3  C   UNL     1     -11.068  15.061  66.454  1.00  0.00    -0.329 C  
HETATM    4  C   UNL     1     -11.776  12.881  67.514  1.00  0.00    -0.422 C  
ENDROOT
BRANCH   4   5
HETATM    5  C   UNL     1     -11.697  11.940  68.697  1.00  0.00    -0.380 A  
HETATM    6  C   UNL     1     -11.241  10.626  68.541  1.00  0.00    -0.342 A  
HETATM    7  C   UNL     1     -11.284   9.725  69.608  1.00  0.00    -0.216 A  
HETATM    8  C   UNL     1     -11.781  10.124  70.860  1.00  0.00    -0.468 A  
HETATM    9  C   UNL     1     -11.996   9.117  71.979  1.00  0.00    -0.421 C  
HETATM   10  C   UNL     1     -12.165  11.461  71.033  1.00  0.00    -0.391 A  
HETATM   11  C   UNL     1     -13.049   8.069  71.614  1.00  0.00    -0.329 C  
HETATM   12  C   UNL     1     -12.128  12.356  69.962  1.00  0.00    -0.335 A  
HETATM   13  C   UNL     1     -10.693   8.450  72.424  1.00  0.00    -0.405 C  
HETATM   14  O   UNL     1     -14.206   8.595  71.136  1.00  0.00    -0.265 OA 
HETATM   15  O   UNL     1     -12.921   6.864  71.776  1.00  0.00    -0.363 OA 
ENDBRANCH   4   5
TORSDOF 1
ENDMDL
MODEL       19
REMARK 921   NORMALIZED FREE ENERGY PREDICTED BY IDOCK:   -4.86 KCAL/MOL
REMARK 922        TOTAL FREE ENERGY PREDICTED BY IDOCK:   -5.46 KCAL/MOL
REMARK 923 INTER-LIGAND FREE ENERGY PREDICTED BY IDOCK:   -5.15 KCAL/MOL
REMARK 924 INTRA-LIGAND FREE ENERGY PREDICTED BY IDOCK:   -0.32 KCAL/MOL
REMARK 927      BINDING AFFINITY PREDICTED BY RF-SCORE:    0.00 PKD
ROOT
HETATM    1  C   UNL     1     -11.690  11.124  68.612  1.00  0.00    -0.389 C  
HETATM    2  C   UNL     1     -11.667  11.941  69.908  1.00  0.00    -0.383 C  
HETATM    3  C   UNL     1     -11.983  13.404  69.590  1.00  0.00    -0.386 C  
HETATM    4  C   UNL     1     -12.656  11.396  70.966  1.00  0.00    -0.487 C  
ENDROOT
BRANCH   4   5
HETATM    5  C   UNL     1     -12.380   9.964  71.372  1.00  0.00    -0.498 A  
HETATM    6  C   UNL     1     -11.085   9.547  71.699  1.00  0.00    -0.336 A  
HETATM    7  C   UNL     1     -10.814   8.200  71.954  1.00  0.00    -0.333 A  
HETATM    8  C   UNL     1     -11.837   7.241  71.893  1.00  0.00    -0.333 A  
HETATM    9  C   UNL     1     -11.531   5.754  71.996  1.00  0.00    -0.260 C  
HETATM   10  C   UNL     1     -13.146   7.674  71.639  1.00  0.00    -0.392 A  
HETATM   11  C   UNL     1     -10.660   5.265  70.838  1.00  0.00    -0.177 C  
HETATM   12  C   UNL     1     -13.413   9.019  71.377  1.00  0.00    -0.331 A  
HETATM   13  C   UNL     1     -10.912   5.377  73.343  1.00  0.00    -0.349 C  
HETATM   14  O   UNL     1     -11.115   5.635  69.613  1.00  0.00    -0.328 OA 
HETATM   15  O   UNL     1      -9.670   4.558  70.959  1.00  0.00    -0.164 OA 
ENDBRANCH   4   5
TORSDOF 1
ENDMDL
MODEL       20
REMARK 921   NORMALIZED FREE ENERGY PREDICTED BY IDOCK:   -4.82 KCAL/MOL
REMARK 922        TOTAL FREE ENERGY PREDICTED BY IDOCK:   -5.42 KCAL/MOL
REMARK 923 INTER-LIGAND FREE ENERGY PREDICTED BY IDOCK:   -5.23 KCAL/MOL
REMARK 924 INTRA-LIGAND FREE ENERGY PREDICTED BY IDOCK:   -0.19 KCAL/MOL
REMARK 927      BINDING AFFINITY PREDICTED BY RF-SCORE:    0.00 PKD
ROOT
HETATM    1  C   UNL     1     -12.407  14.517  64.205  1.00  0.00    -0.396 C  
HETATM    2  C   UNL     1     -12.112  13.528  65.337  1.00  0.00    -0.447 C  
HETATM    3  C   UNL     1     -12.234  12.098  64.803  1.00  0.00    -0.341 C  
HETATM    4  C   UNL     1     -10.717  13.750  65.966  1.00  0.00    -0.284 C  
ENDROOT
BRANCH   4   5
HETATM    5  C   UNL     1     -10.534  15.129  66.562  1.00  0.00    -0.292 A  
HETATM    6  C   UNL     1      -9.889  16.142  65.843  1.00  0.00    -0.384 A  
HETATM    7  C   UNL     1      -9.613  17.375  66.441  1.00  0.00    -0.291 A  
HETATM    8  C   UNL     1      -9.983  17.621  67.773  1.00  0.00    -0.315 A  
HETATM    9  C   UNL     1      -9.540  18.886  68.492  1.00  0.00    -0.432 C  
HETATM   10  C   UNL     1     -10.695  16.632  68.464  1.00  0.00    -0.351 A  
HETATM   11  C   UNL     1      -8.019  18.962  68.637  1.00  0.00    -0.346 C  
HETATM   12  C   UNL     1     -10.963  15.399  67.867  1.00  0.00    -0.310 A  
HETATM   13  C   UNL     1     -10.090  20.155  67.837  1.00  0.00    -0.533 C  
HETATM   14  O   UNL     1      -7.457  17.834  69.141  1.00  0.00    -0.206 OA 
HETATM   15  O   UNL     1      -7.342  19.949  68.385  1.00  0.00    -0.302 OA 
ENDBRANCH   4   5
TORSDOF 1
ENDMDL
MODEL       21
REMARK 921   NORMALIZED FREE ENERGY PREDICTED BY IDOCK:   -4.82 KCAL/MOL
REMARK 922        TOTAL FREE ENERGY PREDICTED BY IDOCK:   -5.42 KCAL/MOL
REMARK 923 INTER-LIGAND FREE ENERGY PREDICTED BY IDOCK:   -5.19 KCAL/MOL
REMARK 924 INTRA-LIGAND FREE ENERGY PREDICTED BY IDOCK:   -0.23 KCAL/MOL
REMARK 927      BINDING AFFINITY PREDICTED BY RF-SCORE:    0.00 PKD
ROOT
HETATM    1  C   UNL     1      -7.548   8.013  67.186  1.00  0.00    -0.097 C  
HETATM    2  C   UNL     1      -8.732   7.288  66.537  1.00  0.00    -0.141 C  
HETATM    3  C   UNL     1      -8.782   5.846  67.047  1.00  0.00    -0.109 C  
HETATM    4  C   UNL     1     -10.078   7.999  66.805  1.00  0.00    -0.357 C  
ENDROOT
BRANCH   4   5
HETATM    5  C   UNL     1     -10.127   9.420  66.285  1.00  0.00    -0.328 A  
HETATM    6  C   UNL     1     -10.729  10.438  67.032  1.00  0.00    -0.298 A  
HETATM    7  C   UNL     1     -10.880  11.721  66.497  1.00  0.00    -0.323 A  
HETATM    8  C   UNL     1     -10.425  12.013  65.201  1.00  0.00    -0.328 A  
HETATM    9  C   UNL     1     -10.734  13.347  64.540  1.00  0.00    -0.434 C  
HETATM   10  C   UNL     1      -9.755  11.011  64.485  1.00  0.00    -0.323 A  
HETATM   11  C   UNL     1     -12.236  13.550  64.329  1.00  0.00    -0.396 C  
HETATM   12  C   UNL     1      -9.612   9.729  65.020  1.00  0.00    -0.333 A  
HETATM   13  C   UNL     1     -10.124  14.529  65.295  1.00  0.00    -0.389 C  
HETATM   14  O   UNL     1     -12.854  12.499  63.732  1.00  0.00    -0.721 OA 
HETATM   15  O   UNL     1     -12.849  14.570  64.608  1.00  0.00    -0.614 OA 
ENDBRANCH   4   5
TORSDOF 1
ENDMDL
MODEL       22
REMARK 921   NORMALIZED FREE ENERGY PREDICTED BY IDOCK:   -4.79 KCAL/MOL
REMARK 922        TOTAL FREE ENERGY PREDICTED BY IDOCK:   -5.39 KCAL/MOL
REMARK 923 INTER-LIGAND FREE ENERGY PREDICTED BY IDOCK:   -5.06 KCAL/MOL
REMARK 924 INTRA-LIGAND FREE ENERGY PREDICTED BY IDOCK:   -0.33 KCAL/MOL
REMARK 927      BINDING AFFINITY PREDICTED BY RF-SCORE:    0.00 PKD
ROOT
HETATM    1  C   UNL     1     -11.418   6.943  70.749  1.00  0.00    -0.381 C  
HETATM    2  C   UNL     1     -11.251   7.899  71.935  1.00  0.00    -0.320 C  
HETATM    3  C   UNL     1     -10.800   7.106  73.164  1.00  0.00    -0.373 C  
HETATM    4  C   UNL     1     -10.251   9.041  71.636  1.00  0.00    -0.418 C  
ENDROOT
BRANCH   4   5
HETATM    5  C   UNL     1     -10.652   9.905  70.460  1.00  0.00    -0.359 A  
HETATM    6  C   UNL     1      -9.829  10.011  69.333  1.00  0.00    -0.240 A  
HETATM    7  C   UNL     1     -10.142  10.903  68.303  1.00  0.00    -0.189 A  
HETATM    8  C   UNL     1     -11.292  11.704  68.378  1.00  0.00    -0.339 A  
HETATM    9  C   UNL     1     -11.557  12.799  67.355  1.00  0.00    -0.415 C  
HETATM   10  C   UNL     1     -12.153  11.540  69.472  1.00  0.00    -0.351 A  
HETATM   11  C   UNL     1     -10.488  13.892  67.394  1.00  0.00    -0.263 C  
HETATM   12  C   UNL     1     -11.834  10.654  70.502  1.00  0.00    -0.453 A  
HETATM   13  C   UNL     1     -11.724  12.248  65.938  1.00  0.00    -0.451 C  
HETATM   14  O   UNL     1     -10.235  14.371  68.639  1.00  0.00    -0.235 OA 
HETATM   15  O   UNL     1      -9.929  14.358  66.411  1.00  0.00    -0.272 OA 
ENDBRANCH   4   5
TORSDOF 1
ENDMDL
MODEL       23
REMARK 921   NORMALIZED FREE ENERGY PREDICTED BY IDOCK:   -4.77 KCAL/MOL
REMARK 922        TOTAL FREE ENERGY PREDICTED BY IDOCK:   -5.36 KCAL/MOL
REMARK 923 INTER-LIGAND FREE ENERGY PREDICTED BY IDOCK:   -5.03 KCAL/MOL
REMARK 924 INTRA-LIGAND FREE ENERGY PREDICTED BY IDOCK:   -0.33 KCAL/MOL
REMARK 927      BINDING AFFINITY PREDICTED BY RF-SCORE:    0.00 PKD
ROOT
HETATM    1  C   UNL     1     -11.888  16.033  71.900  1.00  0.00    -0.619 C  
HETATM    2  C   UNL     1     -11.794  14.876  70.900  1.00  0.00    -0.375 C  
HETATM    3  C   UNL     1     -12.988  13.939  71.097  1.00  0.00    -0.388 C  
HETATM    4  C   UNL     1     -11.732  15.367  69.435  1.00  0.00    -0.369 C  
ENDROOT
BRANCH   4   5
HETATM    5  C   UNL     1     -10.548  16.263  69.145  1.00  0.00    -0.292 A  
HETATM    6  C   UNL     1     -10.733  17.576  68.696  1.00  0.00    -0.201 A  
HETATM    7  C   UNL     1      -9.640  18.359  68.313  1.00  0.00    -0.355 A  
HETATM    8  C   UNL     1      -8.335  17.845  68.378  1.00  0.00    -0.307 A  
HETATM    9  C   UNL     1      -7.155  18.615  67.806  1.00  0.00    -0.230 C  
HETATM   10  C   UNL     1      -8.148  16.557  68.900  1.00  0.00    -0.240 A  
HETATM   11  C   UNL     1      -7.273  18.807  66.293  1.00  0.00    -0.251 C  
HETATM   12  C   UNL     1      -9.242  15.775  69.275  1.00  0.00    -0.266 A  
HETATM   13  C   UNL     1      -6.935  19.955  68.511  1.00  0.00    -0.339 C  
HETATM   14  O   UNL     1      -7.547  17.664  65.614  1.00  0.00    -0.521 OA 
HETATM   15  O   UNL     1      -7.090  19.864  65.707  1.00  0.00    -0.276 OA 
ENDBRANCH   4   5
TORSDOF 1
ENDMDL
MODEL       24
REMARK 921   NORMALIZED FREE ENERGY PREDICTED BY IDOCK:   -4.76 KCAL/MOL
REMARK 922        TOTAL FREE ENERGY PREDICTED BY IDOCK:   -5.36 KCAL/MOL
REMARK 923 INTER-LIGAND FREE ENERGY PREDICTED BY IDOCK:   -5.00 KCAL/MOL
REMARK 924 INTRA-LIGAND FREE ENERGY PREDICTED BY IDOCK:   -0.36 KCAL/MOL
REMARK 927      BINDING AFFINITY PREDICTED BY RF-SCORE:    0.00 PKD
ROOT
HETATM    1  C   UNL     1     -11.865  12.653  66.721  1.00  0.00    -0.440 C  
HETATM    2  C   UNL     1     -11.365  12.356  68.139  1.00  0.00    -0.341 C  
HETATM    3  C   UNL     1     -11.624  10.883  68.467  1.00  0.00    -0.360 C  
HETATM    4  C   UNL     1      -9.867  12.692  68.319  1.00  0.00    -0.227 C  
ENDROOT
BRANCH   4   5
HETATM    5  C   UNL     1      -9.536  14.145  68.058  1.00  0.00    -0.213 A  
HETATM    6  C   UNL     1     -10.209  15.168  68.736  1.00  0.00    -0.235 A  
HETATM    7  C   UNL     1      -9.989  16.508  68.405  1.00  0.00    -0.250 A  
HETATM    8  C   UNL     1      -9.082  16.853  67.391  1.00  0.00    -0.221 A  
HETATM    9  C   UNL     1      -8.956  18.287  66.900  1.00  0.00    -0.281 C  
HETATM   10  C   UNL     1      -8.353  15.830  66.767  1.00  0.00    -0.309 A  
HETATM   11  C   UNL     1     -10.251  18.791  66.260  1.00  0.00    -0.424 C  
HETATM   12  C   UNL     1      -8.581  14.493  67.095  1.00  0.00    -0.242 A  
HETATM   13  C   UNL     1      -8.483  19.242  67.998  1.00  0.00    -0.352 C  
HETATM   14  O   UNL     1     -10.768  17.949  65.329  1.00  0.00    -0.640 OA 
HETATM   15  O   UNL     1     -10.774  19.870  66.497  1.00  0.00    -0.463 OA 
ENDBRANCH   4   5
TORSDOF 1
ENDMDL
MODEL       25
REMARK 921   NORMALIZED FREE ENERGY PREDICTED BY IDOCK:   -4.73 KCAL/MOL
REMARK 922        TOTAL FREE ENERGY PREDICTED BY IDOCK:   -5.32 KCAL/MOL
REMARK 923 INTER-LIGAND FREE ENERGY PREDICTED BY IDOCK:   -5.43 KCAL/MOL
REMARK 924 INTRA-LIGAND FREE ENERGY PREDICTED BY IDOCK:    0.10 KCAL/MOL
REMARK 927      BINDING AFFINITY PREDICTED BY RF-SCORE:    0.00 PKD
ROOT
HETATM    1  C   UNL     1     -12.160  13.361  67.338  1.00  0.00    -0.338 C  
HETATM    2  C   UNL     1     -11.430  14.041  68.501  1.00  0.00    -0.336 C  
HETATM    3  C   UNL     1     -11.511  15.560  68.329  1.00  0.00    -0.359 C  
HETATM    4  C   UNL     1     -11.999  13.626  69.878  1.00  0.00    -0.415 C  
ENDROOT
BRANCH   4   5
HETATM    5  C   UNL     1     -11.911  12.139  70.146  1.00  0.00    -0.394 A  
HETATM    6  C   UNL     1     -12.643  11.551  71.183  1.00  0.00    -0.463 A  
HETATM    7  C   UNL     1     -12.467  10.202  71.505  1.00  0.00    -0.526 A  
HETATM    8  C   UNL     1     -11.555   9.410  70.789  1.00  0.00    -0.364 A  
HETATM    9  C   UNL     1     -11.224   7.994  71.233  1.00  0.00    -0.287 C  
HETATM   10  C   UNL     1     -10.880   9.983  69.702  1.00  0.00    -0.292 A  
HETATM   11  C   UNL     1     -10.554   7.965  72.608  1.00  0.00    -0.329 C  
HETATM   12  C   UNL     1     -11.053  11.332  69.388  1.00  0.00    -0.316 A  
HETATM   13  C   UNL     1     -12.443   7.070  71.200  1.00  0.00    -0.407 C  
HETATM   14  O   UNL     1      -9.509   8.823  72.729  1.00  0.00    -0.236 OA 
HETATM   15  O   UNL     1     -10.865   7.214  73.521  1.00  0.00    -0.361 OA 
ENDBRANCH   4   5
TORSDOF 1
ENDMDL
MODEL       26
REMARK 921   NORMALIZED FREE ENERGY PREDICTED BY IDOCK:   -4.65 KCAL/MOL
REMARK 922        TOTAL FREE ENERGY PREDICTED BY IDOCK:   -5.24 KCAL/MOL
REMARK 923 INTER-LIGAND FREE ENERGY PREDICTED BY IDOCK:   -4.94 KCAL/MOL
REMARK 924 INTRA-LIGAND FREE ENERGY PREDICTED BY IDOCK:   -0.30 KCAL/MOL
REMARK 927      BINDING AFFINITY PREDICTED BY RF-SCORE:    0.00 PKD
ROOT
HETATM    1  C   UNL     1     -12.639  13.351  70.844  1.00  0.00    -0.406 C  
HETATM    2  C   UNL     1     -11.701  12.476  70.007  1.00  0.00    -0.297 C  
HETATM    3  C   UNL     1     -12.275  11.059  69.919  1.00  0.00    -0.408 C  
HETATM    4  C   UNL     1     -11.468  13.049  68.589  1.00  0.00    -0.344 C  
ENDROOT
BRANCH   4   5
HETATM    5  C   UNL     1     -10.855  14.433  68.589  1.00  0.00    -0.260 A  
HETATM    6  C   UNL     1     -11.599  15.548  68.187  1.00  0.00    -0.313 A  
HETATM    7  C   UNL     1     -10.996  16.804  68.071  1.00  0.00    -0.296 A  
HETATM    8  C   UNL     1      -9.633  16.970  68.362  1.00  0.00    -0.277 A  
HETATM    9  C   UNL     1      -8.921  18.284  68.077  1.00  0.00    -0.301 C  
HETATM   10  C   UNL     1      -8.909  15.868  68.836  1.00  0.00    -0.225 A  
HETATM   11  C   UNL     1      -8.901  18.615  66.583  1.00  0.00    -0.302 C  
HETATM   12  C   UNL     1      -9.513  14.613  68.944  1.00  0.00    -0.173 A  
HETATM   13  C   UNL     1      -9.497  19.448  68.886  1.00  0.00    -0.448 C  
HETATM   14  O   UNL     1      -8.473  17.592  65.800  1.00  0.00    -0.525 OA 
HETATM   15  O   UNL     1      -9.183  19.704  66.105  1.00  0.00    -0.369 OA 
ENDBRANCH   4   5
TORSDOF 1
ENDMDL
MODEL       27
REMARK 921   NORMALIZED FREE ENERGY PREDICTED BY IDOCK:   -4.64 KCAL/MOL
REMARK 922        TOTAL FREE ENERGY PREDICTED BY IDOCK:   -5.23 KCAL/MOL
REMARK 923 INTER-LIGAND FREE ENERGY PREDICTED BY IDOCK:   -4.96 KCAL/MOL
REMARK 924 INTRA-LIGAND FREE ENERGY PREDICTED BY IDOCK:   -0.27 KCAL/MOL
REMARK 927      BINDING AFFINITY PREDICTED BY RF-SCORE:    0.00 PKD
ROOT
HETATM    1  C   UNL     1     -10.278   8.023  72.912  1.00  0.00    -0.384 C  
HETATM    2  C   UNL     1     -10.995   7.248  71.802  1.00  0.00    -0.256 C  
HETATM    3  C   UNL     1     -11.546   5.939  72.373  1.00  0.00    -0.341 C  
HETATM    4  C   UNL     1     -12.131   8.069  71.148  1.00  0.00    -0.284 C  
ENDROOT
BRANCH   4   5
HETATM    5  C   UNL     1     -11.658   9.360  70.515  1.00  0.00    -0.291 A  
HETATM    6  C   UNL     1     -12.358  10.555  70.711  1.00  0.00    -0.474 A  
HETATM    7  C   UNL     1     -11.990  11.718  70.028  1.00  0.00    -0.421 A  
HETATM    8  C   UNL     1     -10.906  11.709  69.136  1.00  0.00    -0.231 A  
HETATM    9  C   UNL     1     -10.599  12.912  68.257  1.00  0.00    -0.259 C  
HETATM   10  C   UNL     1     -10.161  10.529  69.000  1.00  0.00    -0.230 A  
HETATM   11  C   UNL     1     -11.731  13.208  67.272  1.00  0.00    -0.374 C  
HETATM   12  C   UNL     1     -10.535   9.368  69.678  1.00  0.00    -0.236 A  
HETATM   13  C   UNL     1     -10.245  14.157  69.073  1.00  0.00    -0.130 C  
HETATM   14  O   UNL     1     -12.146  12.122  66.569  1.00  0.00    -0.627 OA 
HETATM   15  O   UNL     1     -12.206  14.315  67.066  1.00  0.00    -0.424 OA 
ENDBRANCH   4   5
TORSDOF 1
ENDMDL
MODEL       28
REMARK 921   NORMALIZED FREE ENERGY PREDICTED BY IDOCK:   -4.64 KCAL/MOL
REMARK 922        TOTAL FREE ENERGY PREDICTED BY IDOCK:   -5.23 KCAL/MOL
REMARK 923 INTER-LIGAND FREE ENERGY PREDICTED BY IDOCK:   -5.72 KCAL/MOL
REMARK 924 INTRA-LIGAND FREE ENERGY PREDICTED BY IDOCK:    0.49 KCAL/MOL
REMARK 927      BINDING AFFINITY PREDICTED BY RF-SCORE:    0.00 PKD
ROOT
HETATM    1  C   UNL     1     -11.020  16.569  70.180  1.00  0.00    -0.215 C  
HETATM    2  C   UNL     1     -11.414  15.495  71.200  1.00  0.00    -0.442 C  
HETATM    3  C   UNL     1     -11.991  16.171  72.447  1.00  0.00    -0.649 C  
HETATM    4  C   UNL     1     -12.425  14.477  70.624  1.00  0.00    -0.409 C  
ENDROOT
BRANCH   4   5
HETATM    5  C   UNL     1     -11.909  13.729  69.414  1.00  0.00    -0.392 A  
HETATM    6  C   UNL     1     -11.239  14.402  68.385  1.00  0.00    -0.294 A  
HETATM    7  C   UNL     1     -10.873  13.732  67.215  1.00  0.00    -0.292 A  
HETATM    8  C   UNL     1     -11.165  12.368  67.052  1.00  0.00    -0.358 A  
HETATM    9  C   UNL     1     -10.931  11.666  65.723  1.00  0.00    -0.329 C  
HETATM   10  C   UNL     1     -11.768  11.681  68.114  1.00  0.00    -0.365 A  
HETATM   11  C   UNL     1     -11.803  12.244  64.606  1.00  0.00    -0.367 C  
HETATM   12  C   UNL     1     -12.139  12.355  69.279  1.00  0.00    -0.218 A  
HETATM   13  C   UNL     1      -9.456  11.659  65.317  1.00  0.00    -0.170 C  
HETATM   14  O   UNL     1     -13.116  12.350  64.933  1.00  0.00    -0.765 OA 
HETATM   15  O   UNL     1     -11.401  12.543  63.491  1.00  0.00    -0.453 OA 
ENDBRANCH   4   5
TORSDOF 1
ENDMDL
MODEL       29
REMARK 921   NORMALIZED FREE ENERGY PREDICTED BY IDOCK:   -4.62 KCAL/MOL
REMARK 922        TOTAL FREE ENERGY PREDICTED BY IDOCK:   -5.20 KCAL/MOL
REMARK 923 INTER-LIGAND FREE ENERGY PREDICTED BY IDOCK:   -4.88 KCAL/MOL
REMARK 924 INTRA-LIGAND FREE ENERGY PREDICTED BY IDOCK:   -0.32 KCAL/MOL
REMARK 927      BINDING AFFINITY PREDICTED BY RF-SCORE:    0.00 PKD
ROOT
HETATM    1  C   UNL     1     -11.499  15.542  68.625  1.00  0.00    -0.367 C  
HETATM    2  C   UNL     1     -10.964  14.649  67.501  1.00  0.00    -0.301 C  
HETATM    3  C   UNL     1     -11.854  13.411  67.372  1.00  0.00    -0.418 C  
HETATM    4  C   UNL     1     -10.879  15.392  66.147  1.00  0.00    -0.313 C  
ENDROOT
BRANCH   4   5
HETATM    5  C   UNL     1      -9.976  16.606  66.178  1.00  0.00    -0.356 A  
HETATM    6  C   UNL     1      -8.587  16.467  66.273  1.00  0.00    -0.375 A  
HETATM    7  C   UNL     1      -7.766  17.588  66.424  1.00  0.00    -0.332 A  
HETATM    8  C   UNL     1      -8.321  18.877  66.479  1.00  0.00    -0.310 A  
HETATM    9  C   UNL     1      -7.465  20.088  66.816  1.00  0.00    -0.287 C  
HETATM   10  C   UNL     1      -9.705  19.018  66.309  1.00  0.00    -0.392 A  
HETATM   11  C   UNL     1      -6.883  20.006  68.228  1.00  0.00    -0.302 C  
HETATM   12  C   UNL     1     -10.522  17.895  66.165  1.00  0.00    -0.321 A  
HETATM   13  C   UNL     1      -6.363  20.331  65.783  1.00  0.00    -0.250 C  
HETATM   14  O   UNL     1      -7.801  19.715  69.185  1.00  0.00    -0.328 OA 
HETATM   15  O   UNL     1      -5.716  20.230  68.516  1.00  0.00    -0.232 OA 
ENDBRANCH   4   5
TORSDOF 1
ENDMDL
MODEL       30
REMARK 921   NORMALIZED FREE ENERGY PREDICTED BY IDOCK:   -4.59 KCAL/MOL
REMARK 922        TOTAL FREE ENERGY PREDICTED BY IDOCK:   -5.18 KCAL/MOL
REMARK 923 INTER-LIGAND FREE ENERGY PREDICTED BY IDOCK:   -5.02 KCAL/MOL
REMARK 924 INTRA-LIGAND FREE ENERGY PREDICTED BY IDOCK:   -0.16 KCAL/MOL
REMARK 927      BINDING AFFINITY PREDICTED BY RF-SCORE:    0.00 PKD
ROOT
HETATM    1  C   UNL     1     -11.804  13.660  66.999  1.00  0.00    -0.448 C  
HETATM    2  C   UNL     1     -11.454  13.651  65.507  1.00  0.00    -0.317 C  
HETATM    3  C   UNL     1     -12.487  12.814  64.750  1.00  0.00    -0.539 C  
HETATM    4  C   UNL     1     -11.376  15.076  64.911  1.00  0.00    -0.419 C  
ENDROOT
BRANCH   4   5
HETATM    5  C   UNL     1     -10.339  15.955  65.576  1.00  0.00    -0.425 A  
HETATM    6  C   UNL     1     -10.554  17.330  65.729  1.00  0.00    -0.198 A  
HETATM    7  C   UNL     1      -9.546  18.157  66.231  1.00  0.00    -0.246 A  
HETATM    8  C   UNL     1      -8.300  17.623  66.598  1.00  0.00    -0.288 A  
HETATM    9  C   UNL     1      -7.138  18.526  66.981  1.00  0.00    -0.211 C  
HETATM   10  C   UNL     1      -8.115  16.236  66.515  1.00  0.00    -0.337 A  
HETATM   11  C   UNL     1      -6.695  19.418  65.820  1.00  0.00    -0.258 C  
HETATM   12  C   UNL     1      -9.122  15.413  66.006  1.00  0.00    -0.284 A  
HETATM   13  C   UNL     1      -7.432  19.361  68.229  1.00  0.00    -0.341 C  
HETATM   14  O   UNL     1      -6.492  18.747  64.657  1.00  0.00    -0.482 OA 
HETATM   15  O   UNL     1      -6.480  20.618  65.904  1.00  0.00    -0.225 OA 
ENDBRANCH   4   5
TORSDOF 1
ENDMDL
MODEL       31
REMARK 921   NORMALIZED FREE ENERGY PREDICTED BY IDOCK:   -4.57 KCAL/MOL
REMARK 922        TOTAL FREE ENERGY PREDICTED BY IDOCK:   -5.15 KCAL/MOL
REMARK 923 INTER-LIGAND FREE ENERGY PREDICTED BY IDOCK:   -4.83 KCAL/MOL
REMARK 924 INTRA-LIGAND FREE ENERGY PREDICTED BY IDOCK:   -0.33 KCAL/MOL
REMARK 927      BINDING AFFINITY PREDICTED BY RF-SCORE:    0.00 PKD
ROOT
HETATM    1  C   UNL     1      -8.587  18.713  68.477  1.00  0.00    -0.370 C  
HETATM    2  C   UNL     1      -8.481  19.047  66.985  1.00  0.00    -0.300 C  
HETATM    3  C   UNL     1      -7.532  20.234  66.800  1.00  0.00    -0.333 C  
HETATM    4  C   UNL     1      -8.004  17.841  66.143  1.00  0.00    -0.237 C  
ENDROOT
BRANCH   4   5
HETATM    5  C   UNL     1      -8.918  16.639  66.235  1.00  0.00    -0.340 A  
HETATM    6  C   UNL     1      -8.469  15.436  66.792  1.00  0.00    -0.307 A  
HETATM    7  C   UNL     1      -9.274  14.293  66.765  1.00  0.00    -0.282 A  
HETATM    8  C   UNL     1     -10.550  14.333  66.182  1.00  0.00    -0.293 A  
HETATM    9  C   UNL     1     -11.368  13.065  65.987  1.00  0.00    -0.343 C  
HETATM   10  C   UNL     1     -11.026  15.558  65.693  1.00  0.00    -0.307 A  
HETATM   11  C   UNL     1     -10.687  12.083  65.032  1.00  0.00    -0.296 C  
HETATM   12  C   UNL     1     -10.217  16.695  65.716  1.00  0.00    -0.328 A  
HETATM   13  C   UNL     1     -11.715  12.385  67.313  1.00  0.00    -0.419 C  
HETATM   14  O   UNL     1     -10.282  12.644  63.864  1.00  0.00    -0.412 OA 
HETATM   15  O   UNL     1     -10.551  10.886  65.240  1.00  0.00    -0.261 OA 
ENDBRANCH   4   5
TORSDOF 1
ENDMDL
MODEL       32
REMARK 921   NORMALIZED FREE ENERGY PREDICTED BY IDOCK:   -4.57 KCAL/MOL
REMARK 922        TOTAL FREE ENERGY PREDICTED BY IDOCK:   -5.15 KCAL/MOL
REMARK 923 INTER-LIGAND FREE ENERGY PREDICTED BY IDOCK:   -4.93 KCAL/MOL
REMARK 924 INTRA-LIGAND FREE ENERGY PREDICTED BY IDOCK:   -0.22 KCAL/MOL
REMARK 927      BINDING AFFINITY PREDICTED BY RF-SCORE:    0.00 PKD
ROOT
HETATM    1  C   UNL     1      -9.161  11.275  68.359  1.00  0.00    -0.178 C  
HETATM    2  C   UNL     1     -10.122  11.163  67.171  1.00  0.00    -0.223 C  
HETATM    3  C   UNL     1     -10.773   9.778  67.176  1.00  0.00    -0.273 C  
HETATM    4  C   UNL     1     -11.206  12.266  67.184  1.00  0.00    -0.365 C  
ENDROOT
BRANCH   4   5
HETATM    5  C   UNL     1     -10.643  13.670  67.131  1.00  0.00    -0.272 A  
HETATM    6  C   UNL     1     -11.208  14.700  67.892  1.00  0.00    -0.318 A  
HETATM    7  C   UNL     1     -10.764  16.017  67.749  1.00  0.00    -0.323 A  
HETATM    8  C   UNL     1      -9.739  16.331  66.842  1.00  0.00    -0.247 A  
HETATM    9  C   UNL     1      -9.364  17.775  66.547  1.00  0.00    -0.291 C  
HETATM   10  C   UNL     1      -9.125  15.287  66.138  1.00  0.00    -0.314 A  
HETATM   11  C   UNL     1     -10.515  18.548  65.901  1.00  0.00    -0.347 C  
HETATM   12  C   UNL     1      -9.575  13.972  66.278  1.00  0.00    -0.284 A  
HETATM   13  C   UNL     1      -8.841  18.508  67.785  1.00  0.00    -0.290 C  
HETATM   14  O   UNL     1     -11.076  17.913  64.840  1.00  0.00    -0.782 OA 
HETATM   15  O   UNL     1     -10.888  19.661  66.242  1.00  0.00    -0.430 OA 
ENDBRANCH   4   5
TORSDOF 1
ENDMDL
MODEL       33
REMARK 921   NORMALIZED FREE ENERGY PREDICTED BY IDOCK:   -4.56 KCAL/MOL
REMARK 922        TOTAL FREE ENERGY PREDICTED BY IDOCK:   -5.14 KCAL/MOL
REMARK 923 INTER-LIGAND FREE ENERGY PREDICTED BY IDOCK:   -4.81 KCAL/MOL
REMARK 924 INTRA-LIGAND FREE ENERGY PREDICTED BY IDOCK:   -0.34 KCAL/MOL
REMARK 927      BINDING AFFINITY PREDICTED BY RF-SCORE:    0.00 PKD
ROOT
HETATM    1  C   UNL     1     -12.511  12.767  71.035  1.00  0.00    -0.369 C  
HETATM    2  C   UNL     1     -11.886  11.580  70.294  1.00  0.00    -0.431 C  
HETATM    3  C   UNL     1     -12.566  10.286  70.749  1.00  0.00    -0.442 C  
HETATM    4  C   UNL     1     -11.984  11.726  68.758  1.00  0.00    -0.317 C  
ENDROOT
BRANCH   4   5
HETATM    5  C   UNL     1     -11.292  12.961  68.222  1.00  0.00    -0.326 A  
HETATM    6  C   UNL     1      -9.972  13.257  68.580  1.00  0.00    -0.189 A  
HETATM    7  C   UNL     1      -9.378  14.458  68.182  1.00  0.00    -0.203 A  
HETATM    8  C   UNL     1     -10.093  15.388  67.411  1.00  0.00    -0.233 A  
HETATM    9  C   UNL     1      -9.527  16.768  67.116  1.00  0.00    -0.237 C  
HETATM   10  C   UNL     1     -11.388  15.054  66.991  1.00  0.00    -0.319 A  
HETATM   11  C   UNL     1      -9.336  17.595  68.389  1.00  0.00    -0.289 C  
HETATM   12  C   UNL     1     -11.982  13.856  67.395  1.00  0.00    -0.436 A  
HETATM   13  C   UNL     1      -8.232  16.708  66.303  1.00  0.00    -0.365 C  
HETATM   14  O   UNL     1     -10.428  17.623  69.195  1.00  0.00    -0.331 OA 
HETATM   15  O   UNL     1      -8.328  18.230  68.664  1.00  0.00    -0.318 OA 
ENDBRANCH   4   5
TORSDOF 1
ENDMDL
MODEL       34
REMARK 921   NORMALIZED FREE ENERGY PREDICTED BY IDOCK:   -4.55 KCAL/MOL
REMARK 922        TOTAL FREE ENERGY PREDICTED BY IDOCK:   -5.14 KCAL/MOL
REMARK 923 INTER-LIGAND FREE ENERGY PREDICTED BY IDOCK:   -4.78 KCAL/MOL
REMARK 924 INTRA-LIGAND FREE ENERGY PREDICTED BY IDOCK:   -0.36 KCAL/MOL
REMARK 927      BINDING AFFINITY PREDICTED BY RF-SCORE:    0.00 PKD
ROOT
HETATM    1  C   UNL     1     -12.161  10.660  70.908  1.00  0.00    -0.497 C  
HETATM    2  C   UNL     1     -10.902   9.908  70.466  1.00  0.00    -0.391 C  
HETATM    3  C   UNL     1     -10.924   8.496  71.056  1.00  0.00    -0.296 C  
HETATM    4  C   UNL     1     -10.762   9.845  68.927  1.00  0.00    -0.244 C  
ENDROOT
BRANCH   4   5
HETATM    5  C   UNL     1     -10.685  11.206  68.269  1.00  0.00    -0.234 A  
HETATM    6  C   UNL     1      -9.618  12.072  68.533  1.00  0.00    -0.146 A  
HETATM    7  C   UNL     1      -9.612  13.372  68.021  1.00  0.00    -0.219 A  
HETATM    8  C   UNL     1     -10.675  13.832  67.228  1.00  0.00    -0.286 A  
HETATM    9  C   UNL     1     -10.770  15.291  66.807  1.00  0.00    -0.313 C  
HETATM   10  C   UNL     1     -11.705  12.938  66.904  1.00  0.00    -0.445 A  
HETATM   11  C   UNL     1     -10.931  16.226  68.008  1.00  0.00    -0.328 C  
HETATM   12  C   UNL     1     -11.712  11.642  67.423  1.00  0.00    -0.278 A  
HETATM   13  C   UNL     1      -9.594  15.725  65.931  1.00  0.00    -0.382 C  
HETATM   14  O   UNL     1     -11.911  15.851  68.869  1.00  0.00    -0.397 OA 
HETATM   15  O   UNL     1     -10.294  17.254  68.182  1.00  0.00    -0.318 OA 
ENDBRANCH   4   5
TORSDOF 1
ENDMDL
MODEL       35
REMARK 921   NORMALIZED FREE ENERGY PREDICTED BY IDOCK:   -4.54 KCAL/MOL
REMARK 922        TOTAL FREE ENERGY PREDICTED BY IDOCK:   -5.12 KCAL/MOL
REMARK 923 INTER-LIGAND FREE ENERGY PREDICTED BY IDOCK:   -4.84 KCAL/MOL
REMARK 924 INTRA-LIGAND FREE ENERGY PREDICTED BY IDOCK:   -0.28 KCAL/MOL
REMARK 927      BINDING AFFINITY PREDICTED BY RF-SCORE:    0.00 PKD
ROOT
HETATM    1  C   UNL     1     -10.781   7.122  66.957  1.00  0.00    -0.420 C  
HETATM    2  C   UNL     1     -10.865   7.304  68.476  1.00  0.00    -0.106 C  
HETATM    3  C   UNL     1     -10.555   5.971  69.162  1.00  0.00    -0.362 C  
HETATM    4  C   UNL     1      -9.913   8.408  68.991  1.00  0.00    -0.194 C  
ENDROOT
BRANCH   4   5
HETATM    5  C   UNL     1     -10.186   9.771  68.394  1.00  0.00    -0.210 A  
HETATM    6  C   UNL     1     -11.282  10.533  68.815  1.00  0.00    -0.317 A  
HETATM    7  C   UNL     1     -11.602  11.735  68.177  1.00  0.00    -0.391 A  
HETATM    8  C   UNL     1     -10.826  12.203  67.105  1.00  0.00    -0.286 A  
HETATM    9  C   UNL     1     -11.256  13.413  66.290  1.00  0.00    -0.322 C  
HETATM   10  C   UNL     1      -9.686  11.476  66.735  1.00  0.00    -0.220 A  
HETATM   11  C   UNL     1     -12.577  13.171  65.556  1.00  0.00    -0.408 C  
HETATM   12  C   UNL     1      -9.373  10.272  67.370  1.00  0.00    -0.163 A  
HETATM   13  C   UNL     1     -11.324  14.690  67.130  1.00  0.00    -0.365 C  
HETATM   14  O   UNL     1     -12.610  12.011  64.852  1.00  0.00    -0.418 OA 
HETATM   15  O   UNL     1     -13.517  13.952  65.535  1.00  0.00    -0.657 OA 
ENDBRANCH   4   5
TORSDOF 1
ENDMDL
MODEL       36
REMARK 921   NORMALIZED FREE ENERGY PREDICTED BY IDOCK:   -4.53 KCAL/MOL
REMARK 922        TOTAL FREE ENERGY PREDICTED BY IDOCK:   -5.11 KCAL/MOL
REMARK 923 INTER-LIGAND FREE ENERGY PREDICTED BY IDOCK:   -4.78 KCAL/MOL
REMARK 924 INTRA-LIGAND FREE ENERGY PREDICTED BY IDOCK:   -0.33 KCAL/MOL
REMARK 927      BINDING AFFINITY PREDICTED BY RF-SCORE:    0.00 PKD
ROOT
HETATM    1  C   UNL     1     -10.657  18.132  65.848  1.00  0.00    -0.247 C  
HETATM    2  C   UNL     1      -9.680  18.460  66.982  1.00  0.00    -0.316 C  
HETATM    3  C   UNL     1      -9.440  19.971  67.021  1.00  0.00    -0.523 C  
HETATM    4  C   UNL     1     -10.182  17.960  68.356  1.00  0.00    -0.398 C  
ENDROOT
BRANCH   4   5
HETATM    5  C   UNL     1     -10.399  16.463  68.415  1.00  0.00    -0.282 A  
HETATM    6  C   UNL     1      -9.413  15.577  67.966  1.00  0.00    -0.194 A  
HETATM    7  C   UNL     1      -9.664  14.203  67.907  1.00  0.00    -0.224 A  
HETATM    8  C   UNL     1     -10.907  13.686  68.303  1.00  0.00    -0.268 A  
HETATM    9  C   UNL     1     -11.258  12.222  68.085  1.00  0.00    -0.320 C  
HETATM   10  C   UNL     1     -11.864  14.569  68.824  1.00  0.00    -0.350 A  
HETATM   11  C   UNL     1     -11.297  11.856  66.600  1.00  0.00    -0.337 C  
HETATM   12  C   UNL     1     -11.614  15.941  68.874  1.00  0.00    -0.392 A  
HETATM   13  C   UNL     1     -10.334  11.278  68.857  1.00  0.00    -0.214 C  
HETATM   14  O   UNL     1     -12.040  12.704  65.844  1.00  0.00    -0.482 OA 
HETATM   15  O   UNL     1     -10.767  10.869  66.110  1.00  0.00    -0.235 OA 
ENDBRANCH   4   5
TORSDOF 1
ENDMDL
MODEL       37
REMARK 921   NORMALIZED FREE ENERGY PREDICTED BY IDOCK:   -4.51 KCAL/MOL
REMARK 922        TOTAL FREE ENERGY PREDICTED BY IDOCK:   -5.10 KCAL/MOL
REMARK 923 INTER-LIGAND FREE ENERGY PREDICTED BY IDOCK:   -4.76 KCAL/MOL
REMARK 924 INTRA-LIGAND FREE ENERGY PREDICTED BY IDOCK:   -0.33 KCAL/MOL
REMARK 927      BINDING AFFINITY PREDICTED BY RF-SCORE:    0.00 PKD
ROOT
HETATM    1  C   UNL     1      -9.570   4.834  71.847  1.00  0.00    -0.206 C  
HETATM    2  C   UNL     1     -10.556   4.951  73.014  1.00  0.00    -0.280 C  
HETATM    3  C   UNL     1     -10.168   3.950  74.104  1.00  0.00    -0.231 C  
HETATM    4  C   UNL     1     -10.614   6.383  73.595  1.00  0.00    -0.288 C  
ENDROOT
BRANCH   4   5
HETATM    5  C   UNL     1     -11.038   7.429  72.587  1.00  0.00    -0.378 A  
HETATM    6  C   UNL     1     -10.182   8.480  72.238  1.00  0.00    -0.395 A  
HETATM    7  C   UNL     1     -10.621   9.510  71.402  1.00  0.00    -0.307 A  
HETATM    8  C   UNL     1     -11.929   9.507  70.891  1.00  0.00    -0.372 A  
HETATM    9  C   UNL     1     -12.478  10.700  70.125  1.00  0.00    -0.342 C  
HETATM   10  C   UNL     1     -12.759   8.415  71.182  1.00  0.00    -0.121 A  
HETATM   11  C   UNL     1     -12.552  11.957  70.994  1.00  0.00    -0.283 C  
HETATM   12  C   UNL     1     -12.319   7.391  72.023  1.00  0.00    -0.301 A  
HETATM   13  C   UNL     1     -11.703  10.973  68.834  1.00  0.00    -0.400 C  
HETATM   14  O   UNL     1     -13.162  11.762  72.191  1.00  0.00    -0.498 OA 
HETATM   15  O   UNL     1     -12.161  13.064  70.655  1.00  0.00    -0.364 OA 
ENDBRANCH   4   5
TORSDOF 1
ENDMDL
MODEL       38
REMARK 921   NORMALIZED FREE ENERGY PREDICTED BY IDOCK:   -4.51 KCAL/MOL
REMARK 922        TOTAL FREE ENERGY PREDICTED BY IDOCK:   -5.10 KCAL/MOL
REMARK 923 INTER-LIGAND FREE ENERGY PREDICTED BY IDOCK:   -4.76 KCAL/MOL
REMARK 924 INTRA-LIGAND FREE ENERGY PREDICTED BY IDOCK:   -0.33 KCAL/MOL
REMARK 927      BINDING AFFINITY PREDICTED BY RF-SCORE:    0.00 PKD
ROOT
HETATM    1  C   UNL     1     -10.353  17.238  68.903  1.00  0.00    -0.352 C  
HETATM    2  C   UNL     1     -10.731  17.777  67.520  1.00  0.00    -0.315 C  
HETATM    3  C   UNL     1     -10.450  19.281  67.469  1.00  0.00    -0.564 C  
HETATM    4  C   UNL     1      -9.981  17.051  66.379  1.00  0.00    -0.318 C  
ENDROOT
BRANCH   4   5
HETATM    5  C   UNL     1     -10.245  15.562  66.331  1.00  0.00    -0.300 A  
HETATM    6  C   UNL     1      -9.205  14.641  66.498  1.00  0.00    -0.294 A  
HETATM    7  C   UNL     1      -9.430  13.272  66.331  1.00  0.00    -0.225 A  
HETATM    8  C   UNL     1     -10.708  12.794  65.999  1.00  0.00    -0.295 A  
HETATM    9  C   UNL     1     -10.935  11.333  65.645  1.00  0.00    -0.201 C  
HETATM   10  C   UNL     1     -11.764  13.712  65.907  1.00  0.00    -0.378 A  
HETATM   11  C   UNL     1     -10.179  10.923  64.381  1.00  0.00    -0.358 C  
HETATM   12  C   UNL     1     -11.533  15.080  66.067  1.00  0.00    -0.221 A  
HETATM   13  C   UNL     1     -10.607  10.392  66.807  1.00  0.00    -0.270 C  
HETATM   14  O   UNL     1     -10.366  11.764  63.331  1.00  0.00    -0.389 OA 
HETATM   15  O   UNL     1      -9.503   9.911  64.268  1.00  0.00    -0.284 OA 
ENDBRANCH   4   5
TORSDOF 1
ENDMDL
MODEL       39
REMARK 921   NORMALIZED FREE ENERGY PREDICTED BY IDOCK:   -4.49 KCAL/MOL
REMARK 922        TOTAL FREE ENERGY PREDICTED BY IDOCK:   -5.07 KCAL/MOL
REMARK 923 INTER-LIGAND FREE ENERGY PREDICTED BY IDOCK:   -4.74 KCAL/MOL
REMARK 924 INTRA-LIGAND FREE ENERGY PREDICTED BY IDOCK:   -0.33 KCAL/MOL
REMARK 927      BINDING AFFINITY PREDICTED BY RF-SCORE:    0.00 PKD
ROOT
HETATM    1  C   UNL     1     -10.450   7.879  66.982  1.00  0.00    -0.419 C  
HETATM    2  C   UNL     1     -10.243   8.514  68.361  1.00  0.00    -0.236 C  
HETATM    3  C   UNL     1      -9.499   7.527  69.264  1.00  0.00    -0.154 C  
HETATM    4  C   UNL     1      -9.476   9.854  68.284  1.00  0.00    -0.147 C  
ENDROOT
BRANCH   4   5
HETATM    5  C   UNL     1     -10.173  10.904  67.446  1.00  0.00    -0.236 A  
HETATM    6  C   UNL     1      -9.577  11.406  66.283  1.00  0.00    -0.237 A  
HETATM    7  C   UNL     1     -10.166  12.461  65.579  1.00  0.00    -0.297 A  
HETATM    8  C   UNL     1     -11.370  13.032  66.023  1.00  0.00    -0.343 A  
HETATM    9  C   UNL     1     -11.933  14.286  65.373  1.00  0.00    -0.383 C  
HETATM   10  C   UNL     1     -12.001  12.476  67.144  1.00  0.00    -0.285 A  
HETATM   11  C   UNL     1     -11.006  15.490  65.548  1.00  0.00    -0.324 C  
HETATM   12  C   UNL     1     -11.407  11.427  67.849  1.00  0.00    -0.371 A  
HETATM   13  C   UNL     1     -12.282  14.075  63.899  1.00  0.00    -0.336 C  
HETATM   14  O   UNL     1     -10.596  15.687  66.828  1.00  0.00    -0.301 OA 
HETATM   15  O   UNL     1     -10.686  16.260  64.655  1.00  0.00    -0.670 OA 
ENDBRANCH   4   5
TORSDOF 1
ENDMDL
MODEL       40
REMARK 921   NORMALIZED FREE ENERGY PREDICTED BY IDOCK:   -4.49 KCAL/MOL
REMARK 922        TOTAL FREE ENERGY PREDICTED BY IDOCK:   -5.07 KCAL/MOL
REMARK 923 INTER-LIGAND FREE ENERGY PREDICTED BY IDOCK:   -4.77 KCAL/MOL
REMARK 924 INTRA-LIGAND FREE ENERGY PREDICTED BY IDOCK:   -0.30 KCAL/MOL
REMARK 927      BINDING AFFINITY PREDICTED BY RF-SCORE:    0.00 PKD
ROOT
HETATM    1  C   UNL     1      -9.705  15.105  69.996  1.00  0.00     0.059 C  
HETATM    2  C   UNL     1     -11.233  15.197  70.055  1.00  0.00    -0.301 C  
HETATM    3  C   UNL     1     -11.640  16.082  71.236  1.00  0.00    -0.506 C  
HETATM    4  C   UNL     1     -11.842  15.741  68.742  1.00  0.00    -0.321 C  
ENDROOT
BRANCH   4   5
HETATM    5  C   UNL     1     -11.524  14.893  67.530  1.00  0.00    -0.361 A  
HETATM    6  C   UNL     1     -12.156  13.660  67.329  1.00  0.00    -0.385 A  
HETATM    7  C   UNL     1     -11.771  12.825  66.277  1.00  0.00    -0.460 A  
HETATM    8  C   UNL     1     -10.748  13.210  65.396  1.00  0.00    -0.308 A  
HETATM    9  C   UNL     1     -10.200  12.246  64.355  1.00  0.00    -0.341 C  
HETATM   10  C   UNL     1     -10.170  14.478  65.555  1.00  0.00    -0.394 A  
HETATM   11  C   UNL     1      -9.533  11.027  64.995  1.00  0.00    -0.233 C  
HETATM   12  C   UNL     1     -10.551  15.307  66.612  1.00  0.00    -0.304 A  
HETATM   13  C   UNL     1     -11.260  11.818  63.339  1.00  0.00    -0.440 C  
HETATM   14  O   UNL     1      -8.635  11.338  65.965  1.00  0.00    -0.175 OA 
HETATM   15  O   UNL     1      -9.723   9.869  64.656  1.00  0.00    -0.303 OA 
ENDBRANCH   4   5
TORSDOF 1
ENDMDL
MODEL       41
REMARK 921   NORMALIZED FREE ENERGY PREDICTED BY IDOCK:   -4.48 KCAL/MOL
REMARK 922        TOTAL FREE ENERGY PREDICTED BY IDOCK:   -5.06 KCAL/MOL
REMARK 923 INTER-LIGAND FREE ENERGY PREDICTED BY IDOCK:   -4.83 KCAL/MOL
REMARK 924 INTRA-LIGAND FREE ENERGY PREDICTED BY IDOCK:   -0.23 KCAL/MOL
REMARK 927      BINDING AFFINITY PREDICTED BY RF-SCORE:    0.00 PKD
ROOT
HETATM    1  C   UNL     1     -10.641  14.014  67.453  1.00  0.00    -0.278 C  
HETATM    2  C   UNL     1     -11.968  13.370  67.036  1.00  0.00    -0.429 C  
HETATM    3  C   UNL     1     -12.486  14.056  65.769  1.00  0.00    -0.523 C  
HETATM    4  C   UNL     1     -11.838  11.846  66.806  1.00  0.00    -0.170 C  
ENDROOT
BRANCH   4   5
HETATM    5  C   UNL     1     -11.375  11.087  68.031  1.00  0.00    -0.374 A  
HETATM    6  C   UNL     1     -10.445  10.047  67.922  1.00  0.00    -0.276 A  
HETATM    7  C   UNL     1     -10.112   9.269  69.035  1.00  0.00    -0.207 A  
HETATM    8  C   UNL     1     -10.702   9.520  70.284  1.00  0.00    -0.315 A  
HETATM    9  C   UNL     1     -10.485   8.581  71.460  1.00  0.00    -0.318 C  
HETATM   10  C   UNL     1     -11.575  10.610  70.405  1.00  0.00    -0.441 A  
HETATM   11  C   UNL     1     -11.052   7.185  71.193  1.00  0.00    -0.254 C  
HETATM   12  C   UNL     1     -11.911  11.381  69.291  1.00  0.00    -0.417 A  
HETATM   13  C   UNL     1      -9.017   8.503  71.884  1.00  0.00    -0.301 C  
HETATM   14  O   UNL     1     -12.331   7.189  70.738  1.00  0.00    -0.314 OA 
HETATM   15  O   UNL     1     -10.459   6.138  71.409  1.00  0.00    -0.211 OA 
ENDBRANCH   4   5
TORSDOF 1
ENDMDL
MODEL       42
REMARK 921   NORMALIZED FREE ENERGY PREDICTED BY IDOCK:   -4.46 KCAL/MOL
REMARK 922        TOTAL FREE ENERGY PREDICTED BY IDOCK:   -5.04 KCAL/MOL
REMARK 923 INTER-LIGAND FREE ENERGY PREDICTED BY IDOCK:   -4.74 KCAL/MOL
REMARK 924 INTRA-LIGAND FREE ENERGY PREDICTED BY IDOCK:   -0.30 KCAL/MOL
REMARK 927      BINDING AFFINITY PREDICTED BY RF-SCORE:    0.00 PKD
ROOT
HETATM    1  C   UNL     1      -8.585   4.830  70.695  1.00  0.00    -0.118 C  
HETATM    2  C   UNL     1      -9.820   4.148  71.292  1.00  0.00    -0.249 C  
HETATM    3  C   UNL     1      -9.470   2.705  71.665  1.00  0.00    -0.207 C  
HETATM    4  C   UNL     1     -10.373   4.902  72.524  1.00  0.00    -0.256 C  
ENDROOT
BRANCH   4   5
HETATM    5  C   UNL     1     -10.788   6.326  72.226  1.00  0.00    -0.276 A  
HETATM    6  C   UNL     1     -11.955   6.598  71.503  1.00  0.00    -0.402 A  
HETATM    7  C   UNL     1     -12.271   7.906  71.125  1.00  0.00    -0.273 A  
HETATM    8  C   UNL     1     -11.426   8.973  71.469  1.00  0.00    -0.407 A  
HETATM    9  C   UNL     1     -11.661  10.372  70.922  1.00  0.00    -0.455 C  
HETATM   10  C   UNL     1     -10.299   8.707  72.258  1.00  0.00    -0.376 A  
HETATM   11  C   UNL     1     -11.522  10.425  69.399  1.00  0.00    -0.227 C  
HETATM   12  C   UNL     1      -9.982   7.398  72.628  1.00  0.00    -0.241 A  
HETATM   13  C   UNL     1     -13.003  10.957  71.368  1.00  0.00    -0.527 C  
HETATM   14  O   UNL     1     -10.385   9.850  68.931  1.00  0.00    -0.187 OA 
HETATM   15  O   UNL     1     -12.312  10.973  68.644  1.00  0.00    -0.539 OA 
ENDBRANCH   4   5
TORSDOF 1
ENDMDL
MODEL       43
REMARK 921   NORMALIZED FREE ENERGY PREDICTED BY IDOCK:   -4.46 KCAL/MOL
REMARK 922        TOTAL FREE ENERGY PREDICTED BY IDOCK:   -5.04 KCAL/MOL
REMARK 923 INTER-LIGAND FREE ENERGY PREDICTED BY IDOCK:   -4.68 KCAL/MOL
REMARK 924 INTRA-LIGAND FREE ENERGY PREDICTED BY IDOCK:   -0.36 KCAL/MOL
REMARK 927      BINDING AFFINITY PREDICTED BY RF-SCORE:    0.00 PKD
ROOT
HETATM    1  C   UNL     1     -11.923  13.502  68.589  1.00  0.00    -0.378 C  
HETATM    2  C   UNL     1     -10.909  12.588  67.893  1.00  0.00    -0.251 C  
HETATM    3  C   UNL     1     -11.446  11.155  67.879  1.00  0.00    -0.359 C  
HETATM    4  C   UNL     1     -10.583  13.054  66.455  1.00  0.00    -0.292 C  
ENDROOT
BRANCH   4   5
HETATM    5  C   UNL     1     -10.000  14.449  66.388  1.00  0.00    -0.305 A  
HETATM    6  C   UNL     1      -8.759  14.738  66.968  1.00  0.00    -0.258 A  
HETATM    7  C   UNL     1      -8.281  16.051  67.011  1.00  0.00    -0.255 A  
HETATM    8  C   UNL     1      -9.034  17.104  66.467  1.00  0.00    -0.300 A  
HETATM    9  C   UNL     1      -8.613  18.553  66.657  1.00  0.00    -0.295 C  
HETATM   10  C   UNL     1     -10.240  16.800  65.820  1.00  0.00    -0.311 A  
HETATM   11  C   UNL     1      -8.630  18.968  68.129  1.00  0.00    -0.320 C  
HETATM   12  C   UNL     1     -10.719  15.489  65.785  1.00  0.00    -0.362 A  
HETATM   13  C   UNL     1      -7.256  18.856  66.018  1.00  0.00    -0.293 C  
HETATM   14  O   UNL     1      -9.781  18.655  68.776  1.00  0.00    -0.360 OA 
HETATM   15  O   UNL     1      -7.732  19.576  68.693  1.00  0.00    -0.344 OA 
ENDBRANCH   4   5
TORSDOF 1
ENDMDL
MODEL       44
REMARK 921   NORMALIZED FREE ENERGY PREDICTED BY IDOCK:   -4.39 KCAL/MOL
REMARK 922        TOTAL FREE ENERGY PREDICTED BY IDOCK:   -4.97 KCAL/MOL
REMARK 923 INTER-LIGAND FREE ENERGY PREDICTED BY IDOCK:   -4.84 KCAL/MOL
REMARK 924 INTRA-LIGAND FREE ENERGY PREDICTED BY IDOCK:   -0.13 KCAL/MOL
REMARK 927      BINDING AFFINITY PREDICTED BY RF-SCORE:    0.00 PKD
ROOT
HETATM    1  C   UNL     1      -8.266  19.922  66.035  1.00  0.00    -0.310 C  
HETATM    2  C   UNL     1      -7.202  19.808  67.131  1.00  0.00    -0.251 C  
HETATM    3  C   UNL     1      -6.378  21.097  67.173  1.00  0.00    -0.413 C  
HETATM    4  C   UNL     1      -7.816  19.518  68.521  1.00  0.00    -0.382 C  
ENDROOT
BRANCH   4   5
HETATM    5  C   UNL     1      -8.610  18.230  68.576  1.00  0.00    -0.323 A  
HETATM    6  C   UNL     1      -9.988  18.225  68.336  1.00  0.00    -0.401 A  
HETATM    7  C   UNL     1     -10.737  17.058  68.508  1.00  0.00    -0.352 A  
HETATM    8  C   UNL     1     -10.119  15.866  68.918  1.00  0.00    -0.225 A  
HETATM    9  C   UNL     1     -10.938  14.636  69.276  1.00  0.00    -0.278 C  
HETATM   10  C   UNL     1      -8.727  15.857  69.084  1.00  0.00    -0.256 A  
HETATM   11  C   UNL     1     -11.841  14.879  70.487  1.00  0.00    -0.303 C  
HETATM   12  C   UNL     1      -7.982  17.026  68.919  1.00  0.00    -0.217 A  
HETATM   13  C   UNL     1     -11.746  14.106  68.090  1.00  0.00    -0.390 C  
HETATM   14  O   UNL     1     -11.198  15.423  71.552  1.00  0.00    -0.384 OA 
HETATM   15  O   UNL     1     -13.023  14.574  70.549  1.00  0.00    -0.350 OA 
ENDBRANCH   4   5
TORSDOF 1
ENDMDL
MODEL       45
REMARK 921   NORMALIZED FREE ENERGY PREDICTED BY IDOCK:   -4.35 KCAL/MOL
REMARK 922        TOTAL FREE ENERGY PREDICTED BY IDOCK:   -4.93 KCAL/MOL
REMARK 923 INTER-LIGAND FREE ENERGY PREDICTED BY IDOCK:   -4.60 KCAL/MOL
REMARK 924 INTRA-LIGAND FREE ENERGY PREDICTED BY IDOCK:   -0.33 KCAL/MOL
REMARK 927      BINDING AFFINITY PREDICTED BY RF-SCORE:    0.00 PKD
ROOT
HETATM    1  C   UNL     1      -9.331   9.435  65.584  1.00  0.00    -0.309 C  
HETATM    2  C   UNL     1     -10.463   9.176  66.583  1.00  0.00    -0.237 C  
HETATM    3  C   UNL     1     -10.454   7.700  66.986  1.00  0.00    -0.419 C  
HETATM    4  C   UNL     1     -10.360  10.076  67.837  1.00  0.00    -0.249 C  
ENDROOT
BRANCH   4   5
HETATM    5  C   UNL     1     -10.412  11.556  67.526  1.00  0.00    -0.229 A  
HETATM    6  C   UNL     1      -9.393  12.416  67.953  1.00  0.00    -0.195 A  
HETATM    7  C   UNL     1      -9.503  13.797  67.772  1.00  0.00    -0.216 A  
HETATM    8  C   UNL     1     -10.636  14.348  67.152  1.00  0.00    -0.277 A  
HETATM    9  C   UNL     1     -10.853  15.852  67.101  1.00  0.00    -0.267 C  
HETATM   10  C   UNL     1     -11.618  13.478  66.658  1.00  0.00    -0.396 A  
HETATM   11  C   UNL     1     -11.012  16.458  68.497  1.00  0.00    -0.350 C  
HETATM   12  C   UNL     1     -11.509  12.099  66.847  1.00  0.00    -0.414 A  
HETATM   13  C   UNL     1      -9.757  16.575  66.314  1.00  0.00    -0.328 C  
HETATM   14  O   UNL     1     -11.917  15.812  69.276  1.00  0.00    -0.369 OA 
HETATM   15  O   UNL     1     -10.439  17.462  68.892  1.00  0.00    -0.345 OA 
ENDBRANCH   4   5
TORSDOF 1
ENDMDL
MODEL       46
REMARK 921   NORMALIZED FREE ENERGY PREDICTED BY IDOCK:   -4.35 KCAL/MOL
REMARK 922        TOTAL FREE ENERGY PREDICTED BY IDOCK:   -4.92 KCAL/MOL
REMARK 923 INTER-LIGAND FREE ENERGY PREDICTED BY IDOCK:   -4.66 KCAL/MOL
REMARK 924 INTRA-LIGAND FREE ENERGY PREDICTED BY IDOCK:   -0.25 KCAL/MOL
REMARK 927      BINDING AFFINITY PREDICTED BY RF-SCORE:    0.00 PKD
ROOT
HETATM    1  C   UNL     1     -10.966   6.488  68.163  1.00  0.00    -0.365 C  
HETATM    2  C   UNL     1     -10.446   7.191  69.421  1.00  0.00    -0.232 C  
HETATM    3  C   UNL     1      -9.692   6.181  70.289  1.00  0.00    -0.195 C  
HETATM    4  C   UNL     1      -9.539   8.398  69.090  1.00  0.00    -0.164 C  
ENDROOT
BRANCH   4   5
HETATM    5  C   UNL     1     -10.229   9.468  68.272  1.00  0.00    -0.225 A  
HETATM    6  C   UNL     1      -9.968   9.607  66.904  1.00  0.00    -0.272 A  
HETATM    7  C   UNL     1     -10.512  10.671  66.179  1.00  0.00    -0.260 A  
HETATM    8  C   UNL     1     -11.336  11.617  66.809  1.00  0.00    -0.354 A  
HETATM    9  C   UNL     1     -11.795  12.871  66.081  1.00  0.00    -0.487 C  
HETATM   10  C   UNL     1     -11.656  11.432  68.161  1.00  0.00    -0.364 A  
HETATM   11  C   UNL     1     -10.621  13.776  65.699  1.00  0.00    -0.298 C  
HETATM   12  C   UNL     1     -11.105  10.373  68.884  1.00  0.00    -0.296 A  
HETATM   13  C   UNL     1     -12.660  12.555  64.859  1.00  0.00    -0.469 C  
HETATM   14  O   UNL     1      -9.769  14.032  66.724  1.00  0.00    -0.259 OA 
HETATM   15  O   UNL     1     -10.461  14.285  64.600  1.00  0.00    -0.425 OA 
ENDBRANCH   4   5
TORSDOF 1
ENDMDL
MODEL       47
REMARK 921   NORMALIZED FREE ENERGY PREDICTED BY IDOCK:   -4.34 KCAL/MOL
REMARK 922        TOTAL FREE ENERGY PREDICTED BY IDOCK:   -4.92 KCAL/MOL
REMARK 923 INTER-LIGAND FREE ENERGY PREDICTED BY IDOCK:   -5.02 KCAL/MOL
REMARK 924 INTRA-LIGAND FREE ENERGY PREDICTED BY IDOCK:    0.10 KCAL/MOL
REMARK 927      BINDING AFFINITY PREDICTED BY RF-SCORE:    0.00 PKD
ROOT
HETATM    1  C   UNL     1     -11.021  10.325  67.179  1.00  0.00    -0.233 C  
HETATM    2  C   UNL     1     -11.161  11.671  67.897  1.00  0.00    -0.306 C  
HETATM    3  C   UNL     1     -11.691  12.716  66.912  1.00  0.00    -0.453 C  
HETATM    4  C   UNL     1     -12.081  11.586  69.137  1.00  0.00    -0.329 C  
ENDROOT
BRANCH   4   5
HETATM    5  C   UNL     1     -11.598  10.605  70.184  1.00  0.00    -0.414 A  
HETATM    6  C   UNL     1     -10.292  10.102  70.149  1.00  0.00    -0.280 A  
HETATM    7  C   UNL     1      -9.888   9.107  71.042  1.00  0.00    -0.366 A  
HETATM    8  C   UNL     1     -10.783   8.597  71.996  1.00  0.00    -0.427 A  
HETATM    9  C   UNL     1     -10.417   7.398  72.858  1.00  0.00    -0.344 C  
HETATM   10  C   UNL     1     -12.066   9.156  72.078  1.00  0.00    -0.431 A  
HETATM   11  C   UNL     1     -10.196   6.136  72.023  1.00  0.00    -0.194 C  
HETATM   12  C   UNL     1     -12.469  10.146  71.179  1.00  0.00    -0.490 A  
HETATM   13  C   UNL     1      -9.214   7.673  73.762  1.00  0.00    -0.333 C  
HETATM   14  O   UNL     1     -11.195   5.877  71.142  1.00  0.00    -0.276 OA 
HETATM   15  O   UNL     1      -9.248   5.374  72.147  1.00  0.00    -0.142 OA 
ENDBRANCH   4   5
TORSDOF 1
ENDMDL
MODEL       48
REMARK 921   NORMALIZED FREE ENERGY PREDICTED BY IDOCK:   -4.34 KCAL/MOL
REMARK 922        TOTAL FREE ENERGY PREDICTED BY IDOCK:   -4.91 KCAL/MOL
REMARK 923 INTER-LIGAND FREE ENERGY PREDICTED BY IDOCK:   -4.73 KCAL/MOL
REMARK 924 INTRA-LIGAND FREE ENERGY PREDICTED BY IDOCK:   -0.18 KCAL/MOL
REMARK 927      BINDING AFFINITY PREDICTED BY RF-SCORE:    0.00 PKD
ROOT
HETATM    1  C   UNL     1      -9.590   9.806  65.772  1.00  0.00    -0.318 C  
HETATM    2  C   UNL     1      -9.318  10.553  64.462  1.00  0.00    -0.299 C  
HETATM    3  C   UNL     1      -9.047   9.538  63.349  1.00  0.00    -0.145 C  
HETATM    4  C   UNL     1     -10.483  11.489  64.064  1.00  0.00    -0.424 C  
ENDROOT
BRANCH   4   5
HETATM    5  C   UNL     1     -10.783  12.555  65.095  1.00  0.00    -0.323 A  
HETATM    6  C   UNL     1      -9.759  13.121  65.863  1.00  0.00    -0.190 A  
HETATM    7  C   UNL     1     -10.053  14.014  66.897  1.00  0.00    -0.259 A  
HETATM    8  C   UNL     1     -11.383  14.366  67.180  1.00  0.00    -0.356 A  
HETATM    9  C   UNL     1     -11.734  15.196  68.405  1.00  0.00    -0.338 C  
HETATM   10  C   UNL     1     -12.399  13.856  66.360  1.00  0.00    -0.468 A  
HETATM   11  C   UNL     1     -11.383  14.476  69.708  1.00  0.00    -0.260 C  
HETATM   12  C   UNL     1     -12.103  12.958  65.333  1.00  0.00    -0.501 A  
HETATM   13  C   UNL     1     -11.107  16.591  68.365  1.00  0.00    -0.333 C  
HETATM   14  O   UNL     1     -11.845  13.201  69.774  1.00  0.00    -0.307 OA 
HETATM   15  O   UNL     1     -10.790  14.984  70.649  1.00  0.00    -0.209 OA 
ENDBRANCH   4   5
TORSDOF 1
ENDMDL
MODEL       49
REMARK 921   NORMALIZED FREE ENERGY PREDICTED BY IDOCK:   -4.32 KCAL/MOL
REMARK 922        TOTAL FREE ENERGY PREDICTED BY IDOCK:   -4.90 KCAL/MOL
REMARK 923 INTER-LIGAND FREE ENERGY PREDICTED BY IDOCK:   -4.84 KCAL/MOL
REMARK 924 INTRA-LIGAND FREE ENERGY PREDICTED BY IDOCK:   -0.06 KCAL/MOL
REMARK 927      BINDING AFFINITY PREDICTED BY RF-SCORE:    0.00 PKD
ROOT
HETATM    1  C   UNL     1     -12.045  13.193  70.740  1.00  0.00    -0.290 C  
HETATM    2  C   UNL     1     -12.407  14.400  69.869  1.00  0.00    -0.365 C  
HETATM    3  C   UNL     1     -12.743  15.591  70.770  1.00  0.00    -0.511 C  
HETATM    4  C   UNL     1     -11.277  14.775  68.882  1.00  0.00    -0.282 C  
ENDROOT
BRANCH   4   5
HETATM    5  C   UNL     1     -10.917  13.663  67.921  1.00  0.00    -0.277 A  
HETATM    6  C   UNL     1      -9.639  13.585  67.357  1.00  0.00    -0.227 A  
HETATM    7  C   UNL     1      -9.348  12.631  66.378  1.00  0.00    -0.198 A  
HETATM    8  C   UNL     1     -10.333  11.727  65.947  1.00  0.00    -0.280 A  
HETATM    9  C   UNL     1     -10.088  10.799  64.767  1.00  0.00    -0.396 C  
HETATM   10  C   UNL     1     -11.589  11.758  66.569  1.00  0.00    -0.256 A  
HETATM   11  C   UNL     1      -9.871  11.572  63.465  1.00  0.00    -0.383 C  
HETATM   12  C   UNL     1     -11.878  12.718  67.541  1.00  0.00    -0.402 A  
HETATM   13  C   UNL     1      -8.940   9.821  65.020  1.00  0.00    -0.247 C  
HETATM   14  O   UNL     1     -10.817  12.514  63.219  1.00  0.00    -0.406 OA 
HETATM   15  O   UNL     1      -8.972  11.353  62.665  1.00  0.00    -0.316 OA 
ENDBRANCH   4   5
TORSDOF 1
ENDMDL
MODEL       50
REMARK 921   NORMALIZED FREE ENERGY PREDICTED BY IDOCK:   -4.30 KCAL/MOL
REMARK 922        TOTAL FREE ENERGY PREDICTED BY IDOCK:   -4.87 KCAL/MOL
REMARK 923 INTER-LIGAND FREE ENERGY PREDICTED BY IDOCK:   -4.54 KCAL/MOL
REMARK 924 INTRA-LIGAND FREE ENERGY PREDICTED BY IDOCK:   -0.33 KCAL/MOL
REMARK 927      BINDING AFFINITY PREDICTED BY RF-SCORE:    0.00 PKD
ROOT
HETATM    1  C   UNL     1     -11.100   3.350  73.520  1.00  0.00    -0.317 C  
HETATM    2  C   UNL     1      -9.684   3.619  73.001  1.00  0.00    -0.175 C  
HETATM    3  C   UNL     1      -8.948   2.288  72.831  1.00  0.00    -0.081 C  
HETATM    4  C   UNL     1      -9.683   4.408  71.671  1.00  0.00    -0.238 C  
ENDROOT
BRANCH   4   5
HETATM    5  C   UNL     1     -10.353   5.761  71.769  1.00  0.00    -0.271 A  
HETATM    6  C   UNL     1     -11.408   6.104  70.915  1.00  0.00    -0.355 A  
HETATM    7  C   UNL     1     -11.943   7.395  70.925  1.00  0.00    -0.308 A  
HETATM    8  C   UNL     1     -11.434   8.372  71.797  1.00  0.00    -0.365 A  
HETATM    9  C   UNL     1     -11.882   9.822  71.702  1.00  0.00    -0.429 C  
HETATM   10  C   UNL     1     -10.429   8.004  72.702  1.00  0.00    -0.408 A  
HETATM   11  C   UNL     1     -11.498  10.456  70.364  1.00  0.00    -0.337 C  
HETATM   12  C   UNL     1      -9.892   6.715  72.684  1.00  0.00    -0.180 A  
HETATM   13  C   UNL     1     -13.377   9.991  71.978  1.00  0.00    -0.513 C  
HETATM   14  O   UNL     1     -10.197  10.274  70.022  1.00  0.00    -0.246 OA 
HETATM   15  O   UNL     1     -12.249  11.121  69.665  1.00  0.00    -0.320 OA 
ENDBRANCH   4   5
TORSDOF 1
ENDMDL
MODEL       51
REMARK 921   NORMALIZED FREE ENERGY PREDICTED BY IDOCK:   -4.29 KCAL/MOL
REMARK 922        TOTAL FREE ENERGY PREDICTED BY IDOCK:   -4.86 KCAL/MOL
REMARK 923 INTER-LIGAND FREE ENERGY PREDICTED BY IDOCK:   -4.75 KCAL/MOL
REMARK 924 INTRA-LIGAND FREE ENERGY PREDICTED BY IDOCK:   -0.11 KCAL/MOL
REMARK 927      BINDING AFFINITY PREDICTED BY RF-SCORE:    0.00 PKD
ROOT
HETATM    1  C   UNL     1     -11.087   6.757  66.976  1.00  0.00    -0.369 C  
HETATM    2  C   UNL     1      -9.680   7.196  67.395  1.00  0.00    -0.186 C  
HETATM    3  C   UNL     1      -8.775   5.965  67.490  1.00  0.00    -0.104 C  
HETATM    4  C   UNL     1      -9.073   8.236  66.425  1.00  0.00    -0.226 C  
ENDROOT
BRANCH   4   5
HETATM    5  C   UNL     1      -9.888   9.506  66.311  1.00  0.00    -0.334 A  
HETATM    6  C   UNL     1      -9.899  10.250  65.126  1.00  0.00    -0.389 A  
HETATM    7  C   UNL     1     -10.552  11.484  65.064  1.00  0.00    -0.354 A  
HETATM    8  C   UNL     1     -11.215  11.998  66.190  1.00  0.00    -0.394 A  
HETATM    9  C   UNL     1     -11.781  13.410  66.194  1.00  0.00    -0.405 C  
HETATM   10  C   UNL     1     -11.266  11.216  67.352  1.00  0.00    -0.363 A  
HETATM   11  C   UNL     1     -10.686  14.468  66.044  1.00  0.00    -0.305 C  
HETATM   12  C   UNL     1     -10.606   9.987  67.413  1.00  0.00    -0.330 A  
HETATM   13  C   UNL     1     -12.877  13.604  65.144  1.00  0.00    -0.382 C  
HETATM   14  O   UNL     1      -9.643  14.306  66.897  1.00  0.00    -0.242 OA 
HETATM   15  O   UNL     1     -10.735  15.419  65.277  1.00  0.00    -0.363 OA 
ENDBRANCH   4   5
TORSDOF 1
ENDMDL
MODEL       52
REMARK 921   NORMALIZED FREE ENERGY PREDICTED BY IDOCK:   -4.29 KCAL/MOL
REMARK 922        TOTAL FREE ENERGY PREDICTED BY IDOCK:   -4.86 KCAL/MOL
REMARK 923 INTER-LIGAND FREE ENERGY PREDICTED BY IDOCK:   -4.49 KCAL/MOL
REMARK 924 INTRA-LIGAND FREE ENERGY PREDICTED BY IDOCK:   -0.37 KCAL/MOL
REMARK 927      BINDING AFFINITY PREDICTED BY RF-SCORE:    0.00 PKD
ROOT
HETATM    1  C   UNL     1     -11.139   6.668  69.667  1.00  0.00    -0.390 C  
HETATM    2  C   UNL     1     -11.682   7.276  70.965  1.00  0.00    -0.340 C  
HETATM    3  C   UNL     1     -11.774   6.184  72.034  1.00  0.00    -0.354 C  
HETATM    4  C   UNL     1     -10.818   8.453  71.472  1.00  0.00    -0.323 C  
ENDROOT
BRANCH   4   5
HETATM    5  C   UNL     1     -10.718   9.599  70.488  1.00  0.00    -0.374 A  
HETATM    6  C   UNL     1     -11.862  10.284  70.063  1.00  0.00    -0.305 A  
HETATM    7  C   UNL     1     -11.780  11.258  69.064  1.00  0.00    -0.410 A  
HETATM    8  C   UNL     1     -10.546  11.571  68.472  1.00  0.00    -0.236 A  
HETATM    9  C   UNL     1     -10.462  12.499  67.269  1.00  0.00    -0.232 C  
HETATM   10  C   UNL     1      -9.392  10.937  68.952  1.00  0.00    -0.169 A  
HETATM   11  C   UNL     1     -11.187  11.925  66.050  1.00  0.00    -0.324 C  
HETATM   12  C   UNL     1      -9.478   9.960  69.945  1.00  0.00    -0.256 A  
HETATM   13  C   UNL     1     -10.958  13.911  67.585  1.00  0.00    -0.278 C  
HETATM   14  O   UNL     1     -10.848  10.643  65.762  1.00  0.00    -0.091 OA 
HETATM   15  O   UNL     1     -11.963  12.550  65.341  1.00  0.00    -0.406 OA 
ENDBRANCH   4   5
TORSDOF 1
ENDMDL
MODEL       53
REMARK 921   NORMALIZED FREE ENERGY PREDICTED BY IDOCK:   -4.28 KCAL/MOL
REMARK 922        TOTAL FREE ENERGY PREDICTED BY IDOCK:   -4.85 KCAL/MOL
REMARK 923 INTER-LIGAND FREE ENERGY PREDICTED BY IDOCK:   -5.01 KCAL/MOL
REMARK 924 INTRA-LIGAND FREE ENERGY PREDICTED BY IDOCK:    0.16 KCAL/MOL
REMARK 927      BINDING AFFINITY PREDICTED BY RF-SCORE:    0.00 PKD
ROOT
HETATM    1  C   UNL     1     -12.652  12.872  65.152  1.00  0.00    -0.536 C  
HETATM    2  C   UNL     1     -11.455  13.664  65.690  1.00  0.00    -0.320 C  
HETATM    3  C   UNL     1     -11.402  15.029  65.001  1.00  0.00    -0.395 C  
HETATM    4  C   UNL     1     -11.506  13.838  67.226  1.00  0.00    -0.367 C  
ENDROOT
BRANCH   4   5
HETATM    5  C   UNL     1     -11.512  12.528  67.984  1.00  0.00    -0.368 A  
HETATM    6  C   UNL     1     -11.783  12.494  69.357  1.00  0.00    -0.383 A  
HETATM    7  C   UNL     1     -11.668  11.302  70.077  1.00  0.00    -0.428 A  
HETATM    8  C   UNL     1     -11.284  10.114  69.435  1.00  0.00    -0.265 A  
HETATM    9  C   UNL     1     -10.987   8.851  70.227  1.00  0.00    -0.266 C  
HETATM   10  C   UNL     1     -11.087  10.136  68.047  1.00  0.00    -0.302 A  
HETATM   11  C   UNL     1      -9.790   9.027  71.163  1.00  0.00    -0.300 C  
HETATM   12  C   UNL     1     -11.196  11.331  67.332  1.00  0.00    -0.370 A  
HETATM   13  C   UNL     1     -12.209   8.340  70.994  1.00  0.00    -0.189 C  
HETATM   14  O   UNL     1      -8.693   9.552  70.559  1.00  0.00    -0.228 OA 
HETATM   15  O   UNL     1      -9.765   8.689  72.337  1.00  0.00    -0.295 OA 
ENDBRANCH   4   5
TORSDOF 1
ENDMDL
MODEL       54
REMARK 921   NORMALIZED FREE ENERGY PREDICTED BY IDOCK:   -4.28 KCAL/MOL
REMARK 922        TOTAL FREE ENERGY PREDICTED BY IDOCK:   -4.85 KCAL/MOL
REMARK 923 INTER-LIGAND FREE ENERGY PREDICTED BY IDOCK:   -4.50 KCAL/MOL
REMARK 924 INTRA-LIGAND FREE ENERGY PREDICTED BY IDOCK:   -0.35 KCAL/MOL
REMARK 927      BINDING AFFINITY PREDICTED BY RF-SCORE:    0.00 PKD
ROOT
HETATM    1  C   UNL     1     -12.086  13.152  66.220  1.00  0.00    -0.460 C  
HETATM    2  C   UNL     1     -11.661  12.141  65.149  1.00  0.00    -0.366 C  
HETATM    3  C   UNL     1     -11.802  12.780  63.766  1.00  0.00    -0.572 C  
HETATM    4  C   UNL     1     -10.217  11.630  65.361  1.00  0.00    -0.306 C  
ENDROOT
BRANCH   4   5
HETATM    5  C   UNL     1     -10.007  10.940  66.691  1.00  0.00    -0.250 A  
HETATM    6  C   UNL     1     -10.632   9.720  66.974  1.00  0.00    -0.269 A  
HETATM    7  C   UNL     1     -10.535   9.147  68.245  1.00  0.00    -0.254 A  
HETATM    8  C   UNL     1      -9.803   9.782  69.261  1.00  0.00    -0.208 A  
HETATM    9  C   UNL     1      -9.828   9.265  70.691  1.00  0.00    -0.332 C  
HETATM   10  C   UNL     1      -9.116  10.965  68.952  1.00  0.00    -0.151 A  
HETATM   11  C   UNL     1     -11.227   9.343  71.305  1.00  0.00    -0.367 C  
HETATM   12  C   UNL     1      -9.221  11.538  67.683  1.00  0.00    -0.171 A  
HETATM   13  C   UNL     1      -9.255   7.852  70.812  1.00  0.00    -0.159 C  
HETATM   14  O   UNL     1     -11.824  10.553  71.162  1.00  0.00    -0.346 OA 
HETATM   15  O   UNL     1     -11.768   8.439  71.924  1.00  0.00    -0.291 OA 
ENDBRANCH   4   5
TORSDOF 1
ENDMDL
MODEL       55
REMARK 921   NORMALIZED FREE ENERGY PREDICTED BY IDOCK:   -4.26 KCAL/MOL
REMARK 922        TOTAL FREE ENERGY PREDICTED BY IDOCK:   -4.82 KCAL/MOL
REMARK 923 INTER-LIGAND FREE ENERGY PREDICTED BY IDOCK:   -4.52 KCAL/MOL
REMARK 924 INTRA-LIGAND FREE ENERGY PREDICTED BY IDOCK:   -0.30 KCAL/MOL
REMARK 927      BINDING AFFINITY PREDICTED BY RF-SCORE:    0.00 PKD
ROOT
HETATM    1  C   UNL     1     -12.438  11.108  69.791  1.00  0.00    -0.230 C  
HETATM    2  C   UNL     1     -12.329  11.255  71.313  1.00  0.00    -0.375 C  
HETATM    3  C   UNL     1     -13.153  12.463  71.764  1.00  0.00    -0.446 C  
HETATM    4  C   UNL     1     -12.788   9.982  72.062  1.00  0.00    -0.484 C  
ENDROOT
BRANCH   4   5
HETATM    5  C   UNL     1     -11.988   8.748  71.705  1.00  0.00    -0.418 A  
HETATM    6  C   UNL     1     -12.627   7.559  71.335  1.00  0.00    -0.382 A  
HETATM    7  C   UNL     1     -11.892   6.389  71.126  1.00  0.00    -0.325 A  
HETATM    8  C   UNL     1     -10.496   6.387  71.277  1.00  0.00    -0.258 A  
HETATM    9  C   UNL     1      -9.700   5.092  71.223  1.00  0.00    -0.235 C  
HETATM   10  C   UNL     1      -9.852   7.596  71.573  1.00  0.00    -0.192 A  
HETATM   11  C   UNL     1     -10.076   4.138  72.359  1.00  0.00    -0.177 C  
HETATM   12  C   UNL     1     -10.590   8.761  71.789  1.00  0.00    -0.417 A  
HETATM   13  C   UNL     1      -9.809   4.394  69.866  1.00  0.00    -0.290 C  
HETATM   14  O   UNL     1     -10.074   4.718  73.587  1.00  0.00    -0.149 OA 
HETATM   15  O   UNL     1     -10.308   2.946  72.223  1.00  0.00    -0.143 OA 
ENDBRANCH   4   5
TORSDOF 1
ENDMDL
MODEL       56
REMARK 921   NORMALIZED FREE ENERGY PREDICTED BY IDOCK:   -4.23 KCAL/MOL
REMARK 922        TOTAL FREE ENERGY PREDICTED BY IDOCK:   -4.80 KCAL/MOL
REMARK 923 INTER-LIGAND FREE ENERGY PREDICTED BY IDOCK:   -4.48 KCAL/MOL
REMARK 924 INTRA-LIGAND FREE ENERGY PREDICTED BY IDOCK:   -0.32 KCAL/MOL
REMARK 927      BINDING AFFINITY PREDICTED BY RF-SCORE:    0.00 PKD
ROOT
HETATM    1  C   UNL     1     -13.115  10.572  71.832  1.00  0.00    -0.567 C  
HETATM    2  C   UNL     1     -12.236  10.626  70.579  1.00  0.00    -0.449 C  
HETATM    3  C   UNL     1     -12.126  12.076  70.102  1.00  0.00    -0.377 C  
HETATM    4  C   UNL     1     -10.830  10.030  70.819  1.00  0.00    -0.330 C  
ENDROOT
BRANCH   4   5
HETATM    5  C   UNL     1     -10.851   8.579  71.248  1.00  0.00    -0.312 A  
HETATM    6  C   UNL     1     -10.420   8.201  72.525  1.00  0.00    -0.409 A  
HETATM    7  C   UNL     1     -10.326   6.851  72.875  1.00  0.00    -0.251 A  
HETATM    8  C   UNL     1     -10.668   5.849  71.953  1.00  0.00    -0.290 A  
HETATM    9  C   UNL     1     -10.410   4.381  72.253  1.00  0.00    -0.230 C  
HETATM   10  C   UNL     1     -11.171   6.233  70.702  1.00  0.00    -0.401 A  
HETATM   11  C   UNL     1      -8.918   4.080  72.407  1.00  0.00    -0.110 C  
HETATM   12  C   UNL     1     -11.257   7.582  70.353  1.00  0.00    -0.270 A  
HETATM   13  C   UNL     1     -11.195   3.885  73.469  1.00  0.00    -0.312 C  
HETATM   14  O   UNL     1      -8.152   4.563  71.396  1.00  0.00    -0.090 OA 
HETATM   15  O   UNL     1      -8.428   3.421  73.313  1.00  0.00    -0.077 OA 
ENDBRANCH   4   5
TORSDOF 1
ENDMDL
MODEL       57
REMARK 921   NORMALIZED FREE ENERGY PREDICTED BY IDOCK:   -4.18 KCAL/MOL
REMARK 922        TOTAL FREE ENERGY PREDICTED BY IDOCK:   -4.75 KCAL/MOL
REMARK 923 INTER-LIGAND FREE ENERGY PREDICTED BY IDOCK:   -4.45 KCAL/MOL
REMARK 924 INTRA-LIGAND FREE ENERGY PREDICTED BY IDOCK:   -0.29 KCAL/MOL
REMARK 927      BINDING AFFINITY PREDICTED BY RF-SCORE:    0.00 PKD
ROOT
HETATM    1  C   UNL     1      -8.340   8.257  68.115  1.00  0.00    -0.129 C  
HETATM    2  C   UNL     1      -8.120   9.442  69.062  1.00  0.00    -0.106 C  
HETATM    3  C   UNL     1      -6.897   9.166  69.940  1.00  0.00    -0.052 C  
HETATM    4  C   UNL     1      -7.946  10.778  68.304  1.00  0.00    -0.118 C  
ENDROOT
BRANCH   4   5
HETATM    5  C   UNL     1      -9.137  11.148  67.446  1.00  0.00    -0.143 A  
HETATM    6  C   UNL     1      -8.968  11.551  66.117  1.00  0.00    -0.201 A  
HETATM    7  C   UNL     1     -10.056  12.008  65.367  1.00  0.00    -0.285 A  
HETATM    8  C   UNL     1     -11.340  12.065  65.932  1.00  0.00    -0.391 A  
HETATM    9  C   UNL     1     -12.497  12.718  65.193  1.00  0.00    -0.565 C  
HETATM   10  C   UNL     1     -11.518  11.589  67.239  1.00  0.00    -0.338 A  
HETATM   11  C   UNL     1     -12.261  14.211  64.959  1.00  0.00    -0.441 C  
HETATM   12  C   UNL     1     -10.428  11.140  67.988  1.00  0.00    -0.217 A  
HETATM   13  C   UNL     1     -12.830  12.005  63.881  1.00  0.00    -0.400 C  
HETATM   14  O   UNL     1     -11.885  14.890  66.073  1.00  0.00    -0.257 OA 
HETATM   15  O   UNL     1     -12.437  14.788  63.896  1.00  0.00    -0.811 OA 
ENDBRANCH   4   5
TORSDOF 1
ENDMDL
MODEL       58
REMARK 921   NORMALIZED FREE ENERGY PREDICTED BY IDOCK:   -4.17 KCAL/MOL
REMARK 922        TOTAL FREE ENERGY PREDICTED BY IDOCK:   -4.73 KCAL/MOL
REMARK 923 INTER-LIGAND FREE ENERGY PREDICTED BY IDOCK:   -4.37 KCAL/MOL
REMARK 924 INTRA-LIGAND FREE ENERGY PREDICTED BY IDOCK:   -0.36 KCAL/MOL
REMARK 927      BINDING AFFINITY PREDICTED BY RF-SCORE:    0.00 PKD
ROOT
HETATM    1  C   UNL     1      -9.660  14.497  68.612  1.00  0.00    -0.219 C  
HETATM    2  C   UNL     1     -11.189  14.474  68.704  1.00  0.00    -0.281 C  
HETATM    3  C   UNL     1     -11.707  15.904  68.867  1.00  0.00    -0.376 C  
HETATM    4  C   UNL     1     -11.843  13.803  67.473  1.00  0.00    -0.422 C  
ENDROOT
BRANCH   4   5
HETATM    5  C   UNL     1     -11.418  12.365  67.269  1.00  0.00    -0.421 A  
HETATM    6  C   UNL     1     -11.553  11.423  68.295  1.00  0.00    -0.376 A  
HETATM    7  C   UNL     1     -11.048  10.128  68.146  1.00  0.00    -0.290 A  
HETATM    8  C   UNL     1     -10.400   9.747  66.961  1.00  0.00    -0.305 A  
HETATM    9  C   UNL     1      -9.694   8.405  66.845  1.00  0.00    -0.292 C  
HETATM   10  C   UNL     1     -10.333  10.670  65.907  1.00  0.00    -0.291 A  
HETATM   11  C   UNL     1      -8.521   8.286  67.821  1.00  0.00    -0.131 C  
HETATM   12  C   UNL     1     -10.833  11.964  66.062  1.00  0.00    -0.342 A  
HETATM   13  C   UNL     1     -10.655   7.224  67.000  1.00  0.00    -0.415 C  
HETATM   14  O   UNL     1      -7.671   9.344  67.789  1.00  0.00    -0.088 OA 
HETATM   15  O   UNL     1      -8.305   7.321  68.538  1.00  0.00    -0.124 OA 
ENDBRANCH   4   5
TORSDOF 1
ENDMDL
MODEL       59
REMARK 921   NORMALIZED FREE ENERGY PREDICTED BY IDOCK:   -4.16 KCAL/MOL
REMARK 922        TOTAL FREE ENERGY PREDICTED BY IDOCK:   -4.73 KCAL/MOL
REMARK 923 INTER-LIGAND FREE ENERGY PREDICTED BY IDOCK:   -4.48 KCAL/MOL
REMARK 924 INTRA-LIGAND FREE ENERGY PREDICTED BY IDOCK:   -0.24 KCAL/MOL
REMARK 927      BINDING AFFINITY PREDICTED BY RF-SCORE:    0.00 PKD
ROOT
HETATM    1  C   UNL     1      -6.213  17.685  68.750  1.00  0.00    -0.197 C  
HETATM    2  C   UNL     1      -7.233  18.790  69.043  1.00  0.00    -0.309 C  
HETATM    3  C   UNL     1      -6.492  20.075  69.421  1.00  0.00    -0.365 C  
HETATM    4  C   UNL     1      -8.181  19.049  67.848  1.00  0.00    -0.311 C  
ENDROOT
BRANCH   4   5
HETATM    5  C   UNL     1      -8.988  17.835  67.442  1.00  0.00    -0.240 A  
HETATM    6  C   UNL     1     -10.131  17.460  68.158  1.00  0.00    -0.328 A  
HETATM    7  C   UNL     1     -10.803  16.272  67.856  1.00  0.00    -0.330 A  
HETATM    8  C   UNL     1     -10.347  15.436  66.825  1.00  0.00    -0.279 A  
HETATM    9  C   UNL     1     -10.959  14.062  66.597  1.00  0.00    -0.300 C  
HETATM   10  C   UNL     1      -9.248  15.852  66.062  1.00  0.00    -0.372 A  
HETATM   11  C   UNL     1     -10.741  13.130  67.790  1.00  0.00    -0.240 C  
HETATM   12  C   UNL     1      -8.574  17.035  66.370  1.00  0.00    -0.311 A  
HETATM   13  C   UNL     1     -12.441  14.136  66.226  1.00  0.00    -0.395 C  
HETATM   14  O   UNL     1      -9.454  13.079  68.220  1.00  0.00    -0.217 OA 
HETATM   15  O   UNL     1     -11.607  12.436  68.302  1.00  0.00    -0.289 OA 
ENDBRANCH   4   5
TORSDOF 1
ENDMDL
MODEL       60
REMARK 921   NORMALIZED FREE ENERGY PREDICTED BY IDOCK:   -4.14 KCAL/MOL
REMARK 922        TOTAL FREE ENERGY PREDICTED BY IDOCK:   -4.70 KCAL/MOL
REMARK 923 INTER-LIGAND FREE ENERGY PREDICTED BY IDOCK:   -4.37 KCAL/MOL
REMARK 924 INTRA-LIGAND FREE ENERGY PREDICTED BY IDOCK:   -0.33 KCAL/MOL
REMARK 927      BINDING AFFINITY PREDICTED BY RF-SCORE:    0.00 PKD
ROOT
HETATM    1  C   UNL     1     -11.790  12.937  68.273  1.00  0.00    -0.372 C  
HETATM    2  C   UNL     1     -10.554  12.322  67.609  1.00  0.00    -0.238 C  
HETATM    3  C   UNL     1     -10.869  10.884  67.188  1.00  0.00    -0.337 C  
HETATM    4  C   UNL     1     -10.068  13.143  66.392  1.00  0.00    -0.281 C  
ENDROOT
BRANCH   4   5
HETATM    5  C   UNL     1      -9.690  14.568  66.734  1.00  0.00    -0.269 A  
HETATM    6  C   UNL     1     -10.348  15.649  66.139  1.00  0.00    -0.329 A  
HETATM    7  C   UNL     1      -9.915  16.959  66.364  1.00  0.00    -0.321 A  
HETATM    8  C   UNL     1      -8.814  17.214  67.198  1.00  0.00    -0.232 A  
HETATM    9  C   UNL     1      -8.224  18.611  67.317  1.00  0.00    -0.261 C  
HETATM   10  C   UNL     1      -8.206  16.134  67.852  1.00  0.00    -0.159 A  
HETATM   11  C   UNL     1      -7.652  19.108  65.989  1.00  0.00    -0.260 C  
HETATM   12  C   UNL     1      -8.636  14.827  67.619  1.00  0.00    -0.180 A  
HETATM   13  C   UNL     1      -9.218  19.619  67.896  1.00  0.00    -0.410 C  
HETATM   14  O   UNL     1      -6.819  18.224  65.383  1.00  0.00    -0.496 OA 
HETATM   15  O   UNL     1      -7.857  20.214  65.511  1.00  0.00    -0.227 OA 
ENDBRANCH   4   5
TORSDOF 1
ENDMDL
MODEL       61
REMARK 921   NORMALIZED FREE ENERGY PREDICTED BY IDOCK:   -4.12 KCAL/MOL
REMARK 922        TOTAL FREE ENERGY PREDICTED BY IDOCK:   -4.68 KCAL/MOL
REMARK 923 INTER-LIGAND FREE ENERGY PREDICTED BY IDOCK:   -4.61 KCAL/MOL
REMARK 924 INTRA-LIGAND FREE ENERGY PREDICTED BY IDOCK:   -0.07 KCAL/MOL
REMARK 927      BINDING AFFINITY PREDICTED BY RF-SCORE:    0.00 PKD
ROOT
HETATM    1  C   UNL     1     -11.598   9.517  70.966  1.00  0.00    -0.419 C  
HETATM    2  C   UNL     1     -10.076   9.693  70.945  1.00  0.00    -0.257 C  
HETATM    3  C   UNL     1      -9.432   8.623  71.832  1.00  0.00    -0.369 C  
HETATM    4  C   UNL     1      -9.494   9.626  69.514  1.00  0.00    -0.211 C  
ENDROOT
BRANCH   4   5
HETATM    5  C   UNL     1     -10.046  10.685  68.586  1.00  0.00    -0.194 A  
HETATM    6  C   UNL     1     -11.218  10.460  67.854  1.00  0.00    -0.332 A  
HETATM    7  C   UNL     1     -11.658  11.389  66.908  1.00  0.00    -0.088 A  
HETATM    8  C   UNL     1     -10.934  12.570  66.677  1.00  0.00    -0.303 A  
HETATM    9  C   UNL     1     -11.299  13.507  65.536  1.00  0.00    -0.310 C  
HETATM   10  C   UNL     1      -9.804  12.828  67.464  1.00  0.00    -0.211 A  
HETATM   11  C   UNL     1     -11.131  12.840  64.169  1.00  0.00    -0.389 C  
HETATM   12  C   UNL     1      -9.363  11.894  68.404  1.00  0.00    -0.184 A  
HETATM   13  C   UNL     1     -12.703  14.096  65.688  1.00  0.00    -0.469 C  
HETATM   14  O   UNL     1      -9.931  12.230  63.999  1.00  0.00    -0.313 OA 
HETATM   15  O   UNL     1     -11.956  12.879  63.267  1.00  0.00    -0.555 OA 
ENDBRANCH   4   5
TORSDOF 1
ENDMDL
MODEL       62
REMARK 921   NORMALIZED FREE ENERGY PREDICTED BY IDOCK:   -4.12 KCAL/MOL
REMARK 922        TOTAL FREE ENERGY PREDICTED BY IDOCK:   -4.68 KCAL/MOL
REMARK 923 INTER-LIGAND FREE ENERGY PREDICTED BY IDOCK:   -4.36 KCAL/MOL
REMARK 924 INTRA-LIGAND FREE ENERGY PREDICTED BY IDOCK:   -0.32 KCAL/MOL
REMARK 927      BINDING AFFINITY PREDICTED BY RF-SCORE:    0.00 PKD
ROOT
HETATM    1  C   UNL     1     -11.470   3.927  73.577  1.00  0.00    -0.195 C  
HETATM    2  C   UNL     1      -9.966   4.191  73.700  1.00  0.00    -0.169 C  
HETATM    3  C   UNL     1      -9.265   2.913  74.166  1.00  0.00    -0.095 C  
HETATM    4  C   UNL     1      -9.345   4.691  72.375  1.00  0.00    -0.160 C  
ENDROOT
BRANCH   4   5
HETATM    5  C   UNL     1      -9.953   5.982  71.870  1.00  0.00    -0.195 A  
HETATM    6  C   UNL     1      -9.699   7.197  72.516  1.00  0.00    -0.180 A  
HETATM    7  C   UNL     1     -10.357   8.365  72.122  1.00  0.00    -0.397 A  
HETATM    8  C   UNL     1     -11.282   8.342  71.066  1.00  0.00    -0.304 A  
HETATM    9  C   UNL     1     -12.133   9.559  70.737  1.00  0.00    -0.305 C  
HETATM   10  C   UNL     1     -11.477   7.140  70.372  1.00  0.00    -0.317 A  
HETATM   11  C   UNL     1     -13.074   9.930  71.885  1.00  0.00    -0.459 C  
HETATM   12  C   UNL     1     -10.823   5.973  70.773  1.00  0.00    -0.358 A  
HETATM   13  C   UNL     1     -11.291  10.763  70.310  1.00  0.00    -0.374 C  
HETATM   14  O   UNL     1     -13.795   8.884  72.364  1.00  0.00    -0.447 OA 
HETATM   15  O   UNL     1     -13.231  11.061  72.322  1.00  0.00    -0.405 OA 
ENDBRANCH   4   5
TORSDOF 1
ENDMDL
MODEL       63
REMARK 921   NORMALIZED FREE ENERGY PREDICTED BY IDOCK:   -4.09 KCAL/MOL
REMARK 922        TOTAL FREE ENERGY PREDICTED BY IDOCK:   -4.65 KCAL/MOL
REMARK 923 INTER-LIGAND FREE ENERGY PREDICTED BY IDOCK:   -4.68 KCAL/MOL
REMARK 924 INTRA-LIGAND FREE ENERGY PREDICTED BY IDOCK:    0.04 KCAL/MOL
REMARK 927      BINDING AFFINITY PREDICTED BY RF-SCORE:    0.00 PKD
ROOT
HETATM    1  C   UNL     1     -11.073   9.859  71.071  1.00  0.00    -0.401 C  
HETATM    2  C   UNL     1     -12.181  10.796  70.580  1.00  0.00    -0.457 C  
HETATM    3  C   UNL     1     -12.951  11.342  71.785  1.00  0.00    -0.519 C  
HETATM    4  C   UNL     1     -11.632  11.959  69.721  1.00  0.00    -0.359 C  
ENDROOT
BRANCH   4   5
HETATM    5  C   UNL     1     -10.896  11.501  68.480  1.00  0.00    -0.254 A  
HETATM    6  C   UNL     1     -10.008  12.354  67.815  1.00  0.00    -0.205 A  
HETATM    7  C   UNL     1      -9.425  11.972  66.604  1.00  0.00    -0.222 A  
HETATM    8  C   UNL     1      -9.714  10.722  66.035  1.00  0.00    -0.264 A  
HETATM    9  C   UNL     1      -9.228  10.360  64.640  1.00  0.00    -0.282 C  
HETATM   10  C   UNL     1     -10.544   9.840  66.741  1.00  0.00    -0.208 A  
HETATM   11  C   UNL     1      -9.831  11.269  63.567  1.00  0.00    -0.359 C  
HETATM   12  C   UNL     1     -11.131  10.228  67.947  1.00  0.00    -0.341 A  
HETATM   13  C   UNL     1      -7.702  10.336  64.540  1.00  0.00    -0.107 C  
HETATM   14  O   UNL     1     -11.180  11.396  63.649  1.00  0.00    -0.402 OA 
HETATM   15  O   UNL     1      -9.198  11.805  62.669  1.00  0.00    -0.303 OA 
ENDBRANCH   4   5
TORSDOF 1
ENDMDL
MODEL       64
REMARK 921   NORMALIZED FREE ENERGY PREDICTED BY IDOCK:   -4.08 KCAL/MOL
REMARK 922        TOTAL FREE ENERGY PREDICTED BY IDOCK:   -4.64 KCAL/MOL
REMARK 923 INTER-LIGAND FREE ENERGY PREDICTED BY IDOCK:   -4.31 KCAL/MOL
REMARK 924 INTRA-LIGAND FREE ENERGY PREDICTED BY IDOCK:   -0.33 KCAL/MOL
REMARK 927      BINDING AFFINITY PREDICTED BY RF-SCORE:    0.00 PKD
ROOT
HETATM    1  C   UNL     1      -7.797  17.869  66.654  1.00  0.00    -0.272 C  
HETATM    2  C   UNL     1      -9.103  18.501  67.147  1.00  0.00    -0.280 C  
HETATM    3  C   UNL     1      -9.026  20.020  66.973  1.00  0.00    -0.445 C  
HETATM    4  C   UNL     1     -10.343  17.939  66.415  1.00  0.00    -0.365 C  
ENDROOT
BRANCH   4   5
HETATM    5  C   UNL     1     -10.518  16.445  66.579  1.00  0.00    -0.282 A  
HETATM    6  C   UNL     1     -10.881  15.895  67.814  1.00  0.00    -0.324 A  
HETATM    7  C   UNL     1     -10.922  14.509  67.993  1.00  0.00    -0.269 A  
HETATM    8  C   UNL     1     -10.604  13.643  66.935  1.00  0.00    -0.271 A  
HETATM    9  C   UNL     1     -10.475  12.144  67.157  1.00  0.00    -0.241 C  
HETATM   10  C   UNL     1     -10.314  14.196  65.680  1.00  0.00    -0.348 A  
HETATM   11  C   UNL     1      -9.331  11.800  68.113  1.00  0.00    -0.190 C  
HETATM   12  C   UNL     1     -10.268  15.580  65.506  1.00  0.00    -0.415 A  
HETATM   13  C   UNL     1     -11.786  11.506  67.621  1.00  0.00    -0.283 C  
HETATM   14  O   UNL     1      -8.154  12.400  67.800  1.00  0.00    -0.138 OA 
HETATM   15  O   UNL     1      -9.415  11.020  69.050  1.00  0.00    -0.184 OA 
ENDBRANCH   4   5
TORSDOF 1
ENDMDL
MODEL       65
REMARK 921   NORMALIZED FREE ENERGY PREDICTED BY IDOCK:   -4.07 KCAL/MOL
REMARK 922        TOTAL FREE ENERGY PREDICTED BY IDOCK:   -4.62 KCAL/MOL
REMARK 923 INTER-LIGAND FREE ENERGY PREDICTED BY IDOCK:   -4.40 KCAL/MOL
REMARK 924 INTRA-LIGAND FREE ENERGY PREDICTED BY IDOCK:   -0.22 KCAL/MOL
REMARK 927      BINDING AFFINITY PREDICTED BY RF-SCORE:    0.00 PKD
ROOT
HETATM    1  C   UNL     1      -8.146  17.992  66.489  1.00  0.00    -0.298 C  
HETATM    2  C   UNL     1      -7.963  17.922  68.008  1.00  0.00    -0.250 C  
HETATM    3  C   UNL     1      -7.444  19.268  68.517  1.00  0.00    -0.360 C  
HETATM    4  C   UNL     1      -9.269  17.538  68.742  1.00  0.00    -0.227 C  
ENDROOT
BRANCH   4   5
HETATM    5  C   UNL     1      -9.824  16.192  68.328  1.00  0.00    -0.224 A  
HETATM    6  C   UNL     1      -8.971  15.117  68.053  1.00  0.00    -0.172 A  
HETATM    7  C   UNL     1      -9.478  13.914  67.554  1.00  0.00    -0.216 A  
HETATM    8  C   UNL     1     -10.854  13.760  67.325  1.00  0.00    -0.292 A  
HETATM    9  C   UNL     1     -11.402  12.526  66.623  1.00  0.00    -0.389 C  
HETATM   10  C   UNL     1     -11.713  14.811  67.673  1.00  0.00    -0.364 A  
HETATM   11  C   UNL     1     -10.895  12.410  65.185  1.00  0.00    -0.297 C  
HETATM   12  C   UNL     1     -11.203  16.014  68.164  1.00  0.00    -0.325 A  
HETATM   13  C   UNL     1     -11.130  11.240  67.405  1.00  0.00    -0.358 C  
HETATM   14  O   UNL     1     -11.037  13.548  64.458  1.00  0.00    -0.351 OA 
HETATM   15  O   UNL     1     -10.448  11.390  64.682  1.00  0.00    -0.278 OA 
ENDBRANCH   4   5
TORSDOF 1
ENDMDL
MODEL       66
REMARK 921   NORMALIZED FREE ENERGY PREDICTED BY IDOCK:   -4.05 KCAL/MOL
REMARK 922        TOTAL FREE ENERGY PREDICTED BY IDOCK:   -4.60 KCAL/MOL
REMARK 923 INTER-LIGAND FREE ENERGY PREDICTED BY IDOCK:   -4.26 KCAL/MOL
REMARK 924 INTRA-LIGAND FREE ENERGY PREDICTED BY IDOCK:   -0.35 KCAL/MOL
REMARK 927      BINDING AFFINITY PREDICTED BY RF-SCORE:    0.00 PKD
ROOT
HETATM    1  C   UNL     1     -11.798   7.075  71.851  1.00  0.00    -0.341 C  
HETATM    2  C   UNL     1     -10.594   6.128  71.871  1.00  0.00    -0.263 C  
HETATM    3  C   UNL     1     -10.758   5.128  73.018  1.00  0.00    -0.308 C  
HETATM    4  C   UNL     1     -10.409   5.382  70.529  1.00  0.00    -0.344 C  
ENDROOT
BRANCH   4   5
HETATM    5  C   UNL     1     -10.193   6.303  69.348  1.00  0.00    -0.238 A  
HETATM    6  C   UNL     1      -9.201   7.290  69.379  1.00  0.00    -0.148 A  
HETATM    7  C   UNL     1      -9.085   8.217  68.339  1.00  0.00    -0.136 A  
HETATM    8  C   UNL     1      -9.959   8.171  67.241  1.00  0.00    -0.283 A  
HETATM    9  C   UNL     1      -9.960   9.270  66.189  1.00  0.00    -0.348 C  
HETATM   10  C   UNL     1     -10.901   7.136  67.178  1.00  0.00    -0.403 A  
HETATM   11  C   UNL     1     -10.364  10.624  66.774  1.00  0.00    -0.245 C  
HETATM   12  C   UNL     1     -11.020   6.216  68.222  1.00  0.00    -0.397 A  
HETATM   13  C   UNL     1      -8.626   9.371  65.447  1.00  0.00    -0.176 C  
HETATM   14  O   UNL     1     -11.503  10.587  67.512  1.00  0.00    -0.431 OA 
HETATM   15  O   UNL     1      -9.774  11.676  66.573  1.00  0.00    -0.197 OA 
ENDBRANCH   4   5
TORSDOF 1
ENDMDL
MODEL       67
REMARK 921   NORMALIZED FREE ENERGY PREDICTED BY IDOCK:   -4.04 KCAL/MOL
REMARK 922        TOTAL FREE ENERGY PREDICTED BY IDOCK:   -4.60 KCAL/MOL
REMARK 923 INTER-LIGAND FREE ENERGY PREDICTED BY IDOCK:   -4.24 KCAL/MOL
REMARK 924 INTRA-LIGAND FREE ENERGY PREDICTED BY IDOCK:   -0.36 KCAL/MOL
REMARK 927      BINDING AFFINITY PREDICTED BY RF-SCORE:    0.00 PKD
ROOT
HETATM    1  C   UNL     1      -9.258  13.439  68.127  1.00  0.00    -0.215 C  
HETATM    2  C   UNL     1      -9.785  13.657  66.705  1.00  0.00    -0.275 C  
HETATM    3  C   UNL     1     -10.572  12.421  66.263  1.00  0.00    -0.277 C  
HETATM    4  C   UNL     1     -10.665  14.924  66.591  1.00  0.00    -0.312 C  
ENDROOT
BRANCH   4   5
HETATM    5  C   UNL     1      -9.942  16.200  66.966  1.00  0.00    -0.259 A  
HETATM    6  C   UNL     1      -8.735  16.550  66.349  1.00  0.00    -0.357 A  
HETATM    7  C   UNL     1      -8.010  17.663  66.783  1.00  0.00    -0.268 A  
HETATM    8  C   UNL     1      -8.482  18.454  67.842  1.00  0.00    -0.274 A  
HETATM    9  C   UNL     1      -7.627  19.561  68.440  1.00  0.00    -0.365 C  
HETATM   10  C   UNL     1      -9.727  18.145  68.407  1.00  0.00    -0.363 A  
HETATM   11  C   UNL     1      -6.350  19.017  69.083  1.00  0.00    -0.276 C  
HETATM   12  C   UNL     1     -10.446  17.028  67.976  1.00  0.00    -0.353 A  
HETATM   13  C   UNL     1      -7.303  20.661  67.427  1.00  0.00    -0.384 C  
HETATM   14  O   UNL     1      -6.561  17.983  69.937  1.00  0.00    -0.075 OA 
HETATM   15  O   UNL     1      -5.231  19.479  68.913  1.00  0.00    -0.187 OA 
ENDBRANCH   4   5
TORSDOF 1
ENDMDL
MODEL       68
REMARK 921   NORMALIZED FREE ENERGY PREDICTED BY IDOCK:   -4.01 KCAL/MOL
REMARK 922        TOTAL FREE ENERGY PREDICTED BY IDOCK:   -4.57 KCAL/MOL
REMARK 923 INTER-LIGAND FREE ENERGY PREDICTED BY IDOCK:   -4.20 KCAL/MOL
REMARK 924 INTRA-LIGAND FREE ENERGY PREDICTED BY IDOCK:   -0.37 KCAL/MOL
REMARK 927      BINDING AFFINITY PREDICTED BY RF-SCORE:    0.00 PKD
ROOT
HETATM    1  C   UNL     1      -6.947   5.199  69.764  1.00  0.00    -0.054 C  
HETATM    2  C   UNL     1      -7.780   4.303  68.841  1.00  0.00    -0.058 C  
HETATM    3  C   UNL     1      -6.872   3.244  68.211  1.00  0.00    -0.049 C  
HETATM    4  C   UNL     1      -8.958   3.629  69.581  1.00  0.00    -0.175 C  
ENDROOT
BRANCH   4   5
HETATM    5  C   UNL     1      -9.931   4.613  70.194  1.00  0.00    -0.304 A  
HETATM    6  C   UNL     1     -10.595   5.556  69.401  1.00  0.00    -0.349 A  
HETATM    7  C   UNL     1     -11.397   6.540  69.984  1.00  0.00    -0.472 A  
HETATM    8  C   UNL     1     -11.558   6.597  71.378  1.00  0.00    -0.362 A  
HETATM    9  C   UNL     1     -12.283   7.758  72.041  1.00  0.00    -0.342 C  
HETATM   10  C   UNL     1     -10.953   5.605  72.163  1.00  0.00    -0.307 A  
HETATM   11  C   UNL     1     -11.562   9.089  71.818  1.00  0.00    -0.374 C  
HETATM   12  C   UNL     1     -10.146   4.628  71.577  1.00  0.00    -0.255 A  
HETATM   13  C   UNL     1     -13.749   7.853  71.613  1.00  0.00    -0.422 C  
HETATM   14  O   UNL     1     -10.235   9.050  72.105  1.00  0.00    -0.300 OA 
HETATM   15  O   UNL     1     -12.104  10.127  71.467  1.00  0.00    -0.377 OA 
ENDBRANCH   4   5
TORSDOF 1
ENDMDL
MODEL       69
REMARK 921   NORMALIZED FREE ENERGY PREDICTED BY IDOCK:   -4.01 KCAL/MOL
REMARK 922        TOTAL FREE ENERGY PREDICTED BY IDOCK:   -4.56 KCAL/MOL
REMARK 923 INTER-LIGAND FREE ENERGY PREDICTED BY IDOCK:   -4.19 KCAL/MOL
REMARK 924 INTRA-LIGAND FREE ENERGY PREDICTED BY IDOCK:   -0.37 KCAL/MOL
REMARK 927      BINDING AFFINITY PREDICTED BY RF-SCORE:    0.00 PKD
ROOT
HETATM    1  C   UNL     1      -7.821   8.073  66.236  1.00  0.00    -0.099 C  
HETATM    2  C   UNL     1      -8.430   7.982  67.639  1.00  0.00    -0.131 C  
HETATM    3  C   UNL     1      -7.698   6.901  68.438  1.00  0.00    -0.116 C  
HETATM    4  C   UNL     1      -8.381   9.332  68.391  1.00  0.00    -0.119 C  
ENDROOT
BRANCH   4   5
HETATM    5  C   UNL     1      -9.126  10.446  67.687  1.00  0.00    -0.143 A  
HETATM    6  C   UNL     1     -10.497  10.341  67.429  1.00  0.00    -0.303 A  
HETATM    7  C   UNL     1     -11.156  11.314  66.672  1.00  0.00    -0.299 A  
HETATM    8  C   UNL     1     -10.454  12.418  66.161  1.00  0.00    -0.274 A  
HETATM    9  C   UNL     1     -11.112  13.392  65.196  1.00  0.00    -0.315 C  
HETATM   10  C   UNL     1      -9.098  12.558  66.486  1.00  0.00    -0.177 A  
HETATM   11  C   UNL     1     -11.509  12.717  63.881  1.00  0.00    -0.444 C  
HETATM   12  C   UNL     1      -8.441  11.580  67.236  1.00  0.00    -0.152 A  
HETATM   13  C   UNL     1     -12.306  14.117  65.819  1.00  0.00    -0.481 C  
HETATM   14  O   UNL     1     -10.513  11.990  63.314  1.00  0.00    -0.431 OA 
HETATM   15  O   UNL     1     -12.594  12.842  63.332  1.00  0.00    -0.709 OA 
ENDBRANCH   4   5
TORSDOF 1
ENDMDL
MODEL       70
REMARK 921   NORMALIZED FREE ENERGY PREDICTED BY IDOCK:   -3.97 KCAL/MOL
REMARK 922        TOTAL FREE ENERGY PREDICTED BY IDOCK:   -4.52 KCAL/MOL
REMARK 923 INTER-LIGAND FREE ENERGY PREDICTED BY IDOCK:   -5.07 KCAL/MOL
REMARK 924 INTRA-LIGAND FREE ENERGY PREDICTED BY IDOCK:    0.55 KCAL/MOL
REMARK 927      BINDING AFFINITY PREDICTED BY RF-SCORE:    0.00 PKD
ROOT
HETATM    1  C   UNL     1     -12.597  11.060  71.036  1.00  0.00    -0.512 C  
HETATM    2  C   UNL     1     -13.172  12.480  71.014  1.00  0.00     0.131 C  
HETATM    3  C   UNL     1     -13.531  12.901  72.441  1.00  0.00    -0.573 C  
HETATM    4  C   UNL     1     -12.197  13.501  70.382  1.00  0.00    -0.426 C  
ENDROOT
BRANCH   4   5
HETATM    5  C   UNL     1     -11.829  13.180  68.949  1.00  0.00    -0.361 A  
HETATM    6  C   UNL     1     -11.691  14.197  67.998  1.00  0.00    -0.394 A  
HETATM    7  C   UNL     1     -11.472  13.890  66.652  1.00  0.00    -0.370 A  
HETATM    8  C   UNL     1     -11.380  12.554  66.231  1.00  0.00    -0.386 A  
HETATM    9  C   UNL     1     -11.316  12.196  64.754  1.00  0.00    -0.378 C  
HETATM   10  C   UNL     1     -11.443  11.540  67.198  1.00  0.00    -0.313 A  
HETATM   11  C   UNL     1     -12.586  12.608  64.007  1.00  0.00    -0.338 C  
HETATM   12  C   UNL     1     -11.670  11.851  68.540  1.00  0.00    -0.388 A  
HETATM   13  C   UNL     1     -10.071  12.764  64.069  1.00  0.00    -0.226 C  
HETATM   14  O   UNL     1     -13.733  12.200  64.608  1.00  0.00    -0.113 OA 
HETATM   15  O   UNL     1     -12.606  13.200  62.938  1.00  0.00    -0.427 OA 
ENDBRANCH   4   5
TORSDOF 1
ENDMDL
MODEL       71
REMARK 921   NORMALIZED FREE ENERGY PREDICTED BY IDOCK:   -3.96 KCAL/MOL
REMARK 922        TOTAL FREE ENERGY PREDICTED BY IDOCK:   -4.51 KCAL/MOL
REMARK 923 INTER-LIGAND FREE ENERGY PREDICTED BY IDOCK:   -4.21 KCAL/MOL
REMARK 924 INTRA-LIGAND FREE ENERGY PREDICTED BY IDOCK:   -0.30 KCAL/MOL
REMARK 927      BINDING AFFINITY PREDICTED BY RF-SCORE:    0.00 PKD
ROOT
HETATM    1  C   UNL     1      -8.508   6.219  67.749  1.00  0.00    -0.116 C  
HETATM    2  C   UNL     1      -9.622   6.045  66.711  1.00  0.00    -0.171 C  
HETATM    3  C   UNL     1     -10.020   4.568  66.640  1.00  0.00    -0.253 C  
HETATM    4  C   UNL     1     -10.859   6.919  67.022  1.00  0.00    -0.436 C  
ENDROOT
BRANCH   4   5
HETATM    5  C   UNL     1     -10.558   8.402  67.063  1.00  0.00    -0.316 A  
HETATM    6  C   UNL     1     -10.970   9.189  68.144  1.00  0.00    -0.020 A  
HETATM    7  C   UNL     1     -10.799  10.576  68.123  1.00  0.00    -0.300 A  
HETATM    8  C   UNL     1     -10.204  11.205  67.017  1.00  0.00    -0.251 A  
HETATM    9  C   UNL     1     -10.165  12.721  66.899  1.00  0.00    -0.241 C  
HETATM   10  C   UNL     1      -9.724  10.406  65.970  1.00  0.00    -0.265 A  
HETATM   11  C   UNL     1     -11.568  13.326  66.806  1.00  0.00    -0.365 C  
HETATM   12  C   UNL     1      -9.903   9.021  65.992  1.00  0.00    -0.312 A  
HETATM   13  C   UNL     1      -9.362  13.375  68.025  1.00  0.00    -0.217 C  
HETATM   14  O   UNL     1     -12.360  12.735  65.876  1.00  0.00    -0.551 OA 
HETATM   15  O   UNL     1     -11.958  14.287  67.453  1.00  0.00    -0.395 OA 
ENDBRANCH   4   5
TORSDOF 1
ENDMDL
MODEL       72
REMARK 921   NORMALIZED FREE ENERGY PREDICTED BY IDOCK:   -3.95 KCAL/MOL
REMARK 922        TOTAL FREE ENERGY PREDICTED BY IDOCK:   -4.50 KCAL/MOL
REMARK 923 INTER-LIGAND FREE ENERGY PREDICTED BY IDOCK:   -4.44 KCAL/MOL
REMARK 924 INTRA-LIGAND FREE ENERGY PREDICTED BY IDOCK:   -0.06 KCAL/MOL
REMARK 927      BINDING AFFINITY PREDICTED BY RF-SCORE:    0.00 PKD
ROOT
HETATM    1  C   UNL     1     -10.657  11.275  68.596  1.00  0.00    -0.231 C  
HETATM    2  C   UNL     1      -9.875  10.691  67.415  1.00  0.00    -0.198 C  
HETATM    3  C   UNL     1     -10.169   9.193  67.305  1.00  0.00    -0.319 C  
HETATM    4  C   UNL     1     -10.202  11.402  66.081  1.00  0.00    -0.282 C  
ENDROOT
BRANCH   4   5
HETATM    5  C   UNL     1      -9.893  12.883  66.092  1.00  0.00    -0.270 A  
HETATM    6  C   UNL     1      -8.926  13.409  66.957  1.00  0.00    -0.228 A  
HETATM    7  C   UNL     1      -8.730  14.790  67.051  1.00  0.00    -0.258 A  
HETATM    8  C   UNL     1      -9.495  15.675  66.276  1.00  0.00    -0.351 A  
HETATM    9  C   UNL     1      -9.418  17.179  66.489  1.00  0.00    -0.290 C  
HETATM   10  C   UNL     1     -10.409  15.141  65.356  1.00  0.00    -0.415 A  
HETATM   11  C   UNL     1      -9.900  17.587  67.883  1.00  0.00    -0.293 C  
HETATM   12  C   UNL     1     -10.608  13.762  65.269  1.00  0.00    -0.363 A  
HETATM   13  C   UNL     1      -8.022  17.738  66.209  1.00  0.00    -0.283 C  
HETATM   14  O   UNL     1     -11.102  17.057  68.225  1.00  0.00    -0.337 OA 
HETATM   15  O   UNL     1      -9.313  18.359  68.626  1.00  0.00    -0.324 OA 
ENDBRANCH   4   5
TORSDOF 1
ENDMDL
MODEL       73
REMARK 921   NORMALIZED FREE ENERGY PREDICTED BY IDOCK:   -3.95 KCAL/MOL
REMARK 922        TOTAL FREE ENERGY PREDICTED BY IDOCK:   -4.50 KCAL/MOL
REMARK 923 INTER-LIGAND FREE ENERGY PREDICTED BY IDOCK:   -4.27 KCAL/MOL
REMARK 924 INTRA-LIGAND FREE ENERGY PREDICTED BY IDOCK:   -0.23 KCAL/MOL
REMARK 927      BINDING AFFINITY PREDICTED BY RF-SCORE:    0.00 PKD
ROOT
HETATM    1  C   UNL     1     -10.603  15.584  67.315  1.00  0.00    -0.299 C  
HETATM    2  C   UNL     1     -10.956  14.894  65.993  1.00  0.00    -0.334 C  
HETATM    3  C   UNL     1     -10.792  15.891  64.844  1.00  0.00    -0.420 C  
HETATM    4  C   UNL     1     -10.097  13.634  65.738  1.00  0.00    -0.311 C  
ENDROOT
BRANCH   4   5
HETATM    5  C   UNL     1     -10.240  12.575  66.810  1.00  0.00    -0.243 A  
HETATM    6  C   UNL     1     -11.332  11.700  66.814  1.00  0.00    -0.354 A  
HETATM    7  C   UNL     1     -11.526  10.807  67.871  1.00  0.00    -0.306 A  
HETATM    8  C   UNL     1     -10.624  10.766  68.946  1.00  0.00    -0.246 A  
HETATM    9  C   UNL     1     -10.909   9.927  70.182  1.00  0.00    -0.356 C  
HETATM   10  C   UNL     1      -9.491  11.590  68.901  1.00  0.00    -0.027 A  
HETATM   11  C   UNL     1     -12.160  10.403  70.924  1.00  0.00    -0.374 C  
HETATM   12  C   UNL     1      -9.304  12.487  67.847  1.00  0.00    -0.200 A  
HETATM   13  C   UNL     1     -10.995   8.433  69.868  1.00  0.00    -0.166 C  
HETATM   14  O   UNL     1     -12.181  11.739  71.165  1.00  0.00    -0.275 OA 
HETATM   15  O   UNL     1     -13.053   9.672  71.327  1.00  0.00    -0.354 OA 
ENDBRANCH   4   5
TORSDOF 1
ENDMDL
MODEL       74
REMARK 921   NORMALIZED FREE ENERGY PREDICTED BY IDOCK:   -3.94 KCAL/MOL
REMARK 922        TOTAL FREE ENERGY PREDICTED BY IDOCK:   -4.49 KCAL/MOL
REMARK 923 INTER-LIGAND FREE ENERGY PREDICTED BY IDOCK:   -5.05 KCAL/MOL
REMARK 924 INTRA-LIGAND FREE ENERGY PREDICTED BY IDOCK:    0.56 KCAL/MOL
REMARK 927      BINDING AFFINITY PREDICTED BY RF-SCORE:    0.00 PKD
ROOT
HETATM    1  C   UNL     1     -11.047  14.768  68.176  1.00  0.00    -0.288 C  
HETATM    2  C   UNL     1     -10.835  15.234  69.621  1.00  0.00    -0.294 C  
HETATM    3  C   UNL     1     -10.565  16.741  69.631  1.00  0.00    -0.242 C  
HETATM    4  C   UNL     1     -12.038  14.897  70.531  1.00  0.00    -0.378 C  
ENDROOT
BRANCH   4   5
HETATM    5  C   UNL     1     -12.341  13.417  70.613  1.00  0.00    -0.423 A  
HETATM    6  C   UNL     1     -12.912  12.862  71.764  1.00  0.00    -0.416 A  
HETATM    7  C   UNL     1     -13.077  11.480  71.883  1.00  0.00    -0.492 A  
HETATM    8  C   UNL     1     -12.677  10.621  70.846  1.00  0.00    -0.498 A  
HETATM    9  C   UNL     1     -12.688   9.111  71.026  1.00  0.00    -0.185 C  
HETATM   10  C   UNL     1     -12.176  11.185  69.665  1.00  0.00    -0.360 A  
HETATM   11  C   UNL     1     -11.717   8.655  72.117  1.00  0.00    -0.371 C  
HETATM   12  C   UNL     1     -12.006  12.566  69.552  1.00  0.00    -0.329 A  
HETATM   13  C   UNL     1     -14.093   8.562  71.282  1.00  0.00    -0.267 C  
HETATM   14  O   UNL     1     -10.468   9.171  71.991  1.00  0.00    -0.322 OA 
HETATM   15  O   UNL     1     -11.987   7.857  73.003  1.00  0.00    -0.187 OA 
ENDBRANCH   4   5
TORSDOF 1
ENDMDL
MODEL       75
REMARK 921   NORMALIZED FREE ENERGY PREDICTED BY IDOCK:   -3.94 KCAL/MOL
REMARK 922        TOTAL FREE ENERGY PREDICTED BY IDOCK:   -4.49 KCAL/MOL
REMARK 923 INTER-LIGAND FREE ENERGY PREDICTED BY IDOCK:   -4.90 KCAL/MOL
REMARK 924 INTRA-LIGAND FREE ENERGY PREDICTED BY IDOCK:    0.42 KCAL/MOL
REMARK 927      BINDING AFFINITY PREDICTED BY RF-SCORE:    0.00 PKD
ROOT
HETATM    1  C   UNL     1     -13.756  15.073  71.714  1.00  0.00    -0.551 C  
HETATM    2  C   UNL     1     -12.609  15.786  72.438  1.00  0.00    -0.539 C  
HETATM    3  C   UNL     1     -12.789  15.627  73.949  1.00  0.00    -0.655 C  
HETATM    4  C   UNL     1     -11.221  15.262  72.003  1.00  0.00    -0.323 C  
ENDROOT
BRANCH   4   5
HETATM    5  C   UNL     1     -10.945  15.428  70.525  1.00  0.00    -0.350 A  
HETATM    6  C   UNL     1      -9.682  15.145  69.992  1.00  0.00     0.059 A  
HETATM    7  C   UNL     1      -9.397  15.416  68.651  1.00  0.00    -0.202 A  
HETATM    8  C   UNL     1     -10.375  15.972  67.811  1.00  0.00    -0.279 A  
HETATM    9  C   UNL     1     -10.034  16.432  66.402  1.00  0.00    -0.318 C  
HETATM   10  C   UNL     1     -11.661  16.183  68.328  1.00  0.00    -0.181 A  
HETATM   11  C   UNL     1      -9.022  17.579  66.401  1.00  0.00    -0.238 C  
HETATM   12  C   UNL     1     -11.940  15.918  69.670  1.00  0.00    -0.272 A  
HETATM   13  C   UNL     1      -9.558  15.283  65.511  1.00  0.00    -0.243 C  
HETATM   14  O   UNL     1      -9.348  18.600  67.235  1.00  0.00    -0.281 OA 
HETATM   15  O   UNL     1      -8.030  17.635  65.690  1.00  0.00    -0.529 OA 
ENDBRANCH   4   5
TORSDOF 1
ENDMDL
MODEL       76
REMARK 921   NORMALIZED FREE ENERGY PREDICTED BY IDOCK:   -3.93 KCAL/MOL
REMARK 922        TOTAL FREE ENERGY PREDICTED BY IDOCK:   -4.48 KCAL/MOL
REMARK 923 INTER-LIGAND FREE ENERGY PREDICTED BY IDOCK:   -4.93 KCAL/MOL
REMARK 924 INTRA-LIGAND FREE ENERGY PREDICTED BY IDOCK:    0.46 KCAL/MOL
REMARK 927      BINDING AFFINITY PREDICTED BY RF-SCORE:    0.00 PKD
ROOT
HETATM    1  C   UNL     1     -12.284  15.799  70.932  1.00  0.00    -0.458 C  
HETATM    2  C   UNL     1     -12.383  14.769  72.062  1.00  0.00    -0.416 C  
HETATM    3  C   UNL     1     -13.124  15.391  73.248  1.00  0.00    -0.642 C  
HETATM    4  C   UNL     1     -13.084  13.467  71.613  1.00  0.00    -0.463 C  
ENDROOT
BRANCH   4   5
HETATM    5  C   UNL     1     -12.383  12.764  70.470  1.00  0.00    -0.355 A  
HETATM    6  C   UNL     1     -12.070  11.402  70.548  1.00  0.00    -0.487 A  
HETATM    7  C   UNL     1     -11.315  10.785  69.546  1.00  0.00    -0.355 A  
HETATM    8  C   UNL     1     -10.863  11.520  68.439  1.00  0.00    -0.250 A  
HETATM    9  C   UNL     1      -9.900  10.913  67.430  1.00  0.00    -0.199 C  
HETATM   10  C   UNL     1     -11.243  12.865  68.327  1.00  0.00    -0.304 A  
HETATM   11  C   UNL     1      -8.553  10.559  68.063  1.00  0.00    -0.121 C  
HETATM   12  C   UNL     1     -11.990  13.480  69.333  1.00  0.00    -0.383 A  
HETATM   13  C   UNL     1     -10.497   9.705  66.706  1.00  0.00    -0.257 C  
HETATM   14  O   UNL     1      -8.004  11.567  68.788  1.00  0.00    -0.145 OA 
HETATM   15  O   UNL     1      -7.966   9.498  67.908  1.00  0.00    -0.098 OA 
ENDBRANCH   4   5
TORSDOF 1
ENDMDL
MODEL       77
REMARK 921   NORMALIZED FREE ENERGY PREDICTED BY IDOCK:   -3.91 KCAL/MOL
REMARK 922        TOTAL FREE ENERGY PREDICTED BY IDOCK:   -4.46 KCAL/MOL
REMARK 923 INTER-LIGAND FREE ENERGY PREDICTED BY IDOCK:   -4.15 KCAL/MOL
REMARK 924 INTRA-LIGAND FREE ENERGY PREDICTED BY IDOCK:   -0.30 KCAL/MOL
REMARK 927      BINDING AFFINITY PREDICTED BY RF-SCORE:    0.00 PKD
ROOT
HETATM    1  C   UNL     1      -7.637   9.095  65.089  1.00  0.00    -0.098 C  
HETATM    2  C   UNL     1      -8.567  10.263  64.740  1.00  0.00    -0.193 C  
HETATM    3  C   UNL     1      -8.601  10.444  63.220  1.00  0.00    -0.190 C  
HETATM    4  C   UNL     1      -9.998  10.061  65.289  1.00  0.00    -0.368 C  
ENDROOT
BRANCH   4   5
HETATM    5  C   UNL     1     -10.055   9.922  66.795  1.00  0.00    -0.292 A  
HETATM    6  C   UNL     1     -10.385   8.699  67.392  1.00  0.00    -0.353 A  
HETATM    7  C   UNL     1     -10.556   8.604  68.775  1.00  0.00    -0.169 A  
HETATM    8  C   UNL     1     -10.394   9.733  69.594  1.00  0.00    -0.259 A  
HETATM    9  C   UNL     1     -10.743   9.690  71.074  1.00  0.00    -0.393 C  
HETATM   10  C   UNL     1      -9.989  10.938  69.002  1.00  0.00    -0.206 A  
HETATM   11  C   UNL     1     -12.232   9.425  71.305  1.00  0.00    -0.345 C  
HETATM   12  C   UNL     1      -9.826  11.031  67.618  1.00  0.00    -0.192 A  
HETATM   13  C   UNL     1      -9.883   8.690  71.849  1.00  0.00    -0.384 C  
HETATM   14  O   UNL     1     -13.053  10.231  70.584  1.00  0.00    -0.365 OA 
HETATM   15  O   UNL     1     -12.681   8.611  72.099  1.00  0.00    -0.347 OA 
ENDBRANCH   4   5
TORSDOF 1
ENDMDL
MODEL       78
REMARK 921   NORMALIZED FREE ENERGY PREDICTED BY IDOCK:   -3.87 KCAL/MOL
REMARK 922        TOTAL FREE ENERGY PREDICTED BY IDOCK:   -4.42 KCAL/MOL
REMARK 923 INTER-LIGAND FREE ENERGY PREDICTED BY IDOCK:   -4.08 KCAL/MOL
REMARK 924 INTRA-LIGAND FREE ENERGY PREDICTED BY IDOCK:   -0.33 KCAL/MOL
REMARK 927      BINDING AFFINITY PREDICTED BY RF-SCORE:    0.00 PKD
ROOT
HETATM    1  C   UNL     1     -14.038   7.688  71.625  1.00  0.00    -0.547 C  
HETATM    2  C   UNL     1     -12.812   8.606  71.598  1.00  0.00    -0.380 C  
HETATM    3  C   UNL     1     -13.241  10.032  71.954  1.00  0.00    -0.557 C  
HETATM    4  C   UNL     1     -11.695   8.127  72.555  1.00  0.00    -0.457 C  
ENDROOT
BRANCH   4   5
HETATM    5  C   UNL     1     -11.180   6.739  72.238  1.00  0.00    -0.295 A  
HETATM    6  C   UNL     1     -11.216   5.724  73.200  1.00  0.00    -0.250 A  
HETATM    7  C   UNL     1     -10.630   4.480  72.946  1.00  0.00    -0.275 A  
HETATM    8  C   UNL     1      -9.999   4.226  71.717  1.00  0.00    -0.254 A  
HETATM    9  C   UNL     1      -9.209   2.947  71.488  1.00  0.00    -0.186 C  
HETATM   10  C   UNL     1     -10.033   5.219  70.729  1.00  0.00    -0.279 A  
HETATM   11  C   UNL     1      -7.997   2.845  72.416  1.00  0.00    -0.055 C  
HETATM   12  C   UNL     1     -10.612   6.463  70.989  1.00  0.00    -0.282 A  
HETATM   13  C   UNL     1     -10.082   1.694  71.589  1.00  0.00    -0.177 C  
HETATM   14  O   UNL     1      -7.222   3.959  72.431  1.00  0.00    -0.052 OA 
HETATM   15  O   UNL     1      -7.691   1.851  73.058  1.00  0.00    -0.039 OA 
ENDBRANCH   4   5
TORSDOF 1
ENDMDL
MODEL       79
REMARK 921   NORMALIZED FREE ENERGY PREDICTED BY IDOCK:   -3.84 KCAL/MOL
REMARK 922        TOTAL FREE ENERGY PREDICTED BY IDOCK:   -4.38 KCAL/MOL
REMARK 923 INTER-LIGAND FREE ENERGY PREDICTED BY IDOCK:   -4.08 KCAL/MOL
REMARK 924 INTRA-LIGAND FREE ENERGY PREDICTED BY IDOCK:   -0.31 KCAL/MOL
REMARK 927      BINDING AFFINITY PREDICTED BY RF-SCORE:    0.00 PKD
ROOT
HETATM    1  C   UNL     1      -7.707   5.325  67.288  1.00  0.00    -0.096 C  
HETATM    2  C   UNL     1      -8.329   6.410  66.403  1.00  0.00    -0.119 C  
HETATM    3  C   UNL     1      -8.131   6.037  64.932  1.00  0.00    -0.133 C  
HETATM    4  C   UNL     1      -9.830   6.628  66.705  1.00  0.00    -0.208 C  
ENDROOT
BRANCH   4   5
HETATM    5  C   UNL     1     -10.106   7.048  68.132  1.00  0.00    -0.193 A  
HETATM    6  C   UNL     1     -11.058   6.376  68.908  1.00  0.00    -0.420 A  
HETATM    7  C   UNL     1     -11.398   6.841  70.181  1.00  0.00    -0.404 A  
HETATM    8  C   UNL     1     -10.786   7.989  70.708  1.00  0.00    -0.244 A  
HETATM    9  C   UNL     1     -11.264   8.608  72.013  1.00  0.00    -0.434 C  
HETATM   10  C   UNL     1      -9.779   8.615  69.960  1.00  0.00    -0.176 A  
HETATM   11  C   UNL     1     -12.704   9.115  71.914  1.00  0.00    -0.389 C  
HETATM   12  C   UNL     1      -9.447   8.152  68.686  1.00  0.00    -0.147 A  
HETATM   13  C   UNL     1     -11.098   7.663  73.204  1.00  0.00    -0.373 C  
HETATM   14  O   UNL     1     -12.938   9.900  70.831  1.00  0.00    -0.335 OA 
HETATM   15  O   UNL     1     -13.578   8.902  72.743  1.00  0.00    -0.405 OA 
ENDBRANCH   4   5
TORSDOF 1
ENDMDL
MODEL       80
REMARK 921   NORMALIZED FREE ENERGY PREDICTED BY IDOCK:   -3.83 KCAL/MOL
REMARK 922        TOTAL FREE ENERGY PREDICTED BY IDOCK:   -4.37 KCAL/MOL
REMARK 923 INTER-LIGAND FREE ENERGY PREDICTED BY IDOCK:   -4.09 KCAL/MOL
REMARK 924 INTRA-LIGAND FREE ENERGY PREDICTED BY IDOCK:   -0.29 KCAL/MOL
REMARK 927      BINDING AFFINITY PREDICTED BY RF-SCORE:    0.00 PKD
ROOT
HETATM    1  C   UNL     1     -10.714  15.508  67.476  1.00  0.00    -0.300 C  
HETATM    2  C   UNL     1     -11.118  14.782  66.189  1.00  0.00    -0.339 C  
HETATM    3  C   UNL     1     -11.003  15.748  65.007  1.00  0.00    -0.431 C  
HETATM    4  C   UNL     1     -10.266  13.517  65.933  1.00  0.00    -0.306 C  
ENDROOT
BRANCH   4   5
HETATM    5  C   UNL     1     -10.364  12.488  67.039  1.00  0.00    -0.236 A  
HETATM    6  C   UNL     1      -9.214  11.894  67.571  1.00  0.00    -0.177 A  
HETATM    7  C   UNL     1      -9.313  10.858  68.504  1.00  0.00    -0.181 A  
HETATM    8  C   UNL     1     -10.569  10.396  68.928  1.00  0.00    -0.241 A  
HETATM    9  C   UNL     1     -10.700   9.161  69.805  1.00  0.00    -0.239 C  
HETATM   10  C   UNL     1     -11.717  11.044  68.449  1.00  0.00    -0.329 A  
HETATM   11  C   UNL     1     -10.196   7.900  69.101  1.00  0.00    -0.216 C  
HETATM   12  C   UNL     1     -11.615  12.074  67.513  1.00  0.00    -0.401 A  
HETATM   13  C   UNL     1     -10.022   9.335  71.165  1.00  0.00    -0.356 C  
HETATM   14  O   UNL     1     -10.702   7.727  67.853  1.00  0.00    -0.187 OA 
HETATM   15  O   UNL     1      -9.450   7.071  69.602  1.00  0.00    -0.149 OA 
ENDBRANCH   4   5
TORSDOF 1
ENDMDL
MODEL       81
REMARK 921   NORMALIZED FREE ENERGY PREDICTED BY IDOCK:   -3.83 KCAL/MOL
REMARK 922        TOTAL FREE ENERGY PREDICTED BY IDOCK:   -4.37 KCAL/MOL
REMARK 923 INTER-LIGAND FREE ENERGY PREDICTED BY IDOCK:   -4.12 KCAL/MOL
REMARK 924 INTRA-LIGAND FREE ENERGY PREDICTED BY IDOCK:   -0.26 KCAL/MOL
REMARK 927      BINDING AFFINITY PREDICTED BY RF-SCORE:    0.00 PKD
ROOT
HETATM    1  C   UNL     1      -7.653  17.963  66.149  1.00  0.00    -0.295 C  
HETATM    2  C   UNL     1      -9.007  18.343  66.757  1.00  0.00    -0.291 C  
HETATM    3  C   UNL     1      -9.350  19.783  66.367  1.00  0.00    -0.488 C  
HETATM    4  C   UNL     1     -10.139  17.384  66.321  1.00  0.00    -0.328 C  
ENDROOT
BRANCH   4   5
HETATM    5  C   UNL     1      -9.897  15.943  66.715  1.00  0.00    -0.254 A  
HETATM    6  C   UNL     1     -10.145  14.901  65.814  1.00  0.00    -0.367 A  
HETATM    7  C   UNL     1     -10.038  13.567  66.219  1.00  0.00    -0.298 A  
HETATM    8  C   UNL     1      -9.674  13.248  67.537  1.00  0.00    -0.224 A  
HETATM    9  C   UNL     1      -9.720  11.815  68.042  1.00  0.00    -0.185 C  
HETATM   10  C   UNL     1      -9.353  14.293  68.415  1.00  0.00    -0.208 A  
HETATM   11  C   UNL     1     -11.140  11.247  68.031  1.00  0.00    -0.266 C  
HETATM   12  C   UNL     1      -9.468  15.624  68.009  1.00  0.00    -0.194 A  
HETATM   13  C   UNL     1      -8.759  10.896  67.285  1.00  0.00    -0.131 C  
HETATM   14  O   UNL     1     -12.059  12.053  68.621  1.00  0.00    -0.316 OA 
HETATM   15  O   UNL     1     -11.450  10.149  67.592  1.00  0.00    -0.271 OA 
ENDBRANCH   4   5
TORSDOF 1
ENDMDL
MODEL       82
REMARK 921   NORMALIZED FREE ENERGY PREDICTED BY IDOCK:   -3.82 KCAL/MOL
REMARK 922        TOTAL FREE ENERGY PREDICTED BY IDOCK:   -4.36 KCAL/MOL
REMARK 923 INTER-LIGAND FREE ENERGY PREDICTED BY IDOCK:   -4.01 KCAL/MOL
REMARK 924 INTRA-LIGAND FREE ENERGY PREDICTED BY IDOCK:   -0.36 KCAL/MOL
REMARK 927      BINDING AFFINITY PREDICTED BY RF-SCORE:    0.00 PKD
ROOT
HETATM    1  C   UNL     1      -9.353   7.676  66.270  1.00  0.00    -0.189 C  
HETATM    2  C   UNL     1      -8.162   8.235  65.485  1.00  0.00    -0.138 C  
HETATM    3  C   UNL     1      -7.418   7.083  64.805  1.00  0.00    -0.096 C  
HETATM    4  C   UNL     1      -8.589   9.290  64.438  1.00  0.00    -0.216 C  
ENDROOT
BRANCH   4   5
HETATM    5  C   UNL     1      -9.291  10.489  65.038  1.00  0.00    -0.268 A  
HETATM    6  C   UNL     1      -8.697  11.229  66.067  1.00  0.00    -0.165 A  
HETATM    7  C   UNL     1      -9.398  12.259  66.702  1.00  0.00    -0.228 A  
HETATM    8  C   UNL     1     -10.710  12.573  66.314  1.00  0.00    -0.288 A  
HETATM    9  C   UNL     1     -11.548  13.568  67.102  1.00  0.00    -0.393 C  
HETATM   10  C   UNL     1     -11.274  11.881  65.233  1.00  0.00    -0.351 A  
HETATM   11  C   UNL     1     -11.817  13.089  68.530  1.00  0.00    -0.325 C  
HETATM   12  C   UNL     1     -10.573  10.848  64.606  1.00  0.00    -0.332 A  
HETATM   13  C   UNL     1     -10.940  14.973  67.104  1.00  0.00    -0.329 C  
HETATM   14  O   UNL     1     -12.286  11.816  68.603  1.00  0.00    -0.405 OA 
HETATM   15  O   UNL     1     -11.688  13.775  69.533  1.00  0.00    -0.284 OA 
ENDBRANCH   4   5
TORSDOF 1
ENDMDL
MODEL       83
REMARK 921   NORMALIZED FREE ENERGY PREDICTED BY IDOCK:   -3.77 KCAL/MOL
REMARK 922        TOTAL FREE ENERGY PREDICTED BY IDOCK:   -4.31 KCAL/MOL
REMARK 923 INTER-LIGAND FREE ENERGY PREDICTED BY IDOCK:   -4.04 KCAL/MOL
REMARK 924 INTRA-LIGAND FREE ENERGY PREDICTED BY IDOCK:   -0.27 KCAL/MOL
REMARK 927      BINDING AFFINITY PREDICTED BY RF-SCORE:    0.00 PKD
ROOT
HETATM    1  C   UNL     1      -7.622  18.288  66.443  1.00  0.00    -0.285 C  
HETATM    2  C   UNL     1      -6.511  17.455  67.090  1.00  0.00    -0.191 C  
HETATM    3  C   UNL     1      -5.268  18.329  67.276  1.00  0.00    -0.140 C  
HETATM    4  C   UNL     1      -6.944  16.842  68.442  1.00  0.00    -0.173 C  
ENDROOT
BRANCH   4   5
HETATM    5  C   UNL     1      -8.142  15.924  68.335  1.00  0.00    -0.149 A  
HETATM    6  C   UNL     1      -8.010  14.628  67.824  1.00  0.00    -0.166 A  
HETATM    7  C   UNL     1      -9.136  13.827  67.612  1.00  0.00    -0.196 A  
HETATM    8  C   UNL     1     -10.421  14.307  67.916  1.00  0.00    -0.240 A  
HETATM    9  C   UNL     1     -11.666  13.521  67.533  1.00  0.00    -0.403 C  
HETATM   10  C   UNL     1     -10.541  15.576  68.498  1.00  0.00    -0.246 A  
HETATM   11  C   UNL     1     -11.807  13.370  66.018  1.00  0.00    -0.383 C  
HETATM   12  C   UNL     1      -9.415  16.376  68.701  1.00  0.00    -0.239 A  
HETATM   13  C   UNL     1     -11.734  12.159  68.227  1.00  0.00    -0.401 C  
HETATM   14  O   UNL     1     -11.678  14.535  65.334  1.00  0.00    -0.350 OA 
HETATM   15  O   UNL     1     -12.067  12.323  65.442  1.00  0.00    -0.479 OA 
ENDBRANCH   4   5
TORSDOF 1
ENDMDL
MODEL       84
REMARK 921   NORMALIZED FREE ENERGY PREDICTED BY IDOCK:   -3.76 KCAL/MOL
REMARK 922        TOTAL FREE ENERGY PREDICTED BY IDOCK:   -4.29 KCAL/MOL
REMARK 923 INTER-LIGAND FREE ENERGY PREDICTED BY IDOCK:   -3.99 KCAL/MOL
REMARK 924 INTRA-LIGAND FREE ENERGY PREDICTED BY IDOCK:   -0.31 KCAL/MOL
REMARK 927      BINDING AFFINITY PREDICTED BY RF-SCORE:    0.00 PKD
ROOT
HETATM    1  C   UNL     1      -9.382  10.005  69.352  1.00  0.00    -0.237 C  
HETATM    2  C   UNL     1      -9.777   9.796  67.886  1.00  0.00    -0.168 C  
HETATM    3  C   UNL     1      -9.988   8.303  67.628  1.00  0.00    -0.245 C  
HETATM    4  C   UNL     1     -11.044  10.593  67.497  1.00  0.00    -0.367 C  
ENDROOT
BRANCH   4   5
HETATM    5  C   UNL     1     -10.898  12.089  67.678  1.00  0.00    -0.273 A  
HETATM    6  C   UNL     1     -10.108  12.845  66.805  1.00  0.00    -0.238 A  
HETATM    7  C   UNL     1      -9.877  14.202  67.047  1.00  0.00    -0.258 A  
HETATM    8  C   UNL     1     -10.440  14.834  68.168  1.00  0.00    -0.239 A  
HETATM    9  C   UNL     1     -10.062  16.259  68.541  1.00  0.00    -0.239 C  
HETATM   10  C   UNL     1     -11.292  14.091  68.998  1.00  0.00    -0.319 A  
HETATM   11  C   UNL     1      -8.581  16.386  68.900  1.00  0.00    -0.250 C  
HETATM   12  C   UNL     1     -11.514  12.734  68.758  1.00  0.00    -0.347 A  
HETATM   13  C   UNL     1     -10.451  17.269  67.460  1.00  0.00    -0.356 C  
HETATM   14  O   UNL     1      -8.152  15.464  69.800  1.00  0.00    -0.207 OA 
HETATM   15  O   UNL     1      -7.832  17.256  68.480  1.00  0.00    -0.245 OA 
ENDBRANCH   4   5
TORSDOF 1
ENDMDL
MODEL       85
REMARK 921   NORMALIZED FREE ENERGY PREDICTED BY IDOCK:   -3.75 KCAL/MOL
REMARK 922        TOTAL FREE ENERGY PREDICTED BY IDOCK:   -4.29 KCAL/MOL
REMARK 923 INTER-LIGAND FREE ENERGY PREDICTED BY IDOCK:   -4.09 KCAL/MOL
REMARK 924 INTRA-LIGAND FREE ENERGY PREDICTED BY IDOCK:   -0.20 KCAL/MOL
REMARK 927      BINDING AFFINITY PREDICTED BY RF-SCORE:    0.00 PKD
ROOT
HETATM    1  C   UNL     1     -10.741   9.357  71.177  1.00  0.00    -0.417 C  
HETATM    2  C   UNL     1      -9.221   9.337  70.978  1.00  0.00    -0.273 C  
HETATM    3  C   UNL     1      -8.596   8.350  71.966  1.00  0.00    -0.254 C  
HETATM    4  C   UNL     1      -8.820   8.974  69.530  1.00  0.00    -0.146 C  
ENDROOT
BRANCH   4   5
HETATM    5  C   UNL     1      -9.362   9.934  68.492  1.00  0.00    -0.143 A  
HETATM    6  C   UNL     1      -8.697  11.131  68.205  1.00  0.00    -0.144 A  
HETATM    7  C   UNL     1      -9.263  12.070  67.338  1.00  0.00    -0.180 A  
HETATM    8  C   UNL     1     -10.507  11.827  66.734  1.00  0.00    -0.260 A  
HETATM    9  C   UNL     1     -11.216  12.904  65.929  1.00  0.00    -0.323 C  
HETATM   10  C   UNL     1     -11.134  10.594  66.965  1.00  0.00    -0.217 A  
HETATM   11  C   UNL     1     -11.588  14.114  66.789  1.00  0.00    -0.391 C  
HETATM   12  C   UNL     1     -10.569   9.661  67.838  1.00  0.00    -0.308 A  
HETATM   13  C   UNL     1     -10.417  13.335  64.697  1.00  0.00    -0.420 C  
HETATM   14  O   UNL     1     -12.233  13.793  67.939  1.00  0.00    -0.327 OA 
HETATM   15  O   UNL     1     -11.390  15.279  66.477  1.00  0.00    -0.287 OA 
ENDBRANCH   4   5
TORSDOF 1
ENDMDL
MODEL       86
REMARK 921   NORMALIZED FREE ENERGY PREDICTED BY IDOCK:   -3.74 KCAL/MOL
REMARK 922        TOTAL FREE ENERGY PREDICTED BY IDOCK:   -4.28 KCAL/MOL
REMARK 923 INTER-LIGAND FREE ENERGY PREDICTED BY IDOCK:   -3.94 KCAL/MOL
REMARK 924 INTRA-LIGAND FREE ENERGY PREDICTED BY IDOCK:   -0.33 KCAL/MOL
REMARK 927      BINDING AFFINITY PREDICTED BY RF-SCORE:    0.00 PKD
ROOT
HETATM    1  C   UNL     1     -11.576   9.470  71.022  1.00  0.00    -0.419 C  
HETATM    2  C   UNL     1     -12.363   8.530  71.941  1.00  0.00    -0.407 C  
HETATM    3  C   UNL     1     -13.674   9.203  72.350  1.00  0.00    -0.543 C  
HETATM    4  C   UNL     1     -12.646   7.160  71.279  1.00  0.00    -0.421 C  
ENDROOT
BRANCH   4   5
HETATM    5  C   UNL     1     -11.393   6.407  70.887  1.00  0.00    -0.398 A  
HETATM    6  C   UNL     1     -11.145   6.072  69.551  1.00  0.00    -0.468 A  
HETATM    7  C   UNL     1     -10.052   5.272  69.208  1.00  0.00    -0.300 A  
HETATM    8  C   UNL     1      -9.178   4.793  70.198  1.00  0.00    -0.195 A  
HETATM    9  C   UNL     1      -8.089   3.784  69.866  1.00  0.00    -0.062 C  
HETATM   10  C   UNL     1      -9.387   5.193  71.525  1.00  0.00    -0.187 A  
HETATM   11  C   UNL     1      -8.667   2.454  69.379  1.00  0.00    -0.081 C  
HETATM   12  C   UNL     1     -10.484   5.986  71.865  1.00  0.00    -0.263 A  
HETATM   13  C   UNL     1      -7.067   4.334  68.870  1.00  0.00    -0.051 C  
HETATM   14  O   UNL     1      -9.640   1.950  70.181  1.00  0.00    -0.094 OA 
HETATM   15  O   UNL     1      -8.278   1.843  68.394  1.00  0.00    -0.056 OA 
ENDBRANCH   4   5
TORSDOF 1
ENDMDL
MODEL       87
REMARK 921   NORMALIZED FREE ENERGY PREDICTED BY IDOCK:   -3.73 KCAL/MOL
REMARK 922        TOTAL FREE ENERGY PREDICTED BY IDOCK:   -4.26 KCAL/MOL
REMARK 923 INTER-LIGAND FREE ENERGY PREDICTED BY IDOCK:   -3.90 KCAL/MOL
REMARK 924 INTRA-LIGAND FREE ENERGY PREDICTED BY IDOCK:   -0.36 KCAL/MOL
REMARK 927      BINDING AFFINITY PREDICTED BY RF-SCORE:    0.00 PKD
ROOT
HETATM    1  C   UNL     1      -9.562   6.792  73.344  1.00  0.00    -0.195 C  
HETATM    2  C   UNL     1     -10.578   5.884  72.645  1.00  0.00    -0.255 C  
HETATM    3  C   UNL     1     -11.015   4.778  73.609  1.00  0.00    -0.391 C  
HETATM    4  C   UNL     1     -11.810   6.664  72.129  1.00  0.00    -0.337 C  
ENDROOT
BRANCH   4   5
HETATM    5  C   UNL     1     -11.465   7.748  71.130  1.00  0.00    -0.295 A  
HETATM    6  C   UNL     1     -10.902   7.429  69.889  1.00  0.00    -0.259 A  
HETATM    7  C   UNL     1     -10.473   8.436  69.021  1.00  0.00    -0.216 A  
HETATM    8  C   UNL     1     -10.605   9.788  69.375  1.00  0.00    -0.248 A  
HETATM    9  C   UNL     1      -9.990  10.889  68.525  1.00  0.00    -0.188 C  
HETATM   10  C   UNL     1     -11.238  10.105  70.585  1.00  0.00    -0.418 A  
HETATM   11  C   UNL     1      -8.464  10.792  68.474  1.00  0.00    -0.143 C  
HETATM   12  C   UNL     1     -11.659   9.096  71.453  1.00  0.00    -0.411 A  
HETATM   13  C   UNL     1     -10.581  10.938  67.114  1.00  0.00    -0.302 C  
HETATM   14  O   UNL     1      -7.880  10.666  69.693  1.00  0.00    -0.133 OA 
HETATM   15  O   UNL     1      -7.793  10.871  67.455  1.00  0.00    -0.110 OA 
ENDBRANCH   4   5
TORSDOF 1
ENDMDL
MODEL       88
REMARK 921   NORMALIZED FREE ENERGY PREDICTED BY IDOCK:   -3.73 KCAL/MOL
REMARK 922        TOTAL FREE ENERGY PREDICTED BY IDOCK:   -4.26 KCAL/MOL
REMARK 923 INTER-LIGAND FREE ENERGY PREDICTED BY IDOCK:   -3.90 KCAL/MOL
REMARK 924 INTRA-LIGAND FREE ENERGY PREDICTED BY IDOCK:   -0.37 KCAL/MOL
REMARK 927      BINDING AFFINITY PREDICTED BY RF-SCORE:    0.00 PKD
ROOT
HETATM    1  C   UNL     1     -11.885  12.476  69.389  1.00  0.00    -0.368 C  
HETATM    2  C   UNL     1     -11.574  12.047  67.952  1.00  0.00    -0.405 C  
HETATM    3  C   UNL     1     -11.707  13.257  67.023  1.00  0.00    -0.439 C  
HETATM    4  C   UNL     1     -10.168  11.418  67.816  1.00  0.00    -0.202 C  
ENDROOT
BRANCH   4   5
HETATM    5  C   UNL     1      -9.971  10.183  68.669  1.00  0.00    -0.181 A  
HETATM    6  C   UNL     1     -10.760   9.043  68.476  1.00  0.00    -0.140 A  
HETATM    7  C   UNL     1     -10.660   7.952  69.344  1.00  0.00    -0.209 A  
HETATM    8  C   UNL     1      -9.761   7.977  70.422  1.00  0.00    -0.178 A  
HETATM    9  C   UNL     1      -9.761   6.878  71.473  1.00  0.00    -0.164 C  
HETATM   10  C   UNL     1      -8.920   9.089  70.567  1.00  0.00    -0.249 A  
HETATM   11  C   UNL     1     -11.079   6.822  72.247  1.00  0.00    -0.251 C  
HETATM   12  C   UNL     1      -9.027  10.181  69.703  1.00  0.00    -0.190 A  
HETATM   13  C   UNL     1      -9.414   5.508  70.886  1.00  0.00    -0.208 C  
HETATM   14  O   UNL     1     -11.485   8.025  72.730  1.00  0.00    -0.402 OA 
HETATM   15  O   UNL     1     -11.710   5.801  72.479  1.00  0.00    -0.309 OA 
ENDBRANCH   4   5
TORSDOF 1
ENDMDL
MODEL       89
REMARK 921   NORMALIZED FREE ENERGY PREDICTED BY IDOCK:   -3.71 KCAL/MOL
REMARK 922        TOTAL FREE ENERGY PREDICTED BY IDOCK:   -4.25 KCAL/MOL
REMARK 923 INTER-LIGAND FREE ENERGY PREDICTED BY IDOCK:   -4.06 KCAL/MOL
REMARK 924 INTRA-LIGAND FREE ENERGY PREDICTED BY IDOCK:   -0.19 KCAL/MOL
REMARK 927      BINDING AFFINITY PREDICTED BY RF-SCORE:    0.00 PKD
ROOT
HETATM    1  C   UNL     1      -8.290  10.512  66.651  1.00  0.00    -0.131 C  
HETATM    2  C   UNL     1      -9.606  11.296  66.684  1.00  0.00    -0.218 C  
HETATM    3  C   UNL     1      -9.843  11.943  65.317  1.00  0.00    -0.255 C  
HETATM    4  C   UNL     1     -10.811  10.410  67.075  1.00  0.00    -0.269 C  
ENDROOT
BRANCH   4   5
HETATM    5  C   UNL     1     -10.675   9.771  68.440  1.00  0.00    -0.262 A  
HETATM    6  C   UNL     1     -10.214   8.457  68.576  1.00  0.00    -0.228 A  
HETATM    7  C   UNL     1     -10.205   7.829  69.824  1.00  0.00    -0.211 A  
HETATM    8  C   UNL     1     -10.654   8.508  70.968  1.00  0.00    -0.267 A  
HETATM    9  C   UNL     1     -10.815   7.790  72.299  1.00  0.00    -0.339 C  
HETATM   10  C   UNL     1     -11.044   9.849  70.841  1.00  0.00    -0.418 A  
HETATM   11  C   UNL     1     -11.873   6.686  72.232  1.00  0.00    -0.252 C  
HETATM   12  C   UNL     1     -11.058  10.471  69.591  1.00  0.00    -0.338 A  
HETATM   13  C   UNL     1      -9.489   7.244  72.833  1.00  0.00    -0.200 C  
HETATM   14  O   UNL     1     -13.052   7.087  71.693  1.00  0.00    -0.377 OA 
HETATM   15  O   UNL     1     -11.727   5.552  72.664  1.00  0.00    -0.293 OA 
ENDBRANCH   4   5
TORSDOF 1
ENDMDL
MODEL       90
REMARK 921   NORMALIZED FREE ENERGY PREDICTED BY IDOCK:   -3.70 KCAL/MOL
REMARK 922        TOTAL FREE ENERGY PREDICTED BY IDOCK:   -4.24 KCAL/MOL
REMARK 923 INTER-LIGAND FREE ENERGY PREDICTED BY IDOCK:   -3.92 KCAL/MOL
REMARK 924 INTRA-LIGAND FREE ENERGY PREDICTED BY IDOCK:   -0.32 KCAL/MOL
REMARK 927      BINDING AFFINITY PREDICTED BY RF-SCORE:    0.00 PKD
ROOT
HETATM    1  C   UNL     1     -11.145   9.839  70.989  1.00  0.00    -0.431 C  
HETATM    2  C   UNL     1     -12.251  10.792  70.522  1.00  0.00    -0.457 C  
HETATM    3  C   UNL     1     -13.076  11.240  71.730  1.00  0.00    -0.527 C  
HETATM    4  C   UNL     1     -11.690  12.021  69.768  1.00  0.00    -0.390 C  
ENDROOT
BRANCH   4   5
HETATM    5  C   UNL     1     -10.899  11.662  68.528  1.00  0.00    -0.257 A  
HETATM    6  C   UNL     1     -11.400  10.746  67.596  1.00  0.00    -0.328 A  
HETATM    7  C   UNL     1     -10.616  10.325  66.518  1.00  0.00    -0.202 A  
HETATM    8  C   UNL     1      -9.313  10.819  66.347  1.00  0.00    -0.198 A  
HETATM    9  C   UNL     1      -8.387  10.247  65.285  1.00  0.00    -0.165 C  
HETATM   10  C   UNL     1      -8.843  11.793  67.239  1.00  0.00    -0.167 A  
HETATM   11  C   UNL     1      -8.064   8.773  65.538  1.00  0.00    -0.115 C  
HETATM   12  C   UNL     1      -9.626  12.206  68.319  1.00  0.00    -0.210 A  
HETATM   13  C   UNL     1      -8.924  10.453  63.868  1.00  0.00    -0.247 C  
HETATM   14  O   UNL     1      -7.655   8.509  66.805  1.00  0.00    -0.088 OA 
HETATM   15  O   UNL     1      -8.105   7.894  64.690  1.00  0.00    -0.139 OA 
ENDBRANCH   4   5
TORSDOF 1
ENDMDL
MODEL       91
REMARK 921   NORMALIZED FREE ENERGY PREDICTED BY IDOCK:   -3.70 KCAL/MOL
REMARK 922        TOTAL FREE ENERGY PREDICTED BY IDOCK:   -4.24 KCAL/MOL
REMARK 923 INTER-LIGAND FREE ENERGY PREDICTED BY IDOCK:   -3.98 KCAL/MOL
REMARK 924 INTRA-LIGAND FREE ENERGY PREDICTED BY IDOCK:   -0.25 KCAL/MOL
REMARK 927      BINDING AFFINITY PREDICTED BY RF-SCORE:    0.00 PKD
ROOT
HETATM    1  C   UNL     1     -11.311   8.714  71.962  1.00  0.00    -0.432 C  
HETATM    2  C   UNL     1      -9.779   8.666  71.937  1.00  0.00    -0.383 C  
HETATM    3  C   UNL     1      -9.289   7.639  72.960  1.00  0.00    -0.265 C  
HETATM    4  C   UNL     1      -9.223   8.333  70.533  1.00  0.00    -0.160 C  
ENDROOT
BRANCH   4   5
HETATM    5  C   UNL     1      -9.625   9.332  69.469  1.00  0.00    -0.178 A  
HETATM    6  C   UNL     1     -10.623   9.027  68.537  1.00  0.00    -0.196 A  
HETATM    7  C   UNL     1     -10.905   9.901  67.483  1.00  0.00    -0.307 A  
HETATM    8  C   UNL     1     -10.197  11.105  67.345  1.00  0.00    -0.221 A  
HETATM    9  C   UNL     1     -10.369  11.983  66.115  1.00  0.00    -0.257 C  
HETATM   10  C   UNL     1      -9.252  11.443  68.323  1.00  0.00    -0.183 A  
HETATM   11  C   UNL     1      -9.913  11.277  64.836  1.00  0.00    -0.274 C  
HETATM   12  C   UNL     1      -8.966  10.564  69.370  1.00  0.00    -0.111 A  
HETATM   13  C   UNL     1     -11.797  12.511  65.968  1.00  0.00    -0.478 C  
HETATM   14  O   UNL     1      -8.680  10.716  64.927  1.00  0.00    -0.184 OA 
HETATM   15  O   UNL     1     -10.547  11.246  63.792  1.00  0.00    -0.355 OA 
ENDBRANCH   4   5
TORSDOF 1
ENDMDL
MODEL       92
REMARK 921   NORMALIZED FREE ENERGY PREDICTED BY IDOCK:   -3.64 KCAL/MOL
REMARK 922        TOTAL FREE ENERGY PREDICTED BY IDOCK:   -4.17 KCAL/MOL
REMARK 923 INTER-LIGAND FREE ENERGY PREDICTED BY IDOCK:   -3.88 KCAL/MOL
REMARK 924 INTRA-LIGAND FREE ENERGY PREDICTED BY IDOCK:   -0.29 KCAL/MOL
REMARK 927      BINDING AFFINITY PREDICTED BY RF-SCORE:    0.00 PKD
ROOT
HETATM    1  C   UNL     1     -12.555   9.513  72.087  1.00  0.00    -0.411 C  
HETATM    2  C   UNL     1     -11.964   9.717  70.689  1.00  0.00    -0.340 C  
HETATM    3  C   UNL     1     -12.228  11.154  70.233  1.00  0.00    -0.436 C  
HETATM    4  C   UNL     1     -10.450   9.407  70.638  1.00  0.00    -0.354 C  
ENDROOT
BRANCH   4   5
HETATM    5  C   UNL     1     -10.109   7.985  71.029  1.00  0.00    -0.213 A  
HETATM    6  C   UNL     1     -10.852   6.906  70.536  1.00  0.00    -0.289 A  
HETATM    7  C   UNL     1     -10.613   5.608  70.993  1.00  0.00    -0.318 A  
HETATM    8  C   UNL     1      -9.619   5.360  71.953  1.00  0.00    -0.188 A  
HETATM    9  C   UNL     1      -9.461   3.987  72.589  1.00  0.00    -0.170 C  
HETATM   10  C   UNL     1      -8.826   6.432  72.388  1.00  0.00    -0.134 A  
HETATM   11  C   UNL     1     -10.695   3.583  73.397  1.00  0.00    -0.208 C  
HETATM   12  C   UNL     1      -9.072   7.729  71.934  1.00  0.00    -0.173 A  
HETATM   13  C   UNL     1      -9.100   2.908  71.566  1.00  0.00    -0.170 C  
HETATM   14  O   UNL     1     -11.115   4.534  74.271  1.00  0.00    -0.277 OA 
HETATM   15  O   UNL     1     -11.247   2.495  73.332  1.00  0.00    -0.195 OA 
ENDBRANCH   4   5
TORSDOF 1
ENDMDL
MODEL       93
REMARK 921   NORMALIZED FREE ENERGY PREDICTED BY IDOCK:   -3.64 KCAL/MOL
REMARK 922        TOTAL FREE ENERGY PREDICTED BY IDOCK:   -4.17 KCAL/MOL
REMARK 923 INTER-LIGAND FREE ENERGY PREDICTED BY IDOCK:   -3.93 KCAL/MOL
REMARK 924 INTRA-LIGAND FREE ENERGY PREDICTED BY IDOCK:   -0.23 KCAL/MOL
REMARK 927      BINDING AFFINITY PREDICTED BY RF-SCORE:    0.00 PKD
ROOT
HETATM    1  C   UNL     1      -8.619   7.841  65.654  1.00  0.00    -0.147 C  
HETATM    2  C   UNL     1      -9.388   9.026  66.247  1.00  0.00    -0.284 C  
HETATM    3  C   UNL     1      -9.793   9.979  65.119  1.00  0.00    -0.388 C  
HETATM    4  C   UNL     1     -10.633   8.580  67.047  1.00  0.00    -0.305 C  
ENDROOT
BRANCH   4   5
HETATM    5  C   UNL     1     -10.311   7.671  68.213  1.00  0.00    -0.238 A  
HETATM    6  C   UNL     1     -11.115   6.563  68.504  1.00  0.00    -0.347 A  
HETATM    7  C   UNL     1     -10.886   5.798  69.651  1.00  0.00    -0.418 A  
HETATM    8  C   UNL     1      -9.840   6.123  70.530  1.00  0.00    -0.214 A  
HETATM    9  C   UNL     1      -9.683   5.412  71.865  1.00  0.00    -0.204 C  
HETATM   10  C   UNL     1      -8.991   7.187  70.196  1.00  0.00    -0.145 A  
HETATM   11  C   UNL     1     -10.875   5.660  72.792  1.00  0.00    -0.261 C  
HETATM   12  C   UNL     1      -9.227   7.954  69.053  1.00  0.00    -0.147 A  
HETATM   13  C   UNL     1      -9.420   3.914  71.703  1.00  0.00    -0.220 C  
HETATM   14  O   UNL     1     -11.211   6.969  72.918  1.00  0.00    -0.276 OA 
HETATM   15  O   UNL     1     -11.462   4.792  73.422  1.00  0.00    -0.338 OA 
ENDBRANCH   4   5
TORSDOF 1
ENDMDL
MODEL       94
REMARK 921   NORMALIZED FREE ENERGY PREDICTED BY IDOCK:   -3.62 KCAL/MOL
REMARK 922        TOTAL FREE ENERGY PREDICTED BY IDOCK:   -4.15 KCAL/MOL
REMARK 923 INTER-LIGAND FREE ENERGY PREDICTED BY IDOCK:   -3.78 KCAL/MOL
REMARK 924 INTRA-LIGAND FREE ENERGY PREDICTED BY IDOCK:   -0.37 KCAL/MOL
REMARK 927      BINDING AFFINITY PREDICTED BY RF-SCORE:    0.00 PKD
ROOT
HETATM    1  C   UNL     1      -7.392   8.357  66.476  1.00  0.00    -0.081 C  
HETATM    2  C   UNL     1      -8.330   9.551  66.274  1.00  0.00    -0.117 C  
HETATM    3  C   UNL     1      -7.903  10.323  65.023  1.00  0.00    -0.133 C  
HETATM    4  C   UNL     1      -9.812   9.125  66.162  1.00  0.00    -0.363 C  
ENDROOT
BRANCH   4   5
HETATM    5  C   UNL     1     -10.327   8.395  67.384  1.00  0.00    -0.355 A  
HETATM    6  C   UNL     1     -10.315   9.005  68.643  1.00  0.00    -0.233 A  
HETATM    7  C   UNL     1     -10.676   8.287  69.787  1.00  0.00    -0.221 A  
HETATM    8  C   UNL     1     -11.062   6.941  69.693  1.00  0.00    -0.302 A  
HETATM    9  C   UNL     1     -11.290   6.097  70.938  1.00  0.00    -0.355 C  
HETATM   10  C   UNL     1     -11.144   6.355  68.422  1.00  0.00    -0.374 A  
HETATM   11  C   UNL     1     -10.012   5.934  71.763  1.00  0.00    -0.166 C  
HETATM   12  C   UNL     1     -10.777   7.073  67.282  1.00  0.00    -0.412 A  
HETATM   13  C   UNL     1     -12.434   6.629  71.803  1.00  0.00    -0.360 C  
HETATM   14  O   UNL     1      -8.935   5.538  71.037  1.00  0.00    -0.137 OA 
HETATM   15  O   UNL     1      -9.939   6.083  72.974  1.00  0.00    -0.170 OA 
ENDBRANCH   4   5
TORSDOF 1
ENDMDL
MODEL       95
REMARK 921   NORMALIZED FREE ENERGY PREDICTED BY IDOCK:   -3.59 KCAL/MOL
REMARK 922        TOTAL FREE ENERGY PREDICTED BY IDOCK:   -4.12 KCAL/MOL
REMARK 923 INTER-LIGAND FREE ENERGY PREDICTED BY IDOCK:   -3.76 KCAL/MOL
REMARK 924 INTRA-LIGAND FREE ENERGY PREDICTED BY IDOCK:   -0.36 KCAL/MOL
REMARK 927      BINDING AFFINITY PREDICTED BY RF-SCORE:    0.00 PKD
ROOT
HETATM    1  C   UNL     1     -12.177   9.636  71.432  1.00  0.00    -0.471 C  
HETATM    2  C   UNL     1     -12.889   8.528  72.216  1.00  0.00    -0.404 C  
HETATM    3  C   UNL     1     -14.387   8.572  71.906  1.00  0.00    -0.536 C  
HETATM    4  C   UNL     1     -12.317   7.125  71.904  1.00  0.00    -0.352 C  
ENDROOT
BRANCH   4   5
HETATM    5  C   UNL     1     -10.846   6.985  72.230  1.00  0.00    -0.262 A  
HETATM    6  C   UNL     1     -10.359   7.292  73.506  1.00  0.00    -0.412 A  
HETATM    7  C   UNL     1      -8.987   7.279  73.767  1.00  0.00    -0.251 A  
HETATM    8  C   UNL     1      -8.070   6.951  72.756  1.00  0.00    -0.114 A  
HETATM    9  C   UNL     1      -6.571   7.098  72.973  1.00  0.00    -0.064 C  
HETATM   10  C   UNL     1      -8.565   6.570  71.501  1.00  0.00    -0.129 A  
HETATM   11  C   UNL     1      -6.166   8.554  73.215  1.00  0.00    -0.104 C  
HETATM   12  C   UNL     1      -9.936   6.591  71.241  1.00  0.00    -0.200 A  
HETATM   13  C   UNL     1      -6.050   6.193  74.091  1.00  0.00    -0.065 C  
HETATM   14  O   UNL     1      -6.664   9.423  72.298  1.00  0.00    -0.288 OA 
HETATM   15  O   UNL     1      -5.421   8.932  74.107  1.00  0.00    -0.107 OA 
ENDBRANCH   4   5
TORSDOF 1
ENDMDL
MODEL       96
REMARK 921   NORMALIZED FREE ENERGY PREDICTED BY IDOCK:   -3.59 KCAL/MOL
REMARK 922        TOTAL FREE ENERGY PREDICTED BY IDOCK:   -4.12 KCAL/MOL
REMARK 923 INTER-LIGAND FREE ENERGY PREDICTED BY IDOCK:   -4.07 KCAL/MOL
REMARK 924 INTRA-LIGAND FREE ENERGY PREDICTED BY IDOCK:   -0.04 KCAL/MOL
REMARK 927      BINDING AFFINITY PREDICTED BY RF-SCORE:    0.00 PKD
ROOT
HETATM    1  C   UNL     1     -12.701  12.849  71.380  1.00  0.00    -0.366 C  
HETATM    2  C   UNL     1     -12.866  13.988  70.369  1.00  0.00    -0.231 C  
HETATM    3  C   UNL     1     -13.141  15.293  71.120  1.00  0.00    -0.546 C  
HETATM    4  C   UNL     1     -11.631  14.146  69.452  1.00  0.00    -0.353 C  
ENDROOT
BRANCH   4   5
HETATM    5  C   UNL     1     -11.320  12.910  68.636  1.00  0.00    -0.327 A  
HETATM    6  C   UNL     1     -10.537  11.878  69.166  1.00  0.00    -0.085 A  
HETATM    7  C   UNL     1     -10.150  10.796  68.370  1.00  0.00    -0.183 A  
HETATM    8  C   UNL     1     -10.546  10.722  67.025  1.00  0.00    -0.312 A  
HETATM    9  C   UNL     1      -9.995   9.647  66.100  1.00  0.00    -0.346 C  
HETATM   10  C   UNL     1     -11.392  11.718  66.519  1.00  0.00    -0.370 A  
HETATM   11  C   UNL     1      -8.482   9.773  65.909  1.00  0.00    -0.128 C  
HETATM   12  C   UNL     1     -11.771  12.801  67.315  1.00  0.00    -0.440 A  
HETATM   13  C   UNL     1     -10.373   8.236  66.553  1.00  0.00    -0.175 C  
HETATM   14  O   UNL     1      -8.072  11.025  65.581  1.00  0.00    -0.113 OA 
HETATM   15  O   UNL     1      -7.690   8.846  65.982  1.00  0.00    -0.095 OA 
ENDBRANCH   4   5
TORSDOF 1
ENDMDL
MODEL       97
REMARK 921   NORMALIZED FREE ENERGY PREDICTED BY IDOCK:   -3.58 KCAL/MOL
REMARK 922        TOTAL FREE ENERGY PREDICTED BY IDOCK:   -4.11 KCAL/MOL
REMARK 923 INTER-LIGAND FREE ENERGY PREDICTED BY IDOCK:   -3.76 KCAL/MOL
REMARK 924 INTRA-LIGAND FREE ENERGY PREDICTED BY IDOCK:   -0.35 KCAL/MOL
REMARK 927      BINDING AFFINITY PREDICTED BY RF-SCORE:    0.00 PKD
ROOT
HETATM    1  C   UNL     1      -8.706   7.363  68.784  1.00  0.00    -0.128 C  
HETATM    2  C   UNL     1      -7.289   7.789  68.386  1.00  0.00    -0.095 C  
HETATM    3  C   UNL     1      -6.304   6.678  68.758  1.00  0.00    -0.035 C  
HETATM    4  C   UNL     1      -7.175   8.127  66.881  1.00  0.00    -0.083 C  
ENDROOT
BRANCH   4   5
HETATM    5  C   UNL     1      -8.086   9.253  66.442  1.00  0.00    -0.107 A  
HETATM    6  C   UNL     1      -7.897  10.556  66.915  1.00  0.00    -0.117 A  
HETATM    7  C   UNL     1      -8.811  11.567  66.606  1.00  0.00    -0.187 A  
HETATM    8  C   UNL     1      -9.934  11.294  65.808  1.00  0.00    -0.281 A  
HETATM    9  C   UNL     1     -11.027  12.333  65.604  1.00  0.00    -0.338 C  
HETATM   10  C   UNL     1     -10.080  10.006  65.274  1.00  0.00    -0.299 A  
HETATM   11  C   UNL     1     -11.731  12.691  66.914  1.00  0.00    -0.383 C  
HETATM   12  C   UNL     1      -9.169   8.997  65.592  1.00  0.00    -0.288 A  
HETATM   13  C   UNL     1     -10.514  13.590  64.898  1.00  0.00    -0.417 C  
HETATM   14  O   UNL     1     -12.143  11.613  67.630  1.00  0.00    -0.615 OA 
HETATM   15  O   UNL     1     -11.970  13.830  67.290  1.00  0.00    -0.385 OA 
ENDBRANCH   4   5
TORSDOF 1
ENDMDL
MODEL       98
REMARK 921   NORMALIZED FREE ENERGY PREDICTED BY IDOCK:   -3.58 KCAL/MOL
REMARK 922        TOTAL FREE ENERGY PREDICTED BY IDOCK:   -4.11 KCAL/MOL
REMARK 923 INTER-LIGAND FREE ENERGY PREDICTED BY IDOCK:   -3.79 KCAL/MOL
REMARK 924 INTRA-LIGAND FREE ENERGY PREDICTED BY IDOCK:   -0.32 KCAL/MOL
REMARK 927      BINDING AFFINITY PREDICTED BY RF-SCORE:    0.00 PKD
ROOT
HETATM    1  C   UNL     1     -11.895  13.119  67.228  1.00  0.00    -0.420 C  
HETATM    2  C   UNL     1     -10.639  12.782  66.417  1.00  0.00    -0.273 C  
HETATM    3  C   UNL     1     -10.118  14.053  65.742  1.00  0.00    -0.345 C  
HETATM    4  C   UNL     1      -9.531  12.143  67.286  1.00  0.00    -0.184 C  
ENDROOT
BRANCH   4   5
HETATM    5  C   UNL     1      -9.953  10.851  67.953  1.00  0.00    -0.195 A  
HETATM    6  C   UNL     1     -10.068  10.765  69.345  1.00  0.00    -0.166 A  
HETATM    7  C   UNL     1     -10.338   9.541  69.963  1.00  0.00    -0.284 A  
HETATM    8  C   UNL     1     -10.506   8.376  69.198  1.00  0.00    -0.218 A  
HETATM    9  C   UNL     1     -10.628   7.011  69.858  1.00  0.00    -0.249 C  
HETATM   10  C   UNL     1     -10.465   8.480  67.801  1.00  0.00    -0.287 A  
HETATM   11  C   UNL     1      -9.360   6.628  70.624  1.00  0.00    -0.162 C  
HETATM   12  C   UNL     1     -10.188   9.703  67.186  1.00  0.00    -0.305 A  
HETATM   13  C   UNL     1     -11.862   6.904  70.756  1.00  0.00    -0.427 C  
HETATM   14  O   UNL     1      -8.218   6.775  69.906  1.00  0.00    -0.123 OA 
HETATM   15  O   UNL     1      -9.340   6.174  71.759  1.00  0.00    -0.151 OA 
ENDBRANCH   4   5
TORSDOF 1
ENDMDL
MODEL       99
REMARK 921   NORMALIZED FREE ENERGY PREDICTED BY IDOCK:   -3.57 KCAL/MOL
REMARK 922        TOTAL FREE ENERGY PREDICTED BY IDOCK:   -4.10 KCAL/MOL
REMARK 923 INTER-LIGAND FREE ENERGY PREDICTED BY IDOCK:   -3.80 KCAL/MOL
REMARK 924 INTRA-LIGAND FREE ENERGY PREDICTED BY IDOCK:   -0.30 KCAL/MOL
REMARK 927      BINDING AFFINITY PREDICTED BY RF-SCORE:    0.00 PKD
ROOT
HETATM    1  C   UNL     1      -7.384  16.653  66.368  1.00  0.00    -0.216 C  
HETATM    2  C   UNL     1      -7.268  17.763  67.418  1.00  0.00    -0.201 C  
HETATM    3  C   UNL     1      -6.375  18.881  66.875  1.00  0.00    -0.193 C  
HETATM    4  C   UNL     1      -8.646  18.329  67.833  1.00  0.00    -0.267 C  
ENDROOT
BRANCH   4   5
HETATM    5  C   UNL     1      -9.574  17.291  68.426  1.00  0.00    -0.285 A  
HETATM    6  C   UNL     1      -9.115  16.382  69.386  1.00  0.00    -0.037 A  
HETATM    7  C   UNL     1      -9.939  15.349  69.841  1.00  0.00    -0.229 A  
HETATM    8  C   UNL     1     -11.246  15.207  69.347  1.00  0.00    -0.293 A  
HETATM    9  C   UNL     1     -12.094  13.994  69.698  1.00  0.00    -0.408 C  
HETATM   10  C   UNL     1     -11.727  16.164  68.442  1.00  0.00    -0.126 A  
HETATM   11  C   UNL     1     -11.484  12.694  69.170  1.00  0.00    -0.304 C  
HETATM   12  C   UNL     1     -10.899  17.190  67.984  1.00  0.00    -0.317 A  
HETATM   13  C   UNL     1     -12.378  13.894  71.198  1.00  0.00    -0.440 C  
HETATM   14  O   UNL     1     -11.136  12.744  67.859  1.00  0.00    -0.225 OA 
HETATM   15  O   UNL     1     -11.357  11.668  69.821  1.00  0.00    -0.258 OA 
ENDBRANCH   4   5
TORSDOF 1
ENDMDL
MODEL      100
REMARK 921   NORMALIZED FREE ENERGY PREDICTED BY IDOCK:   -3.55 KCAL/MOL
REMARK 922        TOTAL FREE ENERGY PREDICTED BY IDOCK:   -4.07 KCAL/MOL
REMARK 923 INTER-LIGAND FREE ENERGY PREDICTED BY IDOCK:   -3.75 KCAL/MOL
REMARK 924 INTRA-LIGAND FREE ENERGY PREDICTED BY IDOCK:   -0.33 KCAL/MOL
REMARK 927      BINDING AFFINITY PREDICTED BY RF-SCORE:    0.00 PKD
ROOT
HETATM    1  C   UNL     1     -11.863   9.515  70.882  1.00  0.00    -0.385 C  
HETATM    2  C   UNL     1     -12.502   8.570  71.906  1.00  0.00    -0.402 C  
HETATM    3  C   UNL     1     -13.779   9.210  72.455  1.00  0.00    -0.543 C  
HETATM    4  C   UNL     1     -12.812   7.177  71.310  1.00  0.00    -0.399 C  
ENDROOT
BRANCH   4   5
HETATM    5  C   UNL     1     -11.588   6.456  70.787  1.00  0.00    -0.402 A  
HETATM    6  C   UNL     1     -10.615   5.963  71.664  1.00  0.00    -0.295 A  
HETATM    7  C   UNL     1      -9.430   5.407  71.174  1.00  0.00    -0.200 A  
HETATM    8  C   UNL     1      -9.196   5.328  69.792  1.00  0.00    -0.167 A  
HETATM    9  C   UNL     1      -7.847   4.888  69.245  1.00  0.00    -0.075 C  
HETATM   10  C   UNL     1     -10.205   5.754  68.917  1.00  0.00    -0.267 A  
HETATM   11  C   UNL     1      -6.726   5.855  69.634  1.00  0.00    -0.055 C  
HETATM   12  C   UNL     1     -11.385   6.315  69.409  1.00  0.00    -0.448 A  
HETATM   13  C   UNL     1      -7.493   3.454  69.644  1.00  0.00    -0.045 C  
HETATM   14  O   UNL     1      -7.010   7.158  69.377  1.00  0.00    -0.058 OA 
HETATM   15  O   UNL     1      -5.640   5.521  70.084  1.00  0.00    -0.007 OA 
ENDBRANCH   4   5
TORSDOF 1
ENDMDL
MODEL      101
REMARK 921   NORMALIZED FREE ENERGY PREDICTED BY IDOCK:   -3.51 KCAL/MOL
REMARK 922        TOTAL FREE ENERGY PREDICTED BY IDOCK:   -4.03 KCAL/MOL
REMARK 923 INTER-LIGAND FREE ENERGY PREDICTED BY IDOCK:   -3.71 KCAL/MOL
REMARK 924 INTRA-LIGAND FREE ENERGY PREDICTED BY IDOCK:   -0.33 KCAL/MOL
REMARK 927      BINDING AFFINITY PREDICTED BY RF-SCORE:    0.00 PKD
ROOT
HETATM    1  C   UNL     1      -8.329   8.126  67.083  1.00  0.00    -0.120 C  
HETATM    2  C   UNL     1      -8.982   7.909  68.452  1.00  0.00    -0.133 C  
HETATM    3  C   UNL     1      -8.275   6.758  69.173  1.00  0.00    -0.121 C  
HETATM    4  C   UNL     1      -8.959   9.185  69.325  1.00  0.00    -0.145 C  
ENDROOT
BRANCH   4   5
HETATM    5  C   UNL     1      -9.681  10.359  68.701  1.00  0.00    -0.178 A  
HETATM    6  C   UNL     1      -9.031  11.583  68.508  1.00  0.00    -0.146 A  
HETATM    7  C   UNL     1      -9.734  12.699  68.046  1.00  0.00    -0.215 A  
HETATM    8  C   UNL     1     -11.106  12.612  67.761  1.00  0.00    -0.287 A  
HETATM    9  C   UNL     1     -11.922  13.850  67.425  1.00  0.00    -0.436 C  
HETATM   10  C   UNL     1     -11.737  11.366  67.884  1.00  0.00    -0.300 A  
HETATM   11  C   UNL     1     -11.971  14.840  68.591  1.00  0.00    -0.257 C  
HETATM   12  C   UNL     1     -11.033  10.255  68.353  1.00  0.00    -0.308 A  
HETATM   13  C   UNL     1     -11.441  14.537  66.145  1.00  0.00    -0.357 C  
HETATM   14  O   UNL     1     -12.316  14.276  69.777  1.00  0.00    -0.328 OA 
HETATM   15  O   UNL     1     -11.778  16.043  68.494  1.00  0.00    -0.375 OA 
ENDBRANCH   4   5
TORSDOF 1
ENDMDL
MODEL      102
REMARK 921   NORMALIZED FREE ENERGY PREDICTED BY IDOCK:   -3.46 KCAL/MOL
REMARK 922        TOTAL FREE ENERGY PREDICTED BY IDOCK:   -3.98 KCAL/MOL
REMARK 923 INTER-LIGAND FREE ENERGY PREDICTED BY IDOCK:   -3.65 KCAL/MOL
REMARK 924 INTRA-LIGAND FREE ENERGY PREDICTED BY IDOCK:   -0.33 KCAL/MOL
REMARK 927      BINDING AFFINITY PREDICTED BY RF-SCORE:    0.00 PKD
ROOT
HETATM    1  C   UNL     1      -8.836  11.673  68.226  1.00  0.00    -0.167 C  
HETATM    2  C   UNL     1      -8.337  10.442  67.462  1.00  0.00    -0.114 C  
HETATM    3  C   UNL     1      -7.255  10.869  66.467  1.00  0.00    -0.142 C  
HETATM    4  C   UNL     1      -7.796   9.342  68.404  1.00  0.00    -0.094 C  
ENDROOT
BRANCH   4   5
HETATM    5  C   UNL     1      -8.824   8.830  69.390  1.00  0.00    -0.143 A  
HETATM    6  C   UNL     1      -9.908   8.056  68.962  1.00  0.00    -0.178 A  
HETATM    7  C   UNL     1     -10.919   7.689  69.854  1.00  0.00    -0.208 A  
HETATM    8  C   UNL     1     -10.862   8.084  71.200  1.00  0.00    -0.267 A  
HETATM    9  C   UNL     1     -12.032   7.843  72.142  1.00  0.00    -0.379 C  
HETATM   10  C   UNL     1      -9.737   8.794  71.642  1.00  0.00    -0.366 A  
HETATM   11  C   UNL     1     -13.285   8.607  71.710  1.00  0.00    -0.363 C  
HETATM   12  C   UNL     1      -8.733   9.166  70.747  1.00  0.00    -0.285 A  
HETATM   13  C   UNL     1     -12.336   6.356  72.328  1.00  0.00    -0.159 C  
HETATM   14  O   UNL     1     -13.066   9.922  71.452  1.00  0.00    -0.359 OA 
HETATM   15  O   UNL     1     -14.407   8.127  71.644  1.00  0.00    -0.426 OA 
ENDBRANCH   4   5
TORSDOF 1
ENDMDL
MODEL      103
REMARK 921   NORMALIZED FREE ENERGY PREDICTED BY IDOCK:   -3.46 KCAL/MOL
REMARK 922        TOTAL FREE ENERGY PREDICTED BY IDOCK:   -3.98 KCAL/MOL
REMARK 923 INTER-LIGAND FREE ENERGY PREDICTED BY IDOCK:   -3.65 KCAL/MOL
REMARK 924 INTRA-LIGAND FREE ENERGY PREDICTED BY IDOCK:   -0.33 KCAL/MOL
REMARK 927      BINDING AFFINITY PREDICTED BY RF-SCORE:    0.00 PKD
ROOT
HETATM    1  C   UNL     1      -8.932   6.204  66.308  1.00  0.00    -0.162 C  
HETATM    2  C   UNL     1      -9.505   4.849  66.734  1.00  0.00    -0.154 C  
HETATM    3  C   UNL     1      -9.023   3.768  65.764  1.00  0.00    -0.134 C  
HETATM    4  C   UNL     1      -9.124   4.478  68.186  1.00  0.00    -0.155 C  
ENDROOT
BRANCH   4   5
HETATM    5  C   UNL     1      -9.609   5.476  69.215  1.00  0.00    -0.184 A  
HETATM    6  C   UNL     1     -10.941   5.907  69.226  1.00  0.00    -0.397 A  
HETATM    7  C   UNL     1     -11.355   6.918  70.097  1.00  0.00    -0.364 A  
HETATM    8  C   UNL     1     -10.444   7.517  70.981  1.00  0.00    -0.222 A  
HETATM    9  C   UNL     1     -10.834   8.731  71.810  1.00  0.00    -0.416 C  
HETATM   10  C   UNL     1      -9.130   7.031  71.020  1.00  0.00    -0.151 A  
HETATM   11  C   UNL     1     -11.166   9.942  70.936  1.00  0.00    -0.360 C  
HETATM   12  C   UNL     1      -8.717   6.026  70.144  1.00  0.00    -0.139 A  
HETATM   13  C   UNL     1     -11.974   8.433  72.785  1.00  0.00    -0.214 C  
HETATM   14  O   UNL     1     -10.226  10.214  69.994  1.00  0.00    -0.254 OA 
HETATM   15  O   UNL     1     -12.147  10.656  71.076  1.00  0.00    -0.340 OA 
ENDBRANCH   4   5
TORSDOF 1
ENDMDL
MODEL      104
REMARK 921   NORMALIZED FREE ENERGY PREDICTED BY IDOCK:   -3.44 KCAL/MOL
REMARK 922        TOTAL FREE ENERGY PREDICTED BY IDOCK:   -3.96 KCAL/MOL
REMARK 923 INTER-LIGAND FREE ENERGY PREDICTED BY IDOCK:   -3.66 KCAL/MOL
REMARK 924 INTRA-LIGAND FREE ENERGY PREDICTED BY IDOCK:   -0.30 KCAL/MOL
REMARK 927      BINDING AFFINITY PREDICTED BY RF-SCORE:    0.00 PKD
ROOT
HETATM    1  C   UNL     1      -9.546  13.821  67.754  1.00  0.00    -0.219 C  
HETATM    2  C   UNL     1     -11.008  13.468  68.048  1.00  0.00    -0.271 C  
HETATM    3  C   UNL     1     -11.863  14.734  67.952  1.00  0.00    -0.327 C  
HETATM    4  C   UNL     1     -11.554  12.378  67.097  1.00  0.00    -0.435 C  
ENDROOT
BRANCH   4   5
HETATM    5  C   UNL     1     -10.790  11.073  67.168  1.00  0.00    -0.336 A  
HETATM    6  C   UNL     1     -10.342  10.438  66.004  1.00  0.00    -0.262 A  
HETATM    7  C   UNL     1      -9.746   9.176  66.066  1.00  0.00    -0.358 A  
HETATM    8  C   UNL     1      -9.579   8.524  67.298  1.00  0.00    -0.220 A  
HETATM    9  C   UNL     1      -9.093   7.084  67.368  1.00  0.00    -0.124 C  
HETATM   10  C   UNL     1      -9.959   9.196  68.468  1.00  0.00    -0.192 A  
HETATM   11  C   UNL     1     -10.071   6.114  66.702  1.00  0.00    -0.162 C  
HETATM   12  C   UNL     1     -10.561  10.453  68.403  1.00  0.00    -0.238 A  
HETATM   13  C   UNL     1      -7.683   6.915  66.799  1.00  0.00    -0.102 C  
HETATM   14  O   UNL     1     -11.357   6.266  67.108  1.00  0.00    -0.261 OA 
HETATM   15  O   UNL     1      -9.754   5.234  65.916  1.00  0.00    -0.156 OA 
ENDBRANCH   4   5
TORSDOF 1
ENDMDL
MODEL      105
REMARK 921   NORMALIZED FREE ENERGY PREDICTED BY IDOCK:   -3.41 KCAL/MOL
REMARK 922        TOTAL FREE ENERGY PREDICTED BY IDOCK:   -3.93 KCAL/MOL
REMARK 923 INTER-LIGAND FREE ENERGY PREDICTED BY IDOCK:   -3.61 KCAL/MOL
REMARK 924 INTRA-LIGAND FREE ENERGY PREDICTED BY IDOCK:   -0.32 KCAL/MOL
REMARK 927      BINDING AFFINITY PREDICTED BY RF-SCORE:    0.00 PKD
ROOT
HETATM    1  C   UNL     1      -8.160   5.801  72.503  1.00  0.00    -0.103 C  
HETATM    2  C   UNL     1      -9.583   6.050  73.013  1.00  0.00    -0.155 C  
HETATM    3  C   UNL     1      -9.692   5.568  74.462  1.00  0.00    -0.204 C  
HETATM    4  C   UNL     1      -9.996   7.536  72.909  1.00  0.00    -0.303 C  
ENDROOT
BRANCH   4   5
HETATM    5  C   UNL     1      -9.961   8.077  71.496  1.00  0.00    -0.225 A  
HETATM    6  C   UNL     1      -9.225   9.226  71.184  1.00  0.00    -0.225 A  
HETATM    7  C   UNL     1      -9.293   9.791  69.907  1.00  0.00    -0.262 A  
HETATM    8  C   UNL     1     -10.097   9.214  68.912  1.00  0.00    -0.209 A  
HETATM    9  C   UNL     1     -10.319   9.908  67.577  1.00  0.00    -0.289 C  
HETATM   10  C   UNL     1     -10.774   8.021  69.206  1.00  0.00    -0.140 A  
HETATM   11  C   UNL     1     -11.043  11.246  67.738  1.00  0.00    -0.271 C  
HETATM   12  C   UNL     1     -10.709   7.463  70.484  1.00  0.00    -0.247 A  
HETATM   13  C   UNL     1      -9.022  10.081  66.785  1.00  0.00    -0.151 C  
HETATM   14  O   UNL     1     -12.165  11.176  68.499  1.00  0.00    -0.600 OA 
HETATM   15  O   UNL     1     -10.706  12.291  67.203  1.00  0.00    -0.224 OA 
ENDBRANCH   4   5
TORSDOF 1
ENDMDL
MODEL      106
REMARK 921   NORMALIZED FREE ENERGY PREDICTED BY IDOCK:   -3.41 KCAL/MOL
REMARK 922        TOTAL FREE ENERGY PREDICTED BY IDOCK:   -3.93 KCAL/MOL
REMARK 923 INTER-LIGAND FREE ENERGY PREDICTED BY IDOCK:   -3.93 KCAL/MOL
REMARK 924 INTRA-LIGAND FREE ENERGY PREDICTED BY IDOCK:    0.00 KCAL/MOL
REMARK 927      BINDING AFFINITY PREDICTED BY RF-SCORE:    0.00 PKD
ROOT
HETATM    1  C   UNL     1     -12.079  14.046  63.874  1.00  0.00    -0.350 C  
HETATM    2  C   UNL     1     -12.398  12.631  64.366  1.00  0.00    -0.523 C  
HETATM    3  C   UNL     1     -12.626  11.716  63.160  1.00  0.00    -0.115 C  
HETATM    4  C   UNL     1     -11.284  12.057  65.272  1.00  0.00    -0.374 C  
ENDROOT
BRANCH   4   5
HETATM    5  C   UNL     1     -11.030  12.881  66.516  1.00  0.00    -0.300 A  
HETATM    6  C   UNL     1     -12.003  13.759  67.007  1.00  0.00    -0.452 A  
HETATM    7  C   UNL     1     -11.721  14.607  68.082  1.00  0.00    -0.360 A  
HETATM    8  C   UNL     1     -10.456  14.590  68.692  1.00  0.00    -0.247 A  
HETATM    9  C   UNL     1     -10.075  15.620  69.744  1.00  0.00    -0.291 C  
HETATM   10  C   UNL     1      -9.510  13.657  68.246  1.00  0.00    -0.213 A  
HETATM   11  C   UNL     1     -10.060  17.041  69.177  1.00  0.00    -0.259 C  
HETATM   12  C   UNL     1      -9.793  12.816  67.168  1.00  0.00    -0.216 A  
HETATM   13  C   UNL     1     -10.959  15.539  70.990  1.00  0.00    -0.314 C  
HETATM   14  O   UNL     1      -9.354  17.166  68.024  1.00  0.00    -0.243 OA 
HETATM   15  O   UNL     1     -10.576  18.012  69.712  1.00  0.00     0.330 OA 
ENDBRANCH   4   5
TORSDOF 1
ENDMDL
MODEL      107
REMARK 921   NORMALIZED FREE ENERGY PREDICTED BY IDOCK:   -3.40 KCAL/MOL
REMARK 922        TOTAL FREE ENERGY PREDICTED BY IDOCK:   -3.92 KCAL/MOL
REMARK 923 INTER-LIGAND FREE ENERGY PREDICTED BY IDOCK:   -3.62 KCAL/MOL
REMARK 924 INTRA-LIGAND FREE ENERGY PREDICTED BY IDOCK:   -0.30 KCAL/MOL
REMARK 927      BINDING AFFINITY PREDICTED BY RF-SCORE:    0.00 PKD
ROOT
HETATM    1  C   UNL     1     -12.294   7.523  71.017  1.00  0.00    -0.265 C  
HETATM    2  C   UNL     1     -12.994   8.880  71.141  1.00  0.00    -0.160 C  
HETATM    3  C   UNL     1     -13.910   8.867  72.367  1.00  0.00    -0.518 C  
HETATM    4  C   UNL     1     -11.991  10.054  71.232  1.00  0.00    -0.483 C  
ENDROOT
BRANCH   4   5
HETATM    5  C   UNL     1     -11.078  10.165  70.031  1.00  0.00    -0.368 A  
HETATM    6  C   UNL     1      -9.715   9.864  70.134  1.00  0.00    -0.255 A  
HETATM    7  C   UNL     1      -8.852  10.085  69.056  1.00  0.00    -0.159 A  
HETATM    8  C   UNL     1      -9.339  10.608  67.847  1.00  0.00    -0.154 A  
HETATM    9  C   UNL     1      -8.394  11.016  66.728  1.00  0.00    -0.147 C  
HETATM   10  C   UNL     1     -10.717  10.837  67.723  1.00  0.00    -0.296 A  
HETATM   11  C   UNL     1      -7.472  12.164  67.144  1.00  0.00    -0.129 C  
HETATM   12  C   UNL     1     -11.574  10.622  68.804  1.00  0.00    -0.309 A  
HETATM   13  C   UNL     1      -7.586   9.835  66.186  1.00  0.00    -0.101 C  
HETATM   14  O   UNL     1      -8.122  13.215  67.706  1.00  0.00    -0.137 OA 
HETATM   15  O   UNL     1      -6.265  12.194  66.954  1.00  0.00    -0.141 OA 
ENDBRANCH   4   5
TORSDOF 1
ENDMDL
MODEL      108
REMARK 921   NORMALIZED FREE ENERGY PREDICTED BY IDOCK:   -3.33 KCAL/MOL
REMARK 922        TOTAL FREE ENERGY PREDICTED BY IDOCK:   -3.84 KCAL/MOL
REMARK 923 INTER-LIGAND FREE ENERGY PREDICTED BY IDOCK:   -4.39 KCAL/MOL
REMARK 924 INTRA-LIGAND FREE ENERGY PREDICTED BY IDOCK:    0.55 KCAL/MOL
REMARK 927      BINDING AFFINITY PREDICTED BY RF-SCORE:    0.00 PKD
ROOT
HETATM    1  C   UNL     1     -11.854  13.674  66.951  1.00  0.00    -0.451 C  
HETATM    2  C   UNL     1     -12.065  13.296  65.482  1.00  0.00    -0.480 C  
HETATM    3  C   UNL     1     -12.274  14.568  64.657  1.00  0.00    -0.474 C  
HETATM    4  C   UNL     1     -10.887  12.473  64.910  1.00  0.00    -0.327 C  
ENDROOT
BRANCH   4   5
HETATM    5  C   UNL     1     -10.645  11.171  65.643  1.00  0.00    -0.286 A  
HETATM    6  C   UNL     1     -11.031  11.017  66.980  1.00  0.00    -0.333 A  
HETATM    7  C   UNL     1     -10.697   9.860  67.689  1.00  0.00    -0.339 A  
HETATM    8  C   UNL     1      -9.972   8.828  67.072  1.00  0.00    -0.307 A  
HETATM    9  C   UNL     1      -9.452   7.644  67.872  1.00  0.00    -0.156 C  
HETATM   10  C   UNL     1      -9.653   8.954  65.713  1.00  0.00    -0.245 A  
HETATM   11  C   UNL     1      -8.431   8.068  68.930  1.00  0.00    -0.131 C  
HETATM   12  C   UNL     1      -9.982  10.114  65.009  1.00  0.00    -0.375 A  
HETATM   13  C   UNL     1     -10.579   6.821  68.499  1.00  0.00    -0.265 C  
HETATM   14  O   UNL     1      -7.444   8.868  68.451  1.00  0.00    -0.084 OA 
HETATM   15  O   UNL     1      -8.438   7.698  70.095  1.00  0.00    -0.134 OA 
ENDBRANCH   4   5
TORSDOF 1
ENDMDL
MODEL      109
REMARK 921   NORMALIZED FREE ENERGY PREDICTED BY IDOCK:   -3.32 KCAL/MOL
REMARK 922        TOTAL FREE ENERGY PREDICTED BY IDOCK:   -3.84 KCAL/MOL
REMARK 923 INTER-LIGAND FREE ENERGY PREDICTED BY IDOCK:   -3.53 KCAL/MOL
REMARK 924 INTRA-LIGAND FREE ENERGY PREDICTED BY IDOCK:   -0.30 KCAL/MOL
REMARK 927      BINDING AFFINITY PREDICTED BY RF-SCORE:    0.00 PKD
ROOT
HETATM    1  C   UNL     1      -9.863   4.745  69.539  1.00  0.00    -0.292 C  
HETATM    2  C   UNL     1      -9.301   4.204  68.220  1.00  0.00    -0.214 C  
HETATM    3  C   UNL     1      -9.521   2.691  68.160  1.00  0.00    -0.217 C  
HETATM    4  C   UNL     1      -9.933   4.888  66.985  1.00  0.00    -0.238 C  
ENDROOT
BRANCH   4   5
HETATM    5  C   UNL     1      -9.716   6.385  66.945  1.00  0.00    -0.190 A  
HETATM    6  C   UNL     1     -10.786   7.271  67.124  1.00  0.00    -0.413 A  
HETATM    7  C   UNL     1     -10.605   8.647  66.965  1.00  0.00    -0.293 A  
HETATM    8  C   UNL     1      -9.346   9.169  66.628  1.00  0.00    -0.228 A  
HETATM    9  C   UNL     1      -9.168  10.639  66.283  1.00  0.00    -0.193 C  
HETATM   10  C   UNL     1      -8.262   8.286  66.524  1.00  0.00    -0.106 A  
HETATM   11  C   UNL     1      -9.946  11.032  65.025  1.00  0.00    -0.285 C  
HETATM   12  C   UNL     1      -8.447   6.911  66.677  1.00  0.00    -0.121 A  
HETATM   13  C   UNL     1      -9.520  11.561  67.452  1.00  0.00    -0.171 C  
HETATM   14  O   UNL     1      -9.738  10.204  63.969  1.00  0.00    -0.306 OA 
HETATM   15  O   UNL     1     -10.655  12.022  64.923  1.00  0.00    -0.268 OA 
ENDBRANCH   4   5
TORSDOF 1
ENDMDL
MODEL      110
REMARK 921   NORMALIZED FREE ENERGY PREDICTED BY IDOCK:   -3.30 KCAL/MOL
REMARK 922        TOTAL FREE ENERGY PREDICTED BY IDOCK:   -3.81 KCAL/MOL
REMARK 923 INTER-LIGAND FREE ENERGY PREDICTED BY IDOCK:   -3.89 KCAL/MOL
REMARK 924 INTRA-LIGAND FREE ENERGY PREDICTED BY IDOCK:    0.07 KCAL/MOL
REMARK 927      BINDING AFFINITY PREDICTED BY RF-SCORE:    0.00 PKD
ROOT
HETATM    1  C   UNL     1     -12.728   9.703  72.014  1.00  0.00    -0.470 C  
HETATM    2  C   UNL     1     -12.910  10.990  71.202  1.00  0.00    -0.491 C  
HETATM    3  C   UNL     1     -13.327  12.125  72.140  1.00  0.00    -0.438 C  
HETATM    4  C   UNL     1     -11.633  11.380  70.422  1.00  0.00    -0.267 C  
ENDROOT
BRANCH   4   5
HETATM    5  C   UNL     1     -11.180  10.326  69.434  1.00  0.00    -0.292 A  
HETATM    6  C   UNL     1     -10.506   9.178  69.867  1.00  0.00    -0.239 A  
HETATM    7  C   UNL     1      -9.982   8.269  68.944  1.00  0.00    -0.193 A  
HETATM    8  C   UNL     1     -10.129   8.486  67.565  1.00  0.00    -0.282 A  
HETATM    9  C   UNL     1      -9.421   7.604  66.548  1.00  0.00    -0.250 C  
HETATM   10  C   UNL     1     -10.871   9.596  67.137  1.00  0.00    -0.184 A  
HETATM   11  C   UNL     1      -7.899   7.709  66.657  1.00  0.00    -0.106 C  
HETATM   12  C   UNL     1     -11.386  10.507  68.061  1.00  0.00    -0.319 A  
HETATM   13  C   UNL     1      -9.875   6.145  66.624  1.00  0.00    -0.202 C  
HETATM   14  O   UNL     1      -7.436   8.985  66.674  1.00  0.00    -0.085 OA 
HETATM   15  O   UNL     1      -7.133   6.757  66.673  1.00  0.00    -0.068 OA 
ENDBRANCH   4   5
TORSDOF 1
ENDMDL
MODEL      111
REMARK 921   NORMALIZED FREE ENERGY PREDICTED BY IDOCK:   -3.30 KCAL/MOL
REMARK 922        TOTAL FREE ENERGY PREDICTED BY IDOCK:   -3.81 KCAL/MOL
REMARK 923 INTER-LIGAND FREE ENERGY PREDICTED BY IDOCK:   -3.51 KCAL/MOL
REMARK 924 INTRA-LIGAND FREE ENERGY PREDICTED BY IDOCK:   -0.30 KCAL/MOL
REMARK 927      BINDING AFFINITY PREDICTED BY RF-SCORE:    0.00 PKD
ROOT
HETATM    1  C   UNL     1      -7.461   8.229  64.807  1.00  0.00    -0.093 C  
HETATM    2  C   UNL     1      -7.268   9.746  64.726  1.00  0.00    -0.130 C  
HETATM    3  C   UNL     1      -6.794  10.121  63.319  1.00  0.00    -0.128 C  
HETATM    4  C   UNL     1      -8.555  10.525  65.085  1.00  0.00    -0.187 C  
ENDROOT
BRANCH   4   5
HETATM    5  C   UNL     1      -9.062  10.245  66.483  1.00  0.00    -0.169 A  
HETATM    6  C   UNL     1     -10.246   9.527  66.687  1.00  0.00    -0.310 A  
HETATM    7  C   UNL     1     -10.775   9.376  67.972  1.00  0.00    -0.246 A  
HETATM    8  C   UNL     1     -10.126   9.938  69.082  1.00  0.00    -0.210 A  
HETATM    9  C   UNL     1     -10.772   9.933  70.459  1.00  0.00    -0.382 C  
HETATM   10  C   UNL     1      -8.902  10.592  68.883  1.00  0.00    -0.166 A  
HETATM   11  C   UNL     1     -12.067  10.748  70.488  1.00  0.00    -0.366 C  
HETATM   12  C   UNL     1      -8.379  10.747  67.597  1.00  0.00    -0.119 A  
HETATM   13  C   UNL     1     -11.005   8.518  70.991  1.00  0.00    -0.296 C  
HETATM   14  O   UNL     1     -11.947  11.991  69.956  1.00  0.00    -0.326 OA 
HETATM   15  O   UNL     1     -13.118  10.370  70.985  1.00  0.00    -0.381 OA 
ENDBRANCH   4   5
TORSDOF 1
ENDMDL
MODEL      112
REMARK 921   NORMALIZED FREE ENERGY PREDICTED BY IDOCK:   -3.28 KCAL/MOL
REMARK 922        TOTAL FREE ENERGY PREDICTED BY IDOCK:   -3.79 KCAL/MOL
REMARK 923 INTER-LIGAND FREE ENERGY PREDICTED BY IDOCK:   -3.49 KCAL/MOL
REMARK 924 INTRA-LIGAND FREE ENERGY PREDICTED BY IDOCK:   -0.30 KCAL/MOL
REMARK 927      BINDING AFFINITY PREDICTED BY RF-SCORE:    0.00 PKD
ROOT
HETATM    1  C   UNL     1      -8.090   7.703  66.737  1.00  0.00    -0.115 C  
HETATM    2  C   UNL     1      -9.277   8.668  66.833  1.00  0.00    -0.198 C  
HETATM    3  C   UNL     1      -9.366   9.488  65.544  1.00  0.00    -0.317 C  
HETATM    4  C   UNL     1     -10.613   7.935  67.096  1.00  0.00    -0.383 C  
ENDROOT
BRANCH   4   5
HETATM    5  C   UNL     1     -10.623   7.137  68.382  1.00  0.00    -0.223 A  
HETATM    6  C   UNL     1     -10.689   7.777  69.625  1.00  0.00    -0.223 A  
HETATM    7  C   UNL     1     -10.574   7.046  70.810  1.00  0.00    -0.240 A  
HETATM    8  C   UNL     1     -10.397   5.654  70.776  1.00  0.00    -0.310 A  
HETATM    9  C   UNL     1     -10.098   4.866  72.043  1.00  0.00    -0.256 C  
HETATM   10  C   UNL     1     -10.407   5.007  69.532  1.00  0.00    -0.231 A  
HETATM   11  C   UNL     1      -8.764   5.273  72.671  1.00  0.00    -0.120 C  
HETATM   12  C   UNL     1     -10.514   5.742  68.350  1.00  0.00    -0.283 A  
HETATM   13  C   UNL     1     -11.233   4.952  73.066  1.00  0.00    -0.367 C  
HETATM   14  O   UNL     1      -7.727   5.293  71.796  1.00  0.00    -0.103 OA 
HETATM   15  O   UNL     1      -8.595   5.511  73.858  1.00  0.00    -0.116 OA 
ENDBRANCH   4   5
TORSDOF 1
ENDMDL
MODEL      113
REMARK 921   NORMALIZED FREE ENERGY PREDICTED BY IDOCK:   -3.27 KCAL/MOL
REMARK 922        TOTAL FREE ENERGY PREDICTED BY IDOCK:   -3.78 KCAL/MOL
REMARK 923 INTER-LIGAND FREE ENERGY PREDICTED BY IDOCK:   -3.44 KCAL/MOL
REMARK 924 INTRA-LIGAND FREE ENERGY PREDICTED BY IDOCK:   -0.33 KCAL/MOL
REMARK 927      BINDING AFFINITY PREDICTED BY RF-SCORE:    0.00 PKD
ROOT
HETATM    1  C   UNL     1     -11.854  13.911  67.472  1.00  0.00    -0.431 C  
HETATM    2  C   UNL     1     -11.879  13.074  66.189  1.00  0.00    -0.466 C  
HETATM    3  C   UNL     1     -12.298  13.962  65.015  1.00  0.00    -0.452 C  
HETATM    4  C   UNL     1     -10.517  12.403  65.896  1.00  0.00    -0.284 C  
ENDROOT
BRANCH   4   5
HETATM    5  C   UNL     1     -10.053  11.468  66.992  1.00  0.00    -0.237 A  
HETATM    6  C   UNL     1      -8.871  11.719  67.698  1.00  0.00    -0.162 A  
HETATM    7  C   UNL     1      -8.383  10.792  68.623  1.00  0.00    -0.141 A  
HETATM    8  C   UNL     1      -9.074   9.594  68.866  1.00  0.00    -0.144 A  
HETATM    9  C   UNL     1      -8.473   8.500  69.736  1.00  0.00    -0.129 C  
HETATM   10  C   UNL     1     -10.296   9.382  68.214  1.00  0.00    -0.251 A  
HETATM   11  C   UNL     1      -7.187   7.930  69.134  1.00  0.00    -0.081 C  
HETATM   12  C   UNL     1     -10.777  10.306  67.285  1.00  0.00    -0.323 A  
HETATM   13  C   UNL     1      -8.245   8.958  71.177  1.00  0.00    -0.218 C  
HETATM   14  O   UNL     1      -7.301   7.575  67.829  1.00  0.00    -0.096 OA 
HETATM   15  O   UNL     1      -6.150   7.743  69.753  1.00  0.00    -0.026 OA 
ENDBRANCH   4   5
TORSDOF 1
ENDMDL
MODEL      114
REMARK 921   NORMALIZED FREE ENERGY PREDICTED BY IDOCK:   -3.26 KCAL/MOL
REMARK 922        TOTAL FREE ENERGY PREDICTED BY IDOCK:   -3.77 KCAL/MOL
REMARK 923 INTER-LIGAND FREE ENERGY PREDICTED BY IDOCK:   -3.52 KCAL/MOL
REMARK 924 INTRA-LIGAND FREE ENERGY PREDICTED BY IDOCK:   -0.24 KCAL/MOL
REMARK 927      BINDING AFFINITY PREDICTED BY RF-SCORE:    0.00 PKD
ROOT
HETATM    1  C   UNL     1     -10.795  10.483  67.760  1.00  0.00    -0.347 C  
HETATM    2  C   UNL     1     -10.769  11.374  69.007  1.00  0.00    -0.245 C  
HETATM    3  C   UNL     1     -11.529  12.670  68.717  1.00  0.00    -0.349 C  
HETATM    4  C   UNL     1     -11.364  10.668  70.247  1.00  0.00    -0.401 C  
ENDROOT
BRANCH   4   5
HETATM    5  C   UNL     1     -10.636   9.398  70.630  1.00  0.00    -0.354 A  
HETATM    6  C   UNL     1     -11.342   8.252  71.015  1.00  0.00    -0.299 A  
HETATM    7  C   UNL     1     -10.666   7.122  71.484  1.00  0.00    -0.245 A  
HETATM    8  C   UNL     1      -9.265   7.113  71.571  1.00  0.00    -0.148 A  
HETATM    9  C   UNL     1      -8.525   5.964  72.238  1.00  0.00    -0.121 C  
HETATM   10  C   UNL     1      -8.558   8.234  71.113  1.00  0.00    -0.168 A  
HETATM   11  C   UNL     1      -8.869   5.843  73.723  1.00  0.00    -0.124 C  
HETATM   12  C   UNL     1      -9.236   9.364  70.652  1.00  0.00    -0.303 A  
HETATM   13  C   UNL     1      -8.742   4.632  71.517  1.00  0.00    -0.137 C  
HETATM   14  O   UNL     1      -8.771   7.012  74.407  1.00  0.00    -0.173 OA 
HETATM   15  O   UNL     1      -9.155   4.800  74.291  1.00  0.00    -0.111 OA 
ENDBRANCH   4   5
TORSDOF 1
ENDMDL
MODEL      115
REMARK 921   NORMALIZED FREE ENERGY PREDICTED BY IDOCK:   -3.26 KCAL/MOL
REMARK 922        TOTAL FREE ENERGY PREDICTED BY IDOCK:   -3.77 KCAL/MOL
REMARK 923 INTER-LIGAND FREE ENERGY PREDICTED BY IDOCK:   -3.65 KCAL/MOL
REMARK 924 INTRA-LIGAND FREE ENERGY PREDICTED BY IDOCK:   -0.11 KCAL/MOL
REMARK 927      BINDING AFFINITY PREDICTED BY RF-SCORE:    0.00 PKD
ROOT
HETATM    1  C   UNL     1      -7.713  20.077  65.614  1.00  0.00    -0.175 C  
HETATM    2  C   UNL     1      -6.290  19.515  65.531  1.00  0.00    -0.265 C  
HETATM    3  C   UNL     1      -5.327  20.634  65.127  1.00  0.00    -0.222 C  
HETATM    4  C   UNL     1      -5.834  18.867  66.859  1.00  0.00    -0.164 C  
ENDROOT
BRANCH   4   5
HETATM    5  C   UNL     1      -6.710  17.716  67.304  1.00  0.00    -0.184 A  
HETATM    6  C   UNL     1      -7.397  16.932  66.370  1.00  0.00    -0.302 A  
HETATM    7  C   UNL     1      -8.299  15.950  66.789  1.00  0.00    -0.306 A  
HETATM    8  C   UNL     1      -8.528  15.728  68.156  1.00  0.00    -0.162 A  
HETATM    9  C   UNL     1      -9.628  14.789  68.627  1.00  0.00    -0.218 C  
HETATM   10  C   UNL     1      -7.783  16.462  69.088  1.00  0.00    -0.220 A  
HETATM   11  C   UNL     1     -11.018  15.279  68.217  1.00  0.00    -0.276 C  
HETATM   12  C   UNL     1      -6.888  17.447  68.667  1.00  0.00    -0.217 A  
HETATM   13  C   UNL     1      -9.401  13.346  68.170  1.00  0.00    -0.217 C  
HETATM   14  O   UNL     1     -11.255  16.580  68.525  1.00  0.00    -0.360 OA 
HETATM   15  O   UNL     1     -11.882  14.581  67.708  1.00  0.00    -0.366 OA 
ENDBRANCH   4   5
TORSDOF 1
ENDMDL
MODEL      116
REMARK 921   NORMALIZED FREE ENERGY PREDICTED BY IDOCK:   -3.25 KCAL/MOL
REMARK 922        TOTAL FREE ENERGY PREDICTED BY IDOCK:   -3.76 KCAL/MOL
REMARK 923 INTER-LIGAND FREE ENERGY PREDICTED BY IDOCK:   -3.42 KCAL/MOL
REMARK 924 INTRA-LIGAND FREE ENERGY PREDICTED BY IDOCK:   -0.33 KCAL/MOL
REMARK 927      BINDING AFFINITY PREDICTED BY RF-SCORE:    0.00 PKD
ROOT
HETATM    1  C   UNL     1      -7.840   8.992  65.284  1.00  0.00    -0.102 C  
HETATM    2  C   UNL     1      -8.910  10.087  65.357  1.00  0.00    -0.199 C  
HETATM    3  C   UNL     1      -9.077  10.722  63.975  1.00  0.00    -0.215 C  
HETATM    4  C   UNL     1     -10.267   9.552  65.871  1.00  0.00    -0.185 C  
ENDROOT
BRANCH   4   5
HETATM    5  C   UNL     1     -10.195   8.949  67.257  1.00  0.00    -0.326 A  
HETATM    6  C   UNL     1     -10.521   7.606  67.474  1.00  0.00    -0.336 A  
HETATM    7  C   UNL     1     -10.572   7.085  68.770  1.00  0.00    -0.235 A  
HETATM    8  C   UNL     1     -10.290   7.899  69.878  1.00  0.00    -0.224 A  
HETATM    9  C   UNL     1     -10.508   7.399  71.298  1.00  0.00    -0.221 C  
HETATM   10  C   UNL     1      -9.890   9.223  69.652  1.00  0.00    -0.196 A  
HETATM   11  C   UNL     1     -11.980   7.092  71.581  1.00  0.00    -0.318 C  
HETATM   12  C   UNL     1      -9.848   9.743  68.357  1.00  0.00    -0.168 A  
HETATM   13  C   UNL     1      -9.624   6.196  71.636  1.00  0.00    -0.166 C  
HETATM   14  O   UNL     1     -12.827   8.093  71.229  1.00  0.00    -0.280 OA 
HETATM   15  O   UNL     1     -12.390   6.076  72.122  1.00  0.00    -0.254 OA 
ENDBRANCH   4   5
TORSDOF 1
ENDMDL
MODEL      117
REMARK 921   NORMALIZED FREE ENERGY PREDICTED BY IDOCK:   -3.24 KCAL/MOL
REMARK 922        TOTAL FREE ENERGY PREDICTED BY IDOCK:   -3.75 KCAL/MOL
REMARK 923 INTER-LIGAND FREE ENERGY PREDICTED BY IDOCK:   -4.14 KCAL/MOL
REMARK 924 INTRA-LIGAND FREE ENERGY PREDICTED BY IDOCK:    0.39 KCAL/MOL
REMARK 927      BINDING AFFINITY PREDICTED BY RF-SCORE:    0.00 PKD
ROOT
HETATM    1  C   UNL     1     -11.242   8.192  69.874  1.00  0.00    -0.030 C  
HETATM    2  C   UNL     1     -10.431   9.352  70.460  1.00  0.00    -0.335 C  
HETATM    3  C   UNL     1     -10.035   9.016  71.900  1.00  0.00    -0.304 C  
HETATM    4  C   UNL     1      -9.173   9.676  69.619  1.00  0.00    -0.225 C  
ENDROOT
BRANCH   4   5
HETATM    5  C   UNL     1      -9.484  10.066  68.190  1.00  0.00    -0.148 A  
HETATM    6  C   UNL     1      -9.041  11.286  67.666  1.00  0.00    -0.149 A  
HETATM    7  C   UNL     1      -9.432  11.697  66.389  1.00  0.00    -0.232 A  
HETATM    8  C   UNL     1     -10.273  10.890  65.605  1.00  0.00    -0.323 A  
HETATM    9  C   UNL     1     -10.848  11.395  64.290  1.00  0.00    -0.416 C  
HETATM   10  C   UNL     1     -10.653   9.636  66.104  1.00  0.00     0.015 A  
HETATM   11  C   UNL     1     -11.771  12.598  64.491  1.00  0.00    -0.359 C  
HETATM   12  C   UNL     1     -10.266   9.231  67.383  1.00  0.00    -0.304 A  
HETATM   13  C   UNL     1      -9.761  11.705  63.259  1.00  0.00    -0.390 C  
HETATM   14  O   UNL     1     -12.712  12.415  65.452  1.00  0.00    -0.582 OA 
HETATM   15  O   UNL     1     -11.733  13.625  63.829  1.00  0.00    -0.360 OA 
ENDBRANCH   4   5
TORSDOF 1
ENDMDL
MODEL      118
REMARK 921   NORMALIZED FREE ENERGY PREDICTED BY IDOCK:   -3.22 KCAL/MOL
REMARK 922        TOTAL FREE ENERGY PREDICTED BY IDOCK:   -3.73 KCAL/MOL
REMARK 923 INTER-LIGAND FREE ENERGY PREDICTED BY IDOCK:   -3.42 KCAL/MOL
REMARK 924 INTRA-LIGAND FREE ENERGY PREDICTED BY IDOCK:   -0.31 KCAL/MOL
REMARK 927      BINDING AFFINITY PREDICTED BY RF-SCORE:    0.00 PKD
ROOT
HETATM    1  C   UNL     1     -10.656  18.906  66.210  1.00  0.00    -0.463 C  
HETATM    2  C   UNL     1      -9.467  19.431  67.020  1.00  0.00    -0.399 C  
HETATM    3  C   UNL     1      -9.727  20.886  67.416  1.00  0.00    -0.367 C  
HETATM    4  C   UNL     1      -9.186  18.575  68.277  1.00  0.00    -0.342 C  
ENDROOT
BRANCH   4   5
HETATM    5  C   UNL     1      -8.871  17.127  67.966  1.00  0.00    -0.229 A  
HETATM    6  C   UNL     1      -9.553  16.089  68.611  1.00  0.00    -0.222 A  
HETATM    7  C   UNL     1      -9.176  14.758  68.413  1.00  0.00    -0.189 A  
HETATM    8  C   UNL     1      -8.109  14.437  67.558  1.00  0.00    -0.204 A  
HETATM    9  C   UNL     1      -7.575  13.016  67.463  1.00  0.00    -0.166 C  
HETATM   10  C   UNL     1      -7.478  15.474  66.856  1.00  0.00    -0.117 A  
HETATM   11  C   UNL     1      -6.986  12.534  68.790  1.00  0.00    -0.094 C  
HETATM   12  C   UNL     1      -7.852  16.803  67.062  1.00  0.00    -0.229 A  
HETATM   13  C   UNL     1      -8.623  12.031  66.941  1.00  0.00    -0.189 C  
HETATM   14  O   UNL     1      -6.104  13.403  69.348  1.00  0.00    -0.092 OA 
HETATM   15  O   UNL     1      -7.219  11.451  69.306  1.00  0.00    -0.118 OA 
ENDBRANCH   4   5
TORSDOF 1
ENDMDL
MODEL      119
REMARK 921   NORMALIZED FREE ENERGY PREDICTED BY IDOCK:   -3.22 KCAL/MOL
REMARK 922        TOTAL FREE ENERGY PREDICTED BY IDOCK:   -3.73 KCAL/MOL
REMARK 923 INTER-LIGAND FREE ENERGY PREDICTED BY IDOCK:   -3.52 KCAL/MOL
REMARK 924 INTRA-LIGAND FREE ENERGY PREDICTED BY IDOCK:   -0.21 KCAL/MOL
REMARK 927      BINDING AFFINITY PREDICTED BY RF-SCORE:    0.00 PKD
ROOT
HETATM    1  C   UNL     1      -8.269   9.956  66.140  1.00  0.00    -0.118 C  
HETATM    2  C   UNL     1      -7.174  10.424  67.104  1.00  0.00    -0.091 C  
HETATM    3  C   UNL     1      -6.093  11.170  66.317  1.00  0.00    -0.117 C  
HETATM    4  C   UNL     1      -7.728  11.320  68.237  1.00  0.00    -0.122 C  
ENDROOT
BRANCH   4   5
HETATM    5  C   UNL     1      -8.771  10.636  69.094  1.00  0.00    -0.135 A  
HETATM    6  C   UNL     1      -8.396   9.785  70.140  1.00  0.00    -0.201 A  
HETATM    7  C   UNL     1      -9.358   9.061  70.850  1.00  0.00    -0.326 A  
HETATM    8  C   UNL     1     -10.720   9.178  70.530  1.00  0.00    -0.289 A  
HETATM    9  C   UNL     1     -11.761   8.273  71.171  1.00  0.00    -0.308 C  
HETATM   10  C   UNL     1     -11.098  10.088  69.532  1.00  0.00    -0.279 A  
HETATM   11  C   UNL     1     -11.545   6.803  70.809  1.00  0.00    -0.366 C  
HETATM   12  C   UNL     1     -10.134  10.804  68.820  1.00  0.00    -0.202 A  
HETATM   13  C   UNL     1     -11.840   8.457  72.688  1.00  0.00    -0.360 C  
HETATM   14  O   UNL     1     -11.388   6.581  69.479  1.00  0.00    -0.362 OA 
HETATM   15  O   UNL     1     -11.561   5.878  71.608  1.00  0.00    -0.241 OA 
ENDBRANCH   4   5
TORSDOF 1
ENDMDL
MODEL      120
REMARK 921   NORMALIZED FREE ENERGY PREDICTED BY IDOCK:   -3.22 KCAL/MOL
REMARK 922        TOTAL FREE ENERGY PREDICTED BY IDOCK:   -3.73 KCAL/MOL
REMARK 923 INTER-LIGAND FREE ENERGY PREDICTED BY IDOCK:   -3.41 KCAL/MOL
REMARK 924 INTRA-LIGAND FREE ENERGY PREDICTED BY IDOCK:   -0.32 KCAL/MOL
REMARK 927      BINDING AFFINITY PREDICTED BY RF-SCORE:    0.00 PKD
ROOT
HETATM    1  C   UNL     1     -10.460  15.246  69.971  1.00  0.00    -0.266 C  
HETATM    2  C   UNL     1     -11.733  14.418  70.177  1.00  0.00    -0.361 C  
HETATM    3  C   UNL     1     -12.875  15.345  70.599  1.00  0.00    -0.484 C  
HETATM    4  C   UNL     1     -12.128  13.620  68.912  1.00  0.00    -0.335 C  
ENDROOT
BRANCH   4   5
HETATM    5  C   UNL     1     -11.067  12.642  68.456  1.00  0.00    -0.300 A  
HETATM    6  C   UNL     1     -10.598  12.654  67.138  1.00  0.00    -0.252 A  
HETATM    7  C   UNL     1      -9.709  11.674  66.688  1.00  0.00    -0.221 A  
HETATM    8  C   UNL     1      -9.265  10.661  67.554  1.00  0.00    -0.151 A  
HETATM    9  C   UNL     1      -8.439   9.492  67.040  1.00  0.00    -0.128 C  
HETATM   10  C   UNL     1      -9.678  10.696  68.893  1.00  0.00    -0.210 A  
HETATM   11  C   UNL     1      -9.214   8.639  66.034  1.00  0.00    -0.216 C  
HETATM   12  C   UNL     1     -10.571  11.673  69.337  1.00  0.00    -0.008 A  
HETATM   13  C   UNL     1      -7.095   9.936  66.460  1.00  0.00    -0.094 C  
HETATM   14  O   UNL     1     -10.451   8.276  66.458  1.00  0.00    -0.255 OA 
HETATM   15  O   UNL     1      -8.774   8.253  64.961  1.00  0.00    -0.128 OA 
ENDBRANCH   4   5
TORSDOF 1
ENDMDL
MODEL      121
REMARK 921   NORMALIZED FREE ENERGY PREDICTED BY IDOCK:   -3.22 KCAL/MOL
REMARK 922        TOTAL FREE ENERGY PREDICTED BY IDOCK:   -3.72 KCAL/MOL
REMARK 923 INTER-LIGAND FREE ENERGY PREDICTED BY IDOCK:   -3.37 KCAL/MOL
REMARK 924 INTRA-LIGAND FREE ENERGY PREDICTED BY IDOCK:   -0.36 KCAL/MOL
REMARK 927      BINDING AFFINITY PREDICTED BY RF-SCORE:    0.00 PKD
ROOT
HETATM    1  C   UNL     1     -10.658  15.629  69.807  1.00  0.00    -0.308 C  
HETATM    2  C   UNL     1     -11.648  14.566  70.293  1.00  0.00    -0.328 C  
HETATM    3  C   UNL     1     -12.780  15.246  71.067  1.00  0.00    -0.487 C  
HETATM    4  C   UNL     1     -12.223  13.721  69.132  1.00  0.00    -0.289 C  
ENDROOT
BRANCH   4   5
HETATM    5  C   UNL     1     -11.168  12.975  68.345  1.00  0.00    -0.304 A  
HETATM    6  C   UNL     1     -10.413  11.958  68.939  1.00  0.00    -0.164 A  
HETATM    7  C   UNL     1      -9.357  11.357  68.247  1.00  0.00    -0.187 A  
HETATM    8  C   UNL     1      -9.039  11.758  66.940  1.00  0.00    -0.192 A  
HETATM    9  C   UNL     1      -7.793  11.241  66.238  1.00  0.00    -0.069 C  
HETATM   10  C   UNL     1      -9.846  12.724  66.321  1.00  0.00    -0.269 A  
HETATM   11  C   UNL     1      -6.511  11.672  66.951  1.00  0.00    -0.134 C  
HETATM   12  C   UNL     1     -10.894  13.328  67.017  1.00  0.00    -0.278 A  
HETATM   13  C   UNL     1      -7.823   9.724  66.037  1.00  0.00    -0.107 C  
HETATM   14  O   UNL     1      -6.457  13.000  67.230  1.00  0.00    -0.212 OA 
HETATM   15  O   UNL     1      -5.574  10.932  67.213  1.00  0.00    -0.040 OA 
ENDBRANCH   4   5
TORSDOF 1
ENDMDL
MODEL      122
REMARK 921   NORMALIZED FREE ENERGY PREDICTED BY IDOCK:   -3.19 KCAL/MOL
REMARK 922        TOTAL FREE ENERGY PREDICTED BY IDOCK:   -3.70 KCAL/MOL
REMARK 923 INTER-LIGAND FREE ENERGY PREDICTED BY IDOCK:   -4.11 KCAL/MOL
REMARK 924 INTRA-LIGAND FREE ENERGY PREDICTED BY IDOCK:    0.41 KCAL/MOL
REMARK 927      BINDING AFFINITY PREDICTED BY RF-SCORE:    0.00 PKD
ROOT
HETATM    1  C   UNL     1     -11.936  14.501  67.648  1.00  0.00    -0.355 C  
HETATM    2  C   UNL     1     -11.648  15.066  69.043  1.00  0.00    -0.342 C  
HETATM    3  C   UNL     1     -12.516  14.338  70.072  1.00  0.00    -0.355 C  
HETATM    4  C   UNL     1     -10.154  14.957  69.427  1.00  0.00    -0.166 C  
ENDROOT
BRANCH   4   5
HETATM    5  C   UNL     1      -9.230  15.694  68.481  1.00  0.00    -0.197 A  
HETATM    6  C   UNL     1      -8.325  16.648  68.960  1.00  0.00    -0.182 A  
HETATM    7  C   UNL     1      -7.561  17.413  68.074  1.00  0.00    -0.206 A  
HETATM    8  C   UNL     1      -7.684  17.235  66.687  1.00  0.00    -0.298 A  
HETATM    9  C   UNL     1      -6.994  18.171  65.708  1.00  0.00    -0.279 C  
HETATM   10  C   UNL     1      -8.536  16.226  66.214  1.00  0.00    -0.369 A  
HETATM   11  C   UNL     1      -7.513  19.606  65.822  1.00  0.00    -0.290 C  
HETATM   12  C   UNL     1      -9.303  15.469  67.101  1.00  0.00    -0.227 A  
HETATM   13  C   UNL     1      -5.470  18.130  65.834  1.00  0.00    -0.229 C  
HETATM   14  O   UNL     1      -8.866  19.705  65.795  1.00  0.00    -0.393 OA 
HETATM   15  O   UNL     1      -6.806  20.602  65.878  1.00  0.00    -0.228 OA 
ENDBRANCH   4   5
TORSDOF 1
ENDMDL
MODEL      123
REMARK 921   NORMALIZED FREE ENERGY PREDICTED BY IDOCK:   -3.15 KCAL/MOL
REMARK 922        TOTAL FREE ENERGY PREDICTED BY IDOCK:   -3.66 KCAL/MOL
REMARK 923 INTER-LIGAND FREE ENERGY PREDICTED BY IDOCK:   -3.32 KCAL/MOL
REMARK 924 INTRA-LIGAND FREE ENERGY PREDICTED BY IDOCK:   -0.33 KCAL/MOL
REMARK 927      BINDING AFFINITY PREDICTED BY RF-SCORE:    0.00 PKD
ROOT
HETATM    1  C   UNL     1      -6.588   6.542  67.407  1.00  0.00    -0.061 C  
HETATM    2  C   UNL     1      -6.345   8.006  67.027  1.00  0.00    -0.056 C  
HETATM    3  C   UNL     1      -5.538   8.064  65.728  1.00  0.00    -0.036 C  
HETATM    4  C   UNL     1      -7.662   8.803  66.877  1.00  0.00    -0.094 C  
ENDROOT
BRANCH   4   5
HETATM    5  C   UNL     1      -8.499   8.834  68.138  1.00  0.00    -0.130 A  
HETATM    6  C   UNL     1      -9.794   8.303  68.155  1.00  0.00    -0.198 A  
HETATM    7  C   UNL     1     -10.607   8.444  69.283  1.00  0.00    -0.193 A  
HETATM    8  C   UNL     1     -10.137   9.115  70.423  1.00  0.00    -0.264 A  
HETATM    9  C   UNL     1     -11.061   9.427  71.590  1.00  0.00    -0.409 C  
HETATM   10  C   UNL     1      -8.814   9.578  70.430  1.00  0.00    -0.279 A  
HETATM   11  C   UNL     1     -12.192  10.377  71.189  1.00  0.00    -0.394 C  
HETATM   12  C   UNL     1      -8.007   9.443  69.298  1.00  0.00    -0.093 A  
HETATM   13  C   UNL     1     -11.616   8.164  72.251  1.00  0.00    -0.436 C  
HETATM   14  O   UNL     1     -11.771  11.484  70.527  1.00  0.00    -0.309 OA 
HETATM   15  O   UNL     1     -13.371  10.216  71.469  1.00  0.00    -0.370 OA 
ENDBRANCH   4   5
TORSDOF 1
ENDMDL
MODEL      124
REMARK 921   NORMALIZED FREE ENERGY PREDICTED BY IDOCK:   -3.15 KCAL/MOL
REMARK 922        TOTAL FREE ENERGY PREDICTED BY IDOCK:   -3.65 KCAL/MOL
REMARK 923 INTER-LIGAND FREE ENERGY PREDICTED BY IDOCK:   -3.34 KCAL/MOL
REMARK 924 INTRA-LIGAND FREE ENERGY PREDICTED BY IDOCK:   -0.32 KCAL/MOL
REMARK 927      BINDING AFFINITY PREDICTED BY RF-SCORE:    0.00 PKD
ROOT
HETATM    1  C   UNL     1     -12.200   9.737  71.242  1.00  0.00    -0.465 C  
HETATM    2  C   UNL     1     -12.851   8.609  72.048  1.00  0.00    -0.425 C  
HETATM    3  C   UNL     1     -14.342   8.543  71.711  1.00  0.00    -0.522 C  
HETATM    4  C   UNL     1     -12.181   7.239  71.793  1.00  0.00    -0.368 C  
ENDROOT
BRANCH   4   5
HETATM    5  C   UNL     1     -10.710   7.208  72.148  1.00  0.00    -0.245 A  
HETATM    6  C   UNL     1      -9.755   6.783  71.217  1.00  0.00    -0.179 A  
HETATM    7  C   UNL     1      -8.415   6.639  71.587  1.00  0.00    -0.119 A  
HETATM    8  C   UNL     1      -8.000   6.924  72.898  1.00  0.00    -0.109 A  
HETATM    9  C   UNL     1      -6.587   6.611  73.363  1.00  0.00    -0.065 C  
HETATM   10  C   UNL     1      -8.946   7.422  73.806  1.00  0.00    -0.275 A  
HETATM   11  C   UNL     1      -6.290   5.110  73.328  1.00  0.00    -0.056 C  
HETATM   12  C   UNL     1     -10.285   7.557  73.435  1.00  0.00    -0.399 A  
HETATM   13  C   UNL     1      -5.528   7.395  72.587  1.00  0.00    -0.037 C  
HETATM   14  O   UNL     1      -7.236   4.348  73.935  1.00  0.00    -0.065 OA 
HETATM   15  O   UNL     1      -5.280   4.609  72.857  1.00  0.00    -0.007 OA 
ENDBRANCH   4   5
TORSDOF 1
ENDMDL
MODEL      125
REMARK 921   NORMALIZED FREE ENERGY PREDICTED BY IDOCK:   -3.13 KCAL/MOL
REMARK 922        TOTAL FREE ENERGY PREDICTED BY IDOCK:   -3.63 KCAL/MOL
REMARK 923 INTER-LIGAND FREE ENERGY PREDICTED BY IDOCK:   -3.27 KCAL/MOL
REMARK 924 INTRA-LIGAND FREE ENERGY PREDICTED BY IDOCK:   -0.36 KCAL/MOL
REMARK 927      BINDING AFFINITY PREDICTED BY RF-SCORE:    0.00 PKD
ROOT
HETATM    1  C   UNL     1      -7.877   6.640  64.210  1.00  0.00    -0.115 C  
HETATM    2  C   UNL     1      -8.324   5.500  65.132  1.00  0.00    -0.146 C  
HETATM    3  C   UNL     1      -7.646   4.200  64.693  1.00  0.00    -0.077 C  
HETATM    4  C   UNL     1      -8.018   5.791  66.620  1.00  0.00    -0.102 C  
ENDROOT
BRANCH   4   5
HETATM    5  C   UNL     1      -8.693   7.039  67.145  1.00  0.00    -0.121 A  
HETATM    6  C   UNL     1     -10.079   7.202  67.045  1.00  0.00    -0.308 A  
HETATM    7  C   UNL     1     -10.684   8.406  67.419  1.00  0.00    -0.225 A  
HETATM    8  C   UNL     1      -9.912   9.471  67.908  1.00  0.00    -0.209 A  
HETATM    9  C   UNL     1     -10.526  10.841  68.155  1.00  0.00    -0.214 C  
HETATM   10  C   UNL     1      -8.534   9.277  68.078  1.00  0.00    -0.120 A  
HETATM   11  C   UNL     1     -11.046  11.479  66.865  1.00  0.00    -0.307 C  
HETATM   12  C   UNL     1      -7.932   8.077  67.697  1.00  0.00    -0.123 A  
HETATM   13  C   UNL     1     -11.618  10.807  69.226  1.00  0.00    -0.376 C  
HETATM   14  O   UNL     1     -10.148  11.470  65.847  1.00  0.00    -0.215 OA 
HETATM   15  O   UNL     1     -12.140  12.009  66.740  1.00  0.00    -0.613 OA 
ENDBRANCH   4   5
TORSDOF 1
ENDMDL
MODEL      126
REMARK 921   NORMALIZED FREE ENERGY PREDICTED BY IDOCK:   -3.11 KCAL/MOL
REMARK 922        TOTAL FREE ENERGY PREDICTED BY IDOCK:   -3.62 KCAL/MOL
REMARK 923 INTER-LIGAND FREE ENERGY PREDICTED BY IDOCK:   -3.26 KCAL/MOL
REMARK 924 INTRA-LIGAND FREE ENERGY PREDICTED BY IDOCK:   -0.35 KCAL/MOL
REMARK 927      BINDING AFFINITY PREDICTED BY RF-SCORE:    0.00 PKD
ROOT
HETATM    1  C   UNL     1      -6.571   8.788  67.103  1.00  0.00    -0.062 C  
HETATM    2  C   UNL     1      -6.931   8.667  68.588  1.00  0.00    -0.064 C  
HETATM    3  C   UNL     1      -5.905   7.770  69.285  1.00  0.00    -0.030 C  
HETATM    4  C   UNL     1      -7.006  10.043  69.290  1.00  0.00    -0.063 C  
ENDROOT
BRANCH   4   5
HETATM    5  C   UNL     1      -8.036  10.975  68.687  1.00  0.00    -0.143 A  
HETATM    6  C   UNL     1      -9.402  10.680  68.760  1.00  0.00    -0.183 A  
HETATM    7  C   UNL     1     -10.340  11.477  68.098  1.00  0.00    -0.211 A  
HETATM    8  C   UNL     1      -9.929  12.594  67.353  1.00  0.00    -0.204 A  
HETATM    9  C   UNL     1     -10.911  13.369  66.488  1.00  0.00    -0.286 C  
HETATM   10  C   UNL     1      -8.568  12.929  67.345  1.00  0.00    -0.195 A  
HETATM   11  C   UNL     1     -11.484  12.511  65.359  1.00  0.00    -0.344 C  
HETATM   12  C   UNL     1      -7.632  12.126  68.001  1.00  0.00    -0.123 A  
HETATM   13  C   UNL     1     -12.031  14.011  67.309  1.00  0.00    -0.448 C  
HETATM   14  O   UNL     1     -10.542  11.849  64.639  1.00  0.00    -0.277 OA 
HETATM   15  O   UNL     1     -12.668  12.444  65.064  1.00  0.00    -0.631 OA 
ENDBRANCH   4   5
TORSDOF 1
ENDMDL
MODEL      127
REMARK 921   NORMALIZED FREE ENERGY PREDICTED BY IDOCK:   -3.10 KCAL/MOL
REMARK 922        TOTAL FREE ENERGY PREDICTED BY IDOCK:   -3.60 KCAL/MOL
REMARK 923 INTER-LIGAND FREE ENERGY PREDICTED BY IDOCK:   -3.31 KCAL/MOL
REMARK 924 INTRA-LIGAND FREE ENERGY PREDICTED BY IDOCK:   -0.30 KCAL/MOL
REMARK 927      BINDING AFFINITY PREDICTED BY RF-SCORE:    0.00 PKD
ROOT
HETATM    1  C   UNL     1      -8.607   3.535  71.079  1.00  0.00    -0.111 C  
HETATM    2  C   UNL     1      -7.426   4.494  70.902  1.00  0.00    -0.052 C  
HETATM    3  C   UNL     1      -6.237   3.729  70.317  1.00  0.00    -0.027 C  
HETATM    4  C   UNL     1      -7.779   5.704  70.006  1.00  0.00    -0.083 C  
ENDROOT
BRANCH   4   5
HETATM    5  C   UNL     1      -8.918   6.544  70.543  1.00  0.00    -0.152 A  
HETATM    6  C   UNL     1     -10.164   6.556  69.906  1.00  0.00    -0.219 A  
HETATM    7  C   UNL     1     -11.174   7.423  70.331  1.00  0.00    -0.284 A  
HETATM    8  C   UNL     1     -10.959   8.295  71.411  1.00  0.00    -0.301 A  
HETATM    9  C   UNL     1     -11.979   9.362  71.777  1.00  0.00    -0.452 C  
HETATM   10  C   UNL     1      -9.737   8.226  72.094  1.00  0.00    -0.344 A  
HETATM   11  C   UNL     1     -12.162  10.390  70.658  1.00  0.00    -0.347 C  
HETATM   12  C   UNL     1      -8.728   7.363  71.662  1.00  0.00    -0.124 A  
HETATM   13  C   UNL     1     -13.324   8.766  72.196  1.00  0.00    -0.465 C  
HETATM   14  O   UNL     1     -10.996  10.902  70.186  1.00  0.00    -0.230 OA 
HETATM   15  O   UNL     1     -13.241  10.782  70.240  1.00  0.00    -0.116 OA 
ENDBRANCH   4   5
TORSDOF 1
ENDMDL
MODEL      128
REMARK 921   NORMALIZED FREE ENERGY PREDICTED BY IDOCK:   -3.10 KCAL/MOL
REMARK 922        TOTAL FREE ENERGY PREDICTED BY IDOCK:   -3.60 KCAL/MOL
REMARK 923 INTER-LIGAND FREE ENERGY PREDICTED BY IDOCK:   -3.38 KCAL/MOL
REMARK 924 INTRA-LIGAND FREE ENERGY PREDICTED BY IDOCK:   -0.23 KCAL/MOL
REMARK 927      BINDING AFFINITY PREDICTED BY RF-SCORE:    0.00 PKD
ROOT
HETATM    1  C   UNL     1      -9.114  12.171  68.312  1.00  0.00    -0.191 C  
HETATM    2  C   UNL     1      -7.596  12.372  68.364  1.00  0.00    -0.129 C  
HETATM    3  C   UNL     1      -6.900  11.034  68.104  1.00  0.00    -0.067 C  
HETATM    4  C   UNL     1      -7.107  13.437  67.355  1.00  0.00    -0.108 C  
ENDROOT
BRANCH   4   5
HETATM    5  C   UNL     1      -7.715  14.806  67.576  1.00  0.00    -0.215 A  
HETATM    6  C   UNL     1      -8.773  15.259  66.780  1.00  0.00    -0.304 A  
HETATM    7  C   UNL     1      -9.250  16.567  66.905  1.00  0.00    -0.244 A  
HETATM    8  C   UNL     1      -8.680  17.449  67.838  1.00  0.00    -0.237 A  
HETATM    9  C   UNL     1      -9.066  18.919  67.870  1.00  0.00    -0.334 C  
HETATM   10  C   UNL     1      -7.672  16.967  68.685  1.00  0.00    -0.251 A  
HETATM   11  C   UNL     1      -8.684  19.642  66.576  1.00  0.00    -0.362 C  
HETATM   12  C   UNL     1      -7.193  15.663  68.552  1.00  0.00    -0.120 A  
HETATM   13  C   UNL     1     -10.546  19.128  68.195  1.00  0.00    -0.342 C  
HETATM   14  O   UNL     1      -7.400  19.433  66.189  1.00  0.00    -0.247 OA 
HETATM   15  O   UNL     1      -9.421  20.391  65.951  1.00  0.00    -0.224 OA 
ENDBRANCH   4   5
TORSDOF 1
ENDMDL
MODEL      129
REMARK 921   NORMALIZED FREE ENERGY PREDICTED BY IDOCK:   -3.08 KCAL/MOL
REMARK 922        TOTAL FREE ENERGY PREDICTED BY IDOCK:   -3.58 KCAL/MOL
REMARK 923 INTER-LIGAND FREE ENERGY PREDICTED BY IDOCK:   -3.44 KCAL/MOL
REMARK 924 INTRA-LIGAND FREE ENERGY PREDICTED BY IDOCK:   -0.14 KCAL/MOL
REMARK 927      BINDING AFFINITY PREDICTED BY RF-SCORE:    0.00 PKD
ROOT
HETATM    1  C   UNL     1     -10.832   8.817  70.524  1.00  0.00    -0.268 C  
HETATM    2  C   UNL     1     -10.699   7.578  71.415  1.00  0.00    -0.243 C  
HETATM    3  C   UNL     1     -11.275   7.888  72.799  1.00  0.00    -0.466 C  
HETATM    4  C   UNL     1     -11.395   6.338  70.809  1.00  0.00    -0.397 C  
ENDROOT
BRANCH   4   5
HETATM    5  C   UNL     1     -10.847   5.936  69.456  1.00  0.00    -0.442 A  
HETATM    6  C   UNL     1      -9.760   5.061  69.353  1.00  0.00    -0.254 A  
HETATM    7  C   UNL     1      -9.179   4.789  68.111  1.00  0.00    -0.155 A  
HETATM    8  C   UNL     1      -9.681   5.385  66.942  1.00  0.00    -0.166 A  
HETATM    9  C   UNL     1      -8.960   5.239  65.611  1.00  0.00    -0.160 C  
HETATM   10  C   UNL     1     -10.817   6.201  67.041  1.00  0.00    -0.435 A  
HETATM   11  C   UNL     1      -7.568   5.874  65.639  1.00  0.00    -0.084 C  
HETATM   12  C   UNL     1     -11.389   6.476  68.284  1.00  0.00    -0.123 A  
HETATM   13  C   UNL     1      -8.886   3.784  65.142  1.00  0.00    -0.123 C  
HETATM   14  O   UNL     1      -7.553   7.144  66.120  1.00  0.00    -0.087 OA 
HETATM   15  O   UNL     1      -6.549   5.343  65.223  1.00  0.00    -0.038 OA 
ENDBRANCH   4   5
TORSDOF 1
ENDMDL
MODEL      130
REMARK 921   NORMALIZED FREE ENERGY PREDICTED BY IDOCK:   -3.07 KCAL/MOL
REMARK 922        TOTAL FREE ENERGY PREDICTED BY IDOCK:   -3.57 KCAL/MOL
REMARK 923 INTER-LIGAND FREE ENERGY PREDICTED BY IDOCK:   -3.45 KCAL/MOL
REMARK 924 INTRA-LIGAND FREE ENERGY PREDICTED BY IDOCK:   -0.12 KCAL/MOL
REMARK 927      BINDING AFFINITY PREDICTED BY RF-SCORE:    0.00 PKD
ROOT
HETATM    1  C   UNL     1     -11.343  16.673  71.753  1.00  0.00     0.192 C  
HETATM    2  C   UNL     1     -11.059  15.450  70.875  1.00  0.00    -0.374 C  
HETATM    3  C   UNL     1     -11.979  14.302  71.295  1.00  0.00    -0.315 C  
HETATM    4  C   UNL     1     -11.232  15.753  69.368  1.00  0.00    -0.324 C  
ENDROOT
BRANCH   4   5
HETATM    5  C   UNL     1     -10.319  16.849  68.862  1.00  0.00    -0.333 A  
HETATM    6  C   UNL     1      -9.043  16.551  68.369  1.00  0.00    -0.222 A  
HETATM    7  C   UNL     1      -8.158  17.573  68.017  1.00  0.00    -0.237 A  
HETATM    8  C   UNL     1      -8.535  18.920  68.146  1.00  0.00    -0.342 A  
HETATM    9  C   UNL     1      -7.531  20.043  67.933  1.00  0.00    -0.330 C  
HETATM   10  C   UNL     1      -9.840  19.213  68.567  1.00  0.00    -0.483 A  
HETATM   11  C   UNL     1      -6.398  20.002  68.960  1.00  0.00    -0.318 C  
HETATM   12  C   UNL     1     -10.719  18.189  68.925  1.00  0.00     0.299 A  
HETATM   13  C   UNL     1      -6.977  20.070  66.508  1.00  0.00    -0.257 C  
HETATM   14  O   UNL     1      -6.823  19.899  70.245  1.00  0.00    -0.219 OA 
HETATM   15  O   UNL     1      -5.210  20.106  68.692  1.00  0.00    -0.189 OA 
ENDBRANCH   4   5
TORSDOF 1
ENDMDL
MODEL      131
REMARK 921   NORMALIZED FREE ENERGY PREDICTED BY IDOCK:   -3.07 KCAL/MOL
REMARK 922        TOTAL FREE ENERGY PREDICTED BY IDOCK:   -3.56 KCAL/MOL
REMARK 923 INTER-LIGAND FREE ENERGY PREDICTED BY IDOCK:   -3.73 KCAL/MOL
REMARK 924 INTRA-LIGAND FREE ENERGY PREDICTED BY IDOCK:    0.17 KCAL/MOL
REMARK 927      BINDING AFFINITY PREDICTED BY RF-SCORE:    0.00 PKD
ROOT
HETATM    1  C   UNL     1      -8.707   9.153  66.300  1.00  0.00    -0.159 C  
HETATM    2  C   UNL     1      -8.558  10.002  65.033  1.00  0.00    -0.173 C  
HETATM    3  C   UNL     1      -8.357   9.081  63.828  1.00  0.00    -0.178 C  
HETATM    4  C   UNL     1      -9.771  10.933  64.802  1.00  0.00    -0.323 C  
ENDROOT
BRANCH   4   5
HETATM    5  C   UNL     1     -10.009  11.911  65.932  1.00  0.00    -0.261 A  
HETATM    6  C   UNL     1     -11.181  12.673  65.989  1.00  0.00    -0.345 A  
HETATM    7  C   UNL     1     -11.343  13.661  66.963  1.00  0.00    -0.344 A  
HETATM    8  C   UNL     1     -10.334  13.904  67.909  1.00  0.00    -0.240 A  
HETATM    9  C   UNL     1     -10.416  15.084  68.864  1.00  0.00    -0.241 C  
HETATM   10  C   UNL     1      -9.194  13.088  67.896  1.00  0.00    -0.208 A  
HETATM   11  C   UNL     1     -10.395  16.424  68.126  1.00  0.00    -0.283 C  
HETATM   12  C   UNL     1      -9.032  12.107  66.916  1.00  0.00    -0.201 A  
HETATM   13  C   UNL     1     -11.623  14.996  69.800  1.00  0.00    -0.336 C  
HETATM   14  O   UNL     1      -9.389  16.536  67.220  1.00  0.00    -0.218 OA 
HETATM   15  O   UNL     1     -11.159  17.353  68.342  1.00  0.00    -0.220 OA 
ENDBRANCH   4   5
TORSDOF 1
ENDMDL
MODEL      132
REMARK 921   NORMALIZED FREE ENERGY PREDICTED BY IDOCK:   -3.06 KCAL/MOL
REMARK 922        TOTAL FREE ENERGY PREDICTED BY IDOCK:   -3.56 KCAL/MOL
REMARK 923 INTER-LIGAND FREE ENERGY PREDICTED BY IDOCK:   -3.27 KCAL/MOL
REMARK 924 INTRA-LIGAND FREE ENERGY PREDICTED BY IDOCK:   -0.29 KCAL/MOL
REMARK 927      BINDING AFFINITY PREDICTED BY RF-SCORE:    0.00 PKD
ROOT
HETATM    1  C   UNL     1      -7.819   4.780  68.588  1.00  0.00    -0.077 C  
HETATM    2  C   UNL     1      -9.091   4.524  67.773  1.00  0.00    -0.142 C  
HETATM    3  C   UNL     1      -9.535   3.073  67.974  1.00  0.00    -0.217 C  
HETATM    4  C   UNL     1     -10.236   5.493  68.147  1.00  0.00    -0.232 C  
ENDROOT
BRANCH   4   5
HETATM    5  C   UNL     1      -9.891   6.951  67.930  1.00  0.00    -0.155 A  
HETATM    6  C   UNL     1      -9.681   7.809  69.016  1.00  0.00    -0.157 A  
HETATM    7  C   UNL     1      -9.484   9.178  68.815  1.00  0.00    -0.147 A  
HETATM    8  C   UNL     1      -9.486   9.717  67.518  1.00  0.00    -0.170 A  
HETATM    9  C   UNL     1      -9.447  11.220  67.290  1.00  0.00    -0.184 C  
HETATM   10  C   UNL     1      -9.621   8.844  66.430  1.00  0.00    -0.304 A  
HETATM   11  C   UNL     1     -10.684  11.920  67.855  1.00  0.00    -0.204 C  
HETATM   12  C   UNL     1      -9.825   7.478  66.634  1.00  0.00    -0.274 A  
HETATM   13  C   UNL     1      -8.165  11.860  67.828  1.00  0.00    -0.148 C  
HETATM   14  O   UNL     1     -11.858  11.351  67.477  1.00  0.00    -0.614 OA 
HETATM   15  O   UNL     1     -10.663  12.932  68.540  1.00  0.00    -0.242 OA 
ENDBRANCH   4   5
TORSDOF 1
ENDMDL
MODEL      133
REMARK 921   NORMALIZED FREE ENERGY PREDICTED BY IDOCK:   -3.04 KCAL/MOL
REMARK 922        TOTAL FREE ENERGY PREDICTED BY IDOCK:   -3.54 KCAL/MOL
REMARK 923 INTER-LIGAND FREE ENERGY PREDICTED BY IDOCK:   -3.21 KCAL/MOL
REMARK 924 INTRA-LIGAND FREE ENERGY PREDICTED BY IDOCK:   -0.33 KCAL/MOL
REMARK 927      BINDING AFFINITY PREDICTED BY RF-SCORE:    0.00 PKD
ROOT
HETATM    1  C   UNL     1     -11.409  12.107  68.373  1.00  0.00    -0.336 C  
HETATM    2  C   UNL     1     -11.545  12.829  67.028  1.00  0.00    -0.422 C  
HETATM    3  C   UNL     1     -12.197  14.195  67.252  1.00  0.00    -0.314 C  
HETATM    4  C   UNL     1     -10.188  12.993  66.306  1.00  0.00    -0.291 C  
ENDROOT
BRANCH   4   5
HETATM    5  C   UNL     1      -9.499  11.679  66.004  1.00  0.00    -0.246 A  
HETATM    6  C   UNL     1     -10.019  10.798  65.049  1.00  0.00    -0.361 A  
HETATM    7  C   UNL     1      -9.452   9.535  64.861  1.00  0.00    -0.230 A  
HETATM    8  C   UNL     1      -8.345   9.129  65.623  1.00  0.00    -0.131 A  
HETATM    9  C   UNL     1      -7.823   7.701  65.556  1.00  0.00    -0.112 C  
HETATM   10  C   UNL     1      -7.781  10.042  66.525  1.00  0.00    -0.105 A  
HETATM   11  C   UNL     1      -8.855   6.688  66.054  1.00  0.00    -0.139 C  
HETATM   12  C   UNL     1      -8.354  11.300  66.715  1.00  0.00    -0.156 A  
HETATM   13  C   UNL     1      -7.320   7.328  64.160  1.00  0.00    -0.091 C  
HETATM   14  O   UNL     1      -9.399   7.004  67.257  1.00  0.00    -0.128 OA 
HETATM   15  O   UNL     1      -9.149   5.651  65.478  1.00  0.00    -0.144 OA 
ENDBRANCH   4   5
TORSDOF 1
ENDMDL
MODEL      134
REMARK 921   NORMALIZED FREE ENERGY PREDICTED BY IDOCK:   -3.04 KCAL/MOL
REMARK 922        TOTAL FREE ENERGY PREDICTED BY IDOCK:   -3.53 KCAL/MOL
REMARK 923 INTER-LIGAND FREE ENERGY PREDICTED BY IDOCK:   -3.18 KCAL/MOL
REMARK 924 INTRA-LIGAND FREE ENERGY PREDICTED BY IDOCK:   -0.35 KCAL/MOL
REMARK 927      BINDING AFFINITY PREDICTED BY RF-SCORE:    0.00 PKD
ROOT
HETATM    1  C   UNL     1      -6.820   7.406  65.563  1.00  0.00    -0.052 C  
HETATM    2  C   UNL     1      -7.192   8.761  64.952  1.00  0.00    -0.084 C  
HETATM    3  C   UNL     1      -6.659   8.833  63.519  1.00  0.00    -0.089 C  
HETATM    4  C   UNL     1      -8.716   9.019  64.972  1.00  0.00    -0.217 C  
ENDROOT
BRANCH   4   5
HETATM    5  C   UNL     1      -9.314   9.012  66.363  1.00  0.00    -0.264 A  
HETATM    6  C   UNL     1      -8.975   9.999  67.296  1.00  0.00    -0.144 A  
HETATM    7  C   UNL     1      -9.432   9.921  68.614  1.00  0.00    -0.153 A  
HETATM    8  C   UNL     1     -10.245   8.853  69.026  1.00  0.00    -0.217 A  
HETATM    9  C   UNL     1     -10.608   8.659  70.490  1.00  0.00    -0.248 C  
HETATM   10  C   UNL     1     -10.644   7.908  68.071  1.00  0.00    -0.194 A  
HETATM   11  C   UNL     1      -9.377   8.384  71.356  1.00  0.00    -0.190 C  
HETATM   12  C   UNL     1     -10.180   7.984  66.757  1.00  0.00    -0.367 A  
HETATM   13  C   UNL     1     -11.421   9.827  71.051  1.00  0.00    -0.458 C  
HETATM   14  O   UNL     1      -8.569   7.408  70.870  1.00  0.00    -0.132 OA 
HETATM   15  O   UNL     1      -9.136   8.933  72.422  1.00  0.00    -0.372 OA 
ENDBRANCH   4   5
TORSDOF 1
ENDMDL
MODEL      135
REMARK 921   NORMALIZED FREE ENERGY PREDICTED BY IDOCK:   -3.03 KCAL/MOL
REMARK 922        TOTAL FREE ENERGY PREDICTED BY IDOCK:   -3.53 KCAL/MOL
REMARK 923 INTER-LIGAND FREE ENERGY PREDICTED BY IDOCK:   -3.28 KCAL/MOL
REMARK 924 INTRA-LIGAND FREE ENERGY PREDICTED BY IDOCK:   -0.25 KCAL/MOL
REMARK 927      BINDING AFFINITY PREDICTED BY RF-SCORE:    0.00 PKD
ROOT
HETATM    1  C   UNL     1      -9.454   6.593  71.206  1.00  0.00    -0.166 C  
HETATM    2  C   UNL     1     -10.832   5.964  70.973  1.00  0.00    -0.339 C  
HETATM    3  C   UNL     1     -11.790   6.424  72.075  1.00  0.00    -0.382 C  
HETATM    4  C   UNL     1     -11.409   6.310  69.581  1.00  0.00    -0.492 C  
ENDROOT
BRANCH   4   5
HETATM    5  C   UNL     1     -10.541   5.845  68.432  1.00  0.00    -0.314 A  
HETATM    6  C   UNL     1     -10.310   6.670  67.325  1.00  0.00    -0.296 A  
HETATM    7  C   UNL     1      -9.610   6.193  66.214  1.00  0.00    -0.123 A  
HETATM    8  C   UNL     1      -9.121   4.877  66.189  1.00  0.00    -0.135 A  
HETATM    9  C   UNL     1      -8.511   4.286  64.927  1.00  0.00    -0.118 C  
HETATM   10  C   UNL     1      -9.289   4.078  67.329  1.00  0.00    -0.211 A  
HETATM   11  C   UNL     1      -9.527   4.197  63.786  1.00  0.00    -0.147 C  
HETATM   12  C   UNL     1      -9.994   4.556  68.435  1.00  0.00    -0.103 A  
HETATM   13  C   UNL     1      -7.253   5.033  64.481  1.00  0.00    -0.058 C  
HETATM   14  O   UNL     1     -10.700   3.613  64.139  1.00  0.00    -0.263 OA 
HETATM   15  O   UNL     1      -9.319   4.556  62.636  1.00  0.00    -0.134 OA 
ENDBRANCH   4   5
TORSDOF 1
ENDMDL
MODEL      136
REMARK 921   NORMALIZED FREE ENERGY PREDICTED BY IDOCK:   -3.03 KCAL/MOL
REMARK 922        TOTAL FREE ENERGY PREDICTED BY IDOCK:   -3.52 KCAL/MOL
REMARK 923 INTER-LIGAND FREE ENERGY PREDICTED BY IDOCK:   -3.33 KCAL/MOL
REMARK 924 INTRA-LIGAND FREE ENERGY PREDICTED BY IDOCK:   -0.19 KCAL/MOL
REMARK 927      BINDING AFFINITY PREDICTED BY RF-SCORE:    0.00 PKD
ROOT
HETATM    1  C   UNL     1     -13.593   7.390  71.133  1.00  0.00    -0.247 C  
HETATM    2  C   UNL     1     -12.667   8.496  71.648  1.00  0.00    -0.365 C  
HETATM    3  C   UNL     1     -13.460   9.438  72.557  1.00  0.00    -0.437 C  
HETATM    4  C   UNL     1     -11.438   7.934  72.400  1.00  0.00    -0.433 C  
ENDROOT
BRANCH   4   5
HETATM    5  C   UNL     1     -10.571   7.028  71.552  1.00  0.00    -0.232 A  
HETATM    6  C   UNL     1      -9.595   7.558  70.701  1.00  0.00    -0.171 A  
HETATM    7  C   UNL     1      -8.882   6.729  69.830  1.00  0.00    -0.141 A  
HETATM    8  C   UNL     1      -9.128   5.347  69.798  1.00  0.00    -0.157 A  
HETATM    9  C   UNL     1      -8.490   4.458  68.742  1.00  0.00    -0.095 C  
HETATM   10  C   UNL     1     -10.053   4.810  70.704  1.00  0.00    -0.288 A  
HETATM   11  C   UNL     1      -8.945   4.827  67.328  1.00  0.00    -0.112 C  
HETATM   12  C   UNL     1     -10.769   5.642  71.568  1.00  0.00    -0.306 A  
HETATM   13  C   UNL     1      -6.963   4.440  68.837  1.00  0.00    -0.051 C  
HETATM   14  O   UNL     1     -10.292   4.935  67.195  1.00  0.00    -0.189 OA 
HETATM   15  O   UNL     1      -8.201   4.964  66.369  1.00  0.00    -0.107 OA 
ENDBRANCH   4   5
TORSDOF 1
ENDMDL
MODEL      137
REMARK 921   NORMALIZED FREE ENERGY PREDICTED BY IDOCK:   -3.03 KCAL/MOL
REMARK 922        TOTAL FREE ENERGY PREDICTED BY IDOCK:   -3.52 KCAL/MOL
REMARK 923 INTER-LIGAND FREE ENERGY PREDICTED BY IDOCK:   -3.22 KCAL/MOL
REMARK 924 INTRA-LIGAND FREE ENERGY PREDICTED BY IDOCK:   -0.30 KCAL/MOL
REMARK 927      BINDING AFFINITY PREDICTED BY RF-SCORE:    0.00 PKD
ROOT
HETATM    1  C   UNL     1      -7.450  15.522  67.437  1.00  0.00    -0.235 C  
HETATM    2  C   UNL     1      -8.859  15.947  67.864  1.00  0.00    -0.179 C  
HETATM    3  C   UNL     1      -8.924  17.474  67.940  1.00  0.00    -0.251 C  
HETATM    4  C   UNL     1      -9.951  15.409  66.911  1.00  0.00    -0.247 C  
ENDROOT
BRANCH   4   5
HETATM    5  C   UNL     1      -9.984  13.899  66.817  1.00  0.00    -0.269 A  
HETATM    6  C   UNL     1      -9.907  13.106  67.968  1.00  0.00    -0.231 A  
HETATM    7  C   UNL     1      -9.814  11.715  67.870  1.00  0.00    -0.189 A  
HETATM    8  C   UNL     1      -9.803  11.086  66.615  1.00  0.00    -0.235 A  
HETATM    9  C   UNL     1      -9.529   9.596  66.482  1.00  0.00    -0.233 C  
HETATM   10  C   UNL     1      -9.956  11.878  65.468  1.00  0.00    -0.266 A  
HETATM   11  C   UNL     1      -8.125   9.225  66.961  1.00  0.00    -0.112 C  
HETATM   12  C   UNL     1     -10.041  13.268  65.569  1.00  0.00    -0.274 A  
HETATM   13  C   UNL     1     -10.589   8.743  67.183  1.00  0.00    -0.303 C  
HETATM   14  O   UNL     1      -7.142   9.999  66.434  1.00  0.00    -0.095 OA 
HETATM   15  O   UNL     1      -7.865   8.290  67.704  1.00  0.00    -0.104 OA 
ENDBRANCH   4   5
TORSDOF 1
ENDMDL
MODEL      138
REMARK 921   NORMALIZED FREE ENERGY PREDICTED BY IDOCK:   -2.99 KCAL/MOL
REMARK 922        TOTAL FREE ENERGY PREDICTED BY IDOCK:   -3.48 KCAL/MOL
REMARK 923 INTER-LIGAND FREE ENERGY PREDICTED BY IDOCK:   -3.11 KCAL/MOL
REMARK 924 INTRA-LIGAND FREE ENERGY PREDICTED BY IDOCK:   -0.37 KCAL/MOL
REMARK 927      BINDING AFFINITY PREDICTED BY RF-SCORE:    0.00 PKD
ROOT
HETATM    1  C   UNL     1      -7.854   6.551  71.198  1.00  0.00    -0.103 C  
HETATM    2  C   UNL     1      -6.766   7.041  70.237  1.00  0.00    -0.052 C  
HETATM    3  C   UNL     1      -5.607   6.041  70.236  1.00  0.00    -0.013 C  
HETATM    4  C   UNL     1      -7.298   7.249  68.800  1.00  0.00    -0.096 C  
ENDROOT
BRANCH   4   5
HETATM    5  C   UNL     1      -8.418   8.262  68.709  1.00  0.00    -0.125 A  
HETATM    6  C   UNL     1      -8.234   9.578  69.148  1.00  0.00    -0.111 A  
HETATM    7  C   UNL     1      -9.304  10.477  69.176  1.00  0.00    -0.200 A  
HETATM    8  C   UNL     1     -10.584  10.077  68.759  1.00  0.00    -0.241 A  
HETATM    9  C   UNL     1     -11.791  10.982  68.945  1.00  0.00    -0.378 C  
HETATM   10  C   UNL     1     -10.747   8.781  68.250  1.00  0.00    -0.121 A  
HETATM   11  C   UNL     1     -12.083  11.256  70.421  1.00  0.00    -0.384 C  
HETATM   12  C   UNL     1      -9.678   7.884  68.230  1.00  0.00    -0.172 A  
HETATM   13  C   UNL     1     -11.667  12.290  68.161  1.00  0.00    -0.408 C  
HETATM   14  O   UNL     1     -12.129  10.137  71.189  1.00  0.00    -0.328 OA 
HETATM   15  O   UNL     1     -12.315  12.359  70.895  1.00  0.00    -0.377 OA 
ENDBRANCH   4   5
TORSDOF 1
ENDMDL
MODEL      139
REMARK 921   NORMALIZED FREE ENERGY PREDICTED BY IDOCK:   -2.98 KCAL/MOL
REMARK 922        TOTAL FREE ENERGY PREDICTED BY IDOCK:   -3.48 KCAL/MOL
REMARK 923 INTER-LIGAND FREE ENERGY PREDICTED BY IDOCK:   -3.27 KCAL/MOL
REMARK 924 INTRA-LIGAND FREE ENERGY PREDICTED BY IDOCK:   -0.21 KCAL/MOL
REMARK 927      BINDING AFFINITY PREDICTED BY RF-SCORE:    0.00 PKD
ROOT
HETATM    1  C   UNL     1      -8.940   9.987  67.678  1.00  0.00    -0.135 C  
HETATM    2  C   UNL     1      -9.725   9.111  66.696  1.00  0.00    -0.287 C  
HETATM    3  C   UNL     1      -9.441   9.575  65.266  1.00  0.00    -0.326 C  
HETATM    4  C   UNL     1      -9.390   7.609  66.850  1.00  0.00    -0.203 C  
ENDROOT
BRANCH   4   5
HETATM    5  C   UNL     1      -9.688   7.059  68.228  1.00  0.00    -0.136 A  
HETATM    6  C   UNL     1      -8.669   6.897  69.173  1.00  0.00    -0.135 A  
HETATM    7  C   UNL     1      -8.926   6.276  70.399  1.00  0.00    -0.154 A  
HETATM    8  C   UNL     1     -10.214   5.809  70.707  1.00  0.00    -0.279 A  
HETATM    9  C   UNL     1     -10.474   4.982  71.956  1.00  0.00    -0.269 C  
HETATM   10  C   UNL     1     -11.248   6.042  69.789  1.00  0.00    -0.440 A  
HETATM   11  C   UNL     1      -9.724   3.648  71.928  1.00  0.00    -0.166 C  
HETATM   12  C   UNL     1     -10.987   6.655  68.563  1.00  0.00    -0.314 A  
HETATM   13  C   UNL     1     -10.169   5.752  73.242  1.00  0.00    -0.217 C  
HETATM   14  O   UNL     1      -9.891   2.948  70.777  1.00  0.00    -0.118 OA 
HETATM   15  O   UNL     1      -9.072   3.194  72.856  1.00  0.00    -0.086 OA 
ENDBRANCH   4   5
TORSDOF 1
ENDMDL
MODEL      140
REMARK 921   NORMALIZED FREE ENERGY PREDICTED BY IDOCK:   -2.97 KCAL/MOL
REMARK 922        TOTAL FREE ENERGY PREDICTED BY IDOCK:   -3.46 KCAL/MOL
REMARK 923 INTER-LIGAND FREE ENERGY PREDICTED BY IDOCK:   -3.09 KCAL/MOL
REMARK 924 INTRA-LIGAND FREE ENERGY PREDICTED BY IDOCK:   -0.37 KCAL/MOL
REMARK 927      BINDING AFFINITY PREDICTED BY RF-SCORE:    0.00 PKD
ROOT
HETATM    1  C   UNL     1      -7.874   6.043  66.600  1.00  0.00    -0.101 C  
HETATM    2  C   UNL     1      -8.601   5.798  67.926  1.00  0.00    -0.101 C  
HETATM    3  C   UNL     1      -8.087   4.498  68.551  1.00  0.00    -0.082 C  
HETATM    4  C   UNL     1      -8.433   6.973  68.917  1.00  0.00    -0.125 C  
ENDROOT
BRANCH   4   5
HETATM    5  C   UNL     1      -8.963   8.290  68.391  1.00  0.00    -0.136 A  
HETATM    6  C   UNL     1     -10.305   8.427  68.019  1.00  0.00    -0.270 A  
HETATM    7  C   UNL     1     -10.762   9.604  67.419  1.00  0.00    -0.308 A  
HETATM    8  C   UNL     1      -9.884  10.673  67.185  1.00  0.00    -0.208 A  
HETATM    9  C   UNL     1     -10.319  11.889  66.382  1.00  0.00    -0.252 C  
HETATM   10  C   UNL     1      -8.558  10.561  67.627  1.00  0.00    -0.118 A  
HETATM   11  C   UNL     1     -10.666  11.529  64.936  1.00  0.00    -0.297 C  
HETATM   12  C   UNL     1      -8.103   9.381  68.219  1.00  0.00    -0.109 A  
HETATM   13  C   UNL     1     -11.470  12.647  67.046  1.00  0.00    -0.406 C  
HETATM   14  O   UNL     1      -9.716  10.786  64.312  1.00  0.00    -0.247 OA 
HETATM   15  O   UNL     1     -11.668  11.902  64.344  1.00  0.00    -0.329 OA 
ENDBRANCH   4   5
TORSDOF 1
ENDMDL
MODEL      141
REMARK 921   NORMALIZED FREE ENERGY PREDICTED BY IDOCK:   -2.96 KCAL/MOL
REMARK 922        TOTAL FREE ENERGY PREDICTED BY IDOCK:   -3.46 KCAL/MOL
REMARK 923 INTER-LIGAND FREE ENERGY PREDICTED BY IDOCK:   -3.14 KCAL/MOL
REMARK 924 INTRA-LIGAND FREE ENERGY PREDICTED BY IDOCK:   -0.32 KCAL/MOL
REMARK 927      BINDING AFFINITY PREDICTED BY RF-SCORE:    0.00 PKD
ROOT
HETATM    1  C   UNL     1      -9.218   3.029  69.202  1.00  0.00    -0.222 C  
HETATM    2  C   UNL     1      -8.154   3.011  68.100  1.00  0.00    -0.077 C  
HETATM    3  C   UNL     1      -7.636   1.582  67.921  1.00  0.00    -0.053 C  
HETATM    4  C   UNL     1      -8.687   3.561  66.756  1.00  0.00    -0.124 C  
ENDROOT
BRANCH   4   5
HETATM    5  C   UNL     1      -9.176   4.991  66.838  1.00  0.00    -0.120 A  
HETATM    6  C   UNL     1      -8.274   6.051  66.988  1.00  0.00    -0.105 A  
HETATM    7  C   UNL     1      -8.734   7.355  67.186  1.00  0.00    -0.121 A  
HETATM    8  C   UNL     1     -10.111   7.628  67.232  1.00  0.00    -0.306 A  
HETATM    9  C   UNL     1     -10.629   9.005  67.617  1.00  0.00    -0.298 C  
HETATM   10  C   UNL     1     -11.010   6.576  67.005  1.00  0.00    -0.466 A  
HETATM   11  C   UNL     1     -10.252   9.381  69.051  1.00  0.00    -0.205 C  
HETATM   12  C   UNL     1     -10.547   5.273  66.815  1.00  0.00    -0.309 A  
HETATM   13  C   UNL     1     -10.188  10.092  66.634  1.00  0.00    -0.288 C  
HETATM   14  O   UNL     1     -10.546   8.422  69.966  1.00  0.00    -0.227 OA 
HETATM   15  O   UNL     1      -9.779  10.456  69.390  1.00  0.00    -0.217 OA 
ENDBRANCH   4   5
TORSDOF 1
ENDMDL
MODEL      142
REMARK 921   NORMALIZED FREE ENERGY PREDICTED BY IDOCK:   -2.95 KCAL/MOL
REMARK 922        TOTAL FREE ENERGY PREDICTED BY IDOCK:   -3.44 KCAL/MOL
REMARK 923 INTER-LIGAND FREE ENERGY PREDICTED BY IDOCK:   -3.11 KCAL/MOL
REMARK 924 INTRA-LIGAND FREE ENERGY PREDICTED BY IDOCK:   -0.33 KCAL/MOL
REMARK 927      BINDING AFFINITY PREDICTED BY RF-SCORE:    0.00 PKD
ROOT
HETATM    1  C   UNL     1     -10.265   4.672  65.796  1.00  0.00    -0.283 C  
HETATM    2  C   UNL     1      -9.552   3.559  66.570  1.00  0.00    -0.122 C  
HETATM    3  C   UNL     1      -8.960   2.554  65.578  1.00  0.00    -0.133 C  
HETATM    4  C   UNL     1      -8.447   4.105  67.505  1.00  0.00    -0.102 C  
ENDROOT
BRANCH   4   5
HETATM    5  C   UNL     1      -8.961   5.072  68.549  1.00  0.00    -0.125 A  
HETATM    6  C   UNL     1      -8.432   6.363  68.655  1.00  0.00    -0.123 A  
HETATM    7  C   UNL     1      -8.822   7.210  69.696  1.00  0.00    -0.141 A  
HETATM    8  C   UNL     1      -9.756   6.783  70.653  1.00  0.00    -0.180 A  
HETATM    9  C   UNL     1     -10.062   7.620  71.885  1.00  0.00    -0.218 C  
HETATM   10  C   UNL     1     -10.340   5.517  70.500  1.00  0.00    -0.342 A  
HETATM   11  C   UNL     1      -8.837   7.783  72.787  1.00  0.00    -0.173 C  
HETATM   12  C   UNL     1      -9.944   4.671  69.463  1.00  0.00    -0.266 A  
HETATM   13  C   UNL     1     -10.665   8.981  71.532  1.00  0.00    -0.421 C  
HETATM   14  O   UNL     1      -8.207   6.615  73.075  1.00  0.00    -0.113 OA 
HETATM   15  O   UNL     1      -8.461   8.841  73.270  1.00  0.00    -0.366 OA 
ENDBRANCH   4   5
TORSDOF 1
ENDMDL
MODEL      143
REMARK 921   NORMALIZED FREE ENERGY PREDICTED BY IDOCK:   -2.92 KCAL/MOL
REMARK 922        TOTAL FREE ENERGY PREDICTED BY IDOCK:   -3.41 KCAL/MOL
REMARK 923 INTER-LIGAND FREE ENERGY PREDICTED BY IDOCK:   -3.08 KCAL/MOL
REMARK 924 INTRA-LIGAND FREE ENERGY PREDICTED BY IDOCK:   -0.32 KCAL/MOL
REMARK 927      BINDING AFFINITY PREDICTED BY RF-SCORE:    0.00 PKD
ROOT
HETATM    1  C   UNL     1      -9.002   6.775  70.487  1.00  0.00    -0.152 C  
HETATM    2  C   UNL     1      -9.463   5.541  69.705  1.00  0.00    -0.183 C  
HETATM    3  C   UNL     1      -9.915   4.459  70.689  1.00  0.00    -0.254 C  
HETATM    4  C   UNL     1     -10.598   5.866  68.706  1.00  0.00    -0.340 C  
ENDROOT
BRANCH   4   5
HETATM    5  C   UNL     1     -10.214   6.897  67.667  1.00  0.00    -0.235 A  
HETATM    6  C   UNL     1      -9.303   6.587  66.650  1.00  0.00    -0.184 A  
HETATM    7  C   UNL     1      -8.858   7.575  65.767  1.00  0.00    -0.122 A  
HETATM    8  C   UNL     1      -9.320   8.896  65.880  1.00  0.00    -0.301 A  
HETATM    9  C   UNL     1      -8.720  10.015  65.044  1.00  0.00    -0.192 C  
HETATM   10  C   UNL     1     -10.289   9.185  66.851  1.00  0.00    -0.321 A  
HETATM   11  C   UNL     1      -7.240  10.240  65.362  1.00  0.00    -0.143 C  
HETATM   12  C   UNL     1     -10.726   8.198  67.737  1.00  0.00    -0.166 A  
HETATM   13  C   UNL     1      -8.929   9.801  63.543  1.00  0.00    -0.272 C  
HETATM   14  O   UNL     1      -6.975  10.360  66.688  1.00  0.00    -0.099 OA 
HETATM   15  O   UNL     1      -6.357  10.361  64.526  1.00  0.00    -0.121 OA 
ENDBRANCH   4   5
TORSDOF 1
ENDMDL
MODEL      144
REMARK 921   NORMALIZED FREE ENERGY PREDICTED BY IDOCK:   -2.91 KCAL/MOL
REMARK 922        TOTAL FREE ENERGY PREDICTED BY IDOCK:   -3.40 KCAL/MOL
REMARK 923 INTER-LIGAND FREE ENERGY PREDICTED BY IDOCK:   -3.08 KCAL/MOL
REMARK 924 INTRA-LIGAND FREE ENERGY PREDICTED BY IDOCK:   -0.32 KCAL/MOL
REMARK 927      BINDING AFFINITY PREDICTED BY RF-SCORE:    0.00 PKD
ROOT
HETATM    1  C   UNL     1     -12.368   9.646  71.124  1.00  0.00    -0.427 C  
HETATM    2  C   UNL     1     -11.757  10.510  70.016  1.00  0.00    -0.394 C  
HETATM    3  C   UNL     1     -11.915  11.988  70.382  1.00  0.00    -0.379 C  
HETATM    4  C   UNL     1     -10.268  10.176  69.761  1.00  0.00    -0.286 C  
ENDROOT
BRANCH   4   5
HETATM    5  C   UNL     1     -10.032   8.740  69.347  1.00  0.00    -0.196 A  
HETATM    6  C   UNL     1      -9.323   7.861  70.173  1.00  0.00    -0.156 A  
HETATM    7  C   UNL     1      -9.001   6.573  69.734  1.00  0.00    -0.142 A  
HETATM    8  C   UNL     1      -9.389   6.136  68.458  1.00  0.00    -0.117 A  
HETATM    9  C   UNL     1      -8.902   4.808  67.898  1.00  0.00    -0.114 C  
HETATM   10  C   UNL     1     -10.165   6.992  67.663  1.00  0.00    -0.245 A  
HETATM   11  C   UNL     1      -7.383   4.782  67.720  1.00  0.00    -0.070 C  
HETATM   12  C   UNL     1     -10.478   8.280  68.101  1.00  0.00    -0.226 A  
HETATM   13  C   UNL     1      -9.375   3.614  68.730  1.00  0.00    -0.231 C  
HETATM   14  O   UNL     1      -6.889   5.858  67.055  1.00  0.00    -0.060 OA 
HETATM   15  O   UNL     1      -6.653   3.870  68.079  1.00  0.00    -0.040 OA 
ENDBRANCH   4   5
TORSDOF 1
ENDMDL
MODEL      145
REMARK 921   NORMALIZED FREE ENERGY PREDICTED BY IDOCK:   -2.91 KCAL/MOL
REMARK 922        TOTAL FREE ENERGY PREDICTED BY IDOCK:   -3.40 KCAL/MOL
REMARK 923 INTER-LIGAND FREE ENERGY PREDICTED BY IDOCK:   -3.20 KCAL/MOL
REMARK 924 INTRA-LIGAND FREE ENERGY PREDICTED BY IDOCK:   -0.20 KCAL/MOL
REMARK 927      BINDING AFFINITY PREDICTED BY RF-SCORE:    0.00 PKD
ROOT
HETATM    1  C   UNL     1      -7.583   7.473  68.228  1.00  0.00    -0.114 C  
HETATM    2  C   UNL     1      -8.515   6.749  67.251  1.00  0.00    -0.120 C  
HETATM    3  C   UNL     1      -8.401   5.238  67.468  1.00  0.00    -0.106 C  
HETATM    4  C   UNL     1      -9.987   7.203  67.395  1.00  0.00    -0.224 C  
ENDROOT
BRANCH   4   5
HETATM    5  C   UNL     1     -10.192   8.681  67.147  1.00  0.00    -0.353 A  
HETATM    6  C   UNL     1      -9.439   9.359  66.182  1.00  0.00    -0.287 A  
HETATM    7  C   UNL     1      -9.544  10.746  66.040  1.00  0.00    -0.244 A  
HETATM    8  C   UNL     1     -10.412  11.484  66.861  1.00  0.00    -0.270 A  
HETATM    9  C   UNL     1     -10.413  13.005  66.841  1.00  0.00    -0.258 C  
HETATM   10  C   UNL     1     -11.220  10.792  67.775  1.00  0.00    -0.385 A  
HETATM   11  C   UNL     1      -9.076  13.586  67.304  1.00  0.00    -0.225 C  
HETATM   12  C   UNL     1     -11.107   9.408  67.919  1.00  0.00     0.011 A  
HETATM   13  C   UNL     1     -10.811  13.571  65.477  1.00  0.00    -0.293 C  
HETATM   14  O   UNL     1      -8.626  13.066  68.475  1.00  0.00    -0.144 OA 
HETATM   15  O   UNL     1      -8.465  14.477  66.731  1.00  0.00    -0.189 OA 
ENDBRANCH   4   5
TORSDOF 1
ENDMDL
MODEL      146
REMARK 921   NORMALIZED FREE ENERGY PREDICTED BY IDOCK:   -2.87 KCAL/MOL
REMARK 922        TOTAL FREE ENERGY PREDICTED BY IDOCK:   -3.36 KCAL/MOL
REMARK 923 INTER-LIGAND FREE ENERGY PREDICTED BY IDOCK:   -3.11 KCAL/MOL
REMARK 924 INTRA-LIGAND FREE ENERGY PREDICTED BY IDOCK:   -0.25 KCAL/MOL
REMARK 927      BINDING AFFINITY PREDICTED BY RF-SCORE:    0.00 PKD
ROOT
HETATM    1  C   UNL     1     -12.838   9.055  71.805  1.00  0.00    -0.437 C  
HETATM    2  C   UNL     1     -12.551  10.348  71.036  1.00  0.00    -0.491 C  
HETATM    3  C   UNL     1     -13.147  11.533  71.799  1.00  0.00    -0.503 C  
HETATM    4  C   UNL     1     -11.039  10.569  70.798  1.00  0.00    -0.065 C  
ENDROOT
BRANCH   4   5
HETATM    5  C   UNL     1     -10.382   9.460  70.005  1.00  0.00    -0.265 A  
HETATM    6  C   UNL     1     -11.036   8.869  68.918  1.00  0.00     0.044 A  
HETATM    7  C   UNL     1     -10.480   7.765  68.265  1.00  0.00    -0.215 A  
HETATM    8  C   UNL     1      -9.251   7.231  68.686  1.00  0.00    -0.136 A  
HETATM    9  C   UNL     1      -8.716   5.932  68.104  1.00  0.00    -0.111 C  
HETATM   10  C   UNL     1      -8.563   7.872  69.726  1.00  0.00    -0.133 A  
HETATM   11  C   UNL     1      -9.626   4.743  68.420  1.00  0.00    -0.151 C  
HETATM   12  C   UNL     1      -9.125   8.970  70.380  1.00  0.00    -0.242 A  
HETATM   13  C   UNL     1      -8.448   6.030  66.601  1.00  0.00    -0.112 C  
HETATM   14  O   UNL     1      -9.966   4.644  69.731  1.00  0.00    -0.217 OA 
HETATM   15  O   UNL     1      -9.990   3.906  67.607  1.00  0.00    -0.081 OA 
ENDBRANCH   4   5
TORSDOF 1
ENDMDL
MODEL      147
REMARK 921   NORMALIZED FREE ENERGY PREDICTED BY IDOCK:   -2.87 KCAL/MOL
REMARK 922        TOTAL FREE ENERGY PREDICTED BY IDOCK:   -3.36 KCAL/MOL
REMARK 923 INTER-LIGAND FREE ENERGY PREDICTED BY IDOCK:   -3.07 KCAL/MOL
REMARK 924 INTRA-LIGAND FREE ENERGY PREDICTED BY IDOCK:   -0.29 KCAL/MOL
REMARK 927      BINDING AFFINITY PREDICTED BY RF-SCORE:    0.00 PKD
ROOT
HETATM    1  C   UNL     1      -6.582   9.965  65.441  1.00  0.00    -0.099 C  
HETATM    2  C   UNL     1      -7.837   9.956  64.562  1.00  0.00    -0.142 C  
HETATM    3  C   UNL     1      -7.448  10.301  63.122  1.00  0.00    -0.125 C  
HETATM    4  C   UNL     1      -8.579   8.600  64.607  1.00  0.00    -0.116 C  
ENDROOT
BRANCH   4   5
HETATM    5  C   UNL     1      -9.041   8.209  65.995  1.00  0.00    -0.218 A  
HETATM    6  C   UNL     1     -10.136   8.843  66.593  1.00  0.00    -0.357 A  
HETATM    7  C   UNL     1     -10.484   8.566  67.918  1.00  0.00    -0.262 A  
HETATM    8  C   UNL     1      -9.744   7.641  68.672  1.00  0.00    -0.157 A  
HETATM    9  C   UNL     1      -9.998   7.455  70.160  1.00  0.00    -0.184 C  
HETATM   10  C   UNL     1      -8.695   6.953  68.046  1.00  0.00    -0.125 A  
HETATM   11  C   UNL     1      -9.697   8.725  70.958  1.00  0.00    -0.230 C  
HETATM   12  C   UNL     1      -8.346   7.237  66.724  1.00  0.00    -0.119 A  
HETATM   13  C   UNL     1     -11.411   6.948  70.453  1.00  0.00    -0.387 C  
HETATM   14  O   UNL     1      -8.485   9.272  70.685  1.00  0.00    -0.193 OA 
HETATM   15  O   UNL     1     -10.430   9.204  71.810  1.00  0.00    -0.352 OA 
ENDBRANCH   4   5
TORSDOF 1
ENDMDL
MODEL      148
REMARK 921   NORMALIZED FREE ENERGY PREDICTED BY IDOCK:   -2.87 KCAL/MOL
REMARK 922        TOTAL FREE ENERGY PREDICTED BY IDOCK:   -3.36 KCAL/MOL
REMARK 923 INTER-LIGAND FREE ENERGY PREDICTED BY IDOCK:   -2.99 KCAL/MOL
REMARK 924 INTRA-LIGAND FREE ENERGY PREDICTED BY IDOCK:   -0.36 KCAL/MOL
REMARK 927      BINDING AFFINITY PREDICTED BY RF-SCORE:    0.00 PKD
ROOT
HETATM    1  C   UNL     1     -10.672   5.519  70.112  1.00  0.00    -0.348 C  
HETATM    2  C   UNL     1     -11.609   6.712  70.329  1.00  0.00    -0.454 C  
HETATM    3  C   UNL     1     -12.388   6.512  71.632  1.00  0.00    -0.315 C  
HETATM    4  C   UNL     1     -10.851   8.059  70.359  1.00  0.00    -0.247 C  
ENDROOT
BRANCH   4   5
HETATM    5  C   UNL     1     -10.091   8.355  69.083  1.00  0.00    -0.206 A  
HETATM    6  C   UNL     1     -10.744   8.373  67.846  1.00  0.00    -0.141 A  
HETATM    7  C   UNL     1     -10.020   8.525  66.660  1.00  0.00    -0.363 A  
HETATM    8  C   UNL     1      -8.624   8.668  66.689  1.00  0.00    -0.124 A  
HETATM    9  C   UNL     1      -7.805   8.660  65.407  1.00  0.00    -0.101 C  
HETATM   10  C   UNL     1      -7.982   8.725  67.934  1.00  0.00    -0.107 A  
HETATM   11  C   UNL     1      -7.904   7.324  64.670  1.00  0.00    -0.123 C  
HETATM   12  C   UNL     1      -8.707   8.566  69.116  1.00  0.00    -0.134 A  
HETATM   13  C   UNL     1      -8.159   9.824  64.480  1.00  0.00    -0.146 C  
HETATM   14  O   UNL     1      -7.676   6.242  65.458  1.00  0.00    -0.086 OA 
HETATM   15  O   UNL     1      -8.111   7.201  63.471  1.00  0.00    -0.098 OA 
ENDBRANCH   4   5
TORSDOF 1
ENDMDL
MODEL      149
REMARK 921   NORMALIZED FREE ENERGY PREDICTED BY IDOCK:   -2.87 KCAL/MOL
REMARK 922        TOTAL FREE ENERGY PREDICTED BY IDOCK:   -3.36 KCAL/MOL
REMARK 923 INTER-LIGAND FREE ENERGY PREDICTED BY IDOCK:   -3.01 KCAL/MOL
REMARK 924 INTRA-LIGAND FREE ENERGY PREDICTED BY IDOCK:   -0.34 KCAL/MOL
REMARK 927      BINDING AFFINITY PREDICTED BY RF-SCORE:    0.00 PKD
ROOT
HETATM    1  C   UNL     1      -9.455   6.620  71.441  1.00  0.00    -0.161 C  
HETATM    2  C   UNL     1     -10.814   5.960  71.189  1.00  0.00    -0.334 C  
HETATM    3  C   UNL     1     -11.688   6.110  72.436  1.00  0.00    -0.319 C  
HETATM    4  C   UNL     1     -11.535   6.549  69.954  1.00  0.00    -0.467 C  
ENDROOT
BRANCH   4   5
HETATM    5  C   UNL     1     -10.754   6.397  68.666  1.00  0.00    -0.341 A  
HETATM    6  C   UNL     1     -10.250   5.151  68.275  1.00  0.00    -0.179 A  
HETATM    7  C   UNL     1      -9.427   5.036  67.151  1.00  0.00    -0.146 A  
HETATM    8  C   UNL     1      -9.096   6.169  66.390  1.00  0.00    -0.158 A  
HETATM    9  C   UNL     1      -8.068   6.093  65.272  1.00  0.00    -0.132 C  
HETATM   10  C   UNL     1      -9.664   7.401  66.741  1.00  0.00    -0.271 A  
HETATM   11  C   UNL     1      -6.677   5.726  65.794  1.00  0.00    -0.051 C  
HETATM   12  C   UNL     1     -10.480   7.514  67.868  1.00  0.00    -0.266 A  
HETATM   13  C   UNL     1      -8.496   5.148  64.147  1.00  0.00    -0.127 C  
HETATM   14  O   UNL     1      -6.269   6.479  66.847  1.00  0.00    -0.036 OA 
HETATM   15  O   UNL     1      -5.947   4.879  65.300  1.00  0.00    -0.024 OA 
ENDBRANCH   4   5
TORSDOF 1
ENDMDL
MODEL      150
REMARK 921   NORMALIZED FREE ENERGY PREDICTED BY IDOCK:   -2.85 KCAL/MOL
REMARK 922        TOTAL FREE ENERGY PREDICTED BY IDOCK:   -3.33 KCAL/MOL
REMARK 923 INTER-LIGAND FREE ENERGY PREDICTED BY IDOCK:   -3.14 KCAL/MOL
REMARK 924 INTRA-LIGAND FREE ENERGY PREDICTED BY IDOCK:   -0.20 KCAL/MOL
REMARK 927      BINDING AFFINITY PREDICTED BY RF-SCORE:    0.00 PKD
ROOT
HETATM    1  C   UNL     1      -8.659   3.333  71.790  1.00  0.00    -0.103 C  
HETATM    2  C   UNL     1     -10.060   3.399  72.405  1.00  0.00    -0.229 C  
HETATM    3  C   UNL     1     -10.220   2.265  73.421  1.00  0.00    -0.193 C  
HETATM    4  C   UNL     1     -10.346   4.763  73.075  1.00  0.00    -0.235 C  
ENDROOT
BRANCH   4   5
HETATM    5  C   UNL     1     -10.256   5.936  72.122  1.00  0.00    -0.231 A  
HETATM    6  C   UNL     1     -11.339   6.286  71.309  1.00  0.00    -0.356 A  
HETATM    7  C   UNL     1     -11.211   7.291  70.345  1.00  0.00    -0.302 A  
HETATM    8  C   UNL     1      -9.995   7.971  70.180  1.00  0.00    -0.191 A  
HETATM    9  C   UNL     1      -9.785   8.941  69.027  1.00  0.00    -0.171 C  
HETATM   10  C   UNL     1      -8.935   7.670  71.047  1.00  0.00    -0.148 A  
HETATM   11  C   UNL     1      -9.869   8.245  67.667  1.00  0.00    -0.169 C  
HETATM   12  C   UNL     1      -9.064   6.661  72.004  1.00  0.00    -0.139 A  
HETATM   13  C   UNL     1     -10.737  10.137  69.088  1.00  0.00    -0.254 C  
HETATM   14  O   UNL     1      -9.104   7.127  67.574  1.00  0.00    -0.124 OA 
HETATM   15  O   UNL     1     -10.510   8.655  66.711  1.00  0.00    -0.291 OA 
ENDBRANCH   4   5
TORSDOF 1
ENDMDL
MODEL      151
REMARK 921   NORMALIZED FREE ENERGY PREDICTED BY IDOCK:   -2.77 KCAL/MOL
REMARK 922        TOTAL FREE ENERGY PREDICTED BY IDOCK:   -3.25 KCAL/MOL
REMARK 923 INTER-LIGAND FREE ENERGY PREDICTED BY IDOCK:   -3.75 KCAL/MOL
REMARK 924 INTRA-LIGAND FREE ENERGY PREDICTED BY IDOCK:    0.50 KCAL/MOL
REMARK 927      BINDING AFFINITY PREDICTED BY RF-SCORE:    0.00 PKD
ROOT
HETATM    1  C   UNL     1     -12.146  14.012  64.068  1.00  0.00    -0.413 C  
HETATM    2  C   UNL     1     -12.437  12.578  64.520  1.00  0.00    -0.539 C  
HETATM    3  C   UNL     1     -12.422  11.652  63.301  1.00  0.00    -0.262 C  
HETATM    4  C   UNL     1     -11.432  12.079  65.585  1.00  0.00    -0.372 C  
ENDROOT
BRANCH   4   5
HETATM    5  C   UNL     1     -11.420  12.917  66.845  1.00  0.00    -0.393 A  
HETATM    6  C   UNL     1     -10.814  12.446  68.016  1.00  0.00    -0.251 A  
HETATM    7  C   UNL     1     -10.911  13.167  69.209  1.00  0.00    -0.131 A  
HETATM    8  C   UNL     1     -11.615  14.382  69.254  1.00  0.00    -0.345 A  
HETATM    9  C   UNL     1     -11.878  15.091  70.574  1.00  0.00    -0.347 C  
HETATM   10  C   UNL     1     -12.155  14.887  68.064  1.00  0.00    -0.105 A  
HETATM   11  C   UNL     1     -12.757  14.258  71.509  1.00  0.00    -0.350 C  
HETATM   12  C   UNL     1     -12.063  14.161  66.875  1.00  0.00    -0.466 A  
HETATM   13  C   UNL     1     -10.587  15.519  71.275  1.00  0.00     0.288 C  
HETATM   14  O   UNL     1     -13.884  13.780  70.922  1.00  0.00     0.083 OA 
HETATM   15  O   UNL     1     -12.528  14.064  72.694  1.00  0.00    -0.146 OA 
ENDBRANCH   4   5
TORSDOF 1
ENDMDL
MODEL      152
REMARK 921   NORMALIZED FREE ENERGY PREDICTED BY IDOCK:   -2.76 KCAL/MOL
REMARK 922        TOTAL FREE ENERGY PREDICTED BY IDOCK:   -3.24 KCAL/MOL
REMARK 923 INTER-LIGAND FREE ENERGY PREDICTED BY IDOCK:   -3.00 KCAL/MOL
REMARK 924 INTRA-LIGAND FREE ENERGY PREDICTED BY IDOCK:   -0.24 KCAL/MOL
REMARK 927      BINDING AFFINITY PREDICTED BY RF-SCORE:    0.00 PKD
ROOT
HETATM    1  C   UNL     1      -7.338   5.933  71.841  1.00  0.00    -0.094 C  
HETATM    2  C   UNL     1      -6.481   6.175  70.594  1.00  0.00    -0.041 C  
HETATM    3  C   UNL     1      -5.514   5.002  70.411  1.00  0.00    -0.008 C  
HETATM    4  C   UNL     1      -7.334   6.372  69.320  1.00  0.00    -0.092 C  
ENDROOT
BRANCH   4   5
HETATM    5  C   UNL     1      -8.286   7.546  69.404  1.00  0.00    -0.130 A  
HETATM    6  C   UNL     1      -9.593   7.448  68.912  1.00  0.00    -0.148 A  
HETATM    7  C   UNL     1     -10.427   8.569  68.880  1.00  0.00    -0.207 A  
HETATM    8  C   UNL     1      -9.972   9.812  69.346  1.00  0.00    -0.217 A  
HETATM    9  C   UNL     1     -10.800  11.075  69.160  1.00  0.00    -0.283 C  
HETATM   10  C   UNL     1      -8.690   9.889  69.907  1.00  0.00    -0.225 A  
HETATM   11  C   UNL     1     -11.000  11.419  67.683  1.00  0.00    -0.250 C  
HETATM   12  C   UNL     1      -7.856   8.769  69.931  1.00  0.00    -0.093 A  
HETATM   13  C   UNL     1     -12.142  11.006  69.891  1.00  0.00    -0.435 C  
HETATM   14  O   UNL     1      -9.852  11.419  66.958  1.00  0.00    -0.188 OA 
HETATM   15  O   UNL     1     -12.069  11.725  67.175  1.00  0.00    -0.592 OA 
ENDBRANCH   4   5
TORSDOF 1
ENDMDL
MODEL      153
REMARK 921   NORMALIZED FREE ENERGY PREDICTED BY IDOCK:   -2.68 KCAL/MOL
REMARK 922        TOTAL FREE ENERGY PREDICTED BY IDOCK:   -3.16 KCAL/MOL
REMARK 923 INTER-LIGAND FREE ENERGY PREDICTED BY IDOCK:   -3.13 KCAL/MOL
REMARK 924 INTRA-LIGAND FREE ENERGY PREDICTED BY IDOCK:   -0.03 KCAL/MOL
REMARK 927      BINDING AFFINITY PREDICTED BY RF-SCORE:    0.00 PKD
ROOT
HETATM    1  C   UNL     1      -9.792  12.232  67.108  1.00  0.00    -0.207 C  
HETATM    2  C   UNL     1     -10.109  13.159  65.930  1.00  0.00    -0.292 C  
HETATM    3  C   UNL     1     -11.302  12.598  65.152  1.00  0.00    -0.343 C  
HETATM    4  C   UNL     1     -10.396  14.610  66.381  1.00  0.00    -0.293 C  
ENDROOT
BRANCH   4   5
HETATM    5  C   UNL     1      -9.242  15.255  67.118  1.00  0.00    -0.223 A  
HETATM    6  C   UNL     1      -9.459  16.316  68.005  1.00  0.00    -0.223 A  
HETATM    7  C   UNL     1      -8.382  16.988  68.589  1.00  0.00    -0.264 A  
HETATM    8  C   UNL     1      -7.061  16.607  68.302  1.00  0.00    -0.160 A  
HETATM    9  C   UNL     1      -5.880  17.431  68.789  1.00  0.00    -0.173 C  
HETATM   10  C   UNL     1      -6.850  15.496  67.473  1.00  0.00    -0.225 A  
HETATM   11  C   UNL     1      -5.872  18.837  68.184  1.00  0.00    -0.207 C  
HETATM   12  C   UNL     1      -7.928  14.831  66.885  1.00  0.00    -0.022 A  
HETATM   13  C   UNL     1      -5.799  17.493  70.315  1.00  0.00    -0.126 C  
HETATM   14  O   UNL     1      -6.019  18.856  66.835  1.00  0.00    -0.162 OA 
HETATM   15  O   UNL     1      -5.695  19.868  68.817  1.00  0.00    -0.212 OA 
ENDBRANCH   4   5
TORSDOF 1
ENDMDL
MODEL      154
REMARK 921   NORMALIZED FREE ENERGY PREDICTED BY IDOCK:   -2.67 KCAL/MOL
REMARK 922        TOTAL FREE ENERGY PREDICTED BY IDOCK:   -3.14 KCAL/MOL
REMARK 923 INTER-LIGAND FREE ENERGY PREDICTED BY IDOCK:   -3.00 KCAL/MOL
REMARK 924 INTRA-LIGAND FREE ENERGY PREDICTED BY IDOCK:   -0.14 KCAL/MOL
REMARK 927      BINDING AFFINITY PREDICTED BY RF-SCORE:    0.00 PKD
ROOT
HETATM    1  C   UNL     1      -9.347   6.299  72.374  1.00  0.00    -0.141 C  
HETATM    2  C   UNL     1     -10.683   6.051  71.668  1.00  0.00    -0.303 C  
HETATM    3  C   UNL     1     -11.600   5.244  72.590  1.00  0.00    -0.226 C  
HETATM    4  C   UNL     1     -11.376   7.366  71.239  1.00  0.00    -0.289 C  
ENDROOT
BRANCH   4   5
HETATM    5  C   UNL     1     -10.550   8.202  70.285  1.00  0.00    -0.228 A  
HETATM    6  C   UNL     1      -9.706   9.212  70.761  1.00  0.00    -0.337 A  
HETATM    7  C   UNL     1      -9.040  10.061  69.873  1.00  0.00    -0.188 A  
HETATM    8  C   UNL     1      -9.202   9.913  68.486  1.00  0.00    -0.136 A  
HETATM    9  C   UNL     1      -8.626  10.931  67.513  1.00  0.00    -0.127 C  
HETATM   10  C   UNL     1      -9.988   8.854  68.012  1.00  0.00    -0.215 A  
HETATM   11  C   UNL     1      -9.252  12.315  67.692  1.00  0.00    -0.183 C  
HETATM   12  C   UNL     1     -10.658   8.012  68.902  1.00  0.00    -0.160 A  
HETATM   13  C   UNL     1      -7.100  11.008  67.583  1.00  0.00    -0.088 C  
HETATM   14  O   UNL     1     -10.609  12.306  67.717  1.00  0.00    -0.211 OA 
HETATM   15  O   UNL     1      -8.625  13.363  67.754  1.00  0.00    -0.168 OA 
ENDBRANCH   4   5
TORSDOF 1
ENDMDL
MODEL      155
REMARK 921   NORMALIZED FREE ENERGY PREDICTED BY IDOCK:   -2.64 KCAL/MOL
REMARK 922        TOTAL FREE ENERGY PREDICTED BY IDOCK:   -3.11 KCAL/MOL
REMARK 923 INTER-LIGAND FREE ENERGY PREDICTED BY IDOCK:   -2.99 KCAL/MOL
REMARK 924 INTRA-LIGAND FREE ENERGY PREDICTED BY IDOCK:   -0.12 KCAL/MOL
REMARK 927      BINDING AFFINITY PREDICTED BY RF-SCORE:    0.00 PKD
ROOT
HETATM    1  C   UNL     1     -11.497  12.011  69.222  1.00  0.00    -0.361 C  
HETATM    2  C   UNL     1     -11.312  12.137  67.707  1.00  0.00    -0.371 C  
HETATM    3  C   UNL     1     -11.771  13.526  67.256  1.00  0.00    -0.423 C  
HETATM    4  C   UNL     1      -9.850  11.887  67.268  1.00  0.00    -0.197 C  
ENDROOT
BRANCH   4   5
HETATM    5  C   UNL     1      -9.335  10.512  67.635  1.00  0.00    -0.160 A  
HETATM    6  C   UNL     1      -9.489   9.429  66.762  1.00  0.00    -0.217 A  
HETATM    7  C   UNL     1      -9.123   8.139  67.154  1.00  0.00    -0.163 A  
HETATM    8  C   UNL     1      -8.588   7.905  68.431  1.00  0.00    -0.128 A  
HETATM    9  C   UNL     1      -8.346   6.492  68.937  1.00  0.00    -0.122 C  
HETATM   10  C   UNL     1      -8.364   9.003  69.274  1.00  0.00    -0.122 A  
HETATM   11  C   UNL     1      -9.646   5.696  69.062  1.00  0.00    -0.135 C  
HETATM   12  C   UNL     1      -8.738  10.290  68.882  1.00  0.00    -0.152 A  
HETATM   13  C   UNL     1      -7.321   5.735  68.091  1.00  0.00    -0.077 C  
HETATM   14  O   UNL     1     -10.627   6.347  69.738  1.00  0.00    -0.211 OA 
HETATM   15  O   UNL     1      -9.808   4.555  68.654  1.00  0.00    -0.156 OA 
ENDBRANCH   4   5
TORSDOF 1
ENDMDL
MODEL      156
REMARK 921   NORMALIZED FREE ENERGY PREDICTED BY IDOCK:   -2.63 KCAL/MOL
REMARK 922        TOTAL FREE ENERGY PREDICTED BY IDOCK:   -3.10 KCAL/MOL
REMARK 923 INTER-LIGAND FREE ENERGY PREDICTED BY IDOCK:   -3.02 KCAL/MOL
REMARK 924 INTRA-LIGAND FREE ENERGY PREDICTED BY IDOCK:   -0.08 KCAL/MOL
REMARK 927      BINDING AFFINITY PREDICTED BY RF-SCORE:    0.00 PKD
ROOT
HETATM    1  C   UNL     1      -8.772   7.279  71.845  1.00  0.00    -0.124 C  
HETATM    2  C   UNL     1     -10.258   7.048  71.555  1.00  0.00    -0.211 C  
HETATM    3  C   UNL     1     -11.047   7.132  72.864  1.00  0.00    -0.338 C  
HETATM    4  C   UNL     1     -10.821   8.054  70.524  1.00  0.00    -0.241 C  
ENDROOT
BRANCH   4   5
HETATM    5  C   UNL     1     -10.123   7.999  69.182  1.00  0.00    -0.202 A  
HETATM    6  C   UNL     1      -8.983   8.773  68.933  1.00  0.00    -0.134 A  
HETATM    7  C   UNL     1      -8.415   8.813  67.657  1.00  0.00    -0.125 A  
HETATM    8  C   UNL     1      -8.973   8.074  66.602  1.00  0.00    -0.179 A  
HETATM    9  C   UNL     1      -8.475   8.239  65.174  1.00  0.00    -0.164 C  
HETATM   10  C   UNL     1     -10.068   7.242  66.873  1.00  0.00    -0.317 A  
HETATM   11  C   UNL     1      -8.714   9.653  64.642  1.00  0.00    -0.201 C  
HETATM   12  C   UNL     1     -10.639   7.209  68.147  1.00  0.00    -0.241 A  
HETATM   13  C   UNL     1      -7.008   7.836  65.016  1.00  0.00    -0.059 C  
HETATM   14  O   UNL     1      -9.983  10.101  64.823  1.00  0.00    -0.331 OA 
HETATM   15  O   UNL     1      -7.882  10.328  64.053  1.00  0.00    -0.156 OA 
ENDBRANCH   4   5
TORSDOF 1
ENDMDL
MODEL      157
REMARK 921   NORMALIZED FREE ENERGY PREDICTED BY IDOCK:   -2.58 KCAL/MOL
REMARK 922        TOTAL FREE ENERGY PREDICTED BY IDOCK:   -3.05 KCAL/MOL
REMARK 923 INTER-LIGAND FREE ENERGY PREDICTED BY IDOCK:   -2.77 KCAL/MOL
REMARK 924 INTRA-LIGAND FREE ENERGY PREDICTED BY IDOCK:   -0.29 KCAL/MOL
REMARK 927      BINDING AFFINITY PREDICTED BY RF-SCORE:    0.00 PKD
ROOT
HETATM    1  C   UNL     1      -7.469  14.352  68.572  1.00  0.00    -0.122 C  
HETATM    2  C   UNL     1      -8.790  14.823  67.955  1.00  0.00    -0.167 C  
HETATM    3  C   UNL     1      -8.691  16.315  67.629  1.00  0.00    -0.188 C  
HETATM    4  C   UNL     1      -9.168  14.021  66.688  1.00  0.00    -0.262 C  
ENDROOT
BRANCH   4   5
HETATM    5  C   UNL     1      -9.332  12.537  66.937  1.00  0.00    -0.219 A  
HETATM    6  C   UNL     1     -10.466  12.039  67.589  1.00  0.00    -0.226 A  
HETATM    7  C   UNL     1     -10.557  10.686  67.926  1.00  0.00    -0.266 A  
HETATM    8  C   UNL     1      -9.516   9.799  67.610  1.00  0.00    -0.164 A  
HETATM    9  C   UNL     1      -9.520   8.366  68.118  1.00  0.00    -0.148 C  
HETATM   10  C   UNL     1      -8.417  10.287  66.889  1.00  0.00    -0.126 A  
HETATM   11  C   UNL     1      -9.452   8.297  69.645  1.00  0.00    -0.163 C  
HETATM   12  C   UNL     1      -8.325  11.640  66.561  1.00  0.00    -0.122 A  
HETATM   13  C   UNL     1     -10.708   7.561  67.588  1.00  0.00    -0.266 C  
HETATM   14  O   UNL     1      -8.464   9.055  70.186  1.00  0.00    -0.128 OA 
HETATM   15  O   UNL     1     -10.167   7.595  70.345  1.00  0.00    -0.199 OA 
ENDBRANCH   4   5
TORSDOF 1
ENDMDL
MODEL      158
REMARK 921   NORMALIZED FREE ENERGY PREDICTED BY IDOCK:   -2.55 KCAL/MOL
REMARK 922        TOTAL FREE ENERGY PREDICTED BY IDOCK:   -3.02 KCAL/MOL
REMARK 923 INTER-LIGAND FREE ENERGY PREDICTED BY IDOCK:   -3.11 KCAL/MOL
REMARK 924 INTRA-LIGAND FREE ENERGY PREDICTED BY IDOCK:    0.09 KCAL/MOL
REMARK 927      BINDING AFFINITY PREDICTED BY RF-SCORE:    0.00 PKD
ROOT
HETATM    1  C   UNL     1     -12.549  13.791  63.501  1.00  0.00     0.112 C  
HETATM    2  C   UNL     1     -12.068  12.408  63.953  1.00  0.00    -0.587 C  
HETATM    3  C   UNL     1     -12.390  11.380  62.866  1.00  0.00     0.625 C  
HETATM    4  C   UNL     1     -10.557  12.388  64.280  1.00  0.00    -0.391 C  
ENDROOT
BRANCH   4   5
HETATM    5  C   UNL     1     -10.163  13.346  65.384  1.00  0.00    -0.311 A  
HETATM    6  C   UNL     1      -9.890  12.881  66.676  1.00  0.00    -0.250 A  
HETATM    7  C   UNL     1      -9.647  13.778  67.719  1.00  0.00    -0.219 A  
HETATM    8  C   UNL     1      -9.666  15.163  67.490  1.00  0.00    -0.205 A  
HETATM    9  C   UNL     1      -9.576  16.154  68.640  1.00  0.00    -0.226 C  
HETATM   10  C   UNL     1      -9.864  15.622  66.180  1.00  0.00    -0.340 A  
HETATM   11  C   UNL     1     -10.770  16.042  69.590  1.00  0.00    -0.316 C  
HETATM   12  C   UNL     1     -10.114  14.724  65.141  1.00  0.00    -0.358 A  
HETATM   13  C   UNL     1      -8.256  16.042  69.406  1.00  0.00    -0.135 C  
HETATM   14  O   UNL     1     -11.974  16.056  68.963  1.00  0.00    -0.342 OA 
HETATM   15  O   UNL     1     -10.691  15.998  70.809  1.00  0.00    -0.167 OA 
ENDBRANCH   4   5
TORSDOF 1
ENDMDL
MODEL      159
REMARK 921   NORMALIZED FREE ENERGY PREDICTED BY IDOCK:   -2.54 KCAL/MOL
REMARK 922        TOTAL FREE ENERGY PREDICTED BY IDOCK:   -3.01 KCAL/MOL
REMARK 923 INTER-LIGAND FREE ENERGY PREDICTED BY IDOCK:   -2.74 KCAL/MOL
REMARK 924 INTRA-LIGAND FREE ENERGY PREDICTED BY IDOCK:   -0.27 KCAL/MOL
REMARK 927      BINDING AFFINITY PREDICTED BY RF-SCORE:    0.00 PKD
ROOT
HETATM    1  C   UNL     1      -8.966   7.523  66.254  1.00  0.00    -0.199 C  
HETATM    2  C   UNL     1      -7.493   7.942  66.319  1.00  0.00    -0.079 C  
HETATM    3  C   UNL     1      -6.640   6.904  65.586  1.00  0.00    -0.051 C  
HETATM    4  C   UNL     1      -7.255   9.350  65.726  1.00  0.00    -0.095 C  
ENDROOT
BRANCH   4   5
HETATM    5  C   UNL     1      -8.029  10.443  66.430  1.00  0.00    -0.130 A  
HETATM    6  C   UNL     1      -9.148  11.033  65.829  1.00  0.00    -0.219 A  
HETATM    7  C   UNL     1      -9.786  12.123  66.426  1.00  0.00    -0.243 A  
HETATM    8  C   UNL     1      -9.320  12.645  67.644  1.00  0.00    -0.190 A  
HETATM    9  C   UNL     1      -9.890  13.932  68.219  1.00  0.00    -0.231 C  
HETATM   10  C   UNL     1      -8.247  12.005  68.279  1.00  0.00    -0.161 A  
HETATM   11  C   UNL     1      -9.623  15.135  67.313  1.00  0.00    -0.209 C  
HETATM   12  C   UNL     1      -7.607  10.920  67.677  1.00  0.00    -0.096 A  
HETATM   13  C   UNL     1     -11.380  13.816  68.547  1.00  0.00    -0.318 C  
HETATM   14  O   UNL     1      -8.328  15.250  66.921  1.00  0.00    -0.216 OA 
HETATM   15  O   UNL     1     -10.458  15.969  66.995  1.00  0.00    -0.299 OA 
ENDBRANCH   4   5
TORSDOF 1
ENDMDL
MODEL      160
REMARK 921   NORMALIZED FREE ENERGY PREDICTED BY IDOCK:   -2.54 KCAL/MOL
REMARK 922        TOTAL FREE ENERGY PREDICTED BY IDOCK:   -3.00 KCAL/MOL
REMARK 923 INTER-LIGAND FREE ENERGY PREDICTED BY IDOCK:   -2.69 KCAL/MOL
REMARK 924 INTRA-LIGAND FREE ENERGY PREDICTED BY IDOCK:   -0.31 KCAL/MOL
REMARK 927      BINDING AFFINITY PREDICTED BY RF-SCORE:    0.00 PKD
ROOT
HETATM    1  C   UNL     1     -10.356   4.885  65.732  1.00  0.00    -0.219 C  
HETATM    2  C   UNL     1      -9.396   3.709  65.945  1.00  0.00    -0.166 C  
HETATM    3  C   UNL     1      -8.927   3.187  64.585  1.00  0.00    -0.124 C  
HETATM    4  C   UNL     1      -8.181   4.092  66.821  1.00  0.00    -0.101 C  
ENDROOT
BRANCH   4   5
HETATM    5  C   UNL     1      -8.560   4.575  68.205  1.00  0.00    -0.110 A  
HETATM    6  C   UNL     1      -9.488   3.872  68.982  1.00  0.00    -0.240 A  
HETATM    7  C   UNL     1      -9.927   4.386  70.206  1.00  0.00    -0.248 A  
HETATM    8  C   UNL     1      -9.439   5.613  70.681  1.00  0.00    -0.203 A  
HETATM    9  C   UNL     1     -10.030   6.269  71.920  1.00  0.00    -0.193 C  
HETATM   10  C   UNL     1      -8.454   6.276  69.937  1.00  0.00    -0.130 A  
HETATM   11  C   UNL     1     -11.501   6.642  71.727  1.00  0.00    -0.291 C  
HETATM   12  C   UNL     1      -8.023   5.765  68.711  1.00  0.00    -0.101 A  
HETATM   13  C   UNL     1      -9.842   5.418  73.178  1.00  0.00    -0.179 C  
HETATM   14  O   UNL     1     -11.748   7.333  70.585  1.00  0.00    -0.303 OA 
HETATM   15  O   UNL     1     -12.392   6.406  72.530  1.00  0.00    -0.085 OA 
ENDBRANCH   4   5
TORSDOF 1
ENDMDL
MODEL      161
REMARK 921   NORMALIZED FREE ENERGY PREDICTED BY IDOCK:   -2.50 KCAL/MOL
REMARK 922        TOTAL FREE ENERGY PREDICTED BY IDOCK:   -2.97 KCAL/MOL
REMARK 923 INTER-LIGAND FREE ENERGY PREDICTED BY IDOCK:   -2.61 KCAL/MOL
REMARK 924 INTRA-LIGAND FREE ENERGY PREDICTED BY IDOCK:   -0.36 KCAL/MOL
REMARK 927      BINDING AFFINITY PREDICTED BY RF-SCORE:    0.00 PKD
ROOT
HETATM    1  C   UNL     1     -11.286  12.232  68.766  1.00  0.00    -0.337 C  
HETATM    2  C   UNL     1     -10.995  11.810  67.322  1.00  0.00    -0.318 C  
HETATM    3  C   UNL     1     -11.874  12.625  66.370  1.00  0.00    -0.466 C  
HETATM    4  C   UNL     1      -9.503  11.975  66.949  1.00  0.00    -0.206 C  
ENDROOT
BRANCH   4   5
HETATM    5  C   UNL     1      -8.568  11.160  67.816  1.00  0.00    -0.131 A  
HETATM    6  C   UNL     1      -8.619   9.761  67.810  1.00  0.00    -0.125 A  
HETATM    7  C   UNL     1      -7.841   9.016  68.700  1.00  0.00    -0.101 A  
HETATM    8  C   UNL     1      -6.988   9.657  69.613  1.00  0.00    -0.071 A  
HETATM    9  C   UNL     1      -6.268   8.876  70.701  1.00  0.00    -0.042 C  
HETATM   10  C   UNL     1      -6.884  11.054  69.565  1.00  0.00    -0.133 A  
HETATM   11  C   UNL     1      -7.243   8.225  71.684  1.00  0.00    -0.088 C  
HETATM   12  C   UNL     1      -7.668  11.796  68.679  1.00  0.00    -0.126 A  
HETATM   13  C   UNL     1      -5.295   7.841  70.131  1.00  0.00    -0.023 C  
HETATM   14  O   UNL     1      -8.184   9.075  72.168  1.00  0.00    -0.359 OA 
HETATM   15  O   UNL     1      -7.181   7.065  72.065  1.00  0.00    -0.079 OA 
ENDBRANCH   4   5
TORSDOF 1
ENDMDL
MODEL      162
REMARK 921   NORMALIZED FREE ENERGY PREDICTED BY IDOCK:   -2.43 KCAL/MOL
REMARK 922        TOTAL FREE ENERGY PREDICTED BY IDOCK:   -2.89 KCAL/MOL
REMARK 923 INTER-LIGAND FREE ENERGY PREDICTED BY IDOCK:   -2.56 KCAL/MOL
REMARK 924 INTRA-LIGAND FREE ENERGY PREDICTED BY IDOCK:   -0.33 KCAL/MOL
REMARK 927      BINDING AFFINITY PREDICTED BY RF-SCORE:    0.00 PKD
ROOT
HETATM    1  C   UNL     1      -9.969   4.357  66.184  1.00  0.00    -0.256 C  
HETATM    2  C   UNL     1      -8.686   4.386  67.020  1.00  0.00    -0.108 C  
HETATM    3  C   UNL     1      -7.873   3.119  66.742  1.00  0.00    -0.076 C  
HETATM    4  C   UNL     1      -7.830   5.644  66.745  1.00  0.00    -0.101 C  
ENDROOT
BRANCH   4   5
HETATM    5  C   UNL     1      -8.549   6.943  67.042  1.00  0.00    -0.121 A  
HETATM    6  C   UNL     1      -8.710   7.918  66.052  1.00  0.00    -0.182 A  
HETATM    7  C   UNL     1      -9.265   9.163  66.361  1.00  0.00    -0.233 A  
HETATM    8  C   UNL     1      -9.676   9.457  67.671  1.00  0.00    -0.191 A  
HETATM    9  C   UNL     1     -10.119  10.858  68.063  1.00  0.00    -0.197 C  
HETATM   10  C   UNL     1      -9.582   8.451  68.643  1.00  0.00    -0.153 A  
HETATM   11  C   UNL     1      -8.988  11.879  67.921  1.00  0.00    -0.179 C  
HETATM   12  C   UNL     1      -9.022   7.211  68.333  1.00  0.00    -0.125 A  
HETATM   13  C   UNL     1     -11.364  11.313  67.299  1.00  0.00    -0.329 C  
HETATM   14  O   UNL     1      -7.827  11.498  68.513  1.00  0.00    -0.128 OA 
HETATM   15  O   UNL     1      -9.096  12.970  67.382  1.00  0.00    -0.184 OA 
ENDBRANCH   4   5
TORSDOF 1
ENDMDL
MODEL      163
REMARK 921   NORMALIZED FREE ENERGY PREDICTED BY IDOCK:   -2.40 KCAL/MOL
REMARK 922        TOTAL FREE ENERGY PREDICTED BY IDOCK:   -2.86 KCAL/MOL
REMARK 923 INTER-LIGAND FREE ENERGY PREDICTED BY IDOCK:   -2.80 KCAL/MOL
REMARK 924 INTRA-LIGAND FREE ENERGY PREDICTED BY IDOCK:   -0.06 KCAL/MOL
REMARK 927      BINDING AFFINITY PREDICTED BY RF-SCORE:    0.00 PKD
ROOT
HETATM    1  C   UNL     1     -10.102  11.634  68.201  1.00  0.00    -0.202 C  
HETATM    2  C   UNL     1     -10.316  11.459  66.694  1.00  0.00    -0.272 C  
HETATM    3  C   UNL     1     -10.344  12.836  66.025  1.00  0.00    -0.291 C  
HETATM    4  C   UNL     1      -9.233  10.568  66.043  1.00  0.00    -0.205 C  
ENDROOT
BRANCH   4   5
HETATM    5  C   UNL     1      -9.174   9.169  66.618  1.00  0.00    -0.207 A  
HETATM    6  C   UNL     1     -10.297   8.592  67.222  1.00  0.00    -0.366 A  
HETATM    7  C   UNL     1     -10.205   7.352  67.859  1.00  0.00    -0.242 A  
HETATM    8  C   UNL     1      -8.984   6.659  67.901  1.00  0.00    -0.112 A  
HETATM    9  C   UNL     1      -8.823   5.397  68.734  1.00  0.00    -0.107 C  
HETATM   10  C   UNL     1      -7.881   7.205  67.230  1.00  0.00    -0.111 A  
HETATM   11  C   UNL     1      -9.008   5.667  70.228  1.00  0.00    -0.139 C  
HETATM   12  C   UNL     1      -7.974   8.447  66.600  1.00  0.00    -0.097 A  
HETATM   13  C   UNL     1      -9.741   4.266  68.266  1.00  0.00    -0.162 C  
HETATM   14  O   UNL     1      -8.278   6.713  70.692  1.00  0.00    -0.121 OA 
HETATM   15  O   UNL     1      -9.697   4.993  70.980  1.00  0.00    -0.163 OA 
ENDBRANCH   4   5
TORSDOF 1
ENDMDL
MODEL      164
REMARK 921   NORMALIZED FREE ENERGY PREDICTED BY IDOCK:   -2.38 KCAL/MOL
REMARK 922        TOTAL FREE ENERGY PREDICTED BY IDOCK:   -2.84 KCAL/MOL
REMARK 923 INTER-LIGAND FREE ENERGY PREDICTED BY IDOCK:   -2.51 KCAL/MOL
REMARK 924 INTRA-LIGAND FREE ENERGY PREDICTED BY IDOCK:   -0.33 KCAL/MOL
REMARK 927      BINDING AFFINITY PREDICTED BY RF-SCORE:    0.00 PKD
ROOT
HETATM    1  C   UNL     1      -7.614  14.758  69.338  1.00  0.00    -0.127 C  
HETATM    2  C   UNL     1      -7.721  14.582  67.820  1.00  0.00    -0.167 C  
HETATM    3  C   UNL     1      -6.793  15.584  67.129  1.00  0.00    -0.076 C  
HETATM    4  C   UNL     1      -7.387  13.141  67.368  1.00  0.00    -0.119 C  
ENDROOT
BRANCH   4   5
HETATM    5  C   UNL     1      -8.295  12.091  67.972  1.00  0.00    -0.162 A  
HETATM    6  C   UNL     1      -7.771  11.043  68.738  1.00  0.00    -0.135 A  
HETATM    7  C   UNL     1      -8.596  10.010  69.191  1.00  0.00    -0.158 A  
HETATM    8  C   UNL     1      -9.968  10.008  68.891  1.00  0.00    -0.198 A  
HETATM    9  C   UNL     1     -10.845   8.811  69.225  1.00  0.00    -0.094 C  
HETATM   10  C   UNL     1     -10.502  11.097  68.189  1.00  0.00    -0.215 A  
HETATM   11  C   UNL     1     -10.420   7.556  68.461  1.00  0.00    -0.180 C  
HETATM   12  C   UNL     1      -9.674  12.124  67.732  1.00  0.00    -0.197 A  
HETATM   13  C   UNL     1     -10.914   8.538  70.729  1.00  0.00    -0.282 C  
HETATM   14  O   UNL     1     -10.264   7.750  67.126  1.00  0.00    -0.234 OA 
HETATM   15  O   UNL     1     -10.278   6.449  68.960  1.00  0.00    -0.162 OA 
ENDBRANCH   4   5
TORSDOF 1
ENDMDL
MODEL      165
REMARK 921   NORMALIZED FREE ENERGY PREDICTED BY IDOCK:   -2.35 KCAL/MOL
REMARK 922        TOTAL FREE ENERGY PREDICTED BY IDOCK:   -2.81 KCAL/MOL
REMARK 923 INTER-LIGAND FREE ENERGY PREDICTED BY IDOCK:   -2.83 KCAL/MOL
REMARK 924 INTRA-LIGAND FREE ENERGY PREDICTED BY IDOCK:    0.02 KCAL/MOL
REMARK 927      BINDING AFFINITY PREDICTED BY RF-SCORE:    0.00 PKD
ROOT
HETATM    1  C   UNL     1      -5.300   9.953  64.834  1.00  0.00    -0.066 C  
HETATM    2  C   UNL     1      -6.405   9.961  63.773  1.00  0.00    -0.126 C  
HETATM    3  C   UNL     1      -5.776   9.808  62.386  1.00  0.00    -0.090 C  
HETATM    4  C   UNL     1      -7.459   8.854  64.010  1.00  0.00    -0.112 C  
ENDROOT
BRANCH   4   5
HETATM    5  C   UNL     1      -8.163   8.964  65.346  1.00  0.00    -0.131 A  
HETATM    6  C   UNL     1      -7.564   8.483  66.516  1.00  0.00    -0.088 A  
HETATM    7  C   UNL     1      -8.266   8.475  67.724  1.00  0.00    -0.122 A  
HETATM    8  C   UNL     1      -9.584   8.955  67.788  1.00  0.00    -0.176 A  
HETATM    9  C   UNL     1     -10.421   8.796  69.048  1.00  0.00    -0.220 C  
HETATM   10  C   UNL     1     -10.153   9.506  66.631  1.00  0.00    -0.321 A  
HETATM   11  C   UNL     1     -10.674   7.326  69.388  1.00  0.00    -0.225 C  
HETATM   12  C   UNL     1      -9.452   9.506  65.424  1.00  0.00    -0.336 A  
HETATM   13  C   UNL     1      -9.823   9.538  70.245  1.00  0.00    -0.313 C  
HETATM   14  O   UNL     1     -11.133   6.591  68.343  1.00  0.00    -0.293 OA 
HETATM   15  O   UNL     1     -10.540   6.833  70.498  1.00  0.00    -0.214 OA 
ENDBRANCH   4   5
TORSDOF 1
ENDMDL
MODEL      166
REMARK 921   NORMALIZED FREE ENERGY PREDICTED BY IDOCK:   -2.31 KCAL/MOL
REMARK 922        TOTAL FREE ENERGY PREDICTED BY IDOCK:   -2.76 KCAL/MOL
REMARK 923 INTER-LIGAND FREE ENERGY PREDICTED BY IDOCK:   -2.84 KCAL/MOL
REMARK 924 INTRA-LIGAND FREE ENERGY PREDICTED BY IDOCK:    0.08 KCAL/MOL
REMARK 927      BINDING AFFINITY PREDICTED BY RF-SCORE:    0.00 PKD
ROOT
HETATM    1  C   UNL     1     -10.381   8.428  68.796  1.00  0.00    -0.225 C  
HETATM    2  C   UNL     1      -8.967   8.460  69.386  1.00  0.00    -0.153 C  
HETATM    3  C   UNL     1      -8.549   7.039  69.771  1.00  0.00    -0.141 C  
HETATM    4  C   UNL     1      -7.936   9.078  68.413  1.00  0.00    -0.104 C  
ENDROOT
BRANCH   4   5
HETATM    5  C   UNL     1      -8.253  10.504  68.020  1.00  0.00    -0.112 A  
HETATM    6  C   UNL     1      -7.562  11.578  68.593  1.00  0.00    -0.134 A  
HETATM    7  C   UNL     1      -7.940  12.896  68.320  1.00  0.00    -0.151 A  
HETATM    8  C   UNL     1      -9.016  13.167  67.460  1.00  0.00    -0.197 A  
HETATM    9  C   UNL     1      -9.550  14.580  67.287  1.00  0.00    -0.226 C  
HETATM   10  C   UNL     1      -9.657  12.091  66.829  1.00  0.00    -0.215 A  
HETATM   11  C   UNL     1     -10.123  15.142  68.590  1.00  0.00    -0.222 C  
HETATM   12  C   UNL     1      -9.282  10.776  67.110  1.00  0.00    -0.160 A  
HETATM   13  C   UNL     1      -8.508  15.530  66.694  1.00  0.00    -0.314 C  
HETATM   14  O   UNL     1     -10.999  14.310  69.209  1.00  0.00    -0.252 OA 
HETATM   15  O   UNL     1      -9.882  16.254  69.037  1.00  0.00    -0.234 OA 
ENDBRANCH   4   5
TORSDOF 1
ENDMDL
MODEL      167
REMARK 921   NORMALIZED FREE ENERGY PREDICTED BY IDOCK:   -2.29 KCAL/MOL
REMARK 922        TOTAL FREE ENERGY PREDICTED BY IDOCK:   -2.74 KCAL/MOL
REMARK 923 INTER-LIGAND FREE ENERGY PREDICTED BY IDOCK:   -2.43 KCAL/MOL
REMARK 924 INTRA-LIGAND FREE ENERGY PREDICTED BY IDOCK:   -0.31 KCAL/MOL
REMARK 927      BINDING AFFINITY PREDICTED BY RF-SCORE:    0.00 PKD
ROOT
HETATM    1  C   UNL     1     -11.073   5.657  73.025  1.00  0.00    -0.327 C  
HETATM    2  C   UNL     1     -11.233   6.766  71.980  1.00  0.00    -0.297 C  
HETATM    3  C   UNL     1     -11.742   8.036  72.665  1.00  0.00    -0.418 C  
HETATM    4  C   UNL     1      -9.916   7.055  71.222  1.00  0.00    -0.196 C  
ENDROOT
BRANCH   4   5
HETATM    5  C   UNL     1      -9.371   5.857  70.475  1.00  0.00    -0.185 A  
HETATM    6  C   UNL     1      -8.041   5.453  70.639  1.00  0.00    -0.110 A  
HETATM    7  C   UNL     1      -7.507   4.424  69.858  1.00  0.00    -0.050 A  
HETATM    8  C   UNL     1      -8.298   3.772  68.899  1.00  0.00    -0.088 A  
HETATM    9  C   UNL     1      -7.691   2.774  67.925  1.00  0.00    -0.060 C  
HETATM   10  C   UNL     1      -9.649   4.128  68.791  1.00  0.00    -0.210 A  
HETATM   11  C   UNL     1      -6.662   3.426  66.999  1.00  0.00    -0.049 C  
HETATM   12  C   UNL     1     -10.177   5.161  69.567  1.00  0.00    -0.318 A  
HETATM   13  C   UNL     1      -7.095   1.555  68.632  1.00  0.00    -0.036 C  
HETATM   14  O   UNL     1      -7.104   4.561  66.399  1.00  0.00    -0.071 OA 
HETATM   15  O   UNL     1      -5.555   2.970  66.754  1.00  0.00    -0.020 OA 
ENDBRANCH   4   5
TORSDOF 1
ENDMDL
MODEL      168
REMARK 921   NORMALIZED FREE ENERGY PREDICTED BY IDOCK:   -2.27 KCAL/MOL
REMARK 922        TOTAL FREE ENERGY PREDICTED BY IDOCK:   -2.72 KCAL/MOL
REMARK 923 INTER-LIGAND FREE ENERGY PREDICTED BY IDOCK:   -2.42 KCAL/MOL
REMARK 924 INTRA-LIGAND FREE ENERGY PREDICTED BY IDOCK:   -0.30 KCAL/MOL
REMARK 927      BINDING AFFINITY PREDICTED BY RF-SCORE:    0.00 PKD
ROOT
HETATM    1  C   UNL     1      -8.157   9.977  68.909  1.00  0.00    -0.111 C  
HETATM    2  C   UNL     1      -9.419  10.180  68.063  1.00  0.00    -0.156 C  
HETATM    3  C   UNL     1      -9.581  11.668  67.745  1.00  0.00    -0.178 C  
HETATM    4  C   UNL     1      -9.392   9.352  66.757  1.00  0.00    -0.202 C  
ENDROOT
BRANCH   4   5
HETATM    5  C   UNL     1      -9.281   7.860  66.988  1.00  0.00    -0.181 A  
HETATM    6  C   UNL     1      -8.118   7.163  66.642  1.00  0.00    -0.109 A  
HETATM    7  C   UNL     1      -8.064   5.771  66.743  1.00  0.00    -0.102 A  
HETATM    8  C   UNL     1      -9.176   5.044  67.198  1.00  0.00    -0.124 A  
HETATM    9  C   UNL     1      -9.197   3.524  67.151  1.00  0.00    -0.217 C  
HETATM   10  C   UNL     1     -10.313   5.751  67.615  1.00  0.00    -0.270 A  
HETATM   11  C   UNL     1      -9.121   2.993  65.718  1.00  0.00    -0.145 C  
HETATM   12  C   UNL     1     -10.366   7.141  67.506  1.00  0.00    -0.303 A  
HETATM   13  C   UNL     1      -8.109   2.896  68.025  1.00  0.00    -0.076 C  
HETATM   14  O   UNL     1     -10.011   3.568  64.870  1.00  0.00    -0.160 OA 
HETATM   15  O   UNL     1      -8.380   2.095  65.345  1.00  0.00    -0.084 OA 
ENDBRANCH   4   5
TORSDOF 1
ENDMDL
MODEL      169
REMARK 921   NORMALIZED FREE ENERGY PREDICTED BY IDOCK:   -2.27 KCAL/MOL
REMARK 922        TOTAL FREE ENERGY PREDICTED BY IDOCK:   -2.72 KCAL/MOL
REMARK 923 INTER-LIGAND FREE ENERGY PREDICTED BY IDOCK:   -3.13 KCAL/MOL
REMARK 924 INTRA-LIGAND FREE ENERGY PREDICTED BY IDOCK:    0.41 KCAL/MOL
REMARK 927      BINDING AFFINITY PREDICTED BY RF-SCORE:    0.00 PKD
ROOT
HETATM    1  C   UNL     1     -10.413   5.204  66.159  1.00  0.00    -0.301 C  
HETATM    2  C   UNL     1      -9.575   3.922  66.195  1.00  0.00    -0.193 C  
HETATM    3  C   UNL     1      -8.929   3.701  64.825  1.00  0.00    -0.125 C  
HETATM    4  C   UNL     1      -8.493   3.956  67.300  1.00  0.00    -0.102 C  
ENDROOT
BRANCH   4   5
HETATM    5  C   UNL     1      -9.056   4.123  68.695  1.00  0.00    -0.185 A  
HETATM    6  C   UNL     1      -9.935   5.171  68.994  1.00  0.00    -0.265 A  
HETATM    7  C   UNL     1     -10.356   5.395  70.308  1.00  0.00    -0.357 A  
HETATM    8  C   UNL     1      -9.910   4.569  71.351  1.00  0.00    -0.264 A  
HETATM    9  C   UNL     1     -10.217   4.899  72.804  1.00  0.00    -0.227 C  
HETATM   10  C   UNL     1      -9.091   3.475  71.037  1.00  0.00    -0.180 A  
HETATM   11  C   UNL     1      -9.579   6.220  73.240  1.00  0.00    -0.147 C  
HETATM   12  C   UNL     1      -8.666   3.259  69.725  1.00  0.00    -0.128 A  
HETATM   13  C   UNL     1     -11.718   4.893  73.100  1.00  0.00    -0.221 C  
HETATM   14  O   UNL     1      -8.260   6.321  72.934  1.00  0.00    -0.115 OA 
HETATM   15  O   UNL     1     -10.155   7.103  73.858  1.00  0.00    -0.322 OA 
ENDBRANCH   4   5
TORSDOF 1
ENDMDL
MODEL      170
REMARK 921   NORMALIZED FREE ENERGY PREDICTED BY IDOCK:   -2.26 KCAL/MOL
REMARK 922        TOTAL FREE ENERGY PREDICTED BY IDOCK:   -2.71 KCAL/MOL
REMARK 923 INTER-LIGAND FREE ENERGY PREDICTED BY IDOCK:   -2.35 KCAL/MOL
REMARK 924 INTRA-LIGAND FREE ENERGY PREDICTED BY IDOCK:   -0.37 KCAL/MOL
REMARK 927      BINDING AFFINITY PREDICTED BY RF-SCORE:    0.00 PKD
ROOT
HETATM    1  C   UNL     1      -5.227  10.002  64.824  1.00  0.00    -0.078 C  
HETATM    2  C   UNL     1      -6.248  10.188  63.697  1.00  0.00    -0.138 C  
HETATM    3  C   UNL     1      -5.540  10.754  62.464  1.00  0.00    -0.169 C  
HETATM    4  C   UNL     1      -6.978   8.872  63.340  1.00  0.00    -0.089 C  
ENDROOT
BRANCH   4   5
HETATM    5  C   UNL     1      -7.745   8.272  64.498  1.00  0.00    -0.123 A  
HETATM    6  C   UNL     1      -8.733   9.006  65.164  1.00  0.00    -0.223 A  
HETATM    7  C   UNL     1      -9.352   8.494  66.308  1.00  0.00    -0.287 A  
HETATM    8  C   UNL     1      -8.998   7.231  66.807  1.00  0.00    -0.154 A  
HETATM    9  C   UNL     1      -9.532   6.733  68.141  1.00  0.00    -0.120 C  
HETATM   10  C   UNL     1      -8.063   6.467  66.095  1.00  0.00    -0.118 A  
HETATM   11  C   UNL     1      -9.064   7.603  69.309  1.00  0.00    -0.145 C  
HETATM   12  C   UNL     1      -7.441   6.984  64.956  1.00  0.00    -0.093 A  
HETATM   13  C   UNL     1     -11.055   6.588  68.144  1.00  0.00    -0.332 C  
HETATM   14  O   UNL     1      -7.726   7.836  69.320  1.00  0.00    -0.096 OA 
HETATM   15  O   UNL     1      -9.786   8.024  70.200  1.00  0.00    -0.183 OA 
ENDBRANCH   4   5
TORSDOF 1
ENDMDL
MODEL      171
REMARK 921   NORMALIZED FREE ENERGY PREDICTED BY IDOCK:   -2.25 KCAL/MOL
REMARK 922        TOTAL FREE ENERGY PREDICTED BY IDOCK:   -2.70 KCAL/MOL
REMARK 923 INTER-LIGAND FREE ENERGY PREDICTED BY IDOCK:   -2.43 KCAL/MOL
REMARK 924 INTRA-LIGAND FREE ENERGY PREDICTED BY IDOCK:   -0.26 KCAL/MOL
REMARK 927      BINDING AFFINITY PREDICTED BY RF-SCORE:    0.00 PKD
ROOT
HETATM    1  C   UNL     1      -9.047   9.344  70.004  1.00  0.00    -0.244 C  
HETATM    2  C   UNL     1     -10.214   8.707  70.767  1.00  0.00    -0.250 C  
HETATM    3  C   UNL     1     -11.251   9.784  71.094  1.00  0.00    -0.444 C  
HETATM    4  C   UNL     1     -10.871   7.550  69.979  1.00  0.00    -0.260 C  
ENDROOT
BRANCH   4   5
HETATM    5  C   UNL     1      -9.919   6.419  69.656  1.00  0.00    -0.193 A  
HETATM    6  C   UNL     1      -9.421   6.246  68.360  1.00  0.00    -0.118 A  
HETATM    7  C   UNL     1      -8.641   5.132  68.038  1.00  0.00    -0.103 A  
HETATM    8  C   UNL     1      -8.337   4.168  69.013  1.00  0.00    -0.089 A  
HETATM    9  C   UNL     1      -7.639   2.867  68.644  1.00  0.00    -0.048 C  
HETATM   10  C   UNL     1      -8.773   4.383  70.327  1.00  0.00    -0.119 A  
HETATM   11  C   UNL     1      -8.484   2.010  67.699  1.00  0.00    -0.078 C  
HETATM   12  C   UNL     1      -9.558   5.494  70.644  1.00  0.00    -0.221 A  
HETATM   13  C   UNL     1      -6.240   3.097  68.070  1.00  0.00    -0.032 C  
HETATM   14  O   UNL     1      -9.764   1.833  68.114  1.00  0.00    -0.168 OA 
HETATM   15  O   UNL     1      -8.067   1.471  66.685  1.00  0.00    -0.070 OA 
ENDBRANCH   4   5
TORSDOF 1
ENDMDL
MODEL      172
REMARK 921   NORMALIZED FREE ENERGY PREDICTED BY IDOCK:   -2.20 KCAL/MOL
REMARK 922        TOTAL FREE ENERGY PREDICTED BY IDOCK:   -2.65 KCAL/MOL
REMARK 923 INTER-LIGAND FREE ENERGY PREDICTED BY IDOCK:   -2.70 KCAL/MOL
REMARK 924 INTRA-LIGAND FREE ENERGY PREDICTED BY IDOCK:    0.05 KCAL/MOL
REMARK 927      BINDING AFFINITY PREDICTED BY RF-SCORE:    0.00 PKD
ROOT
HETATM    1  C   UNL     1     -11.455   7.242  72.535  1.00  0.00    -0.322 C  
HETATM    2  C   UNL     1     -10.123   6.685  73.046  1.00  0.00    -0.204 C  
HETATM    3  C   UNL     1     -10.274   6.279  74.514  1.00  0.00    -0.320 C  
HETATM    4  C   UNL     1      -9.625   5.486  72.205  1.00  0.00    -0.173 C  
ENDROOT
BRANCH   4   5
HETATM    5  C   UNL     1      -9.404   5.819  70.746  1.00  0.00    -0.189 A  
HETATM    6  C   UNL     1      -8.117   6.055  70.250  1.00  0.00    -0.111 A  
HETATM    7  C   UNL     1      -7.928   6.482  68.932  1.00  0.00    -0.111 A  
HETATM    8  C   UNL     1      -9.027   6.675  68.079  1.00  0.00    -0.117 A  
HETATM    9  C   UNL     1      -8.856   7.301  66.704  1.00  0.00    -0.151 C  
HETATM   10  C   UNL     1     -10.307   6.364  68.557  1.00  0.00    -0.227 A  
HETATM   11  C   UNL     1      -8.348   8.742  66.787  1.00  0.00    -0.108 C  
HETATM   12  C   UNL     1     -10.493   5.946  69.876  1.00  0.00    -0.337 A  
HETATM   13  C   UNL     1      -7.967   6.461  65.785  1.00  0.00    -0.117 C  
HETATM   14  O   UNL     1      -9.048   9.523  67.649  1.00  0.00    -0.122 OA 
HETATM   15  O   UNL     1      -7.435   9.200  66.116  1.00  0.00    -0.093 OA 
ENDBRANCH   4   5
TORSDOF 1
ENDMDL
MODEL      173
REMARK 921   NORMALIZED FREE ENERGY PREDICTED BY IDOCK:   -2.03 KCAL/MOL
REMARK 922        TOTAL FREE ENERGY PREDICTED BY IDOCK:   -2.47 KCAL/MOL
REMARK 923 INTER-LIGAND FREE ENERGY PREDICTED BY IDOCK:   -3.02 KCAL/MOL
REMARK 924 INTRA-LIGAND FREE ENERGY PREDICTED BY IDOCK:    0.55 KCAL/MOL
REMARK 927      BINDING AFFINITY PREDICTED BY RF-SCORE:    0.00 PKD
ROOT
HETATM    1  C   UNL     1      -9.890  10.715  66.777  1.00  0.00    -0.240 C  
HETATM    2  C   UNL     1     -10.174  11.627  67.975  1.00  0.00    -0.202 C  
HETATM    3  C   UNL     1     -10.459  13.045  67.474  1.00  0.00    -0.229 C  
HETATM    4  C   UNL     1     -11.350  11.116  68.840  1.00  0.00    -0.344 C  
ENDROOT
BRANCH   4   5
HETATM    5  C   UNL     1     -11.123   9.734  69.414  1.00  0.00    -0.205 A  
HETATM    6  C   UNL     1     -11.551   9.415  70.708  1.00  0.00    -0.364 A  
HETATM    7  C   UNL     1     -11.233   8.180  71.280  1.00  0.00    -0.297 A  
HETATM    8  C   UNL     1     -10.483   7.233  70.564  1.00  0.00    -0.229 A  
HETATM    9  C   UNL     1      -9.981   5.960  71.227  1.00  0.00    -0.232 C  
HETATM   10  C   UNL     1     -10.122   7.527  69.241  1.00  0.00    -0.188 A  
HETATM   11  C   UNL     1      -8.997   6.252  72.361  1.00  0.00    -0.138 C  
HETATM   12  C   UNL     1     -10.435   8.764  68.676  1.00  0.00    -0.213 A  
HETATM   13  C   UNL     1     -11.123   5.065  71.712  1.00  0.00     0.089 C  
HETATM   14  O   UNL     1      -7.999   7.107  72.017  1.00  0.00    -0.092 OA 
HETATM   15  O   UNL     1      -9.038   5.742  73.471  1.00  0.00    -0.132 OA 
ENDBRANCH   4   5
TORSDOF 1
ENDMDL
MODEL      174
REMARK 921   NORMALIZED FREE ENERGY PREDICTED BY IDOCK:   -2.02 KCAL/MOL
REMARK 922        TOTAL FREE ENERGY PREDICTED BY IDOCK:   -2.45 KCAL/MOL
REMARK 923 INTER-LIGAND FREE ENERGY PREDICTED BY IDOCK:   -2.17 KCAL/MOL
REMARK 924 INTRA-LIGAND FREE ENERGY PREDICTED BY IDOCK:   -0.28 KCAL/MOL
REMARK 927      BINDING AFFINITY PREDICTED BY RF-SCORE:    0.00 PKD
ROOT
HETATM    1  C   UNL     1      -8.363   7.785  66.396  1.00  0.00    -0.131 C  
HETATM    2  C   UNL     1      -9.021   8.745  67.392  1.00  0.00    -0.143 C  
HETATM    3  C   UNL     1      -9.672   9.900  66.627  1.00  0.00    -0.252 C  
HETATM    4  C   UNL     1     -10.065   8.039  68.289  1.00  0.00    -0.227 C  
ENDROOT
BRANCH   4   5
HETATM    5  C   UNL     1      -9.489   6.911  69.117  1.00  0.00    -0.142 A  
HETATM    6  C   UNL     1      -9.770   5.576  68.808  1.00  0.00    -0.190 A  
HETATM    7  C   UNL     1      -9.338   4.543  69.645  1.00  0.00    -0.221 A  
HETATM    8  C   UNL     1      -8.607   4.827  70.810  1.00  0.00    -0.122 A  
HETATM    9  C   UNL     1      -8.278   3.738  71.819  1.00  0.00    -0.075 C  
HETATM   10  C   UNL     1      -8.262   6.160  71.076  1.00  0.00    -0.123 A  
HETATM   11  C   UNL     1      -9.537   3.143  72.453  1.00  0.00    -0.130 C  
HETATM   12  C   UNL     1      -8.702   7.189  70.242  1.00  0.00    -0.144 A  
HETATM   13  C   UNL     1      -7.394   2.640  71.226  1.00  0.00    -0.033 C  
HETATM   14  O   UNL     1     -10.405   4.072  72.930  1.00  0.00    -0.156 OA 
HETATM   15  O   UNL     1      -9.754   1.947  72.586  1.00  0.00    -0.084 OA 
ENDBRANCH   4   5
TORSDOF 1
ENDMDL
MODEL      175
REMARK 921   NORMALIZED FREE ENERGY PREDICTED BY IDOCK:   -2.01 KCAL/MOL
REMARK 922        TOTAL FREE ENERGY PREDICTED BY IDOCK:   -2.45 KCAL/MOL
REMARK 923 INTER-LIGAND FREE ENERGY PREDICTED BY IDOCK:   -2.17 KCAL/MOL
REMARK 924 INTRA-LIGAND FREE ENERGY PREDICTED BY IDOCK:   -0.28 KCAL/MOL
REMARK 927      BINDING AFFINITY PREDICTED BY RF-SCORE:    0.00 PKD
ROOT
HETATM    1  C   UNL     1      -9.796  10.623  66.793  1.00  0.00    -0.240 C  
HETATM    2  C   UNL     1      -9.517  11.281  68.148  1.00  0.00    -0.184 C  
HETATM    3  C   UNL     1      -9.677  12.797  68.015  1.00  0.00    -0.220 C  
HETATM    4  C   UNL     1     -10.436  10.739  69.268  1.00  0.00    -0.243 C  
ENDROOT
BRANCH   4   5
HETATM    5  C   UNL     1     -10.300   9.249  69.494  1.00  0.00    -0.223 A  
HETATM    6  C   UNL     1      -9.189   8.722  70.163  1.00  0.00    -0.179 A  
HETATM    7  C   UNL     1      -9.007   7.340  70.263  1.00  0.00    -0.151 A  
HETATM    8  C   UNL     1      -9.939   6.454  69.699  1.00  0.00    -0.193 A  
HETATM    9  C   UNL     1      -9.672   4.958  69.647  1.00  0.00    -0.266 C  
HETATM   10  C   UNL     1     -11.089   6.985  69.097  1.00  0.00    -0.143 A  
HETATM   11  C   UNL     1      -8.454   4.621  68.784  1.00  0.00    -0.084 C  
HETATM   12  C   UNL     1     -11.264   8.366  68.993  1.00  0.00     0.373 A  
HETATM   13  C   UNL     1      -9.543   4.337  71.039  1.00  0.00    -0.253 C  
HETATM   14  O   UNL     1      -8.470   5.207  67.559  1.00  0.00    -0.106 OA 
HETATM   15  O   UNL     1      -7.558   3.857  69.109  1.00  0.00    -0.053 OA 
ENDBRANCH   4   5
TORSDOF 1
ENDMDL
MODEL      176
REMARK 921   NORMALIZED FREE ENERGY PREDICTED BY IDOCK:   -1.99 KCAL/MOL
REMARK 922        TOTAL FREE ENERGY PREDICTED BY IDOCK:   -2.42 KCAL/MOL
REMARK 923 INTER-LIGAND FREE ENERGY PREDICTED BY IDOCK:   -2.10 KCAL/MOL
REMARK 924 INTRA-LIGAND FREE ENERGY PREDICTED BY IDOCK:   -0.32 KCAL/MOL
REMARK 927      BINDING AFFINITY PREDICTED BY RF-SCORE:    0.00 PKD
ROOT
HETATM    1  C   UNL     1      -8.507   8.229  64.596  1.00  0.00    -0.069 C  
HETATM    2  C   UNL     1      -9.119   9.025  65.753  1.00  0.00    -0.272 C  
HETATM    3  C   UNL     1      -9.939  10.187  65.189  1.00  0.00    -0.379 C  
HETATM    4  C   UNL     1      -9.996   8.145  66.674  1.00  0.00    -0.339 C  
ENDROOT
BRANCH   4   5
HETATM    5  C   UNL     1      -9.244   6.997  67.311  1.00  0.00    -0.141 A  
HETATM    6  C   UNL     1      -9.556   5.670  66.994  1.00  0.00    -0.143 A  
HETATM    7  C   UNL     1      -8.945   4.612  67.674  1.00  0.00    -0.124 A  
HETATM    8  C   UNL     1      -8.002   4.862  68.684  1.00  0.00    -0.084 A  
HETATM    9  C   UNL     1      -7.457   3.736  69.549  1.00  0.00    -0.052 C  
HETATM   10  C   UNL     1      -7.637   6.190  68.946  1.00  0.00    -0.092 A  
HETATM   11  C   UNL     1      -8.553   3.074  70.388  1.00  0.00    -0.063 C  
HETATM   12  C   UNL     1      -8.255   7.244  68.270  1.00  0.00    -0.125 A  
HETATM   13  C   UNL     1      -6.687   2.694  68.736  1.00  0.00    -0.036 C  
HETATM   14  O   UNL     1      -9.325   3.953  71.076  1.00  0.00    -0.125 OA 
HETATM   15  O   UNL     1      -8.715   1.868  70.498  1.00  0.00    -0.053 OA 
ENDBRANCH   4   5
TORSDOF 1
ENDMDL
MODEL      177
REMARK 921   NORMALIZED FREE ENERGY PREDICTED BY IDOCK:   -1.97 KCAL/MOL
REMARK 922        TOTAL FREE ENERGY PREDICTED BY IDOCK:   -2.40 KCAL/MOL
REMARK 923 INTER-LIGAND FREE ENERGY PREDICTED BY IDOCK:   -2.77 KCAL/MOL
REMARK 924 INTRA-LIGAND FREE ENERGY PREDICTED BY IDOCK:    0.36 KCAL/MOL
REMARK 927      BINDING AFFINITY PREDICTED BY RF-SCORE:    0.00 PKD
ROOT
HETATM    1  C   UNL     1      -7.598   7.418  73.062  1.00  0.00    -0.099 C  
HETATM    2  C   UNL     1      -9.119   7.250  72.980  1.00  0.00    -0.180 C  
HETATM    3  C   UNL     1      -9.650   6.785  74.338  1.00  0.00    -0.296 C  
HETATM    4  C   UNL     1      -9.832   8.550  72.540  1.00  0.00    -0.324 C  
ENDROOT
BRANCH   4   5
HETATM    5  C   UNL     1      -9.395   9.051  71.180  1.00  0.00    -0.336 A  
HETATM    6  C   UNL     1     -10.322   9.222  70.146  1.00  0.00    -0.258 A  
HETATM    7  C   UNL     1      -9.899   9.567  68.859  1.00  0.00    -0.179 A  
HETATM    8  C   UNL     1      -8.535   9.753  68.582  1.00  0.00    -0.116 A  
HETATM    9  C   UNL     1      -8.042   9.957  67.158  1.00  0.00    -0.117 C  
HETATM   10  C   UNL     1      -7.618   9.655  69.637  1.00  0.00    -0.114 A  
HETATM   11  C   UNL     1      -8.311   8.737  66.276  1.00  0.00    -0.118 C  
HETATM   12  C   UNL     1      -8.043   9.304  70.920  1.00  0.00    -0.168 A  
HETATM   13  C   UNL     1      -8.606  11.228  66.520  1.00  0.00    -0.170 C  
HETATM   14  O   UNL     1      -7.903   7.563  66.822  1.00  0.00    -0.106 OA 
HETATM   15  O   UNL     1      -8.796   8.779  65.155  1.00  0.00    -0.186 OA 
ENDBRANCH   4   5
TORSDOF 1
ENDMDL
MODEL      178
REMARK 921   NORMALIZED FREE ENERGY PREDICTED BY IDOCK:   -1.93 KCAL/MOL
REMARK 922        TOTAL FREE ENERGY PREDICTED BY IDOCK:   -2.37 KCAL/MOL
REMARK 923 INTER-LIGAND FREE ENERGY PREDICTED BY IDOCK:   -2.34 KCAL/MOL
REMARK 924 INTRA-LIGAND FREE ENERGY PREDICTED BY IDOCK:   -0.03 KCAL/MOL
REMARK 927      BINDING AFFINITY PREDICTED BY RF-SCORE:    0.00 PKD
ROOT
HETATM    1  C   UNL     1      -9.307   5.244  71.647  1.00  0.00    -0.178 C  
HETATM    2  C   UNL     1     -10.596   5.398  70.834  1.00  0.00    -0.283 C  
HETATM    3  C   UNL     1     -11.536   6.367  71.556  1.00  0.00    -0.360 C  
HETATM    4  C   UNL     1     -10.329   5.884  69.391  1.00  0.00    -0.313 C  
ENDROOT
BRANCH   4   5
HETATM    5  C   UNL     1      -9.443   4.952  68.592  1.00  0.00    -0.198 A  
HETATM    6  C   UNL     1      -8.702   5.423  67.502  1.00  0.00    -0.107 A  
HETATM    7  C   UNL     1      -7.982   4.538  66.694  1.00  0.00    -0.102 A  
HETATM    8  C   UNL     1      -7.985   3.160  66.964  1.00  0.00    -0.079 A  
HETATM    9  C   UNL     1      -7.354   2.167  66.001  1.00  0.00    -0.065 C  
HETATM   10  C   UNL     1      -8.667   2.702  68.100  1.00  0.00    -0.135 A  
HETATM   11  C   UNL     1      -8.058   2.157  64.642  1.00  0.00    -0.074 C  
HETATM   12  C   UNL     1      -9.390   3.587  68.901  1.00  0.00    -0.236 A  
HETATM   13  C   UNL     1      -5.849   2.389  65.834  1.00  0.00    -0.022 C  
HETATM   14  O   UNL     1      -9.408   2.041  64.724  1.00  0.00    -0.133 OA 
HETATM   15  O   UNL     1      -7.489   2.193  63.561  1.00  0.00    -0.051 OA 
ENDBRANCH   4   5
TORSDOF 1
ENDMDL
MODEL      179
REMARK 921   NORMALIZED FREE ENERGY PREDICTED BY IDOCK:   -1.86 KCAL/MOL
REMARK 922        TOTAL FREE ENERGY PREDICTED BY IDOCK:   -2.29 KCAL/MOL
REMARK 923 INTER-LIGAND FREE ENERGY PREDICTED BY IDOCK:   -1.98 KCAL/MOL
REMARK 924 INTRA-LIGAND FREE ENERGY PREDICTED BY IDOCK:   -0.31 KCAL/MOL
REMARK 927      BINDING AFFINITY PREDICTED BY RF-SCORE:    0.00 PKD
ROOT
HETATM    1  C   UNL     1      -8.587   4.761  64.092  1.00  0.00    -0.137 C  
HETATM    2  C   UNL     1      -9.482   3.817  64.902  1.00  0.00    -0.167 C  
HETATM    3  C   UNL     1      -9.681   2.517  64.120  1.00  0.00    -0.138 C  
HETATM    4  C   UNL     1      -8.905   3.518  66.305  1.00  0.00    -0.131 C  
ENDROOT
BRANCH   4   5
HETATM    5  C   UNL     1      -8.722   4.753  67.161  1.00  0.00    -0.103 A  
HETATM    6  C   UNL     1      -9.825   5.416  67.710  1.00  0.00    -0.174 A  
HETATM    7  C   UNL     1      -9.663   6.623  68.396  1.00  0.00    -0.126 A  
HETATM    8  C   UNL     1      -8.387   7.189  68.553  1.00  0.00    -0.125 A  
HETATM    9  C   UNL     1      -8.209   8.580  69.142  1.00  0.00    -0.119 C  
HETATM   10  C   UNL     1      -7.277   6.484  68.067  1.00  0.00    -0.088 A  
HETATM   11  C   UNL     1      -8.857   9.659  68.273  1.00  0.00    -0.120 C  
HETATM   12  C   UNL     1      -7.444   5.282  67.376  1.00  0.00    -0.084 A  
HETATM   13  C   UNL     1      -8.706   8.671  70.586  1.00  0.00    -0.188 C  
HETATM   14  O   UNL     1      -8.518   9.585  66.960  1.00  0.00    -0.126 OA 
HETATM   15  O   UNL     1      -9.575  10.556  68.691  1.00  0.00    -0.156 OA 
ENDBRANCH   4   5
TORSDOF 1
ENDMDL
MODEL      180
REMARK 921   NORMALIZED FREE ENERGY PREDICTED BY IDOCK:   -1.79 KCAL/MOL
REMARK 922        TOTAL FREE ENERGY PREDICTED BY IDOCK:   -2.22 KCAL/MOL
REMARK 923 INTER-LIGAND FREE ENERGY PREDICTED BY IDOCK:   -2.08 KCAL/MOL
REMARK 924 INTRA-LIGAND FREE ENERGY PREDICTED BY IDOCK:   -0.14 KCAL/MOL
REMARK 927      BINDING AFFINITY PREDICTED BY RF-SCORE:    0.00 PKD
ROOT
HETATM    1  C   UNL     1      -9.973   4.149  66.053  1.00  0.00    -0.193 C  
HETATM    2  C   UNL     1      -8.606   3.524  66.349  1.00  0.00    -0.117 C  
HETATM    3  C   UNL     1      -8.404   2.302  65.449  1.00  0.00    -0.091 C  
HETATM    4  C   UNL     1      -7.445   4.528  66.159  1.00  0.00    -0.085 C  
ENDROOT
BRANCH   4   5
HETATM    5  C   UNL     1      -7.546   5.746  67.051  1.00  0.00    -0.099 A  
HETATM    6  C   UNL     1      -6.994   5.743  68.338  1.00  0.00    -0.068 A  
HETATM    7  C   UNL     1      -7.195   6.822  69.202  1.00  0.00    -0.091 A  
HETATM    8  C   UNL     1      -7.949   7.934  68.794  1.00  0.00    -0.124 A  
HETATM    9  C   UNL     1      -8.323   9.036  69.774  1.00  0.00    -0.129 C  
HETATM   10  C   UNL     1      -8.436   7.967  67.480  1.00  0.00    -0.123 A  
HETATM   11  C   UNL     1      -9.222   8.523  70.900  1.00  0.00    -0.175 C  
HETATM   12  C   UNL     1      -8.240   6.884  66.621  1.00  0.00    -0.115 A  
HETATM   13  C   UNL     1      -7.097   9.756  70.339  1.00  0.00    -0.146 C  
HETATM   14  O   UNL     1     -10.291   7.806  70.466  1.00  0.00    -0.201 OA 
HETATM   15  O   UNL     1      -9.060   8.762  72.087  1.00  0.00    -0.325 OA 
ENDBRANCH   4   5
TORSDOF 1
ENDMDL
MODEL      181
REMARK 921   NORMALIZED FREE ENERGY PREDICTED BY IDOCK:   -1.63 KCAL/MOL
REMARK 922        TOTAL FREE ENERGY PREDICTED BY IDOCK:   -2.04 KCAL/MOL
REMARK 923 INTER-LIGAND FREE ENERGY PREDICTED BY IDOCK:   -1.96 KCAL/MOL
REMARK 924 INTRA-LIGAND FREE ENERGY PREDICTED BY IDOCK:   -0.08 KCAL/MOL
REMARK 927      BINDING AFFINITY PREDICTED BY RF-SCORE:    0.00 PKD
ROOT
HETATM    1  C   UNL     1      -9.038   6.051  67.602  1.00  0.00    -0.109 C  
HETATM    2  C   UNL     1     -10.049   6.646  66.616  1.00  0.00    -0.202 C  
HETATM    3  C   UNL     1     -11.239   5.693  66.477  1.00  0.00     0.212 C  
HETATM    4  C   UNL     1     -10.533   8.051  67.045  1.00  0.00    -0.410 C  
ENDROOT
BRANCH   4   5
HETATM    5  C   UNL     1      -9.418   9.067  67.159  1.00  0.00    -0.196 A  
HETATM    6  C   UNL     1      -8.711   9.227  68.357  1.00  0.00    -0.129 A  
HETATM    7  C   UNL     1      -7.767  10.247  68.496  1.00  0.00    -0.091 A  
HETATM    8  C   UNL     1      -7.505  11.129  67.435  1.00  0.00    -0.109 A  
HETATM    9  C   UNL     1      -6.613  12.346  67.624  1.00  0.00    -0.131 C  
HETATM   10  C   UNL     1      -8.160  10.919  66.214  1.00  0.00    -0.165 A  
HETATM   11  C   UNL     1      -7.197  13.336  68.634  1.00  0.00    -0.106 C  
HETATM   12  C   UNL     1      -9.108   9.903  66.079  1.00  0.00    -0.195 A  
HETATM   13  C   UNL     1      -5.179  11.967  67.997  1.00  0.00    -0.053 C  
HETATM   14  O   UNL     1      -8.496  13.655  68.403  1.00  0.00    -0.161 OA 
HETATM   15  O   UNL     1      -6.569  13.857  69.544  1.00  0.00    -0.115 OA 
ENDBRANCH   4   5
TORSDOF 1
ENDMDL
MODEL      182
REMARK 921   NORMALIZED FREE ENERGY PREDICTED BY IDOCK:   -1.54 KCAL/MOL
REMARK 922        TOTAL FREE ENERGY PREDICTED BY IDOCK:   -1.95 KCAL/MOL
REMARK 923 INTER-LIGAND FREE ENERGY PREDICTED BY IDOCK:   -2.35 KCAL/MOL
REMARK 924 INTRA-LIGAND FREE ENERGY PREDICTED BY IDOCK:    0.40 KCAL/MOL
REMARK 927      BINDING AFFINITY PREDICTED BY RF-SCORE:    0.00 PKD
ROOT
HETATM    1  C   UNL     1      -5.251   9.956  64.807  1.00  0.00    -0.068 C  
HETATM    2  C   UNL     1      -6.333   9.797  63.734  1.00  0.00    -0.118 C  
HETATM    3  C   UNL     1      -5.672   9.458  62.396  1.00  0.00    -0.085 C  
HETATM    4  C   UNL     1      -7.378   8.719  64.105  1.00  0.00    -0.101 C  
ENDROOT
BRANCH   4   5
HETATM    5  C   UNL     1      -8.113   9.007  65.396  1.00  0.00    -0.120 A  
HETATM    6  C   UNL     1      -9.511   9.068  65.429  1.00  0.00    -0.163 A  
HETATM    7  C   UNL     1     -10.180   9.454  66.594  1.00  0.00    -0.319 A  
HETATM    8  C   UNL     1      -9.462   9.782  67.755  1.00  0.00    -0.152 A  
HETATM    9  C   UNL     1     -10.159  10.368  68.973  1.00  0.00    -0.227 C  
HETATM   10  C   UNL     1      -8.067   9.646  67.740  1.00  0.00    -0.113 A  
HETATM   11  C   UNL     1     -10.789  11.730  68.676  1.00  0.00    -0.220 C  
HETATM   12  C   UNL     1      -7.401   9.268  66.573  1.00  0.00    -0.092 A  
HETATM   13  C   UNL     1     -11.189   9.409  69.575  1.00  0.00    -0.059 C  
HETATM   14  O   UNL     1      -9.946  12.604  68.068  1.00  0.00    -0.207 OA 
HETATM   15  O   UNL     1     -11.924  12.058  68.990  1.00  0.00    -0.307 OA 
ENDBRANCH   4   5
TORSDOF 1
ENDMDL
MODEL      183
REMARK 921   NORMALIZED FREE ENERGY PREDICTED BY IDOCK:   -1.50 KCAL/MOL
REMARK 922        TOTAL FREE ENERGY PREDICTED BY IDOCK:   -1.91 KCAL/MOL
REMARK 923 INTER-LIGAND FREE ENERGY PREDICTED BY IDOCK:   -1.63 KCAL/MOL
REMARK 924 INTRA-LIGAND FREE ENERGY PREDICTED BY IDOCK:   -0.28 KCAL/MOL
REMARK 927      BINDING AFFINITY PREDICTED BY RF-SCORE:    0.00 PKD
ROOT
HETATM    1  C   UNL     1     -10.182   7.658  71.277  1.00  0.00    -0.204 C  
HETATM    2  C   UNL     1      -8.902   7.594  72.117  1.00  0.00    -0.161 C  
HETATM    3  C   UNL     1      -9.272   7.354  73.583  1.00  0.00    -0.291 C  
HETATM    4  C   UNL     1      -7.926   6.502  71.623  1.00  0.00    -0.104 C  
ENDROOT
BRANCH   4   5
HETATM    5  C   UNL     1      -7.473   6.695  70.192  1.00  0.00    -0.094 A  
HETATM    6  C   UNL     1      -7.119   7.963  69.716  1.00  0.00    -0.061 A  
HETATM    7  C   UNL     1      -6.820   8.159  68.365  1.00  0.00    -0.068 A  
HETATM    8  C   UNL     1      -6.864   7.086  67.461  1.00  0.00    -0.073 A  
HETATM    9  C   UNL     1      -6.712   7.310  65.964  1.00  0.00    -0.053 C  
HETATM   10  C   UNL     1      -7.146   5.805  67.955  1.00  0.00    -0.071 A  
HETATM   11  C   UNL     1      -7.845   8.165  65.393  1.00  0.00    -0.115 C  
HETATM   12  C   UNL     1      -7.451   5.613  69.304  1.00  0.00    -0.079 A  
HETATM   13  C   UNL     1      -5.347   7.895  65.596  1.00  0.00    -0.029 C  
HETATM   14  O   UNL     1      -9.085   7.743  65.749  1.00  0.00    -0.124 OA 
HETATM   15  O   UNL     1      -7.691   9.114  64.638  1.00  0.00    -0.106 OA 
ENDBRANCH   4   5
TORSDOF 1
ENDMDL
MODEL      184
REMARK 921   NORMALIZED FREE ENERGY PREDICTED BY IDOCK:   -1.41 KCAL/MOL
REMARK 922        TOTAL FREE ENERGY PREDICTED BY IDOCK:   -1.81 KCAL/MOL
REMARK 923 INTER-LIGAND FREE ENERGY PREDICTED BY IDOCK:   -2.02 KCAL/MOL
REMARK 924 INTRA-LIGAND FREE ENERGY PREDICTED BY IDOCK:    0.22 KCAL/MOL
REMARK 927      BINDING AFFINITY PREDICTED BY RF-SCORE:    0.00 PKD
ROOT
HETATM    1  C   UNL     1      -7.465   5.881  73.365  1.00  0.00    -0.094 C  
HETATM    2  C   UNL     1      -8.749   5.097  73.075  1.00  0.00    -0.114 C  
HETATM    3  C   UNL     1      -9.168   4.331  74.333  1.00  0.00    -0.113 C  
HETATM    4  C   UNL     1      -9.901   6.010  72.594  1.00  0.00    -0.180 C  
ENDROOT
BRANCH   4   5
HETATM    5  C   UNL     1      -9.582   6.769  71.324  1.00  0.00    -0.172 A  
HETATM    6  C   UNL     1     -10.246   6.477  70.127  1.00  0.00    -0.226 A  
HETATM    7  C   UNL     1      -9.865   7.093  68.932  1.00  0.00    -0.156 A  
HETATM    8  C   UNL     1      -8.812   8.021  68.911  1.00  0.00    -0.141 A  
HETATM    9  C   UNL     1      -8.270   8.570  67.600  1.00  0.00    -0.118 C  
HETATM   10  C   UNL     1      -8.200   8.367  70.124  1.00  0.00    -0.117 A  
HETATM   11  C   UNL     1      -7.654   7.473  66.729  1.00  0.00    -0.101 C  
HETATM   12  C   UNL     1      -8.578   7.744  71.315  1.00  0.00    -0.127 A  
HETATM   13  C   UNL     1      -9.321   9.362  66.820  1.00  0.00    -0.202 C  
HETATM   14  O   UNL     1      -6.768   6.682  67.386  1.00  0.00    -0.061 OA 
HETATM   15  O   UNL     1      -7.872   7.325  65.535  1.00  0.00    -0.101 OA 
ENDBRANCH   4   5
TORSDOF 1
ENDMDL
MODEL      185
REMARK 921   NORMALIZED FREE ENERGY PREDICTED BY IDOCK:   -0.75 KCAL/MOL
REMARK 922        TOTAL FREE ENERGY PREDICTED BY IDOCK:   -1.11 KCAL/MOL
REMARK 923 INTER-LIGAND FREE ENERGY PREDICTED BY IDOCK:   -1.65 KCAL/MOL
REMARK 924 INTRA-LIGAND FREE ENERGY PREDICTED BY IDOCK:    0.54 KCAL/MOL
REMARK 927      BINDING AFFINITY PREDICTED BY RF-SCORE:    0.00 PKD
ROOT
HETATM    1  C   UNL     1      -7.715   4.939  68.106  1.00  0.00    -0.082 C  
HETATM    2  C   UNL     1      -6.308   5.545  68.126  1.00  0.00    -0.042 C  
HETATM    3  C   UNL     1      -5.282   4.432  68.352  1.00  0.00    -0.007 C  
HETATM    4  C   UNL     1      -5.982   6.322  66.829  1.00  0.00    -0.025 C  
ENDROOT
BRANCH   4   5
HETATM    5  C   UNL     1      -6.926   7.473  66.558  1.00  0.00    -0.070 A  
HETATM    6  C   UNL     1      -6.543   8.539  65.736  1.00  0.00    -0.056 A  
HETATM    7  C   UNL     1      -7.368   9.657  65.587  1.00  0.00    -0.101 A  
HETATM    8  C   UNL     1      -8.600   9.729  66.255  1.00  0.00    -0.137 A  
HETATM    9  C   UNL     1      -9.429  11.004  66.244  1.00  0.00    -0.219 C  
HETATM   10  C   UNL     1      -9.014   8.628  67.018  1.00  0.00    -0.152 A  
HETATM   11  C   UNL     1      -8.706  12.166  66.927  1.00  0.00    -0.194 C  
HETATM   12  C   UNL     1      -8.185   7.515  67.170  1.00  0.00    -0.114 A  
HETATM   13  C   UNL     1      -9.882  11.395  64.836  1.00  0.00    -0.301 C  
HETATM   14  O   UNL     1      -8.209  11.860  68.153  1.00  0.00    -0.142 OA 
HETATM   15  O   UNL     1      -8.610  13.295  66.469  1.00  0.00    -0.011 OA 
ENDBRANCH   4   5
TORSDOF 1
ENDMDL
MODEL      186
REMARK 921   NORMALIZED FREE ENERGY PREDICTED BY IDOCK:   -0.74 KCAL/MOL
REMARK 922        TOTAL FREE ENERGY PREDICTED BY IDOCK:   -1.10 KCAL/MOL
REMARK 923 INTER-LIGAND FREE ENERGY PREDICTED BY IDOCK:   -1.25 KCAL/MOL
REMARK 924 INTRA-LIGAND FREE ENERGY PREDICTED BY IDOCK:    0.15 KCAL/MOL
REMARK 927      BINDING AFFINITY PREDICTED BY RF-SCORE:    0.00 PKD
ROOT
HETATM    1  C   UNL     1     -10.758  17.923  70.555  1.00  0.00     1.768 C  
HETATM    2  C   UNL     1     -10.664  16.570  69.841  1.00  0.00    -0.269 C  
HETATM    3  C   UNL     1     -11.795  15.662  70.329  1.00  0.00    -0.386 C  
HETATM    4  C   UNL     1     -10.716  16.712  68.302  1.00  0.00    -0.351 C  
ENDROOT
BRANCH   4   5
HETATM    5  C   UNL     1      -9.598  17.559  67.734  1.00  0.00    -0.269 A  
HETATM    6  C   UNL     1      -9.628  17.990  66.402  1.00  0.00    -0.301 A  
HETATM    7  C   UNL     1      -8.539  18.667  65.847  1.00  0.00     0.154 A  
HETATM    8  C   UNL     1      -7.396  18.934  66.618  1.00  0.00    -0.239 A  
HETATM    9  C   UNL     1      -6.138  19.512  65.987  1.00  0.00    -0.194 C  
HETATM   10  C   UNL     1      -7.400  18.568  67.971  1.00  0.00    -0.261 A  
HETATM   11  C   UNL     1      -5.527  18.567  64.951  1.00  0.00    -0.173 C  
HETATM   12  C   UNL     1      -8.487  17.885  68.520  1.00  0.00    -0.303 A  
HETATM   13  C   UNL     1      -6.370  20.902  65.390  1.00  0.00    -0.226 C  
HETATM   14  O   UNL     1      -5.367  17.294  65.395  1.00  0.00    -0.009 OA 
HETATM   15  O   UNL     1      -5.153  18.901  63.836  1.00  0.00    -0.192 OA 
ENDBRANCH   4   5
TORSDOF 1
ENDMDL
MODEL      187
REMARK 921   NORMALIZED FREE ENERGY PREDICTED BY IDOCK:   -0.44 KCAL/MOL
REMARK 922        TOTAL FREE ENERGY PREDICTED BY IDOCK:   -0.78 KCAL/MOL
REMARK 923 INTER-LIGAND FREE ENERGY PREDICTED BY IDOCK:   -1.32 KCAL/MOL
REMARK 924 INTRA-LIGAND FREE ENERGY PREDICTED BY IDOCK:    0.54 KCAL/MOL
REMARK 927      BINDING AFFINITY PREDICTED BY RF-SCORE:    0.00 PKD
ROOT
HETATM    1  C   UNL     1      -7.614   4.966  68.182  1.00  0.00    -0.082 C  
HETATM    2  C   UNL     1      -6.090   5.089  68.276  1.00  0.00    -0.030 C  
HETATM    3  C   UNL     1      -5.454   3.735  67.954  1.00  0.00    -0.016 C  
HETATM    4  C   UNL     1      -5.528   6.183  67.339  1.00  0.00    -0.005 C  
ENDROOT
BRANCH   4   5
HETATM    5  C   UNL     1      -6.074   7.565  67.625  1.00  0.00    -0.047 A  
HETATM    6  C   UNL     1      -5.388   8.711  67.205  1.00  0.00    -0.037 A  
HETATM    7  C   UNL     1      -5.830   9.983  67.576  1.00  0.00    -0.049 A  
HETATM    8  C   UNL     1      -6.975  10.137  68.374  1.00  0.00    -0.066 A  
HETATM    9  C   UNL     1      -7.372  11.496  68.930  1.00  0.00    -0.116 C  
HETATM   10  C   UNL     1      -7.702   8.992  68.729  1.00  0.00    -0.095 A  
HETATM   11  C   UNL     1      -6.321  12.052  69.892  1.00  0.00    -0.089 C  
HETATM   12  C   UNL     1      -7.254   7.722  68.363  1.00  0.00    -0.093 A  
HETATM   13  C   UNL     1      -7.693  12.507  67.828  1.00  0.00    -0.142 C  
HETATM   14  O   UNL     1      -5.933  11.172  70.851  1.00  0.00    -0.339 OA 
HETATM   15  O   UNL     1      -5.886  13.194  69.867  1.00  0.00    -0.113 OA 
ENDBRANCH   4   5
TORSDOF 1
ENDMDL
MODEL      188
REMARK 921   NORMALIZED FREE ENERGY PREDICTED BY IDOCK:    0.57 KCAL/MOL
REMARK 922        TOTAL FREE ENERGY PREDICTED BY IDOCK:    0.29 KCAL/MOL
REMARK 923 INTER-LIGAND FREE ENERGY PREDICTED BY IDOCK:   -0.03 KCAL/MOL
REMARK 924 INTRA-LIGAND FREE ENERGY PREDICTED BY IDOCK:    0.32 KCAL/MOL
REMARK 927      BINDING AFFINITY PREDICTED BY RF-SCORE:    0.00 PKD
ROOT
HETATM    1  C   UNL     1      -7.511   5.923  73.383  1.00  0.00    -0.094 C  
HETATM    2  C   UNL     1      -8.943   5.445  73.119  1.00  0.00    -0.118 C  
HETATM    3  C   UNL     1      -9.351   4.449  74.207  1.00  0.00    -0.121 C  
HETATM    4  C   UNL     1      -9.952   6.615  73.055  1.00  0.00    -0.191 C  
ENDROOT
BRANCH   4   5
HETATM    5  C   UNL     1      -9.644   7.623  71.969  1.00  0.00    -0.200 A  
HETATM    6  C   UNL     1      -8.534   7.460  71.132  1.00  0.00    -0.118 A  
HETATM    7  C   UNL     1      -8.183   8.453  70.212  1.00  0.00    -0.121 A  
HETATM    8  C   UNL     1      -8.942   9.629  70.108  1.00  0.00    -0.273 A  
HETATM    9  C   UNL     1      -8.479  10.790  69.241  1.00  0.00    -0.058 C  
HETATM   10  C   UNL     1     -10.096   9.755  70.894  1.00  0.00    -0.135 A  
HETATM   11  C   UNL     1      -7.160  11.386  69.735  1.00  0.00     0.111 C  
HETATM   12  C   UNL     1     -10.439   8.765  71.816  1.00  0.00    -0.417 A  
HETATM   13  C   UNL     1      -8.388  10.415  67.760  1.00  0.00    -0.114 C  
HETATM   14  O   UNL     1      -7.148  11.670  71.062  1.00  0.00     1.871 OA 
HETATM   15  O   UNL     1      -6.202  11.649  69.022  1.00  0.00    -0.056 OA 
ENDBRANCH   4   5
TORSDOF 1
ENDMDL
MODEL      189
REMARK 921   NORMALIZED FREE ENERGY PREDICTED BY IDOCK:    1.75 KCAL/MOL
REMARK 922        TOTAL FREE ENERGY PREDICTED BY IDOCK:    1.53 KCAL/MOL
REMARK 923 INTER-LIGAND FREE ENERGY PREDICTED BY IDOCK:    1.38 KCAL/MOL
REMARK 924 INTRA-LIGAND FREE ENERGY PREDICTED BY IDOCK:    0.15 KCAL/MOL
REMARK 927      BINDING AFFINITY PREDICTED BY RF-SCORE:    0.00 PKD
ROOT
HETATM    1  C   UNL     1      -8.524  20.639  64.981  1.00  0.00     1.377 C  
HETATM    2  C   UNL     1      -7.048  20.286  64.769  1.00  0.00     0.083 C  
HETATM    3  C   UNL     1      -6.387  21.372  63.915  1.00  0.00    -0.119 C  
HETATM    4  C   UNL     1      -6.285  20.114  66.103  1.00  0.00    -0.218 C  
ENDROOT
BRANCH   4   5
HETATM    5  C   UNL     1      -6.849  19.023  66.987  1.00  0.00    -0.206 A  
HETATM    6  C   UNL     1      -6.443  18.896  68.320  1.00  0.00    -0.242 A  
HETATM    7  C   UNL     1      -6.872  17.816  69.096  1.00  0.00    -0.227 A  
HETATM    8  C   UNL     1      -7.724  16.840  68.554  1.00  0.00    -0.223 A  
HETATM    9  C   UNL     1      -8.061  15.573  69.325  1.00  0.00    -0.248 C  
HETATM   10  C   UNL     1      -8.188  17.011  67.243  1.00  0.00    -0.205 A  
HETATM   11  C   UNL     1      -6.824  14.710  69.581  1.00  0.00    -0.163 C  
HETATM   12  C   UNL     1      -7.752  18.087  66.467  1.00  0.00    -0.283 A  
HETATM   13  C   UNL     1      -8.806  15.862  70.629  1.00  0.00     2.250 C  
HETATM   14  O   UNL     1      -6.074  14.481  68.473  1.00  0.00    -0.081 OA 
HETATM   15  O   UNL     1      -6.533  14.209  70.658  1.00  0.00    -0.108 OA 
ENDBRANCH   4   5
TORSDOF 1
ENDMDL
MODEL      190
REMARK 921   NORMALIZED FREE ENERGY PREDICTED BY IDOCK:    8.68 KCAL/MOL
REMARK 922        TOTAL FREE ENERGY PREDICTED BY IDOCK:    8.87 KCAL/MOL
REMARK 923 INTER-LIGAND FREE ENERGY PREDICTED BY IDOCK:    8.88 KCAL/MOL
REMARK 924 INTRA-LIGAND FREE ENERGY PREDICTED BY IDOCK:   -0.01 KCAL/MOL
REMARK 927      BINDING AFFINITY PREDICTED BY RF-SCORE:    0.00 PKD
ROOT
HETATM    1  C   UNL     1     -11.761   5.370  68.196  1.00  0.00     3.119 C  
HETATM    2  C   UNL     1     -11.439   6.837  68.500  1.00  0.00     0.097 C  
HETATM    3  C   UNL     1     -12.734   7.654  68.476  1.00  0.00     6.649 C  
HETATM    4  C   UNL     1     -10.718   7.014  69.857  1.00  0.00    -0.265 C  
ENDROOT
BRANCH   4   5
HETATM    5  C   UNL     1      -9.402   6.273  69.944  1.00  0.00    -0.158 A  
HETATM    6  C   UNL     1      -9.362   4.914  70.277  1.00  0.00    -0.216 A  
HETATM    7  C   UNL     1      -8.141   4.264  70.476  1.00  0.00    -0.066 A  
HETATM    8  C   UNL     1      -6.930   4.962  70.340  1.00  0.00    -0.045 A  
HETATM    9  C   UNL     1      -5.604   4.321  70.720  1.00  0.00    -0.012 C  
HETATM   10  C   UNL     1      -6.972   6.303  69.932  1.00  0.00    -0.066 A  
HETATM   11  C   UNL     1      -5.534   3.986  72.211  1.00  0.00     0.000 C  
HETATM   12  C   UNL     1      -8.193   6.951  69.741  1.00  0.00    -0.131 A  
HETATM   13  C   UNL     1      -5.285   3.090  69.868  1.00  0.00    -0.008 C  
HETATM   14  O   UNL     1      -5.883   5.017  73.022  1.00  0.00    -0.020 OA 
HETATM   15  O   UNL     1      -5.150   2.920  72.670  1.00  0.00     0.000 OA 
ENDBRANCH   4   5
TORSDOF 1
ENDMDL
MODEL      191
REMARK 921   NORMALIZED FREE ENERGY PREDICTED BY IDOCK:   19.35 KCAL/MOL
REMARK 922        TOTAL FREE ENERGY PREDICTED BY IDOCK:   20.17 KCAL/MOL
REMARK 923 INTER-LIGAND FREE ENERGY PREDICTED BY IDOCK:   20.26 KCAL/MOL
REMARK 924 INTRA-LIGAND FREE ENERGY PREDICTED BY IDOCK:   -0.09 KCAL/MOL
REMARK 927      BINDING AFFINITY PREDICTED BY RF-SCORE:    0.00 PKD
ROOT
HETATM    1  C   UNL     1     -11.906  19.666  71.677  1.00  0.00    11.827 C  
HETATM    2  C   UNL     1     -10.963  18.556  72.152  1.00  0.00     3.437 C  
HETATM    3  C   UNL     1     -11.670  17.714  73.217  1.00  0.00     1.216 C  
HETATM    4  C   UNL     1     -10.479  17.657  70.990  1.00  0.00     2.413 C  
ENDROOT
BRANCH   4   5
HETATM    5  C   UNL     1      -9.726  18.409  69.915  1.00  0.00     0.910 A  
HETATM    6  C   UNL     1      -9.727  17.961  68.589  1.00  0.00    -0.355 A  
HETATM    7  C   UNL     1      -8.933  18.587  67.624  1.00  0.00    -0.283 A  
HETATM    8  C   UNL     1      -8.123  19.682  67.966  1.00  0.00    -0.344 A  
HETATM    9  C   UNL     1      -7.127  20.264  66.976  1.00  0.00    -0.309 C  
HETATM   10  C   UNL     1      -8.182  20.175  69.277  1.00  0.00     0.424 A  
HETATM   11  C   UNL     1      -6.039  19.258  66.596  1.00  0.00    -0.165 C  
HETATM   12  C   UNL     1      -8.971  19.543  70.240  1.00  0.00     1.382 A  
HETATM   13  C   UNL     1      -7.806  20.832  65.728  1.00  0.00     0.428 C  
HETATM   14  O   UNL     1      -5.449  18.658  67.661  1.00  0.00    -0.161 OA 
HETATM   15  O   UNL     1      -5.669  19.028  65.454  1.00  0.00    -0.163 OA 
ENDBRANCH   4   5
TORSDOF 1
ENDMDL
MODEL      192
REMARK 921   NORMALIZED FREE ENERGY PREDICTED BY IDOCK:   22.15 KCAL/MOL
REMARK 922        TOTAL FREE ENERGY PREDICTED BY IDOCK:   23.13 KCAL/MOL
REMARK 923 INTER-LIGAND FREE ENERGY PREDICTED BY IDOCK:   23.19 KCAL/MOL
REMARK 924 INTRA-LIGAND FREE ENERGY PREDICTED BY IDOCK:   -0.06 KCAL/MOL
REMARK 927      BINDING AFFINITY PREDICTED BY RF-SCORE:    0.00 PKD
ROOT
HETATM    1  C   UNL     1      -8.162   5.731  72.859  1.00  0.00    -0.119 C  
HETATM    2  C   UNL     1      -8.006   4.617  71.818  1.00  0.00    -0.099 C  
HETATM    3  C   UNL     1      -6.825   3.725  72.207  1.00  0.00    -0.037 C  
HETATM    4  C   UNL     1      -9.291   3.771  71.663  1.00  0.00    -0.198 C  
ENDROOT
BRANCH   4   5
HETATM    5  C   UNL     1     -10.498   4.576  71.233  1.00  0.00    -0.009 A  
HETATM    6  C   UNL     1     -10.348   5.775  70.528  1.00  0.00    -0.312 A  
HETATM    7  C   UNL     1     -11.457   6.576  70.240  1.00  0.00    -0.474 A  
HETATM    8  C   UNL     1     -12.743   6.188  70.647  1.00  0.00     1.349 A  
HETATM    9  C   UNL     1     -13.933   7.124  70.495  1.00  0.00     1.247 C  
HETATM   10  C   UNL     1     -12.899   4.950  71.285  1.00  0.00     6.013 A  
HETATM   11  C   UNL     1     -13.777   8.393  71.336  1.00  0.00    -0.235 C  
HETATM   12  C   UNL     1     -11.789   4.156  71.578  1.00  0.00     3.835 A  
HETATM   13  C   UNL     1     -14.223   7.470  69.034  1.00  0.00    12.352 C  
HETATM   14  O   UNL     1     -13.441   8.157  72.630  1.00  0.00    -0.024 OA 
HETATM   15  O   UNL     1     -13.981   9.528  70.932  1.00  0.00    -0.105 OA 
ENDBRANCH   4   5
TORSDOF 1
ENDMDL
MODEL      193
REMARK 921   NORMALIZED FREE ENERGY PREDICTED BY IDOCK:   36.50 KCAL/MOL
REMARK 922        TOTAL FREE ENERGY PREDICTED BY IDOCK:   38.31 KCAL/MOL
REMARK 923 INTER-LIGAND FREE ENERGY PREDICTED BY IDOCK:   38.61 KCAL/MOL
REMARK 924 INTRA-LIGAND FREE ENERGY PREDICTED BY IDOCK:   -0.30 KCAL/MOL
REMARK 927      BINDING AFFINITY PREDICTED BY RF-SCORE:    0.00 PKD
ROOT
HETATM    1  C   UNL     1     -12.289   5.215  67.325  1.00  0.00     8.390 C  
HETATM    2  C   UNL     1     -12.576   6.711  67.489  1.00  0.00     6.975 C  
HETATM    3  C   UNL     1     -14.081   6.955  67.354  1.00  0.00    22.669 C  
HETATM    4  C   UNL     1     -12.060   7.266  68.837  1.00  0.00     1.798 C  
ENDROOT
BRANCH   4   5
HETATM    5  C   UNL     1     -10.567   7.106  69.027  1.00  0.00    -0.225 A  
HETATM    6  C   UNL     1     -10.055   6.205  69.968  1.00  0.00    -0.228 A  
HETATM    7  C   UNL     1      -8.683   6.148  70.226  1.00  0.00    -0.145 A  
HETATM    8  C   UNL     1      -7.791   6.990  69.543  1.00  0.00    -0.119 A  
HETATM    9  C   UNL     1      -6.323   7.065  69.931  1.00  0.00    -0.038 C  
HETATM   10  C   UNL     1      -8.300   7.837  68.548  1.00  0.00    -0.129 A  
HETATM   11  C   UNL     1      -6.131   7.600  71.352  1.00  0.00    -0.035 C  
HETATM   12  C   UNL     1      -9.672   7.897  68.297  1.00  0.00    -0.172 A  
HETATM   13  C   UNL     1      -5.600   5.730  69.748  1.00  0.00    -0.012 C  
HETATM   14  O   UNL     1      -6.812   8.746  71.605  1.00  0.00    -0.084 OA 
HETATM   15  O   UNL     1      -5.398   7.100  72.193  1.00  0.00    -0.036 OA 
ENDBRANCH   4   5
TORSDOF 1
ENDMDL
