MODEL        1
REMARK 921   NORMALIZED FREE ENERGY PREDICTED BY IDOCK:   -7.69 KCAL/MOL
REMARK 922        TOTAL FREE ENERGY PREDICTED BY IDOCK:   -9.14 KCAL/MOL
REMARK 923 INTER-LIGAND FREE ENERGY PREDICTED BY IDOCK:   -8.59 KCAL/MOL
REMARK 924 INTRA-LIGAND FREE ENERGY PREDICTED BY IDOCK:   -0.55 KCAL/MOL
REMARK 927      BINDING AFFINITY PREDICTED BY RF-SCORE:    0.00 PKD
ROOT
HETATM    1  C   UNL     1     -12.167  14.358  64.941  1.00  0.00    -0.440 C  
HETATM    2  C   UNL     1     -11.824  13.827  66.334  1.00  0.00    -0.434 A  
HETATM    3  C   UNL     1     -12.144  13.325  63.811  1.00  0.00    -0.546 C  
HETATM    4  C   UNL     1     -11.274  15.516  64.497  1.00  0.00    -0.315 C  
HETATM    5  O   UNL     1      -9.962  15.376  64.803  1.00  0.00    -0.222 OA 
HETATM    6  O   UNL     1     -11.686  16.478  63.863  1.00  0.00    -1.148 OA 
HETATM    7  C   UNL     1     -11.720  14.734  67.407  1.00  0.00    -0.371 A  
HETATM    8  C   UNL     1     -11.295  14.309  68.675  1.00  0.00    -0.302 A  
HETATM    9  C   UNL     1     -11.086  12.951  68.913  1.00  0.00    -0.301 A  
HETATM   10  C   UNL     1     -11.598  12.467  66.597  1.00  0.00    -0.447 A  
HETATM   11  C   UNL     1     -11.247  12.031  67.879  1.00  0.00    -0.323 A  
ENDROOT
BRANCH   8  12
HETATM   12  C   UNL     1     -11.038  15.269  69.782  1.00  0.00    -0.282 C  
HETATM   13  O   UNL     1     -10.008  15.939  69.751  1.00  0.00    -0.267 OA 
BRANCH  12  14
HETATM   14  C   UNL     1     -12.012  15.455  70.898  1.00  0.00    -0.406 A  
HETATM   15  C   UNL     1     -13.377  15.171  70.754  1.00  0.00    -0.389 A  
HETATM   16  C   UNL     1     -14.250  15.333  71.832  1.00  0.00    -0.681 A  
HETATM   17  C   UNL     1     -13.773  15.816  73.049  1.00  0.00    -0.583 A  
HETATM   18  C   UNL     1     -12.425  16.145  73.188  1.00  0.00    -0.622 A  
HETATM   19  C   UNL     1     -11.547  15.966  72.116  1.00  0.00    -0.515 A  
ENDBRANCH  12  14
ENDBRANCH   8  12
TORSDOF 2
ENDMDL
MODEL        2
REMARK 921   NORMALIZED FREE ENERGY PREDICTED BY IDOCK:   -7.62 KCAL/MOL
REMARK 922        TOTAL FREE ENERGY PREDICTED BY IDOCK:   -9.05 KCAL/MOL
REMARK 923 INTER-LIGAND FREE ENERGY PREDICTED BY IDOCK:   -8.53 KCAL/MOL
REMARK 924 INTRA-LIGAND FREE ENERGY PREDICTED BY IDOCK:   -0.52 KCAL/MOL
REMARK 927      BINDING AFFINITY PREDICTED BY RF-SCORE:    0.00 PKD
ROOT
HETATM    1  C   UNL     1     -12.354  14.335  64.979  1.00  0.00    -0.434 C  
HETATM    2  C   UNL     1     -12.038  13.775  66.367  1.00  0.00    -0.483 A  
HETATM    3  C   UNL     1     -12.405  13.308  63.843  1.00  0.00    -0.422 C  
HETATM    4  C   UNL     1     -11.390  15.434  64.535  1.00  0.00    -0.313 C  
HETATM    5  O   UNL     1     -10.088  15.208  64.831  1.00  0.00    -0.300 OA 
HETATM    6  O   UNL     1     -11.743  16.424  63.908  1.00  0.00    -1.085 OA 
HETATM    7  C   UNL     1     -11.869  14.668  67.443  1.00  0.00    -0.374 A  
HETATM    8  C   UNL     1     -11.465  14.210  68.706  1.00  0.00    -0.333 A  
HETATM    9  C   UNL     1     -11.344  12.839  68.937  1.00  0.00    -0.344 A  
HETATM   10  C   UNL     1     -11.899  12.402  66.622  1.00  0.00    -0.394 A  
HETATM   11  C   UNL     1     -11.569  11.938  67.899  1.00  0.00    -0.393 A  
ENDROOT
BRANCH   8  12
HETATM   12  C   UNL     1     -11.139  15.145  69.817  1.00  0.00    -0.278 C  
HETATM   13  O   UNL     1     -10.087  15.778  69.762  1.00  0.00    -0.275 OA 
BRANCH  12  14
HETATM   14  C   UNL     1     -12.073  15.352  70.963  1.00  0.00    -0.417 A  
HETATM   15  C   UNL     1     -11.625  15.753  72.229  1.00  0.00    -0.522 A  
HETATM   16  C   UNL     1     -12.535  15.962  73.268  1.00  0.00    -0.636 A  
HETATM   17  C   UNL     1     -13.894  15.735  73.060  1.00  0.00    -0.499 A  
HETATM   18  C   UNL     1     -14.344  15.291  71.817  1.00  0.00    -0.678 A  
HETATM   19  C   UNL     1     -13.437  15.099  70.771  1.00  0.00    -0.345 A  
ENDBRANCH  12  14
ENDBRANCH   8  12
TORSDOF 2
ENDMDL
MODEL        3
REMARK 921   NORMALIZED FREE ENERGY PREDICTED BY IDOCK:   -6.90 KCAL/MOL
REMARK 922        TOTAL FREE ENERGY PREDICTED BY IDOCK:   -8.25 KCAL/MOL
REMARK 923 INTER-LIGAND FREE ENERGY PREDICTED BY IDOCK:   -7.64 KCAL/MOL
REMARK 924 INTRA-LIGAND FREE ENERGY PREDICTED BY IDOCK:   -0.61 KCAL/MOL
REMARK 927      BINDING AFFINITY PREDICTED BY RF-SCORE:    0.00 PKD
ROOT
HETATM    1  C   UNL     1     -10.776  10.571  69.126  1.00  0.00    -0.266 C  
HETATM    2  C   UNL     1     -11.149  11.846  68.369  1.00  0.00    -0.292 A  
HETATM    3  C   UNL     1     -10.893   9.267  68.331  1.00  0.00    -0.125 C  
HETATM    4  C   UNL     1     -11.576  10.374  70.413  1.00  0.00    -0.337 C  
HETATM    5  O   UNL     1     -12.893  10.680  70.320  1.00  0.00    -0.302 OA 
HETATM    6  O   UNL     1     -11.093   9.923  71.442  1.00  0.00    -0.325 OA 
HETATM    7  C   UNL     1     -11.168  13.073  69.061  1.00  0.00    -0.316 A  
HETATM    8  C   UNL     1     -11.616  14.248  68.438  1.00  0.00    -0.354 A  
HETATM    9  C   UNL     1     -11.932  14.232  67.080  1.00  0.00    -0.463 A  
HETATM   10  C   UNL     1     -11.482  11.854  67.005  1.00  0.00    -0.384 A  
HETATM   11  C   UNL     1     -11.856  13.039  66.363  1.00  0.00    -0.465 A  
ENDROOT
BRANCH   8  12
HETATM   12  C   UNL     1     -11.784  15.522  69.187  1.00  0.00    -0.365 C  
HETATM   13  O   UNL     1     -11.473  16.574  68.634  1.00  0.00    -0.313 OA 
BRANCH  12  14
HETATM   14  C   UNL     1     -12.349  15.549  70.569  1.00  0.00    -0.461 A  
HETATM   15  C   UNL     1     -13.659  15.136  70.849  1.00  0.00    -0.397 A  
HETATM   16  C   UNL     1     -14.140  15.151  72.160  1.00  0.00    -0.654 A  
HETATM   17  C   UNL     1     -13.329  15.614  73.194  1.00  0.00    -0.660 A  
HETATM   18  C   UNL     1     -12.040  16.070  72.919  1.00  0.00    -0.626 A  
HETATM   19  C   UNL     1     -11.551  16.039  71.611  1.00  0.00    -0.538 A  
ENDBRANCH  12  14
ENDBRANCH   8  12
TORSDOF 2
ENDMDL
MODEL        4
REMARK 921   NORMALIZED FREE ENERGY PREDICTED BY IDOCK:   -6.83 KCAL/MOL
REMARK 922        TOTAL FREE ENERGY PREDICTED BY IDOCK:   -8.18 KCAL/MOL
REMARK 923 INTER-LIGAND FREE ENERGY PREDICTED BY IDOCK:   -7.72 KCAL/MOL
REMARK 924 INTRA-LIGAND FREE ENERGY PREDICTED BY IDOCK:   -0.46 KCAL/MOL
REMARK 927      BINDING AFFINITY PREDICTED BY RF-SCORE:    0.00 PKD
ROOT
HETATM    1  C   UNL     1     -11.715  12.266  65.521  1.00  0.00    -0.433 C  
HETATM    2  C   UNL     1     -11.142  11.672  66.809  1.00  0.00    -0.366 A  
HETATM    3  C   UNL     1     -10.789  12.229  64.302  1.00  0.00    -0.392 C  
HETATM    4  C   UNL     1     -12.182  13.712  65.676  1.00  0.00    -0.454 C  
HETATM    5  O   UNL     1     -11.365  14.502  66.414  1.00  0.00    -0.335 OA 
HETATM    6  O   UNL     1     -13.186  14.156  65.135  1.00  0.00    -0.743 OA 
HETATM    7  C   UNL     1     -11.892  11.764  67.999  1.00  0.00    -0.304 A  
HETATM    8  C   UNL     1     -11.358  11.339  69.225  1.00  0.00    -0.354 A  
HETATM    9  C   UNL     1     -10.115  10.705  69.254  1.00  0.00    -0.227 A  
HETATM   10  C   UNL     1      -9.890  11.041  66.867  1.00  0.00    -0.222 A  
HETATM   11  C   UNL     1      -9.388  10.548  68.075  1.00  0.00    -0.150 A  
ENDROOT
BRANCH   8  12
HETATM   12  C   UNL     1     -12.069  11.558  70.513  1.00  0.00    -0.378 C  
HETATM   13  O   UNL     1     -12.281  10.589  71.239  1.00  0.00    -0.357 OA 
BRANCH  12  14
HETATM   14  C   UNL     1     -12.493  12.921  70.950  1.00  0.00    -0.383 A  
HETATM   15  C   UNL     1     -11.945  14.088  70.401  1.00  0.00    -0.398 A  
HETATM   16  C   UNL     1     -12.390  15.343  70.819  1.00  0.00    -0.447 A  
HETATM   17  C   UNL     1     -13.359  15.443  71.815  1.00  0.00    -0.567 A  
HETATM   18  C   UNL     1     -13.878  14.288  72.401  1.00  0.00    -0.619 A  
HETATM   19  C   UNL     1     -13.447  13.031  71.971  1.00  0.00    -0.584 A  
ENDBRANCH  12  14
ENDBRANCH   8  12
TORSDOF 2
ENDMDL
MODEL        5
REMARK 921   NORMALIZED FREE ENERGY PREDICTED BY IDOCK:   -6.74 KCAL/MOL
REMARK 922        TOTAL FREE ENERGY PREDICTED BY IDOCK:   -8.07 KCAL/MOL
REMARK 923 INTER-LIGAND FREE ENERGY PREDICTED BY IDOCK:   -7.56 KCAL/MOL
REMARK 924 INTRA-LIGAND FREE ENERGY PREDICTED BY IDOCK:   -0.51 KCAL/MOL
REMARK 927      BINDING AFFINITY PREDICTED BY RF-SCORE:    0.00 PKD
ROOT
HETATM    1  C   UNL     1     -11.281  11.724  65.139  1.00  0.00    -0.311 C  
HETATM    2  C   UNL     1     -10.623  12.463  66.305  1.00  0.00    -0.277 A  
HETATM    3  C   UNL     1     -10.324  11.017  64.174  1.00  0.00    -0.434 C  
HETATM    4  C   UNL     1     -12.185  12.616  64.289  1.00  0.00    -0.445 C  
HETATM    5  O   UNL     1     -11.697  13.855  64.042  1.00  0.00    -0.370 OA 
HETATM    6  O   UNL     1     -13.245  12.237  63.811  1.00  0.00    -0.771 OA 
HETATM    7  C   UNL     1     -11.428  13.224  67.175  1.00  0.00    -0.380 A  
HETATM    8  C   UNL     1     -10.856  14.011  68.186  1.00  0.00    -0.260 A  
HETATM    9  C   UNL     1      -9.481  13.948  68.416  1.00  0.00    -0.211 A  
HETATM   10  C   UNL     1      -9.242  12.425  66.550  1.00  0.00    -0.215 A  
HETATM   11  C   UNL     1      -8.678  13.150  67.604  1.00  0.00    -0.192 A  
ENDROOT
BRANCH   8  12
HETATM   12  C   UNL     1     -11.670  14.934  69.022  1.00  0.00    -0.319 C  
HETATM   13  O   UNL     1     -11.772  16.108  68.671  1.00  0.00    -0.362 OA 
BRANCH  12  14
HETATM   14  C   UNL     1     -12.385  14.459  70.243  1.00  0.00    -0.410 A  
HETATM   15  C   UNL     1     -13.135  15.321  71.055  1.00  0.00    -0.544 A  
HETATM   16  C   UNL     1     -13.812  14.830  72.173  1.00  0.00    -0.578 A  
HETATM   17  C   UNL     1     -13.713  13.482  72.510  1.00  0.00    -0.664 A  
HETATM   18  C   UNL     1     -12.933  12.624  71.735  1.00  0.00    -0.417 A  
HETATM   19  C   UNL     1     -12.270  13.111  70.606  1.00  0.00    -0.402 A  
ENDBRANCH  12  14
ENDBRANCH   8  12
TORSDOF 2
ENDMDL
MODEL        6
REMARK 921   NORMALIZED FREE ENERGY PREDICTED BY IDOCK:   -6.70 KCAL/MOL
REMARK 922        TOTAL FREE ENERGY PREDICTED BY IDOCK:   -8.03 KCAL/MOL
REMARK 923 INTER-LIGAND FREE ENERGY PREDICTED BY IDOCK:   -7.47 KCAL/MOL
REMARK 924 INTRA-LIGAND FREE ENERGY PREDICTED BY IDOCK:   -0.56 KCAL/MOL
REMARK 927      BINDING AFFINITY PREDICTED BY RF-SCORE:    0.00 PKD
ROOT
HETATM    1  C   UNL     1     -10.617  18.322  67.352  1.00  0.00    -0.425 C  
HETATM    2  C   UNL     1     -10.838  16.810  67.295  1.00  0.00    -0.137 A  
HETATM    3  C   UNL     1     -10.037  18.958  66.085  1.00  0.00    -0.438 C  
HETATM    4  C   UNL     1      -9.725  18.761  68.512  1.00  0.00    -0.380 C  
HETATM    5  O   UNL     1      -8.651  17.968  68.740  1.00  0.00    -0.283 OA 
HETATM    6  O   UNL     1      -9.920  19.781  69.160  1.00  0.00    -0.428 OA 
HETATM    7  C   UNL     1     -11.269  16.136  68.456  1.00  0.00    -0.365 A  
HETATM    8  C   UNL     1     -11.372  14.738  68.483  1.00  0.00    -0.309 A  
HETATM    9  C   UNL     1     -11.164  14.007  67.313  1.00  0.00    -0.328 A  
HETATM   10  C   UNL     1     -10.624  16.050  66.134  1.00  0.00    -0.302 A  
HETATM   11  C   UNL     1     -10.800  14.664  66.140  1.00  0.00    -0.321 A  
ENDROOT
BRANCH   8  12
HETATM   12  C   UNL     1     -11.683  13.995  69.734  1.00  0.00    -0.313 C  
HETATM   13  O   UNL     1     -11.430  12.793  69.782  1.00  0.00    -0.226 OA 
BRANCH  12  14
HETATM   14  C   UNL     1     -12.256  14.682  70.930  1.00  0.00    -0.391 A  
HETATM   15  C   UNL     1     -11.450  15.297  71.898  1.00  0.00    -0.504 A  
HETATM   16  C   UNL     1     -12.028  15.952  72.987  1.00  0.00    -0.596 A  
HETATM   17  C   UNL     1     -13.413  15.965  73.137  1.00  0.00    -0.650 A  
HETATM   18  C   UNL     1     -14.222  15.317  72.204  1.00  0.00    -0.667 A  
HETATM   19  C   UNL     1     -13.646  14.676  71.104  1.00  0.00    -0.404 A  
ENDBRANCH  12  14
ENDBRANCH   8  12
TORSDOF 2
ENDMDL
MODEL        7
REMARK 921   NORMALIZED FREE ENERGY PREDICTED BY IDOCK:   -6.65 KCAL/MOL
REMARK 922        TOTAL FREE ENERGY PREDICTED BY IDOCK:   -7.97 KCAL/MOL
REMARK 923 INTER-LIGAND FREE ENERGY PREDICTED BY IDOCK:   -7.40 KCAL/MOL
REMARK 924 INTRA-LIGAND FREE ENERGY PREDICTED BY IDOCK:   -0.57 KCAL/MOL
REMARK 927      BINDING AFFINITY PREDICTED BY RF-SCORE:    0.00 PKD
ROOT
HETATM    1  C   UNL     1     -12.880   9.430  71.211  1.00  0.00    -0.383 C  
HETATM    2  C   UNL     1     -12.711  10.935  70.995  1.00  0.00    -0.505 A  
HETATM    3  C   UNL     1     -13.540   9.018  72.530  1.00  0.00    -0.492 C  
HETATM    4  C   UNL     1     -11.569   8.652  71.113  1.00  0.00    -0.281 C  
HETATM    5  O   UNL     1     -10.505   9.248  71.702  1.00  0.00    -0.344 OA 
HETATM    6  O   UNL     1     -11.481   7.547  70.595  1.00  0.00    -0.283 OA 
HETATM    7  C   UNL     1     -12.018  11.389  69.855  1.00  0.00    -0.434 A  
HETATM    8  C   UNL     1     -11.737  12.752  69.675  1.00  0.00    -0.372 A  
HETATM    9  C   UNL     1     -12.253  13.687  70.573  1.00  0.00    -0.438 A  
HETATM   10  C   UNL     1     -13.210  11.895  71.889  1.00  0.00    -0.467 A  
HETATM   11  C   UNL     1     -12.995  13.259  71.671  1.00  0.00    -0.441 A  
ENDROOT
BRANCH   8  12
HETATM   12  C   UNL     1     -10.884  13.240  68.559  1.00  0.00    -0.265 C  
HETATM   13  O   UNL     1      -9.791  13.734  68.827  1.00  0.00    -0.190 OA 
BRANCH  12  14
HETATM   14  C   UNL     1     -11.310  13.110  67.134  1.00  0.00    -0.354 A  
HETATM   15  C   UNL     1     -10.816  12.104  66.293  1.00  0.00    -0.317 A  
HETATM   16  C   UNL     1     -11.262  12.001  64.974  1.00  0.00    -0.374 A  
HETATM   17  C   UNL     1     -12.177  12.925  64.474  1.00  0.00    -0.489 A  
HETATM   18  C   UNL     1     -12.640  13.958  65.289  1.00  0.00    -0.508 A  
HETATM   19  C   UNL     1     -12.208  14.052  66.615  1.00  0.00    -0.463 A  
ENDBRANCH  12  14
ENDBRANCH   8  12
TORSDOF 2
ENDMDL
MODEL        8
REMARK 921   NORMALIZED FREE ENERGY PREDICTED BY IDOCK:   -6.52 KCAL/MOL
REMARK 922        TOTAL FREE ENERGY PREDICTED BY IDOCK:   -7.82 KCAL/MOL
REMARK 923 INTER-LIGAND FREE ENERGY PREDICTED BY IDOCK:   -7.21 KCAL/MOL
REMARK 924 INTRA-LIGAND FREE ENERGY PREDICTED BY IDOCK:   -0.61 KCAL/MOL
REMARK 927      BINDING AFFINITY PREDICTED BY RF-SCORE:    0.00 PKD
ROOT
HETATM    1  C   UNL     1      -9.189  16.864  67.981  1.00  0.00    -0.235 C  
HETATM    2  C   UNL     1     -10.248  15.902  68.521  1.00  0.00    -0.226 A  
HETATM    3  C   UNL     1      -9.161  18.253  68.627  1.00  0.00    -0.309 C  
HETATM    4  C   UNL     1      -9.283  17.083  66.472  1.00  0.00    -0.271 C  
HETATM    5  O   UNL     1     -10.542  17.210  65.989  1.00  0.00    -0.303 OA 
HETATM    6  O   UNL     1      -8.303  17.194  65.747  1.00  0.00    -0.519 OA 
HETATM    7  C   UNL     1     -10.407  14.643  67.907  1.00  0.00    -0.237 A  
HETATM    8  C   UNL     1     -11.440  13.776  68.293  1.00  0.00    -0.348 A  
HETATM    9  C   UNL     1     -12.250  14.107  69.380  1.00  0.00    -0.329 A  
HETATM   10  C   UNL     1     -11.082  16.216  69.605  1.00  0.00    -0.344 A  
HETATM   11  C   UNL     1     -12.064  15.320  70.040  1.00  0.00    -0.386 A  
ENDROOT
BRANCH   8  12
HETATM   12  C   UNL     1     -11.719  12.509  67.564  1.00  0.00    -0.374 C  
HETATM   13  O   UNL     1     -12.151  11.550  68.199  1.00  0.00    -0.604 OA 
BRANCH  12  14
HETATM   14  C   UNL     1     -11.519  12.395  66.089  1.00  0.00    -0.430 A  
HETATM   15  C   UNL     1     -12.340  13.061  65.169  1.00  0.00    -0.536 A  
HETATM   16  C   UNL     1     -12.102  12.948  63.798  1.00  0.00    -0.583 A  
HETATM   17  C   UNL     1     -11.066  12.141  63.335  1.00  0.00    -0.495 A  
HETATM   18  C   UNL     1     -10.271  11.437  64.241  1.00  0.00    -0.367 A  
HETATM   19  C   UNL     1     -10.497  11.563  65.614  1.00  0.00    -0.317 A  
ENDBRANCH  12  14
ENDBRANCH   8  12
TORSDOF 2
ENDMDL
MODEL        9
REMARK 921   NORMALIZED FREE ENERGY PREDICTED BY IDOCK:   -6.48 KCAL/MOL
REMARK 922        TOTAL FREE ENERGY PREDICTED BY IDOCK:   -7.78 KCAL/MOL
REMARK 923 INTER-LIGAND FREE ENERGY PREDICTED BY IDOCK:   -7.21 KCAL/MOL
REMARK 924 INTRA-LIGAND FREE ENERGY PREDICTED BY IDOCK:   -0.57 KCAL/MOL
REMARK 927      BINDING AFFINITY PREDICTED BY RF-SCORE:    0.00 PKD
ROOT
HETATM    1  C   UNL     1     -12.458  15.457  70.738  1.00  0.00    -0.476 C  
HETATM    2  C   UNL     1     -11.669  15.359  69.431  1.00  0.00    -0.369 A  
HETATM    3  C   UNL     1     -11.705  16.064  71.925  1.00  0.00    -0.594 C  
HETATM    4  C   UNL     1     -13.017  14.116  71.210  1.00  0.00    -0.356 C  
HETATM    5  O   UNL     1     -12.176  13.064  71.071  1.00  0.00    -0.319 OA 
HETATM    6  O   UNL     1     -14.118  13.993  71.730  1.00  0.00    -0.406 OA 
HETATM    7  C   UNL     1     -12.256  14.716  68.323  1.00  0.00    -0.112 A  
HETATM    8  C   UNL     1     -11.527  14.500  67.144  1.00  0.00    -0.383 A  
HETATM    9  C   UNL     1     -10.244  15.033  67.017  1.00  0.00    -0.257 A  
HETATM   10  C   UNL     1     -10.373  15.876  69.282  1.00  0.00    -0.249 A  
HETATM   11  C   UNL     1      -9.673  15.727  68.081  1.00  0.00    -0.211 A  
ENDROOT
BRANCH   8  12
HETATM   12  C   UNL     1     -12.074  13.697  66.016  1.00  0.00    -0.441 C  
HETATM   13  O   UNL     1     -13.160  14.018  65.539  1.00  0.00    -0.713 OA 
BRANCH  12  14
HETATM   14  C   UNL     1     -11.320  12.546  65.438  1.00  0.00    -0.363 A  
HETATM   15  C   UNL     1     -10.810  11.510  66.232  1.00  0.00    -0.333 A  
HETATM   16  C   UNL     1     -10.134  10.437  65.647  1.00  0.00    -0.337 A  
HETATM   17  C   UNL     1      -9.929  10.411  64.269  1.00  0.00    -0.368 A  
HETATM   18  C   UNL     1     -10.392  11.460  63.475  1.00  0.00    -0.476 A  
HETATM   19  C   UNL     1     -11.084  12.525  64.057  1.00  0.00    -0.449 A  
ENDBRANCH  12  14
ENDBRANCH   8  12
TORSDOF 2
ENDMDL
MODEL       10
REMARK 921   NORMALIZED FREE ENERGY PREDICTED BY IDOCK:   -6.43 KCAL/MOL
REMARK 922        TOTAL FREE ENERGY PREDICTED BY IDOCK:   -7.72 KCAL/MOL
REMARK 923 INTER-LIGAND FREE ENERGY PREDICTED BY IDOCK:   -7.11 KCAL/MOL
REMARK 924 INTRA-LIGAND FREE ENERGY PREDICTED BY IDOCK:   -0.61 KCAL/MOL
REMARK 927      BINDING AFFINITY PREDICTED BY RF-SCORE:    0.00 PKD
ROOT
HETATM    1  C   UNL     1     -12.177   9.082  72.038  1.00  0.00    -0.446 C  
HETATM    2  C   UNL     1     -11.587   9.986  70.954  1.00  0.00    -0.463 A  
HETATM    3  C   UNL     1     -11.771   7.607  71.967  1.00  0.00    -0.340 C  
HETATM    4  C   UNL     1     -13.703   9.117  72.091  1.00  0.00    -0.471 C  
HETATM    5  O   UNL     1     -14.318   9.122  70.884  1.00  0.00    -0.015 OA 
HETATM    6  O   UNL     1     -14.340   9.086  73.136  1.00  0.00    -0.346 OA 
HETATM    7  C   UNL     1     -11.995  11.333  70.889  1.00  0.00    -0.319 A  
HETATM    8  C   UNL     1     -11.571  12.167  69.844  1.00  0.00    -0.297 A  
HETATM    9  C   UNL     1     -10.636  11.697  68.921  1.00  0.00    -0.224 A  
HETATM   10  C   UNL     1     -10.655   9.534  70.008  1.00  0.00    -0.280 A  
HETATM   11  C   UNL     1     -10.173  10.386  69.009  1.00  0.00    -0.233 A  
ENDROOT
BRANCH   8  12
HETATM   12  C   UNL     1     -12.101  13.546  69.671  1.00  0.00    -0.306 C  
HETATM   13  O   UNL     1     -12.217  13.993  68.532  1.00  0.00    -0.333 OA 
BRANCH  12  14
HETATM   14  C   UNL     1     -12.524  14.374  70.840  1.00  0.00    -0.424 A  
HETATM   15  C   UNL     1     -11.600  14.995  71.691  1.00  0.00    -0.416 A  
HETATM   16  C   UNL     1     -12.039  15.783  72.757  1.00  0.00    -0.596 A  
HETATM   17  C   UNL     1     -13.402  15.925  73.003  1.00  0.00    -0.663 A  
HETATM   18  C   UNL     1     -14.330  15.274  72.190  1.00  0.00    -0.651 A  
HETATM   19  C   UNL     1     -13.893  14.500  71.112  1.00  0.00    -0.292 A  
ENDBRANCH  12  14
ENDBRANCH   8  12
TORSDOF 2
ENDMDL
MODEL       11
REMARK 921   NORMALIZED FREE ENERGY PREDICTED BY IDOCK:   -6.43 KCAL/MOL
REMARK 922        TOTAL FREE ENERGY PREDICTED BY IDOCK:   -7.72 KCAL/MOL
REMARK 923 INTER-LIGAND FREE ENERGY PREDICTED BY IDOCK:   -7.16 KCAL/MOL
REMARK 924 INTRA-LIGAND FREE ENERGY PREDICTED BY IDOCK:   -0.56 KCAL/MOL
REMARK 927      BINDING AFFINITY PREDICTED BY RF-SCORE:    0.00 PKD
ROOT
HETATM    1  C   UNL     1     -12.604  15.494  70.774  1.00  0.00    -0.505 C  
HETATM    2  C   UNL     1     -11.796  15.369  69.481  1.00  0.00    -0.370 A  
HETATM    3  C   UNL     1     -11.850  16.065  71.978  1.00  0.00    -0.623 C  
HETATM    4  C   UNL     1     -13.226  14.174  71.229  1.00  0.00    -0.329 C  
HETATM    5  O   UNL     1     -12.425  13.090  71.100  1.00  0.00    -0.361 OA 
HETATM    6  O   UNL     1     -14.340  14.093  71.728  1.00  0.00    -0.447 OA 
HETATM    7  C   UNL     1     -12.388  14.755  68.359  1.00  0.00     0.047 A  
HETATM    8  C   UNL     1     -11.647  14.515  67.192  1.00  0.00    -0.406 A  
HETATM    9  C   UNL     1     -10.342  14.997  67.092  1.00  0.00    -0.257 A  
HETATM   10  C   UNL     1     -10.478  15.835  69.358  1.00  0.00    -0.257 A  
HETATM   11  C   UNL     1      -9.762  15.663  68.169  1.00  0.00    -0.204 A  
ENDROOT
BRANCH   8  12
HETATM   12  C   UNL     1     -12.204  13.740  66.051  1.00  0.00    -0.457 C  
HETATM   13  O   UNL     1     -13.328  14.025  65.641  1.00  0.00    -0.636 OA 
BRANCH  12  14
HETATM   14  C   UNL     1     -11.420  12.662  65.380  1.00  0.00    -0.373 A  
HETATM   15  C   UNL     1     -11.153  12.676  64.004  1.00  0.00    -0.453 A  
HETATM   16  C   UNL     1     -10.391  11.661  63.421  1.00  0.00    -0.482 A  
HETATM   17  C   UNL     1      -9.923  10.606  64.201  1.00  0.00    -0.406 A  
HETATM   18  C   UNL     1     -10.222  10.559  65.562  1.00  0.00    -0.325 A  
HETATM   19  C   UNL     1     -10.969  11.583  66.151  1.00  0.00    -0.320 A  
ENDBRANCH  12  14
ENDBRANCH   8  12
TORSDOF 2
ENDMDL
MODEL       12
REMARK 921   NORMALIZED FREE ENERGY PREDICTED BY IDOCK:   -6.38 KCAL/MOL
REMARK 922        TOTAL FREE ENERGY PREDICTED BY IDOCK:   -7.68 KCAL/MOL
REMARK 923 INTER-LIGAND FREE ENERGY PREDICTED BY IDOCK:   -7.14 KCAL/MOL
REMARK 924 INTRA-LIGAND FREE ENERGY PREDICTED BY IDOCK:   -0.53 KCAL/MOL
REMARK 927      BINDING AFFINITY PREDICTED BY RF-SCORE:    0.00 PKD
ROOT
HETATM    1  C   UNL     1     -11.254  12.346  64.957  1.00  0.00    -0.354 C  
HETATM    2  C   UNL     1     -10.718  12.818  66.309  1.00  0.00    -0.291 A  
HETATM    3  C   UNL     1     -10.459  12.800  63.730  1.00  0.00    -0.335 C  
HETATM    4  C   UNL     1     -12.709  12.742  64.710  1.00  0.00    -0.393 C  
HETATM    5  O   UNL     1     -13.035  13.997  65.103  1.00  0.00    -0.744 OA 
HETATM    6  O   UNL     1     -13.518  12.015  64.150  1.00  0.00    -0.672 OA 
HETATM    7  C   UNL     1     -11.453  12.530  67.476  1.00  0.00    -0.397 A  
HETATM    8  C   UNL     1     -11.060  13.043  68.722  1.00  0.00    -0.311 A  
HETATM    9  C   UNL     1      -9.861  13.747  68.833  1.00  0.00    -0.008 A  
HETATM   10  C   UNL     1      -9.521  13.538  66.445  1.00  0.00    -0.236 A  
HETATM   11  C   UNL     1      -9.089  13.986  67.697  1.00  0.00    -0.192 A  
ENDROOT
BRANCH   8  12
HETATM   12  C   UNL     1     -11.896  12.875  69.941  1.00  0.00    -0.303 C  
HETATM   13  O   UNL     1     -12.499  13.853  70.379  1.00  0.00    -0.336 OA 
BRANCH  12  14
HETATM   14  C   UNL     1     -12.042  11.551  70.614  1.00  0.00    -0.450 A  
HETATM   15  C   UNL     1     -11.164  10.486  70.369  1.00  0.00    -0.378 A  
HETATM   16  C   UNL     1     -11.320   9.272  71.041  1.00  0.00    -0.390 A  
HETATM   17  C   UNL     1     -12.376   9.099  71.932  1.00  0.00    -0.455 A  
HETATM   18  C   UNL     1     -13.283  10.137  72.148  1.00  0.00    -0.463 A  
HETATM   19  C   UNL     1     -13.118  11.359  71.491  1.00  0.00    -0.438 A  
ENDBRANCH  12  14
ENDBRANCH   8  12
TORSDOF 2
ENDMDL
MODEL       13
REMARK 921   NORMALIZED FREE ENERGY PREDICTED BY IDOCK:   -6.30 KCAL/MOL
REMARK 922        TOTAL FREE ENERGY PREDICTED BY IDOCK:   -7.58 KCAL/MOL
REMARK 923 INTER-LIGAND FREE ENERGY PREDICTED BY IDOCK:   -7.09 KCAL/MOL
REMARK 924 INTRA-LIGAND FREE ENERGY PREDICTED BY IDOCK:   -0.49 KCAL/MOL
REMARK 927      BINDING AFFINITY PREDICTED BY RF-SCORE:    0.00 PKD
ROOT
HETATM    1  C   UNL     1      -7.738  18.588  67.237  1.00  0.00    -0.229 C  
HETATM    2  C   UNL     1      -8.847  17.536  67.298  1.00  0.00    -0.235 A  
HETATM    3  C   UNL     1      -7.369  19.244  68.571  1.00  0.00    -0.355 C  
HETATM    4  C   UNL     1      -8.030  19.721  66.255  1.00  0.00    -0.332 C  
HETATM    5  O   UNL     1      -9.310  20.167  66.260  1.00  0.00    -0.367 OA 
HETATM    6  O   UNL     1      -7.174  20.237  65.549  1.00  0.00    -0.300 OA 
HETATM    7  C   UNL     1      -9.315  16.964  66.099  1.00  0.00    -0.268 A  
HETATM    8  C   UNL     1     -10.408  16.084  66.097  1.00  0.00    -0.340 A  
HETATM    9  C   UNL     1     -10.966  15.673  67.307  1.00  0.00    -0.275 A  
HETATM   10  C   UNL     1      -9.432  17.115  68.502  1.00  0.00    -0.282 A  
HETATM   11  C   UNL     1     -10.472  16.180  68.507  1.00  0.00    -0.269 A  
ENDROOT
BRANCH   8  12
HETATM   12  C   UNL     1     -11.013  15.582  64.833  1.00  0.00    -0.436 C  
HETATM   13  O   UNL     1     -11.439  16.399  64.021  1.00  0.00    -1.048 OA 
BRANCH  12  14
HETATM   14  C   UNL     1     -11.077  14.123  64.523  1.00  0.00    -0.340 A  
HETATM   15  C   UNL     1     -10.068  13.230  64.910  1.00  0.00    -0.247 A  
HETATM   16  C   UNL     1     -10.181  11.868  64.624  1.00  0.00    -0.316 A  
HETATM   17  C   UNL     1     -11.283  11.394  63.916  1.00  0.00    -0.364 A  
HETATM   18  C   UNL     1     -12.270  12.281  63.486  1.00  0.00    -0.669 A  
HETATM   19  C   UNL     1     -12.168  13.642  63.787  1.00  0.00    -0.413 A  
ENDBRANCH  12  14
ENDBRANCH   8  12
TORSDOF 2
ENDMDL
MODEL       14
REMARK 921   NORMALIZED FREE ENERGY PREDICTED BY IDOCK:   -6.28 KCAL/MOL
REMARK 922        TOTAL FREE ENERGY PREDICTED BY IDOCK:   -7.56 KCAL/MOL
REMARK 923 INTER-LIGAND FREE ENERGY PREDICTED BY IDOCK:   -6.97 KCAL/MOL
REMARK 924 INTRA-LIGAND FREE ENERGY PREDICTED BY IDOCK:   -0.60 KCAL/MOL
REMARK 927      BINDING AFFINITY PREDICTED BY RF-SCORE:    0.00 PKD
ROOT
HETATM    1  C   UNL     1     -11.299  12.106  65.922  1.00  0.00    -0.407 C  
HETATM    2  C   UNL     1     -10.357  12.990  66.741  1.00  0.00    -0.256 A  
HETATM    3  C   UNL     1     -10.630  10.990  65.115  1.00  0.00    -0.295 C  
HETATM    4  C   UNL     1     -12.172  12.893  64.945  1.00  0.00    -0.453 C  
HETATM    5  O   UNL     1     -11.538  13.897  64.293  1.00  0.00    -0.390 OA 
HETATM    6  O   UNL     1     -13.341  12.615  64.715  1.00  0.00    -0.787 OA 
HETATM    7  C   UNL     1     -10.885  14.103  67.426  1.00  0.00    -0.291 A  
HETATM    8  C   UNL     1     -10.044  15.006  68.093  1.00  0.00    -0.220 A  
HETATM    9  C   UNL     1      -8.678  14.739  68.185  1.00  0.00    -0.168 A  
HETATM   10  C   UNL     1      -8.978  12.749  66.840  1.00  0.00    -0.213 A  
HETATM   11  C   UNL     1      -8.149  13.607  67.568  1.00  0.00    -0.190 A  
ENDROOT
BRANCH   8  12
HETATM   12  C   UNL     1     -10.560  16.264  68.698  1.00  0.00    -0.297 C  
HETATM   13  O   UNL     1     -11.144  16.199  69.777  1.00  0.00    -0.311 OA 
BRANCH  12  14
HETATM   14  C   UNL     1     -10.352  17.589  68.043  1.00  0.00    -0.368 A  
HETATM   15  C   UNL     1     -10.439  17.760  66.655  1.00  0.00    -0.300 A  
HETATM   16  C   UNL     1     -10.265  19.024  66.086  1.00  0.00    -0.508 A  
HETATM   17  C   UNL     1      -9.966  20.117  66.895  1.00  0.00    -0.600 A  
HETATM   18  C   UNL     1      -9.832  19.949  68.273  1.00  0.00    -0.514 A  
HETATM   19  C   UNL     1     -10.023  18.689  68.846  1.00  0.00    -0.399 A  
ENDBRANCH  12  14
ENDBRANCH   8  12
TORSDOF 2
ENDMDL
MODEL       15
REMARK 921   NORMALIZED FREE ENERGY PREDICTED BY IDOCK:   -6.26 KCAL/MOL
REMARK 922        TOTAL FREE ENERGY PREDICTED BY IDOCK:   -7.54 KCAL/MOL
REMARK 923 INTER-LIGAND FREE ENERGY PREDICTED BY IDOCK:   -7.13 KCAL/MOL
REMARK 924 INTRA-LIGAND FREE ENERGY PREDICTED BY IDOCK:   -0.41 KCAL/MOL
REMARK 927      BINDING AFFINITY PREDICTED BY RF-SCORE:    0.00 PKD
ROOT
HETATM    1  C   UNL     1      -9.145  18.437  66.363  1.00  0.00    -0.271 C  
HETATM    2  C   UNL     1      -9.077  17.363  67.450  1.00  0.00    -0.236 A  
HETATM    3  C   UNL     1      -7.889  19.298  66.199  1.00  0.00    -0.313 C  
HETATM    4  C   UNL     1     -10.319  19.399  66.533  1.00  0.00    -0.469 C  
HETATM    5  O   UNL     1     -10.557  19.790  67.808  1.00  0.00    -0.421 OA 
HETATM    6  O   UNL     1     -10.971  19.838  65.595  1.00  0.00    -0.382 OA 
HETATM    7  C   UNL     1     -10.228  16.601  67.733  1.00  0.00    -0.292 A  
HETATM    8  C   UNL     1     -10.247  15.688  68.798  1.00  0.00    -0.215 A  
HETATM    9  C   UNL     1      -9.076  15.439  69.514  1.00  0.00    -0.231 A  
HETATM   10  C   UNL     1      -7.915  17.101  68.192  1.00  0.00    -0.216 A  
HETATM   11  C   UNL     1      -7.911  16.138  69.205  1.00  0.00    -0.232 A  
ENDROOT
BRANCH   8  12
HETATM   12  C   UNL     1     -11.490  14.981  69.208  1.00  0.00    -0.307 C  
HETATM   13  O   UNL     1     -12.107  14.339  68.360  1.00  0.00    -0.335 OA 
BRANCH  12  14
HETATM   14  C   UNL     1     -11.976  15.007  70.619  1.00  0.00    -0.370 A  
HETATM   15  C   UNL     1     -11.685  16.065  71.491  1.00  0.00    -0.554 A  
HETATM   16  C   UNL     1     -12.183  16.062  72.796  1.00  0.00    -0.617 A  
HETATM   17  C   UNL     1     -12.942  14.986  73.251  1.00  0.00    -0.642 A  
HETATM   18  C   UNL     1     -13.198  13.907  72.405  1.00  0.00    -0.587 A  
HETATM   19  C   UNL     1     -12.716  13.916  71.093  1.00  0.00    -0.441 A  
ENDBRANCH  12  14
ENDBRANCH   8  12
TORSDOF 2
ENDMDL
MODEL       16
REMARK 921   NORMALIZED FREE ENERGY PREDICTED BY IDOCK:   -6.26 KCAL/MOL
REMARK 922        TOTAL FREE ENERGY PREDICTED BY IDOCK:   -7.53 KCAL/MOL
REMARK 923 INTER-LIGAND FREE ENERGY PREDICTED BY IDOCK:   -7.31 KCAL/MOL
REMARK 924 INTRA-LIGAND FREE ENERGY PREDICTED BY IDOCK:   -0.23 KCAL/MOL
REMARK 927      BINDING AFFINITY PREDICTED BY RF-SCORE:    0.00 PKD
ROOT
HETATM    1  C   UNL     1     -11.609  12.181  65.866  1.00  0.00    -0.425 C  
HETATM    2  C   UNL     1     -10.682  13.358  66.173  1.00  0.00    -0.288 A  
HETATM    3  C   UNL     1     -11.019  10.789  66.109  1.00  0.00    -0.037 C  
HETATM    4  C   UNL     1     -12.145  12.188  64.435  1.00  0.00    -0.357 C  
HETATM    5  O   UNL     1     -11.240  12.529  63.487  1.00  0.00    -0.446 OA 
HETATM    6  O   UNL     1     -13.287  11.859  64.144  1.00  0.00    -0.652 OA 
HETATM    7  C   UNL     1     -11.114  14.666  65.876  1.00  0.00    -0.338 A  
HETATM    8  C   UNL     1     -10.255  15.764  66.031  1.00  0.00    -0.352 A  
HETATM    9  C   UNL     1      -8.995  15.580  66.601  1.00  0.00    -0.320 A  
HETATM   10  C   UNL     1      -9.406  13.198  66.735  1.00  0.00    -0.244 A  
HETATM   11  C   UNL     1      -8.576  14.300  66.961  1.00  0.00    -0.213 A  
ENDROOT
BRANCH   8  12
HETATM   12  C   UNL     1     -10.637  17.132  65.588  1.00  0.00    -0.179 C  
HETATM   13  O   UNL     1     -11.201  17.262  64.504  1.00  0.00    -1.083 OA 
BRANCH  12  14
HETATM   14  C   UNL     1     -10.382  18.330  66.441  1.00  0.00    -0.418 A  
HETATM   15  C   UNL     1     -10.164  19.603  65.898  1.00  0.00    -0.536 A  
HETATM   16  C   UNL     1      -9.957  20.703  66.734  1.00  0.00    -0.286 A  
HETATM   17  C   UNL     1      -9.928  20.532  68.116  1.00  0.00    -0.222 A  
HETATM   18  C   UNL     1     -10.098  19.261  68.665  1.00  0.00    -0.499 A  
HETATM   19  C   UNL     1     -10.323  18.163  67.831  1.00  0.00    -0.410 A  
ENDBRANCH  12  14
ENDBRANCH   8  12
TORSDOF 2
ENDMDL
MODEL       17
REMARK 921   NORMALIZED FREE ENERGY PREDICTED BY IDOCK:   -6.17 KCAL/MOL
REMARK 922        TOTAL FREE ENERGY PREDICTED BY IDOCK:   -7.44 KCAL/MOL
REMARK 923 INTER-LIGAND FREE ENERGY PREDICTED BY IDOCK:   -6.87 KCAL/MOL
REMARK 924 INTRA-LIGAND FREE ENERGY PREDICTED BY IDOCK:   -0.57 KCAL/MOL
REMARK 927      BINDING AFFINITY PREDICTED BY RF-SCORE:    0.00 PKD
ROOT
HETATM    1  C   UNL     1      -6.768  17.380  68.096  1.00  0.00    -0.178 C  
HETATM    2  C   UNL     1      -8.092  17.839  67.484  1.00  0.00    -0.228 A  
HETATM    3  C   UNL     1      -5.922  18.477  68.749  1.00  0.00    -0.212 C  
HETATM    4  C   UNL     1      -5.860  16.656  67.104  1.00  0.00    -0.159 C  
HETATM    5  O   UNL     1      -5.815  17.202  65.865  1.00  0.00    -0.190 OA 
HETATM    6  O   UNL     1      -5.174  15.688  67.404  1.00  0.00    -0.310 OA 
HETATM    7  C   UNL     1      -8.877  16.908  66.773  1.00  0.00    -0.262 A  
HETATM    8  C   UNL     1     -10.039  17.310  66.097  1.00  0.00    -0.312 A  
HETATM    9  C   UNL     1     -10.494  18.622  66.226  1.00  0.00    -0.468 A  
HETATM   10  C   UNL     1      -8.566  19.155  67.589  1.00  0.00    -0.327 A  
HETATM   11  C   UNL     1      -9.764  19.540  66.979  1.00  0.00    -0.450 A  
ENDROOT
BRANCH   8  12
HETATM   12  C   UNL     1     -10.802  16.380  65.222  1.00  0.00    -0.258 C  
HETATM   13  O   UNL     1     -11.232  16.801  64.151  1.00  0.00    -1.155 OA 
BRANCH  12  14
HETATM   14  C   UNL     1     -11.022  14.953  65.601  1.00  0.00    -0.347 A  
HETATM   15  C   UNL     1     -11.591  14.583  66.827  1.00  0.00    -0.388 A  
HETATM   16  C   UNL     1     -11.805  13.237  67.131  1.00  0.00    -0.424 A  
HETATM   17  C   UNL     1     -11.417  12.249  66.229  1.00  0.00    -0.435 A  
HETATM   18  C   UNL     1     -10.808  12.604  65.025  1.00  0.00    -0.321 A  
HETATM   19  C   UNL     1     -10.610  13.952  64.712  1.00  0.00    -0.444 A  
ENDBRANCH  12  14
ENDBRANCH   8  12
TORSDOF 2
ENDMDL
MODEL       18
REMARK 921   NORMALIZED FREE ENERGY PREDICTED BY IDOCK:   -6.16 KCAL/MOL
REMARK 922        TOTAL FREE ENERGY PREDICTED BY IDOCK:   -7.42 KCAL/MOL
REMARK 923 INTER-LIGAND FREE ENERGY PREDICTED BY IDOCK:   -6.84 KCAL/MOL
REMARK 924 INTRA-LIGAND FREE ENERGY PREDICTED BY IDOCK:   -0.58 KCAL/MOL
REMARK 927      BINDING AFFINITY PREDICTED BY RF-SCORE:    0.00 PKD
ROOT
HETATM    1  C   UNL     1      -9.118  17.353  67.660  1.00  0.00    -0.234 C  
HETATM    2  C   UNL     1     -10.207  16.309  67.913  1.00  0.00    -0.261 A  
HETATM    3  C   UNL     1      -8.843  18.321  68.815  1.00  0.00    -0.235 C  
HETATM    4  C   UNL     1      -9.375  18.209  66.420  1.00  0.00    -0.265 C  
HETATM    5  O   UNL     1     -10.661  18.599  66.251  1.00  0.00    -0.413 OA 
HETATM    6  O   UNL     1      -8.488  18.570  65.658  1.00  0.00    -0.348 OA 
HETATM    7  C   UNL     1     -10.591  15.452  66.863  1.00  0.00    -0.309 A  
HETATM    8  C   UNL     1     -11.663  14.560  67.014  1.00  0.00    -0.412 A  
HETATM    9  C   UNL     1     -12.284  14.430  68.256  1.00  0.00    -0.160 A  
HETATM   10  C   UNL     1     -10.855  16.167  69.150  1.00  0.00    -0.298 A  
HETATM   11  C   UNL     1     -11.873  15.226  69.324  1.00  0.00    -0.353 A  
ENDROOT
BRANCH   8  12
HETATM   12  C   UNL     1     -12.180  13.750  65.878  1.00  0.00    -0.466 C  
HETATM   13  O   UNL     1     -13.271  14.046  65.395  1.00  0.00    -0.761 OA 
BRANCH  12  14
HETATM   14  C   UNL     1     -11.392  12.622  65.299  1.00  0.00    -0.350 A  
HETATM   15  C   UNL     1     -10.781  11.648  66.099  1.00  0.00    -0.325 A  
HETATM   16  C   UNL     1     -10.076  10.593  65.515  1.00  0.00    -0.343 A  
HETATM   17  C   UNL     1      -9.944  10.526  64.130  1.00  0.00    -0.385 A  
HETATM   18  C   UNL     1     -10.509  11.516  63.326  1.00  0.00    -0.421 A  
HETATM   19  C   UNL     1     -11.231  12.562  63.908  1.00  0.00    -0.496 A  
ENDBRANCH  12  14
ENDBRANCH   8  12
TORSDOF 2
ENDMDL
MODEL       19
REMARK 921   NORMALIZED FREE ENERGY PREDICTED BY IDOCK:   -6.15 KCAL/MOL
REMARK 922        TOTAL FREE ENERGY PREDICTED BY IDOCK:   -7.41 KCAL/MOL
REMARK 923 INTER-LIGAND FREE ENERGY PREDICTED BY IDOCK:   -6.98 KCAL/MOL
REMARK 924 INTRA-LIGAND FREE ENERGY PREDICTED BY IDOCK:   -0.43 KCAL/MOL
REMARK 927      BINDING AFFINITY PREDICTED BY RF-SCORE:    0.00 PKD
ROOT
HETATM    1  C   UNL     1      -9.602  16.126  68.269  1.00  0.00    -0.216 C  
HETATM    2  C   UNL     1     -10.604  15.325  69.103  1.00  0.00    -0.250 A  
HETATM    3  C   UNL     1      -9.616  17.641  68.487  1.00  0.00    -0.315 C  
HETATM    4  C   UNL     1      -9.743  15.895  66.766  1.00  0.00    -0.238 C  
HETATM    5  O   UNL     1     -11.019  15.836  66.313  1.00  0.00    -0.277 OA 
HETATM    6  O   UNL     1      -8.789  15.825  66.003  1.00  0.00    -0.327 OA 
HETATM    7  C   UNL     1     -10.726  13.939  68.883  1.00  0.00    -0.256 A  
HETATM    8  C   UNL     1     -11.711  13.187  69.539  1.00  0.00    -0.382 A  
HETATM    9  C   UNL     1     -12.505  13.791  70.515  1.00  0.00    -0.409 A  
HETATM   10  C   UNL     1     -11.423  15.912  70.080  1.00  0.00    -0.366 A  
HETATM   11  C   UNL     1     -12.354  15.148  70.790  1.00  0.00    -0.415 A  
ENDROOT
BRANCH   8  12
HETATM   12  C   UNL     1     -11.954  11.755  69.217  1.00  0.00    -0.291 C  
HETATM   13  O   UNL     1     -12.173  11.445  68.048  1.00  0.00    -0.607 OA 
BRANCH  12  14
HETATM   14  C   UNL     1     -11.903  10.697  70.269  1.00  0.00    -0.430 A  
HETATM   15  C   UNL     1     -12.994  10.416  71.102  1.00  0.00    -0.506 A  
HETATM   16  C   UNL     1     -12.913   9.399  72.056  1.00  0.00    -0.508 A  
HETATM   17  C   UNL     1     -11.729   8.680  72.209  1.00  0.00    -0.428 A  
HETATM   18  C   UNL     1     -10.622   8.983  71.416  1.00  0.00    -0.393 A  
HETATM   19  C   UNL     1     -10.708   9.988  70.449  1.00  0.00    -0.369 A  
ENDBRANCH  12  14
ENDBRANCH   8  12
TORSDOF 2
ENDMDL
MODEL       20
REMARK 921   NORMALIZED FREE ENERGY PREDICTED BY IDOCK:   -6.07 KCAL/MOL
REMARK 922        TOTAL FREE ENERGY PREDICTED BY IDOCK:   -7.33 KCAL/MOL
REMARK 923 INTER-LIGAND FREE ENERGY PREDICTED BY IDOCK:   -6.75 KCAL/MOL
REMARK 924 INTRA-LIGAND FREE ENERGY PREDICTED BY IDOCK:   -0.58 KCAL/MOL
REMARK 927      BINDING AFFINITY PREDICTED BY RF-SCORE:    0.00 PKD
ROOT
HETATM    1  C   UNL     1      -9.595  10.906  66.259  1.00  0.00    -0.234 C  
HETATM    2  C   UNL     1     -10.517  12.112  66.442  1.00  0.00    -0.261 A  
HETATM    3  C   UNL     1      -9.867  10.042  65.025  1.00  0.00    -0.374 C  
HETATM    4  C   UNL     1      -9.583   9.964  67.462  1.00  0.00    -0.157 C  
HETATM    5  O   UNL     1     -10.795   9.739  68.025  1.00  0.00    -0.250 OA 
HETATM    6  O   UNL     1      -8.574   9.401  67.866  1.00  0.00    -0.120 OA 
HETATM    7  C   UNL     1     -10.399  12.895  67.608  1.00  0.00    -0.218 A  
HETATM    8  C   UNL     1     -11.299  13.938  67.873  1.00  0.00    -0.320 A  
HETATM    9  C   UNL     1     -12.251  14.288  66.915  1.00  0.00    -0.366 A  
HETATM   10  C   UNL     1     -11.491  12.478  65.500  1.00  0.00    -0.389 A  
HETATM   11  C   UNL     1     -12.340  13.565  65.728  1.00  0.00    -0.516 A  
ENDROOT
BRANCH   8  12
HETATM   12  C   UNL     1     -11.286  14.682  69.161  1.00  0.00    -0.270 C  
HETATM   13  O   UNL     1     -10.496  15.614  69.293  1.00  0.00    -0.215 OA 
BRANCH  12  14
HETATM   14  C   UNL     1     -12.227  14.344  70.269  1.00  0.00    -0.397 A  
HETATM   15  C   UNL     1     -12.393  13.033  70.737  1.00  0.00    -0.394 A  
HETATM   16  C   UNL     1     -13.265  12.765  71.795  1.00  0.00    -0.471 A  
HETATM   17  C   UNL     1     -14.004  13.797  72.368  1.00  0.00    -0.651 A  
HETATM   18  C   UNL     1     -13.880  15.098  71.879  1.00  0.00    -0.607 A  
HETATM   19  C   UNL     1     -12.996  15.371  70.833  1.00  0.00    -0.539 A  
ENDBRANCH  12  14
ENDBRANCH   8  12
TORSDOF 2
ENDMDL
MODEL       21
REMARK 921   NORMALIZED FREE ENERGY PREDICTED BY IDOCK:   -6.07 KCAL/MOL
REMARK 922        TOTAL FREE ENERGY PREDICTED BY IDOCK:   -7.32 KCAL/MOL
REMARK 923 INTER-LIGAND FREE ENERGY PREDICTED BY IDOCK:   -6.85 KCAL/MOL
REMARK 924 INTRA-LIGAND FREE ENERGY PREDICTED BY IDOCK:   -0.47 KCAL/MOL
REMARK 927      BINDING AFFINITY PREDICTED BY RF-SCORE:    0.00 PKD
ROOT
HETATM    1  C   UNL     1     -11.048  13.569  65.430  1.00  0.00    -0.302 C  
HETATM    2  C   UNL     1     -11.334  13.554  66.932  1.00  0.00    -0.350 A  
HETATM    3  C   UNL     1     -11.103  14.942  64.755  1.00  0.00    -0.395 C  
HETATM    4  C   UNL     1     -11.966  12.647  64.629  1.00  0.00    -0.402 C  
HETATM    5  O   UNL     1     -13.265  12.659  65.013  1.00  0.00    -0.753 OA 
HETATM    6  O   UNL     1     -11.586  11.985  63.673  1.00  0.00    -0.428 OA 
HETATM    7  C   UNL     1     -11.406  12.317  67.604  1.00  0.00    -0.374 A  
HETATM    8  C   UNL     1     -11.781  12.249  68.954  1.00  0.00    -0.380 A  
HETATM    9  C   UNL     1     -11.968  13.426  69.679  1.00  0.00    -0.386 A  
HETATM   10  C   UNL     1     -11.539  14.723  67.681  1.00  0.00    -0.374 A  
HETATM   11  C   UNL     1     -11.839  14.660  69.045  1.00  0.00    -0.346 A  
ENDROOT
BRANCH   8  12
HETATM   12  C   UNL     1     -12.005  10.950  69.645  1.00  0.00    -0.343 C  
HETATM   13  O   UNL     1     -13.145  10.495  69.684  1.00  0.00    -0.020 OA 
BRANCH  12  14
HETATM   14  C   UNL     1     -10.877  10.183  70.253  1.00  0.00    -0.370 A  
HETATM   15  C   UNL     1      -9.607  10.128  69.665  1.00  0.00    -0.237 A  
HETATM   16  C   UNL     1      -8.572   9.421  70.281  1.00  0.00    -0.249 A  
HETATM   17  C   UNL     1      -8.809   8.733  71.469  1.00  0.00    -0.295 A  
HETATM   18  C   UNL     1     -10.083   8.744  72.039  1.00  0.00    -0.397 A  
HETATM   19  C   UNL     1     -11.114   9.466  71.433  1.00  0.00    -0.450 A  
ENDBRANCH  12  14
ENDBRANCH   8  12
TORSDOF 2
ENDMDL
MODEL       22
REMARK 921   NORMALIZED FREE ENERGY PREDICTED BY IDOCK:   -6.07 KCAL/MOL
REMARK 922        TOTAL FREE ENERGY PREDICTED BY IDOCK:   -7.32 KCAL/MOL
REMARK 923 INTER-LIGAND FREE ENERGY PREDICTED BY IDOCK:   -6.72 KCAL/MOL
REMARK 924 INTRA-LIGAND FREE ENERGY PREDICTED BY IDOCK:   -0.60 KCAL/MOL
REMARK 927      BINDING AFFINITY PREDICTED BY RF-SCORE:    0.00 PKD
ROOT
HETATM    1  C   UNL     1     -12.627  13.909  65.306  1.00  0.00    -0.508 C  
HETATM    2  C   UNL     1     -12.115  13.655  66.725  1.00  0.00    -0.445 A  
HETATM    3  C   UNL     1     -12.774  12.669  64.420  1.00  0.00    -0.417 C  
HETATM    4  C   UNL     1     -11.777  14.910  64.525  1.00  0.00    -0.382 C  
HETATM    5  O   UNL     1     -10.439  14.773  64.687  1.00  0.00    -0.354 OA 
HETATM    6  O   UNL     1     -12.250  15.742  63.762  1.00  0.00    -0.699 OA 
HETATM    7  C   UNL     1     -11.852  14.755  67.566  1.00  0.00    -0.326 A  
HETATM    8  C   UNL     1     -11.272  14.576  68.830  1.00  0.00    -0.283 A  
HETATM    9  C   UNL     1     -11.062  13.286  69.317  1.00  0.00    -0.208 A  
HETATM   10  C   UNL     1     -11.884  12.368  67.233  1.00  0.00    -0.357 A  
HETATM   11  C   UNL     1     -11.376  12.184  68.523  1.00  0.00    -0.324 A  
ENDROOT
BRANCH   8  12
HETATM   12  C   UNL     1     -10.852  15.727  69.675  1.00  0.00    -0.300 C  
HETATM   13  O   UNL     1     -11.339  15.840  70.798  1.00  0.00    -0.329 OA 
BRANCH  12  14
HETATM   14  C   UNL     1      -9.837  16.714  69.203  1.00  0.00    -0.244 A  
HETATM   15  C   UNL     1      -8.467  16.419  69.168  1.00  0.00    -0.181 A  
HETATM   16  C   UNL     1      -7.553  17.362  68.694  1.00  0.00    -0.265 A  
HETATM   17  C   UNL     1      -7.995  18.618  68.286  1.00  0.00    -0.337 A  
HETATM   18  C   UNL     1      -9.351  18.938  68.360  1.00  0.00    -0.396 A  
HETATM   19  C   UNL     1     -10.270  17.989  68.818  1.00  0.00    -0.362 A  
ENDBRANCH  12  14
ENDBRANCH   8  12
TORSDOF 2
ENDMDL
MODEL       23
REMARK 921   NORMALIZED FREE ENERGY PREDICTED BY IDOCK:   -6.06 KCAL/MOL
REMARK 922        TOTAL FREE ENERGY PREDICTED BY IDOCK:   -7.31 KCAL/MOL
REMARK 923 INTER-LIGAND FREE ENERGY PREDICTED BY IDOCK:   -6.83 KCAL/MOL
REMARK 924 INTRA-LIGAND FREE ENERGY PREDICTED BY IDOCK:   -0.49 KCAL/MOL
REMARK 927      BINDING AFFINITY PREDICTED BY RF-SCORE:    0.00 PKD
ROOT
HETATM    1  C   UNL     1     -11.020  14.618  65.032  1.00  0.00    -0.415 C  
HETATM    2  C   UNL     1     -10.771  14.085  66.444  1.00  0.00    -0.278 A  
HETATM    3  C   UNL     1     -11.024  16.142  64.888  1.00  0.00    -0.364 C  
HETATM    4  C   UNL     1     -12.324  14.114  64.416  1.00  0.00    -0.381 C  
HETATM    5  O   UNL     1     -13.382  14.080  65.263  1.00  0.00    -0.741 OA 
HETATM    6  O   UNL     1     -12.438  13.814  63.235  1.00  0.00    -0.819 OA 
HETATM    7  C   UNL     1     -10.857  12.698  66.678  1.00  0.00    -0.286 A  
HETATM    8  C   UNL     1     -10.752  12.176  67.976  1.00  0.00    -0.242 A  
HETATM    9  C   UNL     1     -10.436  13.025  69.038  1.00  0.00    -0.023 A  
HETATM   10  C   UNL     1     -10.464  14.919  67.531  1.00  0.00    -0.254 A  
HETATM   11  C   UNL     1     -10.284  14.391  68.813  1.00  0.00    -0.239 A  
ENDROOT
BRANCH   8  12
HETATM   12  C   UNL     1     -10.984  10.736  68.268  1.00  0.00    -0.255 C  
HETATM   13  O   UNL     1     -10.832   9.922  67.360  1.00  0.00    -0.280 OA 
BRANCH  12  14
HETATM   14  C   UNL     1     -11.358  10.265  69.634  1.00  0.00    -0.315 A  
HETATM   15  C   UNL     1     -12.600  10.557  70.212  1.00  0.00    -0.306 A  
HETATM   16  C   UNL     1     -12.920  10.073  71.483  1.00  0.00    -0.535 A  
HETATM   17  C   UNL     1     -11.988   9.326  72.199  1.00  0.00    -0.316 A  
HETATM   18  C   UNL     1     -10.731   9.069  71.652  1.00  0.00    -0.441 A  
HETATM   19  C   UNL     1     -10.416   9.538  70.373  1.00  0.00    -0.336 A  
ENDBRANCH  12  14
ENDBRANCH   8  12
TORSDOF 2
ENDMDL
MODEL       24
REMARK 921   NORMALIZED FREE ENERGY PREDICTED BY IDOCK:   -6.06 KCAL/MOL
REMARK 922        TOTAL FREE ENERGY PREDICTED BY IDOCK:   -7.31 KCAL/MOL
REMARK 923 INTER-LIGAND FREE ENERGY PREDICTED BY IDOCK:   -6.71 KCAL/MOL
REMARK 924 INTRA-LIGAND FREE ENERGY PREDICTED BY IDOCK:   -0.60 KCAL/MOL
REMARK 927      BINDING AFFINITY PREDICTED BY RF-SCORE:    0.00 PKD
ROOT
HETATM    1  C   UNL     1      -9.576  11.122  65.957  1.00  0.00    -0.248 C  
HETATM    2  C   UNL     1     -10.443  12.118  65.184  1.00  0.00    -0.317 A  
HETATM    3  C   UNL     1      -9.986   9.652  65.839  1.00  0.00    -0.351 C  
HETATM    4  C   UNL     1      -9.479  11.434  67.449  1.00  0.00    -0.167 C  
HETATM    5  O   UNL     1     -10.639  11.828  68.028  1.00  0.00    -0.194 OA 
HETATM    6  O   UNL     1      -8.453  11.291  68.100  1.00  0.00    -0.132 OA 
HETATM    7  C   UNL     1     -10.194  13.497  65.326  1.00  0.00    -0.323 A  
HETATM    8  C   UNL     1     -11.036  14.449  64.730  1.00  0.00    -0.409 A  
HETATM    9  C   UNL     1     -12.063  14.028  63.884  1.00  0.00    -0.350 A  
HETATM   10  C   UNL     1     -11.489  11.721  64.337  1.00  0.00    -0.349 A  
HETATM   11  C   UNL     1     -12.282  12.668  63.682  1.00  0.00    -0.624 A  
ENDROOT
BRANCH   8  12
HETATM   12  C   UNL     1     -10.881  15.906  64.983  1.00  0.00    -0.426 C  
HETATM   13  O   UNL     1     -11.394  16.697  64.195  1.00  0.00    -1.141 OA 
BRANCH  12  14
HETATM   14  C   UNL     1     -10.154  16.419  66.182  1.00  0.00    -0.364 A  
HETATM   15  C   UNL     1      -8.814  16.828  66.127  1.00  0.00    -0.298 A  
HETATM   16  C   UNL     1      -8.180  17.327  67.266  1.00  0.00    -0.213 A  
HETATM   17  C   UNL     1      -8.866  17.386  68.477  1.00  0.00    -0.277 A  
HETATM   18  C   UNL     1     -10.185  16.939  68.553  1.00  0.00    -0.310 A  
HETATM   19  C   UNL     1     -10.827  16.455  67.410  1.00  0.00    -0.219 A  
ENDBRANCH  12  14
ENDBRANCH   8  12
TORSDOF 2
ENDMDL
MODEL       25
REMARK 921   NORMALIZED FREE ENERGY PREDICTED BY IDOCK:   -6.03 KCAL/MOL
REMARK 922        TOTAL FREE ENERGY PREDICTED BY IDOCK:   -7.28 KCAL/MOL
REMARK 923 INTER-LIGAND FREE ENERGY PREDICTED BY IDOCK:   -6.96 KCAL/MOL
REMARK 924 INTRA-LIGAND FREE ENERGY PREDICTED BY IDOCK:   -0.32 KCAL/MOL
REMARK 927      BINDING AFFINITY PREDICTED BY RF-SCORE:    0.00 PKD
ROOT
HETATM    1  C   UNL     1     -11.236  14.798  66.171  1.00  0.00    -0.337 C  
HETATM    2  C   UNL     1     -11.368  13.481  66.937  1.00  0.00    -0.350 A  
HETATM    3  C   UNL     1     -10.601  14.699  64.781  1.00  0.00    -0.379 C  
HETATM    4  C   UNL     1     -10.458  15.868  66.935  1.00  0.00    -0.309 C  
HETATM    5  O   UNL     1      -9.361  15.420  67.591  1.00  0.00    -0.201 OA 
HETATM    6  O   UNL     1     -10.756  17.055  66.920  1.00  0.00    -0.250 OA 
HETATM    7  C   UNL     1     -11.844  13.504  68.263  1.00  0.00    -0.401 A  
HETATM    8  C   UNL     1     -11.872  12.338  69.042  1.00  0.00    -0.358 A  
HETATM    9  C   UNL     1     -11.538  11.113  68.463  1.00  0.00    -0.385 A  
HETATM   10  C   UNL     1     -11.027  12.238  66.382  1.00  0.00    -0.326 A  
HETATM   11  C   UNL     1     -11.125  11.063  67.133  1.00  0.00    -0.333 A  
ENDROOT
BRANCH   8  12
HETATM   12  C   UNL     1     -12.232  12.362  70.485  1.00  0.00    -0.295 C  
HETATM   13  O   UNL     1     -12.204  11.308  71.116  1.00  0.00    -0.321 OA 
BRANCH  12  14
HETATM   14  C   UNL     1     -12.587  13.634  71.181  1.00  0.00    -0.452 A  
HETATM   15  C   UNL     1     -13.850  13.848  71.751  1.00  0.00    -0.443 A  
HETATM   16  C   UNL     1     -14.132  15.043  72.417  1.00  0.00    -0.574 A  
HETATM   17  C   UNL     1     -13.169  16.046  72.486  1.00  0.00    -0.403 A  
HETATM   18  C   UNL     1     -11.925  15.862  71.883  1.00  0.00    -0.588 A  
HETATM   19  C   UNL     1     -11.634  14.660  71.232  1.00  0.00    -0.252 A  
ENDBRANCH  12  14
ENDBRANCH   8  12
TORSDOF 2
ENDMDL
MODEL       26
REMARK 921   NORMALIZED FREE ENERGY PREDICTED BY IDOCK:   -6.02 KCAL/MOL
REMARK 922        TOTAL FREE ENERGY PREDICTED BY IDOCK:   -7.27 KCAL/MOL
REMARK 923 INTER-LIGAND FREE ENERGY PREDICTED BY IDOCK:   -7.10 KCAL/MOL
REMARK 924 INTRA-LIGAND FREE ENERGY PREDICTED BY IDOCK:   -0.17 KCAL/MOL
REMARK 927      BINDING AFFINITY PREDICTED BY RF-SCORE:    0.00 PKD
ROOT
HETATM    1  C   UNL     1     -11.854  12.398  64.842  1.00  0.00    -0.442 C  
HETATM    2  C   UNL     1     -11.239  11.636  66.017  1.00  0.00    -0.299 A  
HETATM    3  C   UNL     1     -11.129  12.252  63.501  1.00  0.00    -0.533 C  
HETATM    4  C   UNL     1     -12.000  13.897  65.102  1.00  0.00    -0.385 C  
HETATM    5  O   UNL     1     -10.950  14.473  65.735  1.00  0.00    -0.302 OA 
HETATM    6  O   UNL     1     -12.961  14.554  64.725  1.00  0.00    -0.562 OA 
HETATM    7  C   UNL     1     -11.786  11.804  67.304  1.00  0.00    -0.293 A  
HETATM    8  C   UNL     1     -11.184  11.217  68.427  1.00  0.00    -0.324 A  
HETATM    9  C   UNL     1     -10.099  10.356  68.259  1.00  0.00    -0.174 A  
HETATM   10  C   UNL     1     -10.140  10.774  65.875  1.00  0.00    -0.314 A  
HETATM   11  C   UNL     1      -9.585  10.128  66.984  1.00  0.00    -0.209 A  
ENDROOT
BRANCH   8  12
HETATM   12  C   UNL     1     -11.655  11.497  69.810  1.00  0.00    -0.326 C  
HETATM   13  O   UNL     1     -11.802  12.668  70.155  1.00  0.00    -0.318 OA 
BRANCH  12  14
HETATM   14  C   UNL     1     -11.982  10.395  70.763  1.00  0.00    -0.462 A  
HETATM   15  C   UNL     1     -13.277  10.198  71.263  1.00  0.00    -0.453 A  
HETATM   16  C   UNL     1     -13.546   9.138  72.131  1.00  0.00    -0.534 A  
HETATM   17  C   UNL     1     -12.517   8.291  72.537  1.00  0.00    -0.300 A  
HETATM   18  C   UNL     1     -11.216   8.507  72.082  1.00  0.00    -0.432 A  
HETATM   19  C   UNL     1     -10.949   9.556  71.198  1.00  0.00    -0.438 A  
ENDBRANCH  12  14
ENDBRANCH   8  12
TORSDOF 2
ENDMDL
MODEL       27
REMARK 921   NORMALIZED FREE ENERGY PREDICTED BY IDOCK:   -6.01 KCAL/MOL
REMARK 922        TOTAL FREE ENERGY PREDICTED BY IDOCK:   -7.26 KCAL/MOL
REMARK 923 INTER-LIGAND FREE ENERGY PREDICTED BY IDOCK:   -7.30 KCAL/MOL
REMARK 924 INTRA-LIGAND FREE ENERGY PREDICTED BY IDOCK:    0.04 KCAL/MOL
REMARK 927      BINDING AFFINITY PREDICTED BY RF-SCORE:    0.00 PKD
ROOT
HETATM    1  C   UNL     1     -11.110  14.193  65.863  1.00  0.00    -0.306 C  
HETATM    2  C   UNL     1     -11.221  14.739  67.287  1.00  0.00    -0.351 A  
HETATM    3  C   UNL     1     -10.630  15.189  64.803  1.00  0.00    -0.305 C  
HETATM    4  C   UNL     1     -12.413  13.589  65.342  1.00  0.00    -0.497 C  
HETATM    5  O   UNL     1     -13.532  14.287  65.654  1.00  0.00    -0.502 OA 
HETATM    6  O   UNL     1     -12.458  12.583  64.647  1.00  0.00    -0.471 OA 
HETATM    7  C   UNL     1     -11.754  13.915  68.298  1.00  0.00    -0.396 A  
HETATM    8  C   UNL     1     -11.983  14.412  69.590  1.00  0.00    -0.385 A  
HETATM    9  C   UNL     1     -11.566  15.703  69.917  1.00  0.00    -0.354 A  
HETATM   10  C   UNL     1     -10.819  16.037  67.639  1.00  0.00    -0.311 A  
HETATM   11  C   UNL     1     -10.977  16.509  68.945  1.00  0.00    -0.325 A  
ENDROOT
BRANCH   8  12
HETATM   12  C   UNL     1     -12.678  13.609  70.631  1.00  0.00    -0.233 C  
HETATM   13  O   UNL     1     -13.475  14.176  71.376  1.00  0.00    -0.345 OA 
BRANCH  12  14
HETATM   14  C   UNL     1     -12.454  12.139  70.764  1.00  0.00    -0.362 A  
HETATM   15  C   UNL     1     -13.094  11.370  71.746  1.00  0.00    -0.523 A  
HETATM   16  C   UNL     1     -12.878   9.992  71.817  1.00  0.00    -0.546 A  
HETATM   17  C   UNL     1     -11.993   9.379  70.934  1.00  0.00    -0.351 A  
HETATM   18  C   UNL     1     -11.316  10.142  69.982  1.00  0.00    -0.351 A  
HETATM   19  C   UNL     1     -11.545  11.518  69.898  1.00  0.00    -0.387 A  
ENDBRANCH  12  14
ENDBRANCH   8  12
TORSDOF 2
ENDMDL
MODEL       28
REMARK 921   NORMALIZED FREE ENERGY PREDICTED BY IDOCK:   -6.00 KCAL/MOL
REMARK 922        TOTAL FREE ENERGY PREDICTED BY IDOCK:   -7.25 KCAL/MOL
REMARK 923 INTER-LIGAND FREE ENERGY PREDICTED BY IDOCK:   -7.00 KCAL/MOL
REMARK 924 INTRA-LIGAND FREE ENERGY PREDICTED BY IDOCK:   -0.25 KCAL/MOL
REMARK 927      BINDING AFFINITY PREDICTED BY RF-SCORE:    0.00 PKD
ROOT
HETATM    1  C   UNL     1     -11.277  14.928  66.403  1.00  0.00    -0.331 C  
HETATM    2  C   UNL     1     -11.339  13.512  66.976  1.00  0.00    -0.348 A  
HETATM    3  C   UNL     1     -10.668  15.054  65.004  1.00  0.00    -0.448 C  
HETATM    4  C   UNL     1     -10.527  15.913  67.299  1.00  0.00    -0.310 C  
HETATM    5  O   UNL     1      -9.400  15.424  67.869  1.00  0.00    -0.191 OA 
HETATM    6  O   UNL     1     -10.874  17.076  67.458  1.00  0.00    -0.305 OA 
HETATM    7  C   UNL     1     -11.787  13.327  68.299  1.00  0.00    -0.389 A  
HETATM    8  C   UNL     1     -11.750  12.062  68.905  1.00  0.00    -0.383 A  
HETATM    9  C   UNL     1     -11.379  10.947  68.153  1.00  0.00    -0.383 A  
HETATM   10  C   UNL     1     -10.959  12.376  66.245  1.00  0.00    -0.323 A  
HETATM   11  C   UNL     1     -10.993  11.104  66.823  1.00  0.00    -0.309 A  
ENDROOT
BRANCH   8  12
HETATM   12  C   UNL     1     -12.081  11.866  70.342  1.00  0.00    -0.333 C  
HETATM   13  O   UNL     1     -12.493  12.829  70.986  1.00  0.00    -0.376 OA 
BRANCH  12  14
HETATM   14  C   UNL     1     -11.956  10.532  70.999  1.00  0.00    -0.466 A  
HETATM   15  C   UNL     1     -10.738   9.842  71.067  1.00  0.00    -0.342 A  
HETATM   16  C   UNL     1     -10.659   8.607  71.715  1.00  0.00    -0.395 A  
HETATM   17  C   UNL     1     -11.803   8.036  72.266  1.00  0.00    -0.424 A  
HETATM   18  C   UNL     1     -13.030   8.693  72.164  1.00  0.00    -0.432 A  
HETATM   19  C   UNL     1     -13.107   9.936  71.531  1.00  0.00    -0.516 A  
ENDBRANCH  12  14
ENDBRANCH   8  12
TORSDOF 2
ENDMDL
MODEL       29
REMARK 921   NORMALIZED FREE ENERGY PREDICTED BY IDOCK:   -5.98 KCAL/MOL
REMARK 922        TOTAL FREE ENERGY PREDICTED BY IDOCK:   -7.23 KCAL/MOL
REMARK 923 INTER-LIGAND FREE ENERGY PREDICTED BY IDOCK:   -7.02 KCAL/MOL
REMARK 924 INTRA-LIGAND FREE ENERGY PREDICTED BY IDOCK:   -0.21 KCAL/MOL
REMARK 927      BINDING AFFINITY PREDICTED BY RF-SCORE:    0.00 PKD
ROOT
HETATM    1  C   UNL     1     -10.361   8.168  70.027  1.00  0.00    -0.215 C  
HETATM    2  C   UNL     1     -11.357   9.151  70.645  1.00  0.00    -0.323 A  
HETATM    3  C   UNL     1     -10.247   6.810  70.726  1.00  0.00    -0.215 C  
HETATM    4  C   UNL     1      -8.944   8.728  69.920  1.00  0.00    -0.152 C  
HETATM    5  O   UNL     1      -8.528   9.442  70.995  1.00  0.00    -0.285 OA 
HETATM    6  O   UNL     1      -8.205   8.512  68.969  1.00  0.00    -0.113 OA 
HETATM    7  C   UNL     1     -11.442  10.458  70.124  1.00  0.00    -0.396 A  
HETATM    8  C   UNL     1     -12.255  11.426  70.732  1.00  0.00    -0.475 A  
HETATM    9  C   UNL     1     -13.085  11.064  71.793  1.00  0.00    -0.554 A  
HETATM   10  C   UNL     1     -12.194   8.815  71.720  1.00  0.00    -0.415 A  
HETATM   11  C   UNL     1     -13.060   9.759  72.279  1.00  0.00    -0.445 A  
ENDROOT
BRANCH   8  12
HETATM   12  C   UNL     1     -12.252  12.847  70.291  1.00  0.00    -0.289 C  
HETATM   13  O   UNL     1     -11.945  13.101  69.128  1.00  0.00    -0.305 OA 
BRANCH  12  14
HETATM   14  C   UNL     1     -12.643  13.954  71.214  1.00  0.00    -0.450 A  
HETATM   15  C   UNL     1     -11.706  14.850  71.747  1.00  0.00    -0.398 A  
HETATM   16  C   UNL     1     -12.118  15.888  72.585  1.00  0.00    -0.615 A  
HETATM   17  C   UNL     1     -13.463  16.015  72.927  1.00  0.00    -0.532 A  
HETATM   18  C   UNL     1     -14.396  15.101  72.439  1.00  0.00    -0.453 A  
HETATM   19  C   UNL     1     -13.988  14.072  71.586  1.00  0.00    -0.390 A  
ENDBRANCH  12  14
ENDBRANCH   8  12
TORSDOF 2
ENDMDL
MODEL       30
REMARK 921   NORMALIZED FREE ENERGY PREDICTED BY IDOCK:   -5.93 KCAL/MOL
REMARK 922        TOTAL FREE ENERGY PREDICTED BY IDOCK:   -7.17 KCAL/MOL
REMARK 923 INTER-LIGAND FREE ENERGY PREDICTED BY IDOCK:   -6.55 KCAL/MOL
REMARK 924 INTRA-LIGAND FREE ENERGY PREDICTED BY IDOCK:   -0.62 KCAL/MOL
REMARK 927      BINDING AFFINITY PREDICTED BY RF-SCORE:    0.00 PKD
ROOT
HETATM    1  C   UNL     1     -10.542  12.570  68.573  1.00  0.00    -0.262 C  
HETATM    2  C   UNL     1     -11.478  12.327  69.758  1.00  0.00    -0.237 A  
HETATM    3  C   UNL     1     -10.487  14.009  68.053  1.00  0.00    -0.241 C  
HETATM    4  C   UNL     1     -10.842  11.678  67.370  1.00  0.00    -0.250 C  
HETATM    5  O   UNL     1     -12.158  11.510  67.096  1.00  0.00    -0.494 OA 
HETATM    6  O   UNL     1      -9.972  11.190  66.661  1.00  0.00    -0.197 OA 
HETATM    7  C   UNL     1     -11.663  11.011  70.226  1.00  0.00    -0.445 A  
HETATM    8  C   UNL     1     -12.600  10.726  71.231  1.00  0.00    -0.532 A  
HETATM    9  C   UNL     1     -13.272  11.771  71.864  1.00  0.00    -0.468 A  
HETATM   10  C   UNL     1     -12.175  13.359  70.404  1.00  0.00    -0.415 A  
HETATM   11  C   UNL     1     -13.053  13.085  71.457  1.00  0.00    -0.400 A  
ENDROOT
BRANCH   8  12
HETATM   12  C   UNL     1     -12.918   9.331  71.639  1.00  0.00    -0.374 C  
HETATM   13  O   UNL     1     -14.063   9.072  72.001  1.00  0.00    -0.407 OA 
BRANCH  12  14
HETATM   14  C   UNL     1     -11.893   8.247  71.584  1.00  0.00    -0.345 A  
HETATM   15  C   UNL     1     -11.916   7.244  70.605  1.00  0.00    -0.259 A  
HETATM   16  C   UNL     1     -10.922   6.263  70.574  1.00  0.00    -0.374 A  
HETATM   17  C   UNL     1      -9.920   6.256  71.540  1.00  0.00    -0.208 A  
HETATM   18  C   UNL     1      -9.913   7.223  72.546  1.00  0.00    -0.213 A  
HETATM   19  C   UNL     1     -10.897   8.215  72.569  1.00  0.00    -0.431 A  
ENDBRANCH  12  14
ENDBRANCH   8  12
TORSDOF 2
ENDMDL
MODEL       31
REMARK 921   NORMALIZED FREE ENERGY PREDICTED BY IDOCK:   -5.91 KCAL/MOL
REMARK 922        TOTAL FREE ENERGY PREDICTED BY IDOCK:   -7.15 KCAL/MOL
REMARK 923 INTER-LIGAND FREE ENERGY PREDICTED BY IDOCK:   -6.64 KCAL/MOL
REMARK 924 INTRA-LIGAND FREE ENERGY PREDICTED BY IDOCK:   -0.50 KCAL/MOL
REMARK 927      BINDING AFFINITY PREDICTED BY RF-SCORE:    0.00 PKD
ROOT
HETATM    1  C   UNL     1     -11.473  12.154  66.501  1.00  0.00    -0.430 C  
HETATM    2  C   UNL     1     -11.184  13.521  67.124  1.00  0.00    -0.324 A  
HETATM    3  C   UNL     1     -11.434  10.963  67.463  1.00  0.00    -0.234 C  
HETATM    4  C   UNL     1     -10.544  11.810  65.337  1.00  0.00    -0.277 C  
HETATM    5  O   UNL     1      -9.245  12.146  65.523  1.00  0.00    -0.067 OA 
HETATM    6  O   UNL     1     -10.917  11.224  64.330  1.00  0.00    -0.354 OA 
HETATM    7  C   UNL     1     -11.097  14.650  66.286  1.00  0.00    -0.336 A  
HETATM    8  C   UNL     1     -10.721  15.902  66.797  1.00  0.00    -0.281 A  
HETATM    9  C   UNL     1     -10.546  16.062  68.172  1.00  0.00    -0.286 A  
HETATM   10  C   UNL     1     -10.993  13.706  68.502  1.00  0.00    -0.289 A  
HETATM   11  C   UNL     1     -10.691  14.968  69.022  1.00  0.00    -0.239 A  
ENDROOT
BRANCH   8  12
HETATM   12  C   UNL     1     -10.481  17.074  65.913  1.00  0.00    -0.274 C  
HETATM   13  O   UNL     1     -10.872  17.021  64.749  1.00  0.00    -0.820 OA 
BRANCH  12  14
HETATM   14  C   UNL     1      -9.813  18.310  66.417  1.00  0.00    -0.358 A  
HETATM   15  C   UNL     1     -10.536  19.450  66.795  1.00  0.00    -0.574 A  
HETATM   16  C   UNL     1      -9.874  20.577  67.287  1.00  0.00    -0.581 A  
HETATM   17  C   UNL     1      -8.484  20.587  67.371  1.00  0.00    -0.354 A  
HETATM   18  C   UNL     1      -7.752  19.474  66.955  1.00  0.00    -0.276 A  
HETATM   19  C   UNL     1      -8.414  18.340  66.478  1.00  0.00    -0.287 A  
ENDBRANCH  12  14
ENDBRANCH   8  12
TORSDOF 2
ENDMDL
MODEL       32
REMARK 921   NORMALIZED FREE ENERGY PREDICTED BY IDOCK:   -5.89 KCAL/MOL
REMARK 922        TOTAL FREE ENERGY PREDICTED BY IDOCK:   -7.13 KCAL/MOL
REMARK 923 INTER-LIGAND FREE ENERGY PREDICTED BY IDOCK:   -6.65 KCAL/MOL
REMARK 924 INTRA-LIGAND FREE ENERGY PREDICTED BY IDOCK:   -0.47 KCAL/MOL
REMARK 927      BINDING AFFINITY PREDICTED BY RF-SCORE:    0.00 PKD
ROOT
HETATM    1  C   UNL     1     -11.065  14.774  64.767  1.00  0.00    -0.393 C  
HETATM    2  C   UNL     1     -10.626  14.284  66.148  1.00  0.00    -0.293 A  
HETATM    3  C   UNL     1     -11.164  16.293  64.600  1.00  0.00    -0.264 C  
HETATM    4  C   UNL     1     -12.404  14.193  64.315  1.00  0.00    -0.365 C  
HETATM    5  O   UNL     1     -13.352  14.124  65.280  1.00  0.00    -0.715 OA 
HETATM    6  O   UNL     1     -12.638  13.862  63.160  1.00  0.00    -0.775 OA 
HETATM    7  C   UNL     1     -10.612  12.900  66.411  1.00  0.00    -0.285 A  
HETATM    8  C   UNL     1     -10.330  12.412  67.696  1.00  0.00    -0.223 A  
HETATM    9  C   UNL     1      -9.938  13.297  68.701  1.00  0.00    -0.127 A  
HETATM   10  C   UNL     1     -10.239  15.155  67.178  1.00  0.00    -0.247 A  
HETATM   11  C   UNL     1      -9.884  14.664  68.439  1.00  0.00    -0.220 A  
ENDROOT
BRANCH   8  12
HETATM   12  C   UNL     1     -10.451  10.968  68.034  1.00  0.00    -0.189 C  
HETATM   13  O   UNL     1     -10.068  10.138  67.213  1.00  0.00    -0.186 OA 
BRANCH  12  14
HETATM   14  C   UNL     1     -10.990  10.516  69.351  1.00  0.00    -0.297 A  
HETATM   15  C   UNL     1     -10.308   9.600  70.164  1.00  0.00    -0.315 A  
HETATM   16  C   UNL     1     -10.835   9.224  71.402  1.00  0.00    -0.434 A  
HETATM   17  C   UNL     1     -12.063   9.731  71.819  1.00  0.00    -0.425 A  
HETATM   18  C   UNL     1     -12.771  10.608  70.997  1.00  0.00    -0.512 A  
HETATM   19  C   UNL     1     -12.237  10.999  69.767  1.00  0.00    -0.388 A  
ENDBRANCH  12  14
ENDBRANCH   8  12
TORSDOF 2
ENDMDL
MODEL       33
REMARK 921   NORMALIZED FREE ENERGY PREDICTED BY IDOCK:   -5.88 KCAL/MOL
REMARK 922        TOTAL FREE ENERGY PREDICTED BY IDOCK:   -7.11 KCAL/MOL
REMARK 923 INTER-LIGAND FREE ENERGY PREDICTED BY IDOCK:   -6.55 KCAL/MOL
REMARK 924 INTRA-LIGAND FREE ENERGY PREDICTED BY IDOCK:   -0.56 KCAL/MOL
REMARK 927      BINDING AFFINITY PREDICTED BY RF-SCORE:    0.00 PKD
ROOT
HETATM    1  C   UNL     1      -9.270  18.573  67.835  1.00  0.00    -0.306 C  
HETATM    2  C   UNL     1      -9.867  17.193  68.116  1.00  0.00    -0.281 A  
HETATM    3  C   UNL     1      -9.907  19.741  68.594  1.00  0.00    -0.491 C  
HETATM    4  C   UNL     1      -9.284  18.950  66.355  1.00  0.00    -0.313 C  
HETATM    5  O   UNL     1     -10.417  18.617  65.690  1.00  0.00    -0.603 OA 
HETATM    6  O   UNL     1      -8.374  19.557  65.806  1.00  0.00    -0.420 OA 
HETATM    7  C   UNL     1      -9.407  16.084  67.379  1.00  0.00    -0.220 A  
HETATM    8  C   UNL     1     -10.006  14.824  67.520  1.00  0.00    -0.219 A  
HETATM    9  C   UNL     1     -10.991  14.632  68.489  1.00  0.00    -0.261 A  
HETATM   10  C   UNL     1     -10.867  16.976  69.077  1.00  0.00    -0.206 A  
HETATM   11  C   UNL     1     -11.413  15.704  69.271  1.00  0.00    -0.368 A  
ENDROOT
BRANCH   8  12
HETATM   12  C   UNL     1      -9.636  13.674  66.651  1.00  0.00    -0.283 C  
HETATM   13  O   UNL     1      -8.628  13.029  66.928  1.00  0.00    -0.194 OA 
BRANCH  12  14
HETATM   14  C   UNL     1     -10.477  13.274  65.484  1.00  0.00    -0.295 A  
HETATM   15  C   UNL     1     -11.540  14.062  65.022  1.00  0.00    -0.351 A  
HETATM   16  C   UNL     1     -12.284  13.663  63.909  1.00  0.00    -0.429 A  
HETATM   17  C   UNL     1     -11.997  12.457  63.274  1.00  0.00    -0.509 A  
HETATM   18  C   UNL     1     -10.970  11.644  63.754  1.00  0.00    -0.495 A  
HETATM   19  C   UNL     1     -10.213  12.049  64.856  1.00  0.00    -0.302 A  
ENDBRANCH  12  14
ENDBRANCH   8  12
TORSDOF 2
ENDMDL
MODEL       34
REMARK 921   NORMALIZED FREE ENERGY PREDICTED BY IDOCK:   -5.86 KCAL/MOL
REMARK 922        TOTAL FREE ENERGY PREDICTED BY IDOCK:   -7.09 KCAL/MOL
REMARK 923 INTER-LIGAND FREE ENERGY PREDICTED BY IDOCK:   -6.59 KCAL/MOL
REMARK 924 INTRA-LIGAND FREE ENERGY PREDICTED BY IDOCK:   -0.50 KCAL/MOL
REMARK 927      BINDING AFFINITY PREDICTED BY RF-SCORE:    0.00 PKD
ROOT
HETATM    1  C   UNL     1     -11.582   8.976  70.892  1.00  0.00    -0.344 C  
HETATM    2  C   UNL     1     -11.691  10.416  70.387  1.00  0.00    -0.419 A  
HETATM    3  C   UNL     1     -12.154   8.715  72.288  1.00  0.00    -0.443 C  
HETATM    4  C   UNL     1     -10.151   8.442  70.896  1.00  0.00    -0.194 C  
HETATM    5  O   UNL     1      -9.213   9.321  71.322  1.00  0.00    -0.240 OA 
HETATM    6  O   UNL     1      -9.862   7.292  70.594  1.00  0.00    -0.180 OA 
HETATM    7  C   UNL     1     -11.094  10.758  69.158  1.00  0.00    -0.304 A  
HETATM    8  C   UNL     1     -11.067  12.088  68.713  1.00  0.00    -0.298 A  
HETATM    9  C   UNL     1     -11.745  13.072  69.434  1.00  0.00    -0.386 A  
HETATM   10  C   UNL     1     -12.356  11.426  71.100  1.00  0.00    -0.404 A  
HETATM   11  C   UNL     1     -12.395  12.738  70.620  1.00  0.00    -0.381 A  
ENDROOT
BRANCH   8  12
HETATM   12  C   UNL     1     -10.319  12.496  67.493  1.00  0.00    -0.220 C  
HETATM   13  O   UNL     1      -9.139  12.821  67.609  1.00  0.00    -0.176 OA 
BRANCH  12  14
HETATM   14  C   UNL     1     -10.956  12.485  66.144  1.00  0.00    -0.318 A  
HETATM   15  C   UNL     1     -12.136  13.189  65.867  1.00  0.00    -0.501 A  
HETATM   16  C   UNL     1     -12.685  13.174  64.583  1.00  0.00    -0.326 A  
HETATM   17  C   UNL     1     -12.080  12.425  63.576  1.00  0.00    -0.651 A  
HETATM   18  C   UNL     1     -10.931  11.683  63.852  1.00  0.00    -0.478 A  
HETATM   19  C   UNL     1     -10.371  11.712  65.132  1.00  0.00    -0.326 A  
ENDBRANCH  12  14
ENDBRANCH   8  12
TORSDOF 2
ENDMDL
MODEL       35
REMARK 921   NORMALIZED FREE ENERGY PREDICTED BY IDOCK:   -5.86 KCAL/MOL
REMARK 922        TOTAL FREE ENERGY PREDICTED BY IDOCK:   -7.09 KCAL/MOL
REMARK 923 INTER-LIGAND FREE ENERGY PREDICTED BY IDOCK:   -6.61 KCAL/MOL
REMARK 924 INTRA-LIGAND FREE ENERGY PREDICTED BY IDOCK:   -0.48 KCAL/MOL
REMARK 927      BINDING AFFINITY PREDICTED BY RF-SCORE:    0.00 PKD
ROOT
HETATM    1  C   UNL     1     -11.162  12.899  68.949  1.00  0.00    -0.327 C  
HETATM    2  C   UNL     1     -11.678  11.836  69.919  1.00  0.00    -0.399 A  
HETATM    3  C   UNL     1     -11.942  14.217  68.929  1.00  0.00    -0.376 C  
HETATM    4  C   UNL     1     -11.081  12.413  67.503  1.00  0.00    -0.266 C  
HETATM    5  O   UNL     1     -12.128  11.656  67.095  1.00  0.00    -0.575 OA 
HETATM    6  O   UNL     1     -10.175  12.720  66.740  1.00  0.00    -0.234 OA 
HETATM    7  C   UNL     1     -11.079  10.560  69.920  1.00  0.00    -0.371 A  
HETATM    8  C   UNL     1     -11.595   9.520  70.708  1.00  0.00    -0.378 A  
HETATM    9  C   UNL     1     -12.640   9.779  71.595  1.00  0.00    -0.509 A  
HETATM   10  C   UNL     1     -12.736  12.067  70.813  1.00  0.00    -0.231 A  
HETATM   11  C   UNL     1     -13.202  11.052  71.653  1.00  0.00    -0.461 A  
ENDROOT
BRANCH   8  12
HETATM   12  C   UNL     1     -11.073   8.130  70.618  1.00  0.00    -0.254 C  
HETATM   13  O   UNL     1     -10.795   7.678  69.509  1.00  0.00    -0.234 OA 
BRANCH  12  14
HETATM   14  C   UNL     1     -10.849   7.298  71.837  1.00  0.00    -0.255 A  
HETATM   15  C   UNL     1     -10.103   7.758  72.931  1.00  0.00    -0.363 A  
HETATM   16  C   UNL     1      -9.941   6.957  74.063  1.00  0.00    -0.371 A  
HETATM   17  C   UNL     1     -10.491   5.677  74.096  1.00  0.00    -0.281 A  
HETATM   18  C   UNL     1     -11.196   5.193  72.995  1.00  0.00    -0.390 A  
HETATM   19  C   UNL     1     -11.374   5.999  71.868  1.00  0.00    -0.335 A  
ENDBRANCH  12  14
ENDBRANCH   8  12
TORSDOF 2
ENDMDL
MODEL       36
REMARK 921   NORMALIZED FREE ENERGY PREDICTED BY IDOCK:   -5.85 KCAL/MOL
REMARK 922        TOTAL FREE ENERGY PREDICTED BY IDOCK:   -7.08 KCAL/MOL
REMARK 923 INTER-LIGAND FREE ENERGY PREDICTED BY IDOCK:   -6.55 KCAL/MOL
REMARK 924 INTRA-LIGAND FREE ENERGY PREDICTED BY IDOCK:   -0.53 KCAL/MOL
REMARK 927      BINDING AFFINITY PREDICTED BY RF-SCORE:    0.00 PKD
ROOT
HETATM    1  C   UNL     1     -11.187  12.549  63.584  1.00  0.00    -0.545 C  
HETATM    2  C   UNL     1     -11.325  13.436  64.823  1.00  0.00    -0.356 A  
HETATM    3  C   UNL     1     -12.278  11.490  63.399  1.00  0.00    -0.129 C  
HETATM    4  C   UNL     1      -9.847  11.819  63.507  1.00  0.00    -0.365 C  
HETATM    5  O   UNL     1      -9.401  11.316  64.683  1.00  0.00    -0.208 OA 
HETATM    6  O   UNL     1      -9.237  11.643  62.461  1.00  0.00    -0.302 OA 
HETATM    7  C   UNL     1     -10.305  14.362  65.119  1.00  0.00    -0.447 A  
HETATM    8  C   UNL     1     -10.332  15.112  66.305  1.00  0.00    -0.303 A  
HETATM    9  C   UNL     1     -11.441  15.032  67.147  1.00  0.00    -0.304 A  
HETATM   10  C   UNL     1     -12.424  13.366  65.692  1.00  0.00    -0.519 A  
HETATM   11  C   UNL     1     -12.488  14.167  66.836  1.00  0.00    -0.142 A  
ENDROOT
BRANCH   8  12
HETATM   12  C   UNL     1      -9.199  15.986  66.709  1.00  0.00    -0.240 C  
HETATM   13  O   UNL     1      -8.071  15.500  66.762  1.00  0.00    -0.232 OA 
BRANCH  12  14
HETATM   14  C   UNL     1      -9.398  17.434  67.015  1.00  0.00    -0.265 A  
HETATM   15  C   UNL     1      -8.902  18.028  68.184  1.00  0.00    -0.277 A  
HETATM   16  C   UNL     1      -9.088  19.392  68.418  1.00  0.00    -0.410 A  
HETATM   17  C   UNL     1      -9.802  20.165  67.505  1.00  0.00    -0.574 A  
HETATM   18  C   UNL     1     -10.339  19.574  66.361  1.00  0.00    -0.594 A  
HETATM   19  C   UNL     1     -10.139  18.213  66.117  1.00  0.00    -0.338 A  
ENDBRANCH  12  14
ENDBRANCH   8  12
TORSDOF 2
ENDMDL
MODEL       37
REMARK 921   NORMALIZED FREE ENERGY PREDICTED BY IDOCK:   -5.85 KCAL/MOL
REMARK 922        TOTAL FREE ENERGY PREDICTED BY IDOCK:   -7.07 KCAL/MOL
REMARK 923 INTER-LIGAND FREE ENERGY PREDICTED BY IDOCK:   -6.53 KCAL/MOL
REMARK 924 INTRA-LIGAND FREE ENERGY PREDICTED BY IDOCK:   -0.55 KCAL/MOL
REMARK 927      BINDING AFFINITY PREDICTED BY RF-SCORE:    0.00 PKD
ROOT
HETATM    1  C   UNL     1     -10.095  11.376  67.041  1.00  0.00    -0.237 C  
HETATM    2  C   UNL     1     -10.342  12.790  66.514  1.00  0.00    -0.262 A  
HETATM    3  C   UNL     1     -10.235  10.249  66.014  1.00  0.00    -0.298 C  
HETATM    4  C   UNL     1     -10.987  11.005  68.225  1.00  0.00    -0.235 C  
HETATM    5  O   UNL     1     -12.275  11.412  68.121  1.00  0.00    -0.602 OA 
HETATM    6  O   UNL     1     -10.598  10.342  69.178  1.00  0.00    -0.199 OA 
HETATM    7  C   UNL     1     -10.336  13.869  67.420  1.00  0.00    -0.252 A  
HETATM    8  C   UNL     1     -10.673  15.166  67.002  1.00  0.00    -0.307 A  
HETATM    9  C   UNL     1     -10.900  15.417  65.649  1.00  0.00    -0.363 A  
HETATM   10  C   UNL     1     -10.586  13.068  65.160  1.00  0.00    -0.327 A  
HETATM   11  C   UNL     1     -10.847  14.372  64.730  1.00  0.00    -0.415 A  
ENDROOT
BRANCH   8  12
HETATM   12  C   UNL     1     -10.815  16.292  67.964  1.00  0.00    -0.339 C  
HETATM   13  O   UNL     1     -11.554  16.145  68.935  1.00  0.00    -0.357 OA 
BRANCH  12  14
HETATM   14  C   UNL     1     -10.059  17.567  67.792  1.00  0.00    -0.330 A  
HETATM   15  C   UNL     1      -8.674  17.649  67.993  1.00  0.00    -0.253 A  
HETATM   16  C   UNL     1      -8.001  18.857  67.795  1.00  0.00    -0.275 A  
HETATM   17  C   UNL     1      -8.711  19.999  67.432  1.00  0.00    -0.417 A  
HETATM   18  C   UNL     1     -10.096  19.938  67.274  1.00  0.00    -0.569 A  
HETATM   19  C   UNL     1     -10.768  18.727  67.455  1.00  0.00    -0.487 A  
ENDBRANCH  12  14
ENDBRANCH   8  12
TORSDOF 2
ENDMDL
MODEL       38
REMARK 921   NORMALIZED FREE ENERGY PREDICTED BY IDOCK:   -5.83 KCAL/MOL
REMARK 922        TOTAL FREE ENERGY PREDICTED BY IDOCK:   -7.06 KCAL/MOL
REMARK 923 INTER-LIGAND FREE ENERGY PREDICTED BY IDOCK:   -6.59 KCAL/MOL
REMARK 924 INTRA-LIGAND FREE ENERGY PREDICTED BY IDOCK:   -0.47 KCAL/MOL
REMARK 927      BINDING AFFINITY PREDICTED BY RF-SCORE:    0.00 PKD
ROOT
HETATM    1  C   UNL     1      -9.171  10.728  64.291  1.00  0.00    -0.246 C  
HETATM    2  C   UNL     1     -10.360  11.657  64.536  1.00  0.00    -0.349 A  
HETATM    3  C   UNL     1      -9.232   9.893  63.008  1.00  0.00    -0.284 C  
HETATM    4  C   UNL     1      -8.917   9.752  65.439  1.00  0.00    -0.190 C  
HETATM    5  O   UNL     1     -10.030   9.205  65.982  1.00  0.00    -0.291 OA 
HETATM    6  O   UNL     1      -7.796   9.435  65.815  1.00  0.00    -0.097 OA 
HETATM    7  C   UNL     1     -10.428  12.379  65.745  1.00  0.00    -0.288 A  
HETATM    8  C   UNL     1     -11.555  13.151  66.063  1.00  0.00    -0.393 A  
HETATM    9  C   UNL     1     -12.573  13.309  65.122  1.00  0.00    -0.512 A  
HETATM   10  C   UNL     1     -11.402  11.823  63.611  1.00  0.00    -0.525 A  
HETATM   11  C   UNL     1     -12.491  12.653  63.895  1.00  0.00    -0.498 A  
ENDROOT
BRANCH   8  12
HETATM   12  C   UNL     1     -11.714  13.803  67.391  1.00  0.00    -0.382 C  
HETATM   13  O   UNL     1     -11.654  15.029  67.454  1.00  0.00    -0.348 OA 
BRANCH  12  14
HETATM   14  C   UNL     1     -11.977  13.008  68.626  1.00  0.00    -0.298 A  
HETATM   15  C   UNL     1     -11.984  11.606  68.627  1.00  0.00    -0.311 A  
HETATM   16  C   UNL     1     -12.207  10.900  69.811  1.00  0.00    -0.381 A  
HETATM   17  C   UNL     1     -12.463  11.589  70.995  1.00  0.00    -0.458 A  
HETATM   18  C   UNL     1     -12.505  12.983  70.996  1.00  0.00    -0.385 A  
HETATM   19  C   UNL     1     -12.263  13.691  69.815  1.00  0.00    -0.350 A  
ENDBRANCH  12  14
ENDBRANCH   8  12
TORSDOF 2
ENDMDL
MODEL       39
REMARK 921   NORMALIZED FREE ENERGY PREDICTED BY IDOCK:   -5.81 KCAL/MOL
REMARK 922        TOTAL FREE ENERGY PREDICTED BY IDOCK:   -7.03 KCAL/MOL
REMARK 923 INTER-LIGAND FREE ENERGY PREDICTED BY IDOCK:   -6.46 KCAL/MOL
REMARK 924 INTRA-LIGAND FREE ENERGY PREDICTED BY IDOCK:   -0.57 KCAL/MOL
REMARK 927      BINDING AFFINITY PREDICTED BY RF-SCORE:    0.00 PKD
ROOT
HETATM    1  C   UNL     1      -8.972  18.387  67.915  1.00  0.00    -0.296 C  
HETATM    2  C   UNL     1      -9.616  17.038  68.237  1.00  0.00    -0.273 A  
HETATM    3  C   UNL     1      -9.529  19.590  68.680  1.00  0.00    -0.462 C  
HETATM    4  C   UNL     1      -9.026  18.745  66.431  1.00  0.00    -0.292 C  
HETATM    5  O   UNL     1     -10.196  18.453  65.814  1.00  0.00    -0.571 OA 
HETATM    6  O   UNL     1      -8.112  19.306  65.840  1.00  0.00    -0.432 OA 
HETATM    7  C   UNL     1      -9.231  15.901  67.499  1.00  0.00    -0.210 A  
HETATM    8  C   UNL     1      -9.878  14.669  67.680  1.00  0.00    -0.218 A  
HETATM    9  C   UNL     1     -10.833  14.532  68.687  1.00  0.00    -0.259 A  
HETATM   10  C   UNL     1     -10.587  16.876  69.237  1.00  0.00    -0.325 A  
HETATM   11  C   UNL     1     -11.179  15.631  69.470  1.00  0.00    -0.313 A  
ENDROOT
BRANCH   8  12
HETATM   12  C   UNL     1      -9.591  13.494  66.814  1.00  0.00    -0.267 C  
HETATM   13  O   UNL     1      -8.673  12.740  67.131  1.00  0.00    -0.190 OA 
BRANCH  12  14
HETATM   14  C   UNL     1     -10.410  13.197  65.601  1.00  0.00    -0.291 A  
HETATM   15  C   UNL     1     -10.480  11.914  65.041  1.00  0.00    -0.333 A  
HETATM   16  C   UNL     1     -11.280  11.674  63.921  1.00  0.00    -0.479 A  
HETATM   17  C   UNL     1     -11.985  12.721  63.332  1.00  0.00    -0.613 A  
HETATM   18  C   UNL     1     -11.886  14.011  63.854  1.00  0.00    -0.263 A  
HETATM   19  C   UNL     1     -11.100  14.249  64.984  1.00  0.00    -0.377 A  
ENDBRANCH  12  14
ENDBRANCH   8  12
TORSDOF 2
ENDMDL
MODEL       40
REMARK 921   NORMALIZED FREE ENERGY PREDICTED BY IDOCK:   -5.77 KCAL/MOL
REMARK 922        TOTAL FREE ENERGY PREDICTED BY IDOCK:   -6.98 KCAL/MOL
REMARK 923 INTER-LIGAND FREE ENERGY PREDICTED BY IDOCK:   -6.47 KCAL/MOL
REMARK 924 INTRA-LIGAND FREE ENERGY PREDICTED BY IDOCK:   -0.51 KCAL/MOL
REMARK 927      BINDING AFFINITY PREDICTED BY RF-SCORE:    0.00 PKD
ROOT
HETATM    1  C   UNL     1     -11.118  11.479  64.660  1.00  0.00    -0.317 C  
HETATM    2  C   UNL     1     -10.248  10.892  65.772  1.00  0.00    -0.318 A  
HETATM    3  C   UNL     1     -10.365  12.177  63.524  1.00  0.00    -0.473 C  
HETATM    4  C   UNL     1     -12.165  12.470  65.168  1.00  0.00    -0.448 C  
HETATM    5  O   UNL     1     -11.729  13.319  66.130  1.00  0.00    -0.340 OA 
HETATM    6  O   UNL     1     -13.298  12.542  64.713  1.00  0.00    -0.773 OA 
HETATM    7  C   UNL     1     -10.870  10.327  66.903  1.00  0.00    -0.205 A  
HETATM    8  C   UNL     1     -10.114   9.883  67.998  1.00  0.00    -0.202 A  
HETATM    9  C   UNL     1      -8.721   9.887  67.922  1.00  0.00    -0.129 A  
HETATM   10  C   UNL     1      -8.845  10.894  65.725  1.00  0.00    -0.202 A  
HETATM   11  C   UNL     1      -8.089  10.383  66.784  1.00  0.00    -0.120 A  
ENDROOT
BRANCH   8  12
HETATM   12  C   UNL     1     -10.751   9.419  69.260  1.00  0.00    -0.211 C  
HETATM   13  O   UNL     1     -10.574   8.256  69.614  1.00  0.00    -0.227 OA 
BRANCH  12  14
HETATM   14  C   UNL     1     -11.563  10.339  70.111  1.00  0.00    -0.376 A  
HETATM   15  C   UNL     1     -11.527  11.731  69.954  1.00  0.00    -0.285 A  
HETATM   16  C   UNL     1     -12.323  12.554  70.753  1.00  0.00    -0.376 A  
HETATM   17  C   UNL     1     -13.133  11.996  71.739  1.00  0.00    -0.460 A  
HETATM   18  C   UNL     1     -13.142  10.614  71.934  1.00  0.00    -0.563 A  
HETATM   19  C   UNL     1     -12.359   9.788  71.124  1.00  0.00    -0.451 A  
ENDBRANCH  12  14
ENDBRANCH   8  12
TORSDOF 2
ENDMDL
MODEL       41
REMARK 921   NORMALIZED FREE ENERGY PREDICTED BY IDOCK:   -5.76 KCAL/MOL
REMARK 922        TOTAL FREE ENERGY PREDICTED BY IDOCK:   -6.98 KCAL/MOL
REMARK 923 INTER-LIGAND FREE ENERGY PREDICTED BY IDOCK:   -6.50 KCAL/MOL
REMARK 924 INTRA-LIGAND FREE ENERGY PREDICTED BY IDOCK:   -0.48 KCAL/MOL
REMARK 927      BINDING AFFINITY PREDICTED BY RF-SCORE:    0.00 PKD
ROOT
HETATM    1  C   UNL     1     -12.759   9.504  71.135  1.00  0.00    -0.371 C  
HETATM    2  C   UNL     1     -12.646  11.015  70.924  1.00  0.00    -0.488 A  
HETATM    3  C   UNL     1     -13.312   9.062  72.493  1.00  0.00    -0.480 C  
HETATM    4  C   UNL     1     -11.438   8.763  70.936  1.00  0.00    -0.284 C  
HETATM    5  O   UNL     1     -10.350   9.383  71.455  1.00  0.00    -0.324 OA 
HETATM    6  O   UNL     1     -11.357   7.666  70.401  1.00  0.00    -0.272 OA 
HETATM    7  C   UNL     1     -12.048  11.498  69.743  1.00  0.00    -0.374 A  
HETATM    8  C   UNL     1     -11.818  12.870  69.559  1.00  0.00    -0.383 A  
HETATM    9  C   UNL     1     -12.294  13.783  70.501  1.00  0.00    -0.429 A  
HETATM   10  C   UNL     1     -13.106  11.953  71.861  1.00  0.00    -0.474 A  
HETATM   11  C   UNL     1     -12.944  13.324  71.644  1.00  0.00    -0.441 A  
ENDROOT
BRANCH   8  12
HETATM   12  C   UNL     1     -11.060  13.391  68.390  1.00  0.00    -0.273 C  
HETATM   13  O   UNL     1     -10.989  12.697  67.379  1.00  0.00    -0.240 OA 
BRANCH  12  14
HETATM   14  C   UNL     1     -10.422  14.741  68.410  1.00  0.00    -0.243 A  
HETATM   15  C   UNL     1      -9.136  14.954  68.924  1.00  0.00    -0.191 A  
HETATM   16  C   UNL     1      -8.566  16.229  68.899  1.00  0.00    -0.260 A  
HETATM   17  C   UNL     1      -9.291  17.306  68.395  1.00  0.00    -0.275 A  
HETATM   18  C   UNL     1     -10.589  17.113  67.923  1.00  0.00    -0.376 A  
HETATM   19  C   UNL     1     -11.154  15.836  67.931  1.00  0.00    -0.326 A  
ENDBRANCH  12  14
ENDBRANCH   8  12
TORSDOF 2
ENDMDL
MODEL       42
REMARK 921   NORMALIZED FREE ENERGY PREDICTED BY IDOCK:   -5.76 KCAL/MOL
REMARK 922        TOTAL FREE ENERGY PREDICTED BY IDOCK:   -6.98 KCAL/MOL
REMARK 923 INTER-LIGAND FREE ENERGY PREDICTED BY IDOCK:   -6.38 KCAL/MOL
REMARK 924 INTRA-LIGAND FREE ENERGY PREDICTED BY IDOCK:   -0.60 KCAL/MOL
REMARK 927      BINDING AFFINITY PREDICTED BY RF-SCORE:    0.00 PKD
ROOT
HETATM    1  C   UNL     1      -9.155  18.682  66.287  1.00  0.00    -0.236 C  
HETATM    2  C   UNL     1      -9.167  17.372  67.077  1.00  0.00    -0.252 A  
HETATM    3  C   UNL     1      -8.169  19.746  66.778  1.00  0.00    -0.344 C  
HETATM    4  C   UNL     1     -10.524  19.354  66.206  1.00  0.00    -0.493 C  
HETATM    5  O   UNL     1     -11.243  19.329  67.354  1.00  0.00    -0.344 OA 
HETATM    6  O   UNL     1     -10.934  19.927  65.205  1.00  0.00    -0.371 OA 
HETATM    7  C   UNL     1     -10.119  16.386  66.752  1.00  0.00    -0.287 A  
HETATM    8  C   UNL     1     -10.244  15.220  67.524  1.00  0.00    -0.239 A  
HETATM    9  C   UNL     1      -9.336  14.974  68.554  1.00  0.00    -0.196 A  
HETATM   10  C   UNL     1      -8.273  17.105  68.125  1.00  0.00    -0.224 A  
HETATM   11  C   UNL     1      -8.347  15.910  68.847  1.00  0.00    -0.226 A  
ENDROOT
BRANCH   8  12
HETATM   12  C   UNL     1     -11.334  14.234  67.291  1.00  0.00    -0.334 C  
HETATM   13  O   UNL     1     -12.182  14.080  68.167  1.00  0.00    -0.325 OA 
BRANCH  12  14
HETATM   14  C   UNL     1     -11.434  13.466  66.016  1.00  0.00    -0.351 A  
HETATM   15  C   UNL     1     -12.658  13.240  65.372  1.00  0.00    -0.526 A  
HETATM   16  C   UNL     1     -12.704  12.538  64.165  1.00  0.00    -0.417 A  
HETATM   17  C   UNL     1     -11.533  12.026  63.612  1.00  0.00    -0.556 A  
HETATM   18  C   UNL     1     -10.315  12.206  64.268  1.00  0.00    -0.363 A  
HETATM   19  C   UNL     1     -10.265  12.922  65.467  1.00  0.00    -0.299 A  
ENDBRANCH  12  14
ENDBRANCH   8  12
TORSDOF 2
ENDMDL
MODEL       43
REMARK 921   NORMALIZED FREE ENERGY PREDICTED BY IDOCK:   -5.74 KCAL/MOL
REMARK 922        TOTAL FREE ENERGY PREDICTED BY IDOCK:   -6.96 KCAL/MOL
REMARK 923 INTER-LIGAND FREE ENERGY PREDICTED BY IDOCK:   -7.02 KCAL/MOL
REMARK 924 INTRA-LIGAND FREE ENERGY PREDICTED BY IDOCK:    0.06 KCAL/MOL
REMARK 927      BINDING AFFINITY PREDICTED BY RF-SCORE:    0.00 PKD
ROOT
HETATM    1  C   UNL     1      -9.612   7.682  69.744  1.00  0.00    -0.163 C  
HETATM    2  C   UNL     1     -10.349   8.987  69.439  1.00  0.00    -0.217 A  
HETATM    3  C   UNL     1      -9.025   6.950  68.534  1.00  0.00    -0.122 C  
HETATM    4  C   UNL     1     -10.466   6.667  70.502  1.00  0.00    -0.203 C  
HETATM    5  O   UNL     1     -11.749   6.570  70.080  1.00  0.00    -0.418 OA 
HETATM    6  O   UNL     1     -10.025   5.946  71.388  1.00  0.00    -0.178 OA 
HETATM    7  C   UNL     1     -11.006   9.664  70.485  1.00  0.00    -0.374 A  
HETATM    8  C   UNL     1     -11.791  10.799  70.232  1.00  0.00    -0.438 A  
HETATM    9  C   UNL     1     -11.827  11.340  68.946  1.00  0.00    -0.413 A  
HETATM   10  C   UNL     1     -10.410   9.545  68.153  1.00  0.00    -0.251 A  
HETATM   11  C   UNL     1     -11.130  10.719  67.912  1.00  0.00    -0.369 A  
ENDROOT
BRANCH   8  12
HETATM   12  C   UNL     1     -12.610  11.444  71.293  1.00  0.00    -0.374 C  
HETATM   13  O   UNL     1     -13.146  10.729  72.137  1.00  0.00    -0.460 OA 
BRANCH  12  14
HETATM   14  C   UNL     1     -12.761  12.927  71.371  1.00  0.00    -0.366 A  
HETATM   15  C   UNL     1     -12.042  13.797  70.541  1.00  0.00    -0.416 A  
HETATM   16  C   UNL     1     -12.234  15.178  70.629  1.00  0.00    -0.401 A  
HETATM   17  C   UNL     1     -13.116  15.701  71.571  1.00  0.00    -0.561 A  
HETATM   18  C   UNL     1     -13.802  14.845  72.434  1.00  0.00    -0.587 A  
HETATM   19  C   UNL     1     -13.625  13.463  72.336  1.00  0.00    -0.708 A  
ENDBRANCH  12  14
ENDBRANCH   8  12
TORSDOF 2
ENDMDL
MODEL       44
REMARK 921   NORMALIZED FREE ENERGY PREDICTED BY IDOCK:   -5.74 KCAL/MOL
REMARK 922        TOTAL FREE ENERGY PREDICTED BY IDOCK:   -6.96 KCAL/MOL
REMARK 923 INTER-LIGAND FREE ENERGY PREDICTED BY IDOCK:   -6.49 KCAL/MOL
REMARK 924 INTRA-LIGAND FREE ENERGY PREDICTED BY IDOCK:   -0.46 KCAL/MOL
REMARK 927      BINDING AFFINITY PREDICTED BY RF-SCORE:    0.00 PKD
ROOT
HETATM    1  C   UNL     1     -12.154  13.921  69.027  1.00  0.00    -0.365 C  
HETATM    2  C   UNL     1     -11.666  14.361  67.646  1.00  0.00    -0.421 A  
HETATM    3  C   UNL     1     -11.779  14.843  70.191  1.00  0.00    -0.340 C  
HETATM    4  C   UNL     1     -11.693  12.516  69.414  1.00  0.00    -0.322 C  
HETATM    5  O   UNL     1     -10.412  12.223  69.085  1.00  0.00    -0.082 OA 
HETATM    6  O   UNL     1     -12.397  11.722  70.024  1.00  0.00    -0.239 OA 
HETATM    7  C   UNL     1     -11.879  13.512  66.542  1.00  0.00    -0.441 A  
HETATM    8  C   UNL     1     -11.347  13.820  65.280  1.00  0.00    -0.310 A  
HETATM    9  C   UNL     1     -10.701  15.040  65.083  1.00  0.00    -0.434 A  
HETATM   10  C   UNL     1     -11.002  15.577  67.424  1.00  0.00    -0.306 A  
HETATM   11  C   UNL     1     -10.537  15.920  66.151  1.00  0.00    -0.310 A  
ENDROOT
BRANCH   8  12
HETATM   12  C   UNL     1     -11.434  12.873  64.136  1.00  0.00    -0.396 C  
HETATM   13  O   UNL     1     -12.285  13.072  63.272  1.00  0.00    -0.631 OA 
BRANCH  12  14
HETATM   14  C   UNL     1     -10.495  11.720  64.002  1.00  0.00    -0.415 A  
HETATM   15  C   UNL     1      -9.759  11.486  62.833  1.00  0.00    -0.302 A  
HETATM   16  C   UNL     1      -8.871  10.411  62.759  1.00  0.00    -0.249 A  
HETATM   17  C   UNL     1      -8.740   9.540  63.838  1.00  0.00    -0.238 A  
HETATM   18  C   UNL     1      -9.502   9.738  64.990  1.00  0.00    -0.337 A  
HETATM   19  C   UNL     1     -10.378  10.823  65.072  1.00  0.00    -0.357 A  
ENDBRANCH  12  14
ENDBRANCH   8  12
TORSDOF 2
ENDMDL
MODEL       45
REMARK 921   NORMALIZED FREE ENERGY PREDICTED BY IDOCK:   -5.72 KCAL/MOL
REMARK 922        TOTAL FREE ENERGY PREDICTED BY IDOCK:   -6.94 KCAL/MOL
REMARK 923 INTER-LIGAND FREE ENERGY PREDICTED BY IDOCK:   -6.40 KCAL/MOL
REMARK 924 INTRA-LIGAND FREE ENERGY PREDICTED BY IDOCK:   -0.54 KCAL/MOL
REMARK 927      BINDING AFFINITY PREDICTED BY RF-SCORE:    0.00 PKD
ROOT
HETATM    1  C   UNL     1     -11.429  10.146  70.954  1.00  0.00    -0.444 C  
HETATM    2  C   UNL     1     -11.066  10.196  69.469  1.00  0.00    -0.295 A  
HETATM    3  C   UNL     1     -11.164   8.813  71.659  1.00  0.00    -0.394 C  
HETATM    4  C   UNL     1     -12.886  10.511  71.235  1.00  0.00    -0.431 C  
HETATM    5  O   UNL     1     -13.783   9.998  70.359  1.00  0.00     0.089 OA 
HETATM    6  O   UNL     1     -13.239  11.168  72.204  1.00  0.00    -0.481 OA 
HETATM    7  C   UNL     1     -11.377  11.352  68.726  1.00  0.00    -0.334 A  
HETATM    8  C   UNL     1     -11.169  11.398  67.340  1.00  0.00    -0.370 A  
HETATM    9  C   UNL     1     -10.535  10.333  66.701  1.00  0.00    -0.260 A  
HETATM   10  C   UNL     1     -10.438   9.133  68.801  1.00  0.00    -0.236 A  
HETATM   11  C   UNL     1     -10.162   9.207  67.433  1.00  0.00    -0.310 A  
ENDROOT
BRANCH   8  12
HETATM   12  C   UNL     1     -11.623  12.549  66.513  1.00  0.00    -0.388 C  
HETATM   13  O   UNL     1     -12.446  12.345  65.624  1.00  0.00    -0.640 OA 
BRANCH  12  14
HETATM   14  C   UNL     1     -11.129  13.935  66.764  1.00  0.00    -0.310 A  
HETATM   15  C   UNL     1     -11.751  14.797  67.678  1.00  0.00    -0.364 A  
HETATM   16  C   UNL     1     -11.240  16.077  67.902  1.00  0.00    -0.276 A  
HETATM   17  C   UNL     1     -10.128  16.519  67.189  1.00  0.00    -0.274 A  
HETATM   18  C   UNL     1      -9.530  15.685  66.244  1.00  0.00    -0.351 A  
HETATM   19  C   UNL     1     -10.029  14.398  66.030  1.00  0.00    -0.337 A  
ENDBRANCH  12  14
ENDBRANCH   8  12
TORSDOF 2
ENDMDL
MODEL       46
REMARK 921   NORMALIZED FREE ENERGY PREDICTED BY IDOCK:   -5.71 KCAL/MOL
REMARK 922        TOTAL FREE ENERGY PREDICTED BY IDOCK:   -6.92 KCAL/MOL
REMARK 923 INTER-LIGAND FREE ENERGY PREDICTED BY IDOCK:   -6.40 KCAL/MOL
REMARK 924 INTRA-LIGAND FREE ENERGY PREDICTED BY IDOCK:   -0.52 KCAL/MOL
REMARK 927      BINDING AFFINITY PREDICTED BY RF-SCORE:    0.00 PKD
ROOT
HETATM    1  C   UNL     1     -11.768  11.506  68.754  1.00  0.00    -0.397 C  
HETATM    2  C   UNL     1     -11.742  13.031  68.877  1.00  0.00    -0.371 A  
HETATM    3  C   UNL     1     -12.093  10.740  70.039  1.00  0.00    -0.423 C  
HETATM    4  C   UNL     1     -10.466  10.920  68.209  1.00  0.00    -0.179 C  
HETATM    5  O   UNL     1      -9.336  11.484  68.698  1.00  0.00    -0.189 OA 
HETATM    6  O   UNL     1     -10.428   9.975  67.433  1.00  0.00    -0.225 OA 
HETATM    7  C   UNL     1     -11.348  13.801  67.765  1.00  0.00    -0.331 A  
HETATM    8  C   UNL     1     -11.197  15.192  67.867  1.00  0.00    -0.334 A  
HETATM    9  C   UNL     1     -11.557  15.841  69.048  1.00  0.00    -0.406 A  
HETATM   10  C   UNL     1     -12.088  13.706  70.057  1.00  0.00    -0.417 A  
HETATM   11  C   UNL     1     -12.011  15.100  70.137  1.00  0.00    -0.374 A  
ENDROOT
BRANCH   8  12
HETATM   12  C   UNL     1     -10.644  16.009  66.753  1.00  0.00    -0.297 C  
HETATM   13  O   UNL     1     -10.788  15.605  65.601  1.00  0.00    -0.334 OA 
BRANCH  12  14
HETATM   14  C   UNL     1      -9.957  17.310  67.003  1.00  0.00    -0.289 A  
HETATM   15  C   UNL     1      -8.657  17.383  67.522  1.00  0.00    -0.221 A  
HETATM   16  C   UNL     1      -8.040  18.621  67.715  1.00  0.00    -0.269 A  
HETATM   17  C   UNL     1      -8.731  19.796  67.428  1.00  0.00    -0.385 A  
HETATM   18  C   UNL     1     -10.042  19.736  66.954  1.00  0.00    -0.559 A  
HETATM   19  C   UNL     1     -10.654  18.497  66.744  1.00  0.00    -0.395 A  
ENDBRANCH  12  14
ENDBRANCH   8  12
TORSDOF 2
ENDMDL
MODEL       47
REMARK 921   NORMALIZED FREE ENERGY PREDICTED BY IDOCK:   -5.69 KCAL/MOL
REMARK 922        TOTAL FREE ENERGY PREDICTED BY IDOCK:   -6.91 KCAL/MOL
REMARK 923 INTER-LIGAND FREE ENERGY PREDICTED BY IDOCK:   -6.41 KCAL/MOL
REMARK 924 INTRA-LIGAND FREE ENERGY PREDICTED BY IDOCK:   -0.49 KCAL/MOL
REMARK 927      BINDING AFFINITY PREDICTED BY RF-SCORE:    0.00 PKD
ROOT
HETATM    1  C   UNL     1      -8.311   7.658  72.274  1.00  0.00    -0.135 C  
HETATM    2  C   UNL     1      -9.733   7.524  71.728  1.00  0.00    -0.187 A  
HETATM    3  C   UNL     1      -7.416   6.426  72.109  1.00  0.00    -0.093 C  
HETATM    4  C   UNL     1      -8.263   8.042  73.752  1.00  0.00    -0.240 C  
HETATM    5  O   UNL     1      -9.172   7.416  74.536  1.00  0.00    -0.149 OA 
HETATM    6  O   UNL     1      -7.435   8.813  74.219  1.00  0.00    -0.404 OA 
HETATM    7  C   UNL     1     -10.648   8.575  71.935  1.00  0.00    -0.392 A  
HETATM    8  C   UNL     1     -11.993   8.448  71.556  1.00  0.00    -0.344 A  
HETATM    9  C   UNL     1     -12.408   7.316  70.854  1.00  0.00    -0.287 A  
HETATM   10  C   UNL     1     -10.178   6.391  71.030  1.00  0.00    -0.227 A  
HETATM   11  C   UNL     1     -11.500   6.294  70.584  1.00  0.00    -0.397 A  
ENDROOT
BRANCH   8  12
HETATM   12  C   UNL     1     -13.008   9.481  71.894  1.00  0.00    -0.425 C  
HETATM   13  O   UNL     1     -13.987   9.148  72.559  1.00  0.00    -0.479 OA 
BRANCH  12  14
HETATM   14  C   UNL     1     -12.845  10.905  71.476  1.00  0.00    -0.560 A  
HETATM   15  C   UNL     1     -13.407  11.966  72.198  1.00  0.00    -0.361 A  
HETATM   16  C   UNL     1     -13.206  13.286  71.787  1.00  0.00    -0.495 A  
HETATM   17  C   UNL     1     -12.475  13.553  70.632  1.00  0.00    -0.405 A  
HETATM   18  C   UNL     1     -11.950  12.501  69.881  1.00  0.00    -0.371 A  
HETATM   19  C   UNL     1     -12.134  11.181  70.301  1.00  0.00    -0.462 A  
ENDBRANCH  12  14
ENDBRANCH   8  12
TORSDOF 2
ENDMDL
MODEL       48
REMARK 921   NORMALIZED FREE ENERGY PREDICTED BY IDOCK:   -5.67 KCAL/MOL
REMARK 922        TOTAL FREE ENERGY PREDICTED BY IDOCK:   -6.88 KCAL/MOL
REMARK 923 INTER-LIGAND FREE ENERGY PREDICTED BY IDOCK:   -6.30 KCAL/MOL
REMARK 924 INTRA-LIGAND FREE ENERGY PREDICTED BY IDOCK:   -0.58 KCAL/MOL
REMARK 927      BINDING AFFINITY PREDICTED BY RF-SCORE:    0.00 PKD
ROOT
HETATM    1  C   UNL     1     -10.397  11.137  66.200  1.00  0.00    -0.302 C  
HETATM    2  C   UNL     1     -10.885  12.440  66.836  1.00  0.00    -0.286 A  
HETATM    3  C   UNL     1     -10.638   9.866  67.019  1.00  0.00    -0.272 C  
HETATM    4  C   UNL     1      -8.911  11.156  65.844  1.00  0.00    -0.199 C  
HETATM    5  O   UNL     1      -8.108  11.735  66.769  1.00  0.00    -0.166 OA 
HETATM    6  O   UNL     1      -8.456  10.642  64.831  1.00  0.00    -0.172 OA 
HETATM    7  C   UNL     1     -10.605  13.663  66.193  1.00  0.00    -0.291 A  
HETATM    8  C   UNL     1     -10.931  14.887  66.796  1.00  0.00    -0.326 A  
HETATM    9  C   UNL     1     -11.649  14.898  67.992  1.00  0.00    -0.363 A  
HETATM   10  C   UNL     1     -11.598  12.479  68.044  1.00  0.00    -0.395 A  
HETATM   11  C   UNL     1     -11.990  13.696  68.609  1.00  0.00    -0.395 A  
ENDROOT
BRANCH   8  12
HETATM   12  C   UNL     1     -10.517  16.189  66.208  1.00  0.00    -0.315 C  
HETATM   13  O   UNL     1     -10.643  16.353  64.997  1.00  0.00    -0.651 OA 
BRANCH  12  14
HETATM   14  C   UNL     1      -9.991  17.299  67.057  1.00  0.00    -0.289 A  
HETATM   15  C   UNL     1     -10.669  18.518  67.199  1.00  0.00    -0.396 A  
HETATM   16  C   UNL     1     -10.155  19.520  68.025  1.00  0.00    -0.531 A  
HETATM   17  C   UNL     1      -8.944  19.327  68.685  1.00  0.00    -0.419 A  
HETATM   18  C   UNL     1      -8.239  18.135  68.514  1.00  0.00    -0.320 A  
HETATM   19  C   UNL     1      -8.760  17.125  67.702  1.00  0.00    -0.213 A  
ENDBRANCH  12  14
ENDBRANCH   8  12
TORSDOF 2
ENDMDL
MODEL       49
REMARK 921   NORMALIZED FREE ENERGY PREDICTED BY IDOCK:   -5.66 KCAL/MOL
REMARK 922        TOTAL FREE ENERGY PREDICTED BY IDOCK:   -6.87 KCAL/MOL
REMARK 923 INTER-LIGAND FREE ENERGY PREDICTED BY IDOCK:   -6.35 KCAL/MOL
REMARK 924 INTRA-LIGAND FREE ENERGY PREDICTED BY IDOCK:   -0.52 KCAL/MOL
REMARK 927      BINDING AFFINITY PREDICTED BY RF-SCORE:    0.00 PKD
ROOT
HETATM    1  C   UNL     1     -11.621   8.117  72.254  1.00  0.00    -0.436 C  
HETATM    2  C   UNL     1     -10.759   8.955  71.308  1.00  0.00    -0.357 A  
HETATM    3  C   UNL     1     -10.886   7.020  73.028  1.00  0.00    -0.342 C  
HETATM    4  C   UNL     1     -12.807   7.448  71.560  1.00  0.00    -0.375 C  
HETATM    5  O   UNL     1     -12.535   6.925  70.340  1.00  0.00    -0.201 OA 
HETATM    6  O   UNL     1     -13.910   7.334  72.076  1.00  0.00    -0.237 OA 
HETATM    7  C   UNL     1     -11.379   9.913  70.482  1.00  0.00    -0.399 A  
HETATM    8  C   UNL     1     -10.645  10.620  69.518  1.00  0.00    -0.265 A  
HETATM    9  C   UNL     1      -9.260  10.465  69.453  1.00  0.00    -0.177 A  
HETATM   10  C   UNL     1      -9.366   8.809  71.215  1.00  0.00    -0.319 A  
HETATM   11  C   UNL     1      -8.622   9.567  70.307  1.00  0.00    -0.258 A  
ENDROOT
BRANCH   8  12
HETATM   12  C   UNL     1     -11.301  11.528  68.539  1.00  0.00    -0.277 C  
HETATM   13  O   UNL     1     -11.749  11.047  67.500  1.00  0.00    -0.565 OA 
BRANCH  12  14
HETATM   14  C   UNL     1     -11.454  12.989  68.807  1.00  0.00    -0.340 A  
HETATM   15  C   UNL     1     -11.786  13.486  70.075  1.00  0.00    -0.371 A  
HETATM   16  C   UNL     1     -11.893  14.862  70.290  1.00  0.00    -0.358 A  
HETATM   17  C   UNL     1     -11.707  15.748  69.232  1.00  0.00    -0.384 A  
HETATM   18  C   UNL     1     -11.421  15.262  67.956  1.00  0.00    -0.351 A  
HETATM   19  C   UNL     1     -11.296  13.886  67.743  1.00  0.00    -0.335 A  
ENDBRANCH  12  14
ENDBRANCH   8  12
TORSDOF 2
ENDMDL
MODEL       50
REMARK 921   NORMALIZED FREE ENERGY PREDICTED BY IDOCK:   -5.65 KCAL/MOL
REMARK 922        TOTAL FREE ENERGY PREDICTED BY IDOCK:   -6.86 KCAL/MOL
REMARK 923 INTER-LIGAND FREE ENERGY PREDICTED BY IDOCK:   -6.36 KCAL/MOL
REMARK 924 INTRA-LIGAND FREE ENERGY PREDICTED BY IDOCK:   -0.49 KCAL/MOL
REMARK 927      BINDING AFFINITY PREDICTED BY RF-SCORE:    0.00 PKD
ROOT
HETATM    1  C   UNL     1     -10.234   7.236  72.020  1.00  0.00    -0.212 C  
HETATM    2  C   UNL     1      -9.903   8.442  71.140  1.00  0.00    -0.242 A  
HETATM    3  C   UNL     1      -9.109   6.210  72.194  1.00  0.00    -0.141 C  
HETATM    4  C   UNL     1     -11.465   6.463  71.551  1.00  0.00    -0.306 C  
HETATM    5  O   UNL     1     -11.561   6.297  70.210  1.00  0.00    -0.395 OA 
HETATM    6  O   UNL     1     -12.284   5.974  72.318  1.00  0.00    -0.281 OA 
HETATM    7  C   UNL     1     -10.917   9.374  70.845  1.00  0.00    -0.391 A  
HETATM    8  C   UNL     1     -10.691  10.430  69.950  1.00  0.00    -0.331 A  
HETATM    9  C   UNL     1      -9.411  10.635  69.434  1.00  0.00    -0.101 A  
HETATM   10  C   UNL     1      -8.627   8.664  70.599  1.00  0.00    -0.183 A  
HETATM   11  C   UNL     1      -8.380   9.759  69.765  1.00  0.00    -0.189 A  
ENDROOT
BRANCH   8  12
HETATM   12  C   UNL     1     -11.784  11.339  69.511  1.00  0.00    -0.345 C  
HETATM   13  O   UNL     1     -12.257  11.190  68.387  1.00  0.00    -0.610 OA 
BRANCH  12  14
HETATM   14  C   UNL     1     -12.333  12.393  70.414  1.00  0.00    -0.307 A  
HETATM   15  C   UNL     1     -13.141  12.087  71.518  1.00  0.00    -0.362 A  
HETATM   16  C   UNL     1     -13.612  13.102  72.353  1.00  0.00    -0.667 A  
HETATM   17  C   UNL     1     -13.312  14.433  72.071  1.00  0.00    -0.469 A  
HETATM   18  C   UNL     1     -12.547  14.752  70.949  1.00  0.00    -0.401 A  
HETATM   19  C   UNL     1     -12.060  13.736  70.122  1.00  0.00    -0.429 A  
ENDBRANCH  12  14
ENDBRANCH   8  12
TORSDOF 2
ENDMDL
MODEL       51
REMARK 921   NORMALIZED FREE ENERGY PREDICTED BY IDOCK:   -5.62 KCAL/MOL
REMARK 922        TOTAL FREE ENERGY PREDICTED BY IDOCK:   -6.82 KCAL/MOL
REMARK 923 INTER-LIGAND FREE ENERGY PREDICTED BY IDOCK:   -6.73 KCAL/MOL
REMARK 924 INTRA-LIGAND FREE ENERGY PREDICTED BY IDOCK:   -0.09 KCAL/MOL
REMARK 927      BINDING AFFINITY PREDICTED BY RF-SCORE:    0.00 PKD
ROOT
HETATM    1  C   UNL     1     -10.893  14.587  65.533  1.00  0.00    -0.342 C  
HETATM    2  C   UNL     1     -11.086  14.588  67.050  1.00  0.00    -0.324 A  
HETATM    3  C   UNL     1     -10.946  15.959  64.855  1.00  0.00    -0.427 C  
HETATM    4  C   UNL     1     -11.890  13.694  64.796  1.00  0.00    -0.387 C  
HETATM    5  O   UNL     1     -13.161  13.750  65.261  1.00  0.00    -0.755 OA 
HETATM    6  O   UNL     1     -11.592  13.016  63.822  1.00  0.00    -0.424 OA 
HETATM    7  C   UNL     1     -11.156  13.357  67.732  1.00  0.00    -0.292 A  
HETATM    8  C   UNL     1     -11.447  13.306  69.104  1.00  0.00    -0.357 A  
HETATM    9  C   UNL     1     -11.550  14.491  69.832  1.00  0.00    -0.340 A  
HETATM   10  C   UNL     1     -11.204  15.766  67.804  1.00  0.00    -0.286 A  
HETATM   11  C   UNL     1     -11.420  15.718  69.184  1.00  0.00    -0.383 A  
ENDROOT
BRANCH   8  12
HETATM   12  C   UNL     1     -11.670  12.018  69.815  1.00  0.00    -0.319 C  
HETATM   13  O   UNL     1     -12.368  12.019  70.826  1.00  0.00    -0.375 OA 
BRANCH  12  14
HETATM   14  C   UNL     1     -11.098  10.736  69.308  1.00  0.00    -0.312 A  
HETATM   15  C   UNL     1     -11.199  10.350  67.964  1.00  0.00    -0.340 A  
HETATM   16  C   UNL     1     -10.625   9.155  67.526  1.00  0.00    -0.317 A  
HETATM   17  C   UNL     1      -9.981   8.318  68.434  1.00  0.00    -0.211 A  
HETATM   18  C   UNL     1      -9.915   8.670  69.782  1.00  0.00    -0.190 A  
HETATM   19  C   UNL     1     -10.473   9.874  70.219  1.00  0.00    -0.348 A  
ENDBRANCH  12  14
ENDBRANCH   8  12
TORSDOF 2
ENDMDL
MODEL       52
REMARK 921   NORMALIZED FREE ENERGY PREDICTED BY IDOCK:   -5.59 KCAL/MOL
REMARK 922        TOTAL FREE ENERGY PREDICTED BY IDOCK:   -6.79 KCAL/MOL
REMARK 923 INTER-LIGAND FREE ENERGY PREDICTED BY IDOCK:   -6.20 KCAL/MOL
REMARK 924 INTRA-LIGAND FREE ENERGY PREDICTED BY IDOCK:   -0.59 KCAL/MOL
REMARK 927      BINDING AFFINITY PREDICTED BY RF-SCORE:    0.00 PKD
ROOT
HETATM    1  C   UNL     1      -8.630   9.270  66.342  1.00  0.00    -0.141 C  
HETATM    2  C   UNL     1      -9.304  10.190  65.323  1.00  0.00    -0.278 A  
HETATM    3  C   UNL     1      -7.793   8.129  65.757  1.00  0.00    -0.096 C  
HETATM    4  C   UNL     1      -9.610   8.637  67.329  1.00  0.00    -0.167 C  
HETATM    5  O   UNL     1     -10.775   8.212  66.784  1.00  0.00    -0.278 OA 
HETATM    6  O   UNL     1      -9.355   8.467  68.514  1.00  0.00    -0.139 OA 
HETATM    7  C   UNL     1     -10.175  11.198  65.781  1.00  0.00    -0.310 A  
HETATM    8  C   UNL     1     -10.904  11.988  64.879  1.00  0.00    -0.349 A  
HETATM    9  C   UNL     1     -10.677  11.859  63.509  1.00  0.00    -0.504 A  
HETATM   10  C   UNL     1      -9.101  10.073  63.939  1.00  0.00    -0.296 A  
HETATM   11  C   UNL     1      -9.771  10.910  63.041  1.00  0.00    -0.380 A  
ENDROOT
BRANCH   8  12
HETATM   12  C   UNL     1     -11.936  12.957  65.337  1.00  0.00    -0.426 C  
HETATM   13  O   UNL     1     -13.095  12.803  64.958  1.00  0.00    -0.811 OA 
BRANCH  12  14
HETATM   14  C   UNL     1     -11.600  14.078  66.264  1.00  0.00    -0.379 A  
HETATM   15  C   UNL     1     -10.811  15.166  65.868  1.00  0.00    -0.342 A  
HETATM   16  C   UNL     1     -10.543  16.207  66.759  1.00  0.00    -0.277 A  
HETATM   17  C   UNL     1     -11.030  16.151  68.063  1.00  0.00    -0.338 A  
HETATM   18  C   UNL     1     -11.778  15.050  68.481  1.00  0.00    -0.345 A  
HETATM   19  C   UNL     1     -12.062  14.016  67.585  1.00  0.00    -0.344 A  
ENDBRANCH  12  14
ENDBRANCH   8  12
TORSDOF 2
ENDMDL
MODEL       53
REMARK 921   NORMALIZED FREE ENERGY PREDICTED BY IDOCK:   -5.58 KCAL/MOL
REMARK 922        TOTAL FREE ENERGY PREDICTED BY IDOCK:   -6.78 KCAL/MOL
REMARK 923 INTER-LIGAND FREE ENERGY PREDICTED BY IDOCK:   -6.34 KCAL/MOL
REMARK 924 INTRA-LIGAND FREE ENERGY PREDICTED BY IDOCK:   -0.44 KCAL/MOL
REMARK 927      BINDING AFFINITY PREDICTED BY RF-SCORE:    0.00 PKD
ROOT
HETATM    1  C   UNL     1      -8.446  16.124  68.525  1.00  0.00    -0.197 C  
HETATM    2  C   UNL     1      -9.771  15.555  69.035  1.00  0.00    -0.237 A  
HETATM    3  C   UNL     1      -8.264  17.636  68.688  1.00  0.00    -0.264 C  
HETATM    4  C   UNL     1      -8.174  15.804  67.056  1.00  0.00    -0.228 C  
HETATM    5  O   UNL     1      -9.250  15.908  66.239  1.00  0.00    -0.278 OA 
HETATM    6  O   UNL     1      -7.064  15.528  66.623  1.00  0.00    -0.097 OA 
HETATM    7  C   UNL     1     -10.057  14.191  68.825  1.00  0.00    -0.199 A  
HETATM    8  C   UNL     1     -11.306  13.653  69.170  1.00  0.00    -0.335 A  
HETATM    9  C   UNL     1     -12.237  14.446  69.842  1.00  0.00    -0.394 A  
HETATM   10  C   UNL     1     -10.729  16.334  69.702  1.00  0.00    -0.338 A  
HETATM   11  C   UNL     1     -11.945  15.780  70.114  1.00  0.00    -0.364 A  
ENDROOT
BRANCH   8  12
HETATM   12  C   UNL     1     -11.684  12.256  68.827  1.00  0.00    -0.340 C  
HETATM   13  O   UNL     1     -11.962  11.993  67.660  1.00  0.00    -0.547 OA 
BRANCH  12  14
HETATM   14  C   UNL     1     -11.696  11.174  69.856  1.00  0.00    -0.433 A  
HETATM   15  C   UNL     1     -12.651  11.125  70.880  1.00  0.00    -0.483 A  
HETATM   16  C   UNL     1     -12.643  10.080  71.806  1.00  0.00    -0.504 A  
HETATM   17  C   UNL     1     -11.659   9.097  71.738  1.00  0.00    -0.457 A  
HETATM   18  C   UNL     1     -10.676   9.161  70.751  1.00  0.00    -0.327 A  
HETATM   19  C   UNL     1     -10.693  10.196  69.813  1.00  0.00    -0.317 A  
ENDBRANCH  12  14
ENDBRANCH   8  12
TORSDOF 2
ENDMDL
MODEL       54
REMARK 921   NORMALIZED FREE ENERGY PREDICTED BY IDOCK:   -5.56 KCAL/MOL
REMARK 922        TOTAL FREE ENERGY PREDICTED BY IDOCK:   -6.76 KCAL/MOL
REMARK 923 INTER-LIGAND FREE ENERGY PREDICTED BY IDOCK:   -6.23 KCAL/MOL
REMARK 924 INTRA-LIGAND FREE ENERGY PREDICTED BY IDOCK:   -0.54 KCAL/MOL
REMARK 927      BINDING AFFINITY PREDICTED BY RF-SCORE:    0.00 PKD
ROOT
HETATM    1  C   UNL     1      -8.919  10.590  64.218  1.00  0.00    -0.237 C  
HETATM    2  C   UNL     1     -10.168  11.440  64.454  1.00  0.00    -0.361 A  
HETATM    3  C   UNL     1      -8.955   9.681  62.986  1.00  0.00    -0.257 C  
HETATM    4  C   UNL     1      -8.556   9.703  65.408  1.00  0.00    -0.151 C  
HETATM    5  O   UNL     1      -9.608   9.105  66.018  1.00  0.00    -0.236 OA 
HETATM    6  O   UNL     1      -7.404   9.491  65.762  1.00  0.00    -0.093 OA 
HETATM    7  C   UNL     1     -10.254  12.222  65.623  1.00  0.00    -0.287 A  
HETATM    8  C   UNL     1     -11.426  12.926  65.938  1.00  0.00    -0.387 A  
HETATM    9  C   UNL     1     -12.481  12.953  65.025  1.00  0.00    -0.553 A  
HETATM   10  C   UNL     1     -11.247  11.476  63.557  1.00  0.00    -0.412 A  
HETATM   11  C   UNL     1     -12.387  12.237  63.834  1.00  0.00    -0.606 A  
ENDROOT
BRANCH   8  12
HETATM   12  C   UNL     1     -11.594  13.638  67.233  1.00  0.00    -0.356 C  
HETATM   13  O   UNL     1     -12.093  13.030  68.177  1.00  0.00    -0.307 OA 
BRANCH  12  14
HETATM   14  C   UNL     1     -11.140  15.049  67.414  1.00  0.00    -0.324 A  
HETATM   15  C   UNL     1     -10.655  15.822  66.351  1.00  0.00    -0.307 A  
HETATM   16  C   UNL     1     -10.266  17.147  66.559  1.00  0.00    -0.322 A  
HETATM   17  C   UNL     1     -10.323  17.697  67.837  1.00  0.00    -0.371 A  
HETATM   18  C   UNL     1     -10.761  16.922  68.911  1.00  0.00    -0.321 A  
HETATM   19  C   UNL     1     -11.167  15.601  68.701  1.00  0.00    -0.338 A  
ENDBRANCH  12  14
ENDBRANCH   8  12
TORSDOF 2
ENDMDL
MODEL       55
REMARK 921   NORMALIZED FREE ENERGY PREDICTED BY IDOCK:   -5.54 KCAL/MOL
REMARK 922        TOTAL FREE ENERGY PREDICTED BY IDOCK:   -6.73 KCAL/MOL
REMARK 923 INTER-LIGAND FREE ENERGY PREDICTED BY IDOCK:   -6.23 KCAL/MOL
REMARK 924 INTRA-LIGAND FREE ENERGY PREDICTED BY IDOCK:   -0.50 KCAL/MOL
REMARK 927      BINDING AFFINITY PREDICTED BY RF-SCORE:    0.00 PKD
ROOT
HETATM    1  C   UNL     1     -12.127  14.202  71.204  1.00  0.00    -0.392 C  
HETATM    2  C   UNL     1     -11.743  14.639  69.790  1.00  0.00    -0.361 A  
HETATM    3  C   UNL     1     -12.813  12.837  71.315  1.00  0.00    -0.355 C  
HETATM    4  C   UNL     1     -13.025  15.205  71.926  1.00  0.00    -0.359 C  
HETATM    5  O   UNL     1     -13.998  15.757  71.161  1.00  0.00    -0.508 OA 
HETATM    6  O   UNL     1     -12.924  15.461  73.118  1.00  0.00    -0.423 OA 
HETATM    7  C   UNL     1     -11.205  15.927  69.593  1.00  0.00    -0.331 A  
HETATM    8  C   UNL     1     -10.948  16.413  68.303  1.00  0.00    -0.355 A  
HETATM    9  C   UNL     1     -11.111  15.572  67.202  1.00  0.00    -0.256 A  
HETATM   10  C   UNL     1     -11.909  13.816  68.665  1.00  0.00    -0.409 A  
HETATM   11  C   UNL     1     -11.582  14.273  67.385  1.00  0.00    -0.394 A  
ENDROOT
BRANCH   8  12
HETATM   12  C   UNL     1     -10.518  17.817  68.061  1.00  0.00    -0.394 C  
HETATM   13  O   UNL     1     -11.373  18.651  67.769  1.00  0.00     0.058 OA 
BRANCH  12  14
HETATM   14  C   UNL     1      -9.091  18.233  68.200  1.00  0.00    -0.310 A  
HETATM   15  C   UNL     1      -8.675  19.557  68.002  1.00  0.00    -0.369 A  
HETATM   16  C   UNL     1      -7.334  19.909  68.170  1.00  0.00    -0.338 A  
HETATM   17  C   UNL     1      -6.394  18.936  68.498  1.00  0.00    -0.245 A  
HETATM   18  C   UNL     1      -6.790  17.607  68.653  1.00  0.00    -0.229 A  
HETATM   19  C   UNL     1      -8.134  17.256  68.503  1.00  0.00    -0.262 A  
ENDBRANCH  12  14
ENDBRANCH   8  12
TORSDOF 2
ENDMDL
MODEL       56
REMARK 921   NORMALIZED FREE ENERGY PREDICTED BY IDOCK:   -5.54 KCAL/MOL
REMARK 922        TOTAL FREE ENERGY PREDICTED BY IDOCK:   -6.73 KCAL/MOL
REMARK 923 INTER-LIGAND FREE ENERGY PREDICTED BY IDOCK:   -6.20 KCAL/MOL
REMARK 924 INTRA-LIGAND FREE ENERGY PREDICTED BY IDOCK:   -0.53 KCAL/MOL
REMARK 927      BINDING AFFINITY PREDICTED BY RF-SCORE:    0.00 PKD
ROOT
HETATM    1  C   UNL     1     -11.505   8.313  71.821  1.00  0.00    -0.353 C  
HETATM    2  C   UNL     1     -10.531   8.978  70.847  1.00  0.00    -0.321 A  
HETATM    3  C   UNL     1     -10.880   7.714  73.084  1.00  0.00    -0.440 C  
HETATM    4  C   UNL     1     -12.345   7.209  71.179  1.00  0.00    -0.364 C  
HETATM    5  O   UNL     1     -11.671   6.401  70.326  1.00  0.00    -0.411 OA 
HETATM    6  O   UNL     1     -13.524   7.020  71.446  1.00  0.00    -0.345 OA 
HETATM    7  C   UNL     1     -11.015   9.458  69.615  1.00  0.00    -0.216 A  
HETATM    8  C   UNL     1     -10.139   9.969  68.644  1.00  0.00    -0.187 A  
HETATM    9  C   UNL     1      -8.785  10.117  68.945  1.00  0.00    -0.149 A  
HETATM   10  C   UNL     1      -9.162   9.128  71.121  1.00  0.00    -0.301 A  
HETATM   11  C   UNL     1      -8.301   9.705  70.185  1.00  0.00    -0.221 A  
ENDROOT
BRANCH   8  12
HETATM   12  C   UNL     1     -10.606  10.346  67.283  1.00  0.00    -0.267 C  
HETATM   13  O   UNL     1     -10.533   9.511  66.384  1.00  0.00    -0.199 OA 
BRANCH  12  14
HETATM   14  C   UNL     1     -11.188  11.692  67.000  1.00  0.00    -0.376 A  
HETATM   15  C   UNL     1     -11.379  12.650  68.005  1.00  0.00    -0.337 A  
HETATM   16  C   UNL     1     -11.901  13.907  67.693  1.00  0.00    -0.422 A  
HETATM   17  C   UNL     1     -12.270  14.203  66.383  1.00  0.00    -0.473 A  
HETATM   18  C   UNL     1     -12.126  13.240  65.384  1.00  0.00    -0.464 A  
HETATM   19  C   UNL     1     -11.587  11.988  65.691  1.00  0.00    -0.356 A  
ENDBRANCH  12  14
ENDBRANCH   8  12
TORSDOF 2
ENDMDL
MODEL       57
REMARK 921   NORMALIZED FREE ENERGY PREDICTED BY IDOCK:   -5.47 KCAL/MOL
REMARK 922        TOTAL FREE ENERGY PREDICTED BY IDOCK:   -6.66 KCAL/MOL
REMARK 923 INTER-LIGAND FREE ENERGY PREDICTED BY IDOCK:   -6.35 KCAL/MOL
REMARK 924 INTRA-LIGAND FREE ENERGY PREDICTED BY IDOCK:   -0.31 KCAL/MOL
REMARK 927      BINDING AFFINITY PREDICTED BY RF-SCORE:    0.00 PKD
ROOT
HETATM    1  C   UNL     1     -11.500   8.144  72.124  1.00  0.00    -0.412 C  
HETATM    2  C   UNL     1     -10.638   8.934  71.138  1.00  0.00    -0.335 A  
HETATM    3  C   UNL     1     -10.736   7.308  73.155  1.00  0.00    -0.411 C  
HETATM    4  C   UNL     1     -12.492   7.202  71.442  1.00  0.00    -0.388 C  
HETATM    5  O   UNL     1     -12.002   6.533  70.371  1.00  0.00    -0.397 OA 
HETATM    6  O   UNL     1     -13.628   7.012  71.853  1.00  0.00    -0.296 OA 
HETATM    7  C   UNL     1     -11.265   9.642  70.094  1.00  0.00    -0.302 A  
HETATM    8  C   UNL     1     -10.510  10.284  69.100  1.00  0.00    -0.246 A  
HETATM    9  C   UNL     1      -9.120  10.326  69.209  1.00  0.00    -0.206 A  
HETATM   10  C   UNL     1      -9.237   8.982  71.218  1.00  0.00    -0.314 A  
HETATM   11  C   UNL     1      -8.487   9.684  70.271  1.00  0.00    -0.221 A  
ENDROOT
BRANCH   8  12
HETATM   12  C   UNL     1     -11.146  10.913  67.911  1.00  0.00    -0.302 C  
HETATM   13  O   UNL     1     -12.143  11.611  68.079  1.00  0.00    -0.597 OA 
BRANCH  12  14
HETATM   14  C   UNL     1     -10.580  10.742  66.540  1.00  0.00    -0.279 A  
HETATM   15  C   UNL     1      -9.863   9.599  66.163  1.00  0.00    -0.334 A  
HETATM   16  C   UNL     1      -9.375   9.468  64.861  1.00  0.00    -0.264 A  
HETATM   17  C   UNL     1      -9.566  10.494  63.939  1.00  0.00    -0.363 A  
HETATM   18  C   UNL     1     -10.238  11.656  64.317  1.00  0.00    -0.357 A  
HETATM   19  C   UNL     1     -10.743  11.781  65.614  1.00  0.00    -0.328 A  
ENDBRANCH  12  14
ENDBRANCH   8  12
TORSDOF 2
ENDMDL
MODEL       58
REMARK 921   NORMALIZED FREE ENERGY PREDICTED BY IDOCK:   -5.47 KCAL/MOL
REMARK 922        TOTAL FREE ENERGY PREDICTED BY IDOCK:   -6.66 KCAL/MOL
REMARK 923 INTER-LIGAND FREE ENERGY PREDICTED BY IDOCK:   -6.19 KCAL/MOL
REMARK 924 INTRA-LIGAND FREE ENERGY PREDICTED BY IDOCK:   -0.47 KCAL/MOL
REMARK 927      BINDING AFFINITY PREDICTED BY RF-SCORE:    0.00 PKD
ROOT
HETATM    1  C   UNL     1     -12.024   8.807  71.866  1.00  0.00    -0.435 C  
HETATM    2  C   UNL     1     -11.480   9.518  70.626  1.00  0.00    -0.362 A  
HETATM    3  C   UNL     1     -11.798   7.293  71.917  1.00  0.00    -0.333 C  
HETATM    4  C   UNL     1     -13.518   9.037  72.090  1.00  0.00    -0.459 C  
HETATM    5  O   UNL     1     -14.277   8.999  70.969  1.00  0.00    -0.146 OA 
HETATM    6  O   UNL     1     -14.015   9.190  73.197  1.00  0.00    -0.295 OA 
HETATM    7  C   UNL     1     -11.740  10.892  70.454  1.00  0.00    -0.444 A  
HETATM    8  C   UNL     1     -11.362  11.558  69.279  1.00  0.00    -0.353 A  
HETATM    9  C   UNL     1     -10.611  10.885  68.315  1.00  0.00    -0.223 A  
HETATM   10  C   UNL     1     -10.733   8.861  69.636  1.00  0.00    -0.222 A  
HETATM   11  C   UNL     1     -10.290   9.542  68.498  1.00  0.00    -0.234 A  
ENDROOT
BRANCH   8  12
HETATM   12  C   UNL     1     -11.753  12.969  69.012  1.00  0.00    -0.329 C  
HETATM   13  O   UNL     1     -12.403  13.569  69.865  1.00  0.00    -0.298 OA 
BRANCH  12  14
HETATM   14  C   UNL     1     -11.344  13.670  67.759  1.00  0.00    -0.336 A  
HETATM   15  C   UNL     1     -12.118  13.629  66.592  1.00  0.00    -0.459 A  
HETATM   16  C   UNL     1     -11.712  14.323  65.449  1.00  0.00    -0.354 A  
HETATM   17  C   UNL     1     -10.513  15.030  65.453  1.00  0.00    -0.406 A  
HETATM   18  C   UNL     1      -9.712  15.039  66.595  1.00  0.00    -0.273 A  
HETATM   19  C   UNL     1     -10.125  14.361  67.745  1.00  0.00    -0.226 A  
ENDBRANCH  12  14
ENDBRANCH   8  12
TORSDOF 2
ENDMDL
MODEL       59
REMARK 921   NORMALIZED FREE ENERGY PREDICTED BY IDOCK:   -5.47 KCAL/MOL
REMARK 922        TOTAL FREE ENERGY PREDICTED BY IDOCK:   -6.65 KCAL/MOL
REMARK 923 INTER-LIGAND FREE ENERGY PREDICTED BY IDOCK:   -6.29 KCAL/MOL
REMARK 924 INTRA-LIGAND FREE ENERGY PREDICTED BY IDOCK:   -0.37 KCAL/MOL
REMARK 927      BINDING AFFINITY PREDICTED BY RF-SCORE:    0.00 PKD
ROOT
HETATM    1  C   UNL     1      -9.061  10.752  66.586  1.00  0.00    -0.174 C  
HETATM    2  C   UNL     1     -10.119  11.755  67.046  1.00  0.00    -0.232 A  
HETATM    3  C   UNL     1      -8.778  10.725  65.082  1.00  0.00    -0.174 C  
HETATM    4  C   UNL     1      -9.367   9.314  67.003  1.00  0.00    -0.144 C  
HETATM    5  O   UNL     1     -10.666   8.947  66.880  1.00  0.00    -0.230 OA 
HETATM    6  O   UNL     1      -8.509   8.522  67.368  1.00  0.00    -0.125 OA 
HETATM    7  C   UNL     1     -10.510  11.767  68.400  1.00  0.00    -0.231 A  
HETATM    8  C   UNL     1     -11.558  12.588  68.842  1.00  0.00    -0.364 A  
HETATM    9  C   UNL     1     -12.144  13.496  67.960  1.00  0.00    -0.298 A  
HETATM   10  C   UNL     1     -10.732  12.670  66.176  1.00  0.00    -0.293 A  
HETATM   11  C   UNL     1     -11.725  13.542  66.632  1.00  0.00    -0.425 A  
ENDROOT
BRANCH   8  12
HETATM   12  C   UNL     1     -12.086  12.512  70.231  1.00  0.00    -0.294 C  
HETATM   13  O   UNL     1     -12.319  11.405  70.712  1.00  0.00    -0.365 OA 
BRANCH  12  14
HETATM   14  C   UNL     1     -12.301  13.739  71.054  1.00  0.00    -0.452 A  
HETATM   15  C   UNL     1     -11.495  14.879  70.924  1.00  0.00    -0.305 A  
HETATM   16  C   UNL     1     -11.748  16.016  71.694  1.00  0.00    -0.583 A  
HETATM   17  C   UNL     1     -12.782  16.010  72.627  1.00  0.00    -0.525 A  
HETATM   18  C   UNL     1     -13.561  14.865  72.797  1.00  0.00    -0.537 A  
HETATM   19  C   UNL     1     -13.321  13.732  72.014  1.00  0.00    -0.536 A  
ENDBRANCH  12  14
ENDBRANCH   8  12
TORSDOF 2
ENDMDL
MODEL       60
REMARK 921   NORMALIZED FREE ENERGY PREDICTED BY IDOCK:   -5.47 KCAL/MOL
REMARK 922        TOTAL FREE ENERGY PREDICTED BY IDOCK:   -6.65 KCAL/MOL
REMARK 923 INTER-LIGAND FREE ENERGY PREDICTED BY IDOCK:   -6.07 KCAL/MOL
REMARK 924 INTRA-LIGAND FREE ENERGY PREDICTED BY IDOCK:   -0.58 KCAL/MOL
REMARK 927      BINDING AFFINITY PREDICTED BY RF-SCORE:    0.00 PKD
ROOT
HETATM    1  C   UNL     1     -11.499   9.835  71.196  1.00  0.00    -0.472 C  
HETATM    2  C   UNL     1     -10.785   9.567  69.869  1.00  0.00    -0.268 A  
HETATM    3  C   UNL     1     -11.950   8.593  71.970  1.00  0.00    -0.442 C  
HETATM    4  C   UNL     1     -12.725  10.735  71.054  1.00  0.00    -0.415 C  
HETATM    5  O   UNL     1     -13.500  10.480  69.972  1.00  0.00     0.105 OA 
HETATM    6  O   UNL     1     -13.030  11.589  71.875  1.00  0.00    -0.440 OA 
HETATM    7  C   UNL     1     -10.434  10.658  69.049  1.00  0.00    -0.237 A  
HETATM    8  C   UNL     1      -9.885  10.455  67.774  1.00  0.00    -0.193 A  
HETATM    9  C   UNL     1      -9.568   9.162  67.356  1.00  0.00    -0.193 A  
HETATM   10  C   UNL     1     -10.467   8.276  69.421  1.00  0.00    -0.224 A  
HETATM   11  C   UNL     1      -9.851   8.077  68.182  1.00  0.00    -0.195 A  
ENDROOT
BRANCH   8  12
HETATM   12  C   UNL     1      -9.640  11.581  66.833  1.00  0.00    -0.187 C  
HETATM   13  O   UNL     1      -8.646  12.283  67.002  1.00  0.00    -0.183 OA 
BRANCH  12  14
HETATM   14  C   UNL     1     -10.551  11.850  65.681  1.00  0.00    -0.311 A  
HETATM   15  C   UNL     1     -10.287  11.370  64.391  1.00  0.00    -0.375 A  
HETATM   16  C   UNL     1     -11.180  11.621  63.346  1.00  0.00    -0.401 A  
HETATM   17  C   UNL     1     -12.323  12.384  63.575  1.00  0.00    -0.648 A  
HETATM   18  C   UNL     1     -12.571  12.905  64.845  1.00  0.00    -0.525 A  
HETATM   19  C   UNL     1     -11.688  12.640  65.895  1.00  0.00    -0.470 A  
ENDBRANCH  12  14
ENDBRANCH   8  12
TORSDOF 2
ENDMDL
MODEL       61
REMARK 921   NORMALIZED FREE ENERGY PREDICTED BY IDOCK:   -5.46 KCAL/MOL
REMARK 922        TOTAL FREE ENERGY PREDICTED BY IDOCK:   -6.64 KCAL/MOL
REMARK 923 INTER-LIGAND FREE ENERGY PREDICTED BY IDOCK:   -6.34 KCAL/MOL
REMARK 924 INTRA-LIGAND FREE ENERGY PREDICTED BY IDOCK:   -0.31 KCAL/MOL
REMARK 927      BINDING AFFINITY PREDICTED BY RF-SCORE:    0.00 PKD
ROOT
HETATM    1  C   UNL     1      -9.055   9.590  66.219  1.00  0.00    -0.202 C  
HETATM    2  C   UNL     1     -10.022  10.694  66.650  1.00  0.00    -0.259 A  
HETATM    3  C   UNL     1      -8.906   9.389  64.709  1.00  0.00    -0.243 C  
HETATM    4  C   UNL     1      -9.391   8.224  66.814  1.00  0.00    -0.182 C  
HETATM    5  O   UNL     1     -10.710   7.918  66.838  1.00  0.00    -0.333 OA 
HETATM    6  O   UNL     1      -8.541   7.428  67.194  1.00  0.00    -0.116 OA 
HETATM    7  C   UNL     1     -10.293  10.870  68.022  1.00  0.00    -0.212 A  
HETATM    8  C   UNL     1     -11.260  11.790  68.455  1.00  0.00    -0.306 A  
HETATM    9  C   UNL     1     -11.877  12.630  67.529  1.00  0.00    -0.396 A  
HETATM   10  C   UNL     1     -10.665  11.544  65.737  1.00  0.00    -0.325 A  
HETATM   11  C   UNL     1     -11.573  12.513  66.174  1.00  0.00    -0.448 A  
ENDROOT
BRANCH   8  12
HETATM   12  C   UNL     1     -11.668  11.890  69.882  1.00  0.00    -0.308 C  
HETATM   13  O   UNL     1     -11.918  13.001  70.344  1.00  0.00    -0.332 OA 
BRANCH  12  14
HETATM   14  C   UNL     1     -11.811  10.679  70.742  1.00  0.00    -0.459 A  
HETATM   15  C   UNL     1     -10.728   9.841  71.042  1.00  0.00    -0.342 A  
HETATM   16  C   UNL     1     -10.901   8.732  71.873  1.00  0.00    -0.431 A  
HETATM   17  C   UNL     1     -12.162   8.431  72.380  1.00  0.00    -0.430 A  
HETATM   18  C   UNL     1     -13.256   9.232  72.051  1.00  0.00    -0.519 A  
HETATM   19  C   UNL     1     -13.082  10.352  71.234  1.00  0.00    -0.494 A  
ENDBRANCH  12  14
ENDBRANCH   8  12
TORSDOF 2
ENDMDL
MODEL       62
REMARK 921   NORMALIZED FREE ENERGY PREDICTED BY IDOCK:   -5.43 KCAL/MOL
REMARK 922        TOTAL FREE ENERGY PREDICTED BY IDOCK:   -6.61 KCAL/MOL
REMARK 923 INTER-LIGAND FREE ENERGY PREDICTED BY IDOCK:   -6.03 KCAL/MOL
REMARK 924 INTRA-LIGAND FREE ENERGY PREDICTED BY IDOCK:   -0.58 KCAL/MOL
REMARK 927      BINDING AFFINITY PREDICTED BY RF-SCORE:    0.00 PKD
ROOT
HETATM    1  C   UNL     1     -12.153  13.140  65.931  1.00  0.00    -0.501 C  
HETATM    2  C   UNL     1     -11.231  12.058  65.368  1.00  0.00    -0.374 A  
HETATM    3  C   UNL     1     -12.618  14.204  64.933  1.00  0.00    -0.362 C  
HETATM    4  C   UNL     1     -11.555  13.886  67.123  1.00  0.00    -0.364 C  
HETATM    5  O   UNL     1     -10.240  14.190  67.007  1.00  0.00    -0.256 OA 
HETATM    6  O   UNL     1     -12.212  14.240  68.093  1.00  0.00    -0.284 OA 
HETATM    7  C   UNL     1     -10.676  11.105  66.246  1.00  0.00    -0.298 A  
HETATM    8  C   UNL     1      -9.735  10.168  65.794  1.00  0.00    -0.307 A  
HETATM    9  C   UNL     1      -9.431  10.095  64.434  1.00  0.00    -0.368 A  
HETATM   10  C   UNL     1     -10.900  11.971  64.007  1.00  0.00    -0.433 A  
HETATM   11  C   UNL     1     -10.020  10.989  63.542  1.00  0.00    -0.421 A  
ENDROOT
BRANCH   8  12
HETATM   12  C   UNL     1      -9.029   9.249  66.726  1.00  0.00    -0.131 C  
HETATM   13  O   UNL     1      -7.817   9.387  66.881  1.00  0.00    -0.103 OA 
BRANCH  12  14
HETATM   14  C   UNL     1      -9.760   8.199  67.494  1.00  0.00    -0.207 A  
HETATM   15  C   UNL     1     -10.329   7.078  66.874  1.00  0.00    -0.338 A  
HETATM   16  C   UNL     1     -10.982   6.104  67.634  1.00  0.00    -0.400 A  
HETATM   17  C   UNL     1     -11.104   6.263  69.012  1.00  0.00    -0.446 A  
HETATM   18  C   UNL     1     -10.582   7.397  69.633  1.00  0.00    -0.243 A  
HETATM   19  C   UNL     1      -9.913   8.363  68.877  1.00  0.00    -0.194 A  
ENDBRANCH  12  14
ENDBRANCH   8  12
TORSDOF 2
ENDMDL
MODEL       63
REMARK 921   NORMALIZED FREE ENERGY PREDICTED BY IDOCK:   -5.41 KCAL/MOL
REMARK 922        TOTAL FREE ENERGY PREDICTED BY IDOCK:   -6.59 KCAL/MOL
REMARK 923 INTER-LIGAND FREE ENERGY PREDICTED BY IDOCK:   -6.01 KCAL/MOL
REMARK 924 INTRA-LIGAND FREE ENERGY PREDICTED BY IDOCK:   -0.58 KCAL/MOL
REMARK 927      BINDING AFFINITY PREDICTED BY RF-SCORE:    0.00 PKD
ROOT
HETATM    1  C   UNL     1     -11.447  12.859  67.241  1.00  0.00    -0.388 C  
HETATM    2  C   UNL     1     -11.413  14.027  68.227  1.00  0.00    -0.337 A  
HETATM    3  C   UNL     1     -11.775  11.489  67.843  1.00  0.00    -0.317 C  
HETATM    4  C   UNL     1     -10.149  12.693  66.452  1.00  0.00    -0.253 C  
HETATM    5  O   UNL     1      -9.015  12.863  67.173  1.00  0.00    -0.203 OA 
HETATM    6  O   UNL     1     -10.117  12.375  65.270  1.00  0.00    -0.276 OA 
HETATM    7  C   UNL     1     -11.015  15.299  67.769  1.00  0.00    -0.312 A  
HETATM    8  C   UNL     1     -10.857  16.371  68.660  1.00  0.00    -0.331 A  
HETATM    9  C   UNL     1     -11.212  16.214  70.000  1.00  0.00    -0.359 A  
HETATM   10  C   UNL     1     -11.754  13.892  69.582  1.00  0.00    -0.370 A  
HETATM   11  C   UNL     1     -11.668  14.979  70.457  1.00  0.00    -0.344 A  
ENDROOT
BRANCH   8  12
HETATM   12  C   UNL     1     -10.300  17.680  68.226  1.00  0.00    -0.384 C  
HETATM   13  O   UNL     1     -11.030  18.455  67.612  1.00  0.00    -0.346 OA 
BRANCH  12  14
HETATM   14  C   UNL     1      -8.898  18.080  68.549  1.00  0.00    -0.304 A  
HETATM   15  C   UNL     1      -8.506  19.423  68.644  1.00  0.00    -0.395 A  
HETATM   16  C   UNL     1      -7.190  19.753  68.976  1.00  0.00    -0.340 A  
HETATM   17  C   UNL     1      -6.249  18.747  69.179  1.00  0.00    -0.271 A  
HETATM   18  C   UNL     1      -6.618  17.408  69.041  1.00  0.00    -0.232 A  
HETATM   19  C   UNL     1      -7.938  17.076  68.727  1.00  0.00    -0.248 A  
ENDBRANCH  12  14
ENDBRANCH   8  12
TORSDOF 2
ENDMDL
MODEL       64
REMARK 921   NORMALIZED FREE ENERGY PREDICTED BY IDOCK:   -5.41 KCAL/MOL
REMARK 922        TOTAL FREE ENERGY PREDICTED BY IDOCK:   -6.59 KCAL/MOL
REMARK 923 INTER-LIGAND FREE ENERGY PREDICTED BY IDOCK:   -5.99 KCAL/MOL
REMARK 924 INTRA-LIGAND FREE ENERGY PREDICTED BY IDOCK:   -0.60 KCAL/MOL
REMARK 927      BINDING AFFINITY PREDICTED BY RF-SCORE:    0.00 PKD
ROOT
HETATM    1  C   UNL     1     -11.462  12.379  69.776  1.00  0.00    -0.220 C  
HETATM    2  C   UNL     1     -11.869  11.133  70.565  1.00  0.00    -0.448 A  
HETATM    3  C   UNL     1     -12.420  13.569  69.874  1.00  0.00    -0.194 C  
HETATM    4  C   UNL     1     -11.244  12.110  68.288  1.00  0.00    -0.268 C  
HETATM    5  O   UNL     1     -12.153  11.282  67.717  1.00  0.00    -0.631 OA 
HETATM    6  O   UNL     1     -10.356  12.638  67.633  1.00  0.00    -0.215 OA 
HETATM    7  C   UNL     1     -11.095   9.961  70.441  1.00  0.00    -0.382 A  
HETATM    8  C   UNL     1     -11.495   8.763  71.052  1.00  0.00    -0.337 A  
HETATM    9  C   UNL     1     -12.607   8.755  71.894  1.00  0.00    -0.428 A  
HETATM   10  C   UNL     1     -12.990  11.095  71.408  1.00  0.00    -0.506 A  
HETATM   11  C   UNL     1     -13.347   9.922  72.078  1.00  0.00    -0.532 A  
ENDROOT
BRANCH   8  12
HETATM   12  C   UNL     1     -10.776   7.482  70.819  1.00  0.00    -0.229 C  
HETATM   13  O   UNL     1     -10.605   6.723  71.770  1.00  0.00    -0.211 OA 
BRANCH  12  14
HETATM   14  C   UNL     1     -10.297   7.090  69.460  1.00  0.00    -0.225 A  
HETATM   15  C   UNL     1     -11.151   6.540  68.495  1.00  0.00    -0.347 A  
HETATM   16  C   UNL     1     -10.668   6.213  67.226  1.00  0.00    -0.414 A  
HETATM   17  C   UNL     1      -9.320   6.397  66.926  1.00  0.00    -0.150 A  
HETATM   18  C   UNL     1      -8.452   6.901  67.894  1.00  0.00    -0.120 A  
HETATM   19  C   UNL     1      -8.938   7.246  69.158  1.00  0.00    -0.135 A  
ENDBRANCH  12  14
ENDBRANCH   8  12
TORSDOF 2
ENDMDL
MODEL       65
REMARK 921   NORMALIZED FREE ENERGY PREDICTED BY IDOCK:   -5.41 KCAL/MOL
REMARK 922        TOTAL FREE ENERGY PREDICTED BY IDOCK:   -6.59 KCAL/MOL
REMARK 923 INTER-LIGAND FREE ENERGY PREDICTED BY IDOCK:   -6.01 KCAL/MOL
REMARK 924 INTRA-LIGAND FREE ENERGY PREDICTED BY IDOCK:   -0.58 KCAL/MOL
REMARK 927      BINDING AFFINITY PREDICTED BY RF-SCORE:    0.00 PKD
ROOT
HETATM    1  C   UNL     1     -12.825   9.663  71.088  1.00  0.00    -0.400 C  
HETATM    2  C   UNL     1     -12.749  11.186  70.969  1.00  0.00    -0.476 A  
HETATM    3  C   UNL     1     -13.325   9.126  72.432  1.00  0.00    -0.527 C  
HETATM    4  C   UNL     1     -11.496   8.966  70.802  1.00  0.00    -0.275 C  
HETATM    5  O   UNL     1     -10.405   9.576  71.326  1.00  0.00    -0.312 OA 
HETATM    6  O   UNL     1     -11.409   7.906  70.197  1.00  0.00    -0.214 OA 
HETATM    7  C   UNL     1     -12.199  11.756  69.803  1.00  0.00    -0.270 A  
HETATM    8  C   UNL     1     -12.002  13.141  69.699  1.00  0.00    -0.370 A  
HETATM    9  C   UNL     1     -12.467  13.982  70.710  1.00  0.00    -0.442 A  
HETATM   10  C   UNL     1     -13.198  12.054  71.977  1.00  0.00    -0.481 A  
HETATM   11  C   UNL     1     -13.071  13.440  71.842  1.00  0.00    -0.476 A  
ENDROOT
BRANCH   8  12
HETATM   12  C   UNL     1     -11.292  13.751  68.542  1.00  0.00    -0.285 C  
HETATM   13  O   UNL     1     -11.940  14.025  67.534  1.00  0.00    -0.386 OA 
BRANCH  12  14
HETATM   14  C   UNL     1      -9.834  14.065  68.597  1.00  0.00    -0.191 A  
HETATM   15  C   UNL     1      -9.349  15.283  69.092  1.00  0.00    -0.236 A  
HETATM   16  C   UNL     1      -7.975  15.526  69.151  1.00  0.00    -0.222 A  
HETATM   17  C   UNL     1      -7.077  14.569  68.681  1.00  0.00    -0.113 A  
HETATM   18  C   UNL     1      -7.552  13.372  68.144  1.00  0.00    -0.138 A  
HETATM   19  C   UNL     1      -8.926  13.121  68.101  1.00  0.00    -0.195 A  
ENDBRANCH  12  14
ENDBRANCH   8  12
TORSDOF 2
ENDMDL
MODEL       66
REMARK 921   NORMALIZED FREE ENERGY PREDICTED BY IDOCK:   -5.40 KCAL/MOL
REMARK 922        TOTAL FREE ENERGY PREDICTED BY IDOCK:   -6.58 KCAL/MOL
REMARK 923 INTER-LIGAND FREE ENERGY PREDICTED BY IDOCK:   -6.03 KCAL/MOL
REMARK 924 INTRA-LIGAND FREE ENERGY PREDICTED BY IDOCK:   -0.55 KCAL/MOL
REMARK 927      BINDING AFFINITY PREDICTED BY RF-SCORE:    0.00 PKD
ROOT
HETATM    1  C   UNL     1     -11.642  12.722  65.644  1.00  0.00    -0.410 C  
HETATM    2  C   UNL     1     -10.905  11.446  66.052  1.00  0.00    -0.306 A  
HETATM    3  C   UNL     1     -11.550  13.099  64.163  1.00  0.00    -0.460 C  
HETATM    4  C   UNL     1     -11.210  13.953  66.439  1.00  0.00    -0.315 C  
HETATM    5  O   UNL     1      -9.877  14.051  66.663  1.00  0.00    -0.266 OA 
HETATM    6  O   UNL     1     -11.987  14.824  66.805  1.00  0.00    -0.327 OA 
HETATM    7  C   UNL     1     -10.854  11.090  67.415  1.00  0.00    -0.327 A  
HETATM    8  C   UNL     1     -10.092   9.994  67.848  1.00  0.00    -0.203 A  
HETATM    9  C   UNL     1      -9.472   9.170  66.908  1.00  0.00    -0.222 A  
HETATM   10  C   UNL     1     -10.263  10.607  65.128  1.00  0.00    -0.368 A  
HETATM   11  C   UNL     1      -9.565   9.472  65.551  1.00  0.00    -0.349 A  
ENDROOT
BRANCH   8  12
HETATM   12  C   UNL     1      -9.906   9.686  69.291  1.00  0.00    -0.189 C  
HETATM   13  O   UNL     1      -8.880  10.073  69.847  1.00  0.00    -0.205 OA 
BRANCH  12  14
HETATM   14  C   UNL     1     -10.944   8.954  70.075  1.00  0.00    -0.217 A  
HETATM   15  C   UNL     1     -11.883   9.619  70.876  1.00  0.00    -0.403 A  
HETATM   16  C   UNL     1     -12.855   8.897  71.573  1.00  0.00    -0.383 A  
HETATM   17  C   UNL     1     -12.873   7.506  71.504  1.00  0.00    -0.397 A  
HETATM   18  C   UNL     1     -11.915   6.833  70.746  1.00  0.00    -0.433 A  
HETATM   19  C   UNL     1     -10.952   7.554  70.035  1.00  0.00    -0.252 A  
ENDBRANCH  12  14
ENDBRANCH   8  12
TORSDOF 2
ENDMDL
MODEL       67
REMARK 921   NORMALIZED FREE ENERGY PREDICTED BY IDOCK:   -5.40 KCAL/MOL
REMARK 922        TOTAL FREE ENERGY PREDICTED BY IDOCK:   -6.57 KCAL/MOL
REMARK 923 INTER-LIGAND FREE ENERGY PREDICTED BY IDOCK:   -5.97 KCAL/MOL
REMARK 924 INTRA-LIGAND FREE ENERGY PREDICTED BY IDOCK:   -0.61 KCAL/MOL
REMARK 927      BINDING AFFINITY PREDICTED BY RF-SCORE:    0.00 PKD
ROOT
HETATM    1  C   UNL     1      -8.831  10.877  64.342  1.00  0.00    -0.070 C  
HETATM    2  C   UNL     1      -9.961  11.905  64.247  1.00  0.00    -0.272 A  
HETATM    3  C   UNL     1      -9.101   9.528  63.669  1.00  0.00    -0.145 C  
HETATM    4  C   UNL     1      -8.405  10.576  65.778  1.00  0.00    -0.166 C  
HETATM    5  O   UNL     1      -9.423  10.464  66.665  1.00  0.00    -0.159 OA 
HETATM    6  O   UNL     1      -7.242  10.390  66.109  1.00  0.00    -0.117 OA 
HETATM    7  C   UNL     1      -9.831  13.130  64.931  1.00  0.00    -0.044 A  
HETATM    8  C   UNL     1     -10.888  14.052  64.968  1.00  0.00    -0.401 A  
HETATM    9  C   UNL     1     -12.041  13.812  64.220  1.00  0.00    -0.481 A  
HETATM   10  C   UNL     1     -11.135  11.681  63.512  1.00  0.00    -0.476 A  
HETATM   11  C   UNL     1     -12.159  12.633  63.487  1.00  0.00    -0.648 A  
ENDROOT
BRANCH   8  12
HETATM   12  C   UNL     1     -10.830  15.284  65.800  1.00  0.00    -0.358 C  
HETATM   13  O   UNL     1     -10.543  16.347  65.256  1.00  0.00    -0.548 OA 
BRANCH  12  14
HETATM   14  C   UNL     1     -11.144  15.257  67.259  1.00  0.00    -0.325 A  
HETATM   15  C   UNL     1     -11.881  14.220  67.848  1.00  0.00    -0.393 A  
HETATM   16  C   UNL     1     -12.129  14.220  69.222  1.00  0.00    -0.351 A  
HETATM   17  C   UNL     1     -11.678  15.275  70.012  1.00  0.00    -0.344 A  
HETATM   18  C   UNL     1     -10.984  16.335  69.428  1.00  0.00    -0.337 A  
HETATM   19  C   UNL     1     -10.718  16.328  68.056  1.00  0.00    -0.331 A  
ENDBRANCH  12  14
ENDBRANCH   8  12
TORSDOF 2
ENDMDL
MODEL       68
REMARK 921   NORMALIZED FREE ENERGY PREDICTED BY IDOCK:   -5.38 KCAL/MOL
REMARK 922        TOTAL FREE ENERGY PREDICTED BY IDOCK:   -6.56 KCAL/MOL
REMARK 923 INTER-LIGAND FREE ENERGY PREDICTED BY IDOCK:   -6.79 KCAL/MOL
REMARK 924 INTRA-LIGAND FREE ENERGY PREDICTED BY IDOCK:    0.24 KCAL/MOL
REMARK 927      BINDING AFFINITY PREDICTED BY RF-SCORE:    0.00 PKD
ROOT
HETATM    1  C   UNL     1     -10.647  17.632  67.477  1.00  0.00    -0.345 C  
HETATM    2  C   UNL     1     -11.137  16.188  67.594  1.00  0.00    -0.212 A  
HETATM    3  C   UNL     1      -9.986  18.005  66.147  1.00  0.00    -0.288 C  
HETATM    4  C   UNL     1      -9.670  18.032  68.582  1.00  0.00    -0.350 C  
HETATM    5  O   UNL     1      -8.752  17.089  68.903  1.00  0.00    -0.263 OA 
HETATM    6  O   UNL     1      -9.666  19.136  69.109  1.00  0.00    -0.374 OA 
HETATM    7  C   UNL     1     -11.660  15.739  68.823  1.00  0.00    -0.401 A  
HETATM    8  C   UNL     1     -12.012  14.394  69.010  1.00  0.00    -0.342 A  
HETATM    9  C   UNL     1     -11.959  13.509  67.932  1.00  0.00    -0.372 A  
HETATM   10  C   UNL     1     -11.083  15.276  66.528  1.00  0.00    -0.271 A  
HETATM   11  C   UNL     1     -11.505  13.953  66.692  1.00  0.00    -0.370 A  
ENDROOT
BRANCH   8  12
HETATM   12  C   UNL     1     -12.428  13.866  70.338  1.00  0.00    -0.334 C  
HETATM   13  O   UNL     1     -12.836  14.658  71.183  1.00  0.00    -0.307 OA 
BRANCH  12  14
HETATM   14  C   UNL     1     -12.393  12.405  70.644  1.00  0.00    -0.367 A  
HETATM   15  C   UNL     1     -13.153  11.839  71.677  1.00  0.00    -0.443 A  
HETATM   16  C   UNL     1     -13.112  10.463  71.912  1.00  0.00    -0.563 A  
HETATM   17  C   UNL     1     -12.283   9.649  71.144  1.00  0.00    -0.437 A  
HETATM   18  C   UNL     1     -11.488  10.209  70.144  1.00  0.00    -0.368 A  
HETATM   19  C   UNL     1     -11.541  11.583  69.895  1.00  0.00    -0.387 A  
ENDBRANCH  12  14
ENDBRANCH   8  12
TORSDOF 2
ENDMDL
MODEL       69
REMARK 921   NORMALIZED FREE ENERGY PREDICTED BY IDOCK:   -5.38 KCAL/MOL
REMARK 922        TOTAL FREE ENERGY PREDICTED BY IDOCK:   -6.55 KCAL/MOL
REMARK 923 INTER-LIGAND FREE ENERGY PREDICTED BY IDOCK:   -6.24 KCAL/MOL
REMARK 924 INTRA-LIGAND FREE ENERGY PREDICTED BY IDOCK:   -0.31 KCAL/MOL
REMARK 927      BINDING AFFINITY PREDICTED BY RF-SCORE:    0.00 PKD
ROOT
HETATM    1  C   UNL     1     -10.320   7.607  70.848  1.00  0.00    -0.204 C  
HETATM    2  C   UNL     1     -11.398   8.660  71.112  1.00  0.00    -0.329 A  
HETATM    3  C   UNL     1     -10.459   6.301  71.634  1.00  0.00    -0.258 C  
HETATM    4  C   UNL     1      -8.901   8.119  71.091  1.00  0.00    -0.146 C  
HETATM    5  O   UNL     1      -8.754   8.896  72.190  1.00  0.00    -0.386 OA 
HETATM    6  O   UNL     1      -7.947   7.814  70.388  1.00  0.00    -0.093 OA 
HETATM    7  C   UNL     1     -11.281   9.927  70.507  1.00  0.00    -0.399 A  
HETATM    8  C   UNL     1     -12.181  10.959  70.812  1.00  0.00    -0.483 A  
HETATM    9  C   UNL     1     -13.280  10.698  71.631  1.00  0.00    -0.495 A  
HETATM   10  C   UNL     1     -12.506   8.425  71.942  1.00  0.00    -0.390 A  
HETATM   11  C   UNL     1     -13.445   9.431  72.187  1.00  0.00    -0.543 A  
ENDROOT
BRANCH   8  12
HETATM   12  C   UNL     1     -11.995  12.343  70.300  1.00  0.00    -0.289 C  
HETATM   13  O   UNL     1     -12.292  13.285  71.033  1.00  0.00    -0.362 OA 
BRANCH  12  14
HETATM   14  C   UNL     1     -11.428  12.607  68.945  1.00  0.00    -0.354 A  
HETATM   15  C   UNL     1     -10.643  13.734  68.668  1.00  0.00    -0.263 A  
HETATM   16  C   UNL     1     -10.109  13.928  67.392  1.00  0.00    -0.244 A  
HETATM   17  C   UNL     1     -10.387  13.019  66.375  1.00  0.00    -0.287 A  
HETATM   18  C   UNL     1     -11.206  11.918  66.628  1.00  0.00    -0.384 A  
HETATM   19  C   UNL     1     -11.726  11.712  67.908  1.00  0.00    -0.329 A  
ENDBRANCH  12  14
ENDBRANCH   8  12
TORSDOF 2
ENDMDL
MODEL       70
REMARK 921   NORMALIZED FREE ENERGY PREDICTED BY IDOCK:   -5.35 KCAL/MOL
REMARK 922        TOTAL FREE ENERGY PREDICTED BY IDOCK:   -6.52 KCAL/MOL
REMARK 923 INTER-LIGAND FREE ENERGY PREDICTED BY IDOCK:   -6.19 KCAL/MOL
REMARK 924 INTRA-LIGAND FREE ENERGY PREDICTED BY IDOCK:   -0.33 KCAL/MOL
REMARK 927      BINDING AFFINITY PREDICTED BY RF-SCORE:    0.00 PKD
ROOT
HETATM    1  C   UNL     1     -11.934  11.449  70.785  1.00  0.00    -0.355 C  
HETATM    2  C   UNL     1     -12.498  10.076  71.152  1.00  0.00    -0.480 A  
HETATM    3  C   UNL     1     -12.874  12.637  71.011  1.00  0.00    -0.254 C  
HETATM    4  C   UNL     1     -11.450  11.539  69.338  1.00  0.00    -0.309 C  
HETATM    5  O   UNL     1     -12.251  10.934  68.429  1.00  0.00    -0.540 OA 
HETATM    6  O   UNL     1     -10.448  12.156  69.002  1.00  0.00    -0.159 OA 
HETATM    7  C   UNL     1     -11.734   8.925  70.874  1.00  0.00    -0.312 A  
HETATM    8  C   UNL     1     -12.258   7.641  71.085  1.00  0.00    -0.310 A  
HETATM    9  C   UNL     1     -13.506   7.496  71.691  1.00  0.00    -0.429 A  
HETATM   10  C   UNL     1     -13.755   9.903  71.750  1.00  0.00    -0.268 A  
HETATM   11  C   UNL     1     -14.248   8.625  72.031  1.00  0.00    -0.524 A  
ENDROOT
BRANCH   8  12
HETATM   12  C   UNL     1     -11.530   6.413  70.666  1.00  0.00    -0.362 C  
HETATM   13  O   UNL     1     -11.484   6.138  69.469  1.00  0.00    -0.429 OA 
BRANCH  12  14
HETATM   14  C   UNL     1     -10.832   5.541  71.656  1.00  0.00    -0.271 A  
HETATM   15  C   UNL     1     -11.312   5.356  72.960  1.00  0.00    -0.355 A  
HETATM   16  C   UNL     1     -10.643   4.509  73.846  1.00  0.00    -0.335 A  
HETATM   17  C   UNL     1      -9.471   3.870  73.449  1.00  0.00    -0.127 A  
HETATM   18  C   UNL     1      -8.960   4.083  72.168  1.00  0.00    -0.145 A  
HETATM   19  C   UNL     1      -9.637   4.916  71.274  1.00  0.00    -0.229 A  
ENDBRANCH  12  14
ENDBRANCH   8  12
TORSDOF 2
ENDMDL
MODEL       71
REMARK 921   NORMALIZED FREE ENERGY PREDICTED BY IDOCK:   -5.31 KCAL/MOL
REMARK 922        TOTAL FREE ENERGY PREDICTED BY IDOCK:   -6.48 KCAL/MOL
REMARK 923 INTER-LIGAND FREE ENERGY PREDICTED BY IDOCK:   -5.90 KCAL/MOL
REMARK 924 INTRA-LIGAND FREE ENERGY PREDICTED BY IDOCK:   -0.58 KCAL/MOL
REMARK 927      BINDING AFFINITY PREDICTED BY RF-SCORE:    0.00 PKD
ROOT
HETATM    1  C   UNL     1     -11.728  13.777  66.833  1.00  0.00    -0.424 C  
HETATM    2  C   UNL     1     -11.273  14.894  67.773  1.00  0.00    -0.329 A  
HETATM    3  C   UNL     1     -11.739  12.367  67.431  1.00  0.00    -0.417 C  
HETATM    4  C   UNL     1     -10.914  13.701  65.542  1.00  0.00    -0.293 C  
HETATM    5  O   UNL     1      -9.580  13.878  65.696  1.00  0.00    -0.177 OA 
HETATM    6  O   UNL     1     -11.406  13.445  64.451  1.00  0.00    -0.363 OA 
HETATM    7  C   UNL     1     -11.135  16.201  67.267  1.00  0.00    -0.091 A  
HETATM    8  C   UNL     1     -10.609  17.232  68.061  1.00  0.00    -0.394 A  
HETATM    9  C   UNL     1     -10.331  16.993  69.407  1.00  0.00    -0.230 A  
HETATM   10  C   UNL     1     -10.975  14.677  69.128  1.00  0.00    -0.277 A  
HETATM   11  C   UNL     1     -10.522  15.720  69.940  1.00  0.00    -0.324 A  
ENDROOT
BRANCH   8  12
HETATM   12  C   UNL     1     -10.319  18.582  67.508  1.00  0.00    -0.409 C  
HETATM   13  O   UNL     1     -11.222  19.416  67.489  1.00  0.00    -0.325 OA 
BRANCH  12  14
HETATM   14  C   UNL     1      -8.958  18.950  67.016  1.00  0.00    -0.306 A  
HETATM   15  C   UNL     1      -8.160  18.058  66.287  1.00  0.00    -0.259 A  
HETATM   16  C   UNL     1      -6.904  18.451  65.821  1.00  0.00    -0.310 A  
HETATM   17  C   UNL     1      -6.420  19.725  66.113  1.00  0.00    -0.210 A  
HETATM   18  C   UNL     1      -7.187  20.604  66.877  1.00  0.00    -0.350 A  
HETATM   19  C   UNL     1      -8.452  20.218  67.328  1.00  0.00    -0.415 A  
ENDBRANCH  12  14
ENDBRANCH   8  12
TORSDOF 2
ENDMDL
MODEL       72
REMARK 921   NORMALIZED FREE ENERGY PREDICTED BY IDOCK:   -5.31 KCAL/MOL
REMARK 922        TOTAL FREE ENERGY PREDICTED BY IDOCK:   -6.47 KCAL/MOL
REMARK 923 INTER-LIGAND FREE ENERGY PREDICTED BY IDOCK:   -5.88 KCAL/MOL
REMARK 924 INTRA-LIGAND FREE ENERGY PREDICTED BY IDOCK:   -0.59 KCAL/MOL
REMARK 927      BINDING AFFINITY PREDICTED BY RF-SCORE:    0.00 PKD
ROOT
HETATM    1  C   UNL     1      -8.454   9.880  66.486  1.00  0.00    -0.127 C  
HETATM    2  C   UNL     1      -9.344  10.635  65.496  1.00  0.00    -0.245 A  
HETATM    3  C   UNL     1      -7.749   8.638  65.933  1.00  0.00    -0.101 C  
HETATM    4  C   UNL     1      -9.191   9.442  67.751  1.00  0.00    -0.128 C  
HETATM    5  O   UNL     1     -10.441   8.961  67.547  1.00  0.00    -0.252 OA 
HETATM    6  O   UNL     1      -8.685   9.464  68.865  1.00  0.00    -0.127 OA 
HETATM    7  C   UNL     1     -10.108  11.726  65.956  1.00  0.00    -0.263 A  
HETATM    8  C   UNL     1     -11.024  12.373  65.113  1.00  0.00    -0.339 A  
HETATM    9  C   UNL     1     -11.096  12.014  63.767  1.00  0.00    -0.510 A  
HETATM   10  C   UNL     1      -9.443  10.286  64.140  1.00  0.00    -0.358 A  
HETATM   11  C   UNL     1     -10.301  10.979  63.281  1.00  0.00    -0.317 A  
ENDROOT
BRANCH   8  12
HETATM   12  C   UNL     1     -11.945  13.429  65.614  1.00  0.00    -0.401 C  
HETATM   13  O   UNL     1     -13.084  13.480  65.154  1.00  0.00    -0.737 OA 
BRANCH  12  14
HETATM   14  C   UNL     1     -11.528  14.391  66.676  1.00  0.00    -0.372 A  
HETATM   15  C   UNL     1     -11.834  14.192  68.029  1.00  0.00    -0.400 A  
HETATM   16  C   UNL     1     -11.401  15.104  68.994  1.00  0.00    -0.307 A  
HETATM   17  C   UNL     1     -10.692  16.240  68.610  1.00  0.00    -0.309 A  
HETATM   18  C   UNL     1     -10.422  16.471  67.261  1.00  0.00    -0.304 A  
HETATM   19  C   UNL     1     -10.839  15.551  66.296  1.00  0.00    -0.283 A  
ENDBRANCH  12  14
ENDBRANCH   8  12
TORSDOF 2
ENDMDL
MODEL       73
REMARK 921   NORMALIZED FREE ENERGY PREDICTED BY IDOCK:   -5.31 KCAL/MOL
REMARK 922        TOTAL FREE ENERGY PREDICTED BY IDOCK:   -6.47 KCAL/MOL
REMARK 923 INTER-LIGAND FREE ENERGY PREDICTED BY IDOCK:   -5.94 KCAL/MOL
REMARK 924 INTRA-LIGAND FREE ENERGY PREDICTED BY IDOCK:   -0.53 KCAL/MOL
REMARK 927      BINDING AFFINITY PREDICTED BY RF-SCORE:    0.00 PKD
ROOT
HETATM    1  C   UNL     1     -10.452  16.327  66.899  1.00  0.00    -0.302 C  
HETATM    2  C   UNL     1     -11.057  15.057  66.299  1.00  0.00    -0.334 A  
HETATM    3  C   UNL     1     -10.399  17.542  65.969  1.00  0.00    -0.309 C  
HETATM    4  C   UNL     1      -9.038  16.126  67.442  1.00  0.00    -0.195 C  
HETATM    5  O   UNL     1      -8.232  15.359  66.669  1.00  0.00    -0.248 OA 
HETATM    6  O   UNL     1      -8.630  16.657  68.466  1.00  0.00    -0.214 OA 
HETATM    7  C   UNL     1     -11.045  13.868  67.056  1.00  0.00    -0.311 A  
HETATM    8  C   UNL     1     -11.482  12.655  66.503  1.00  0.00    -0.409 A  
HETATM    9  C   UNL     1     -12.050  12.642  65.230  1.00  0.00    -0.519 A  
HETATM   10  C   UNL     1     -11.624  15.015  65.016  1.00  0.00    -0.332 A  
HETATM   11  C   UNL     1     -12.129  13.821  64.492  1.00  0.00    -0.463 A  
ENDROOT
BRANCH   8  12
HETATM   12  C   UNL     1     -11.343  11.364  67.229  1.00  0.00    -0.275 C  
HETATM   13  O   UNL     1     -12.078  11.149  68.191  1.00  0.00    -0.633 OA 
BRANCH  12  14
HETATM   14  C   UNL     1     -10.366  10.323  66.794  1.00  0.00    -0.288 A  
HETATM   15  C   UNL     1      -9.278  10.619  65.961  1.00  0.00    -0.208 A  
HETATM   16  C   UNL     1      -8.371   9.621  65.600  1.00  0.00    -0.133 A  
HETATM   17  C   UNL     1      -8.565   8.312  66.036  1.00  0.00    -0.167 A  
HETATM   18  C   UNL     1      -9.670   7.998  66.828  1.00  0.00    -0.305 A  
HETATM   19  C   UNL     1     -10.568   8.999  67.205  1.00  0.00    -0.291 A  
ENDBRANCH  12  14
ENDBRANCH   8  12
TORSDOF 2
ENDMDL
MODEL       74
REMARK 921   NORMALIZED FREE ENERGY PREDICTED BY IDOCK:   -5.30 KCAL/MOL
REMARK 922        TOTAL FREE ENERGY PREDICTED BY IDOCK:   -6.46 KCAL/MOL
REMARK 923 INTER-LIGAND FREE ENERGY PREDICTED BY IDOCK:   -6.01 KCAL/MOL
REMARK 924 INTRA-LIGAND FREE ENERGY PREDICTED BY IDOCK:   -0.45 KCAL/MOL
REMARK 927      BINDING AFFINITY PREDICTED BY RF-SCORE:    0.00 PKD
ROOT
HETATM    1  C   UNL     1      -9.833  16.321  68.065  1.00  0.00    -0.236 C  
HETATM    2  C   UNL     1     -10.485  14.975  67.747  1.00  0.00    -0.249 A  
HETATM    3  C   UNL     1     -10.189  17.472  67.119  1.00  0.00    -0.323 C  
HETATM    4  C   UNL     1      -8.308  16.257  68.127  1.00  0.00    -0.172 C  
HETATM    5  O   UNL     1      -7.728  15.497  67.166  1.00  0.00    -0.192 OA 
HETATM    6  O   UNL     1      -7.641  16.882  68.940  1.00  0.00    -0.227 OA 
HETATM    7  C   UNL     1     -10.127  13.844  68.507  1.00  0.00    -0.234 A  
HETATM    8  C   UNL     1     -10.610  12.568  68.177  1.00  0.00    -0.239 A  
HETATM    9  C   UNL     1     -11.553  12.430  67.158  1.00  0.00    -0.435 A  
HETATM   10  C   UNL     1     -11.428  14.807  66.720  1.00  0.00    -0.343 A  
HETATM   11  C   UNL     1     -11.967  13.549  66.439  1.00  0.00    -0.459 A  
ENDROOT
BRANCH   8  12
HETATM   12  C   UNL     1     -10.134  11.342  68.870  1.00  0.00    -0.170 C  
HETATM   13  O   UNL     1      -9.051  10.863  68.540  1.00  0.00    -0.159 OA 
BRANCH  12  14
HETATM   14  C   UNL     1     -10.920  10.710  69.970  1.00  0.00    -0.325 A  
HETATM   15  C   UNL     1     -10.496   9.542  70.619  1.00  0.00    -0.374 A  
HETATM   16  C   UNL     1     -11.249   8.998  71.662  1.00  0.00    -0.431 A  
HETATM   17  C   UNL     1     -12.449   9.596  72.040  1.00  0.00    -0.412 A  
HETATM   18  C   UNL     1     -12.903  10.733  71.371  1.00  0.00    -0.557 A  
HETATM   19  C   UNL     1     -12.142  11.288  70.338  1.00  0.00    -0.474 A  
ENDBRANCH  12  14
ENDBRANCH   8  12
TORSDOF 2
ENDMDL
MODEL       75
REMARK 921   NORMALIZED FREE ENERGY PREDICTED BY IDOCK:   -5.30 KCAL/MOL
REMARK 922        TOTAL FREE ENERGY PREDICTED BY IDOCK:   -6.46 KCAL/MOL
REMARK 923 INTER-LIGAND FREE ENERGY PREDICTED BY IDOCK:   -5.89 KCAL/MOL
REMARK 924 INTRA-LIGAND FREE ENERGY PREDICTED BY IDOCK:   -0.58 KCAL/MOL
REMARK 927      BINDING AFFINITY PREDICTED BY RF-SCORE:    0.00 PKD
ROOT
HETATM    1  C   UNL     1     -10.542  12.020  68.966  1.00  0.00    -0.136 C  
HETATM    2  C   UNL     1     -11.429  11.363  70.024  1.00  0.00    -0.331 A  
HETATM    3  C   UNL     1     -10.763  13.520  68.750  1.00  0.00    -0.261 C  
HETATM    4  C   UNL     1     -10.645  11.358  67.592  1.00  0.00    -0.202 C  
HETATM    5  O   UNL     1     -11.899  11.006  67.220  1.00  0.00    -0.468 OA 
HETATM    6  O   UNL     1      -9.687  11.202  66.848  1.00  0.00    -0.187 OA 
HETATM    7  C   UNL     1     -11.360   9.968  70.206  1.00  0.00    -0.376 A  
HETATM    8  C   UNL     1     -12.236   9.308  71.081  1.00  0.00    -0.373 A  
HETATM    9  C   UNL     1     -13.109  10.053  71.875  1.00  0.00    -0.563 A  
HETATM   10  C   UNL     1     -12.324  12.088  70.826  1.00  0.00    -0.403 A  
HETATM   11  C   UNL     1     -13.145  11.440  71.754  1.00  0.00    -0.523 A  
ENDROOT
BRANCH   8  12
HETATM   12  C   UNL     1     -12.281   7.825  71.182  1.00  0.00    -0.268 C  
HETATM   13  O   UNL     1     -13.159   7.309  71.870  1.00  0.00    -0.313 OA 
BRANCH  12  14
HETATM   14  C   UNL     1     -11.313   6.961  70.443  1.00  0.00    -0.376 A  
HETATM   15  C   UNL     1     -11.525   6.566  69.115  1.00  0.00    -0.245 A  
HETATM   16  C   UNL     1     -10.580   5.780  68.452  1.00  0.00    -0.289 A  
HETATM   17  C   UNL     1      -9.436   5.352  69.121  1.00  0.00    -0.177 A  
HETATM   18  C   UNL     1      -9.238   5.701  70.457  1.00  0.00    -0.175 A  
HETATM   19  C   UNL     1     -10.173   6.502  71.117  1.00  0.00    -0.219 A  
ENDBRANCH  12  14
ENDBRANCH   8  12
TORSDOF 2
ENDMDL
MODEL       76
REMARK 921   NORMALIZED FREE ENERGY PREDICTED BY IDOCK:   -5.29 KCAL/MOL
REMARK 922        TOTAL FREE ENERGY PREDICTED BY IDOCK:   -6.45 KCAL/MOL
REMARK 923 INTER-LIGAND FREE ENERGY PREDICTED BY IDOCK:   -5.86 KCAL/MOL
REMARK 924 INTRA-LIGAND FREE ENERGY PREDICTED BY IDOCK:   -0.59 KCAL/MOL
REMARK 927      BINDING AFFINITY PREDICTED BY RF-SCORE:    0.00 PKD
ROOT
HETATM    1  C   UNL     1     -12.038  13.656  71.108  1.00  0.00    -0.209 C  
HETATM    2  C   UNL     1     -11.507  13.746  69.676  1.00  0.00    -0.300 A  
HETATM    3  C   UNL     1     -13.147  12.628  71.344  1.00  0.00    -0.308 C  
HETATM    4  C   UNL     1     -12.552  14.990  71.648  1.00  0.00    -0.339 C  
HETATM    5  O   UNL     1     -13.268  15.727  70.766  1.00  0.00    -0.542 OA 
HETATM    6  O   UNL     1     -12.387  15.355  72.804  1.00  0.00    -0.344 OA 
HETATM    7  C   UNL     1     -10.561  14.740  69.357  1.00  0.00    -0.229 A  
HETATM    8  C   UNL     1     -10.135  14.934  68.034  1.00  0.00    -0.221 A  
HETATM    9  C   UNL     1     -10.559  14.055  67.036  1.00  0.00    -0.279 A  
HETATM   10  C   UNL     1     -11.927  12.882  68.652  1.00  0.00    -0.282 A  
HETATM   11  C   UNL     1     -11.445  13.026  67.348  1.00  0.00    -0.380 A  
ENDROOT
BRANCH   8  12
HETATM   12  C   UNL     1      -9.252  16.067  67.649  1.00  0.00    -0.205 C  
HETATM   13  O   UNL     1      -8.041  15.868  67.575  1.00  0.00    -0.137 OA 
BRANCH  12  14
HETATM   14  C   UNL     1      -9.805  17.414  67.321  1.00  0.00    -0.278 A  
HETATM   15  C   UNL     1      -9.940  18.422  68.284  1.00  0.00    -0.394 A  
HETATM   16  C   UNL     1     -10.437  19.678  67.929  1.00  0.00    -0.556 A  
HETATM   17  C   UNL     1     -10.837  19.924  66.618  1.00  0.00    -0.341 A  
HETATM   18  C   UNL     1     -10.750  18.912  65.661  1.00  0.00    -0.214 A  
HETATM   19  C   UNL     1     -10.236  17.661  66.011  1.00  0.00    -0.301 A  
ENDBRANCH  12  14
ENDBRANCH   8  12
TORSDOF 2
ENDMDL
MODEL       77
REMARK 921   NORMALIZED FREE ENERGY PREDICTED BY IDOCK:   -5.26 KCAL/MOL
REMARK 922        TOTAL FREE ENERGY PREDICTED BY IDOCK:   -6.42 KCAL/MOL
REMARK 923 INTER-LIGAND FREE ENERGY PREDICTED BY IDOCK:   -5.88 KCAL/MOL
REMARK 924 INTRA-LIGAND FREE ENERGY PREDICTED BY IDOCK:   -0.54 KCAL/MOL
REMARK 927      BINDING AFFINITY PREDICTED BY RF-SCORE:    0.00 PKD
ROOT
HETATM    1  C   UNL     1     -10.593  18.607  67.299  1.00  0.00    -0.480 C  
HETATM    2  C   UNL     1     -10.722  17.164  66.809  1.00  0.00    -0.097 A  
HETATM    3  C   UNL     1     -10.089  19.618  66.265  1.00  0.00    -0.578 C  
HETATM    4  C   UNL     1      -9.698  18.752  68.529  1.00  0.00    -0.380 C  
HETATM    5  O   UNL     1      -8.572  18.000  68.509  1.00  0.00    -0.297 OA 
HETATM    6  O   UNL     1      -9.937  19.526  69.446  1.00  0.00    -0.384 OA 
HETATM    7  C   UNL     1     -11.078  16.157  67.729  1.00  0.00    -0.254 A  
HETATM    8  C   UNL     1     -11.094  14.806  67.352  1.00  0.00    -0.327 A  
HETATM    9  C   UNL     1     -10.874  14.459  66.019  1.00  0.00    -0.309 A  
HETATM   10  C   UNL     1     -10.494  16.787  65.477  1.00  0.00    -0.254 A  
HETATM   11  C   UNL     1     -10.584  15.449  65.083  1.00  0.00    -0.458 A  
ENDROOT
BRANCH   8  12
HETATM   12  C   UNL     1     -11.324  13.716  68.338  1.00  0.00    -0.295 C  
HETATM   13  O   UNL     1     -12.047  13.941  69.305  1.00  0.00    -0.336 OA 
BRANCH  12  14
HETATM   14  C   UNL     1     -10.728  12.359  68.156  1.00  0.00    -0.243 A  
HETATM   15  C   UNL     1     -11.509  11.231  67.868  1.00  0.00    -0.360 A  
HETATM   16  C   UNL     1     -10.908   9.985  67.679  1.00  0.00    -0.336 A  
HETATM   17  C   UNL     1      -9.528   9.849  67.813  1.00  0.00    -0.158 A  
HETATM   18  C   UNL     1      -8.747  10.956  68.145  1.00  0.00    -0.133 A  
HETATM   19  C   UNL     1      -9.345  12.208  68.317  1.00  0.00    -0.198 A  
ENDBRANCH  12  14
ENDBRANCH   8  12
TORSDOF 2
ENDMDL
MODEL       78
REMARK 921   NORMALIZED FREE ENERGY PREDICTED BY IDOCK:   -5.24 KCAL/MOL
REMARK 922        TOTAL FREE ENERGY PREDICTED BY IDOCK:   -6.40 KCAL/MOL
REMARK 923 INTER-LIGAND FREE ENERGY PREDICTED BY IDOCK:   -5.89 KCAL/MOL
REMARK 924 INTRA-LIGAND FREE ENERGY PREDICTED BY IDOCK:   -0.50 KCAL/MOL
REMARK 927      BINDING AFFINITY PREDICTED BY RF-SCORE:    0.00 PKD
ROOT
HETATM    1  C   UNL     1     -10.251   6.941  71.028  1.00  0.00    -0.213 C  
HETATM    2  C   UNL     1     -10.325   7.205  69.523  1.00  0.00    -0.224 A  
HETATM    3  C   UNL     1     -11.003   5.703  71.524  1.00  0.00    -0.268 C  
HETATM    4  C   UNL     1     -10.733   8.118  71.875  1.00  0.00    -0.265 C  
HETATM    5  O   UNL     1     -11.841   8.742  71.408  1.00  0.00    -0.280 OA 
HETATM    6  O   UNL     1     -10.205   8.450  72.927  1.00  0.00    -0.264 OA 
HETATM    7  C   UNL     1      -9.747   8.381  69.005  1.00  0.00    -0.171 A  
HETATM    8  C   UNL     1      -9.892   8.721  67.652  1.00  0.00    -0.228 A  
HETATM    9  C   UNL     1     -10.512   7.828  66.777  1.00  0.00    -0.318 A  
HETATM   10  C   UNL     1     -10.953   6.328  68.625  1.00  0.00    -0.423 A  
HETATM   11  C   UNL     1     -11.032   6.630  67.263  1.00  0.00    -0.456 A  
ENDROOT
BRANCH   8  12
HETATM   12  C   UNL     1      -9.419  10.024  67.112  1.00  0.00    -0.155 C  
HETATM   13  O   UNL     1      -8.289  10.406  67.407  1.00  0.00    -0.120 OA 
BRANCH  12  14
HETATM   14  C   UNL     1     -10.268  10.849  66.202  1.00  0.00    -0.304 A  
HETATM   15  C   UNL     1     -11.252  11.723  66.684  1.00  0.00    -0.383 A  
HETATM   16  C   UNL     1     -12.006  12.496  65.798  1.00  0.00    -0.482 A  
HETATM   17  C   UNL     1     -11.807  12.376  64.425  1.00  0.00    -0.461 A  
HETATM   18  C   UNL     1     -10.862  11.475  63.933  1.00  0.00    -0.469 A  
HETATM   19  C   UNL     1     -10.095  10.713  64.818  1.00  0.00    -0.412 A  
ENDBRANCH  12  14
ENDBRANCH   8  12
TORSDOF 2
ENDMDL
MODEL       79
REMARK 921   NORMALIZED FREE ENERGY PREDICTED BY IDOCK:   -5.21 KCAL/MOL
REMARK 922        TOTAL FREE ENERGY PREDICTED BY IDOCK:   -6.37 KCAL/MOL
REMARK 923 INTER-LIGAND FREE ENERGY PREDICTED BY IDOCK:   -5.75 KCAL/MOL
REMARK 924 INTRA-LIGAND FREE ENERGY PREDICTED BY IDOCK:   -0.62 KCAL/MOL
REMARK 927      BINDING AFFINITY PREDICTED BY RF-SCORE:    0.00 PKD
ROOT
HETATM    1  C   UNL     1     -10.823  12.266  69.137  1.00  0.00    -0.149 C  
HETATM    2  C   UNL     1     -11.645  11.517  70.188  1.00  0.00    -0.336 A  
HETATM    3  C   UNL     1     -11.212  13.729  68.908  1.00  0.00    -0.309 C  
HETATM    4  C   UNL     1     -10.830  11.589  67.768  1.00  0.00    -0.221 C  
HETATM    5  O   UNL     1     -12.029  11.093  67.380  1.00  0.00    -0.532 OA 
HETATM    6  O   UNL     1      -9.849  11.539  67.038  1.00  0.00    -0.189 OA 
HETATM    7  C   UNL     1     -11.418  10.140  70.381  1.00  0.00    -0.400 A  
HETATM    8  C   UNL     1     -12.226   9.389  71.249  1.00  0.00    -0.425 A  
HETATM    9  C   UNL     1     -13.190  10.033  72.025  1.00  0.00    -0.545 A  
HETATM   10  C   UNL     1     -12.628  12.139  70.973  1.00  0.00    -0.359 A  
HETATM   11  C   UNL     1     -13.383  11.407  71.893  1.00  0.00    -0.409 A  
ENDROOT
BRANCH   8  12
HETATM   12  C   UNL     1     -12.102   7.911  71.359  1.00  0.00    -0.307 C  
HETATM   13  O   UNL     1     -13.100   7.222  71.166  1.00  0.00    -0.341 OA 
BRANCH  12  14
HETATM   14  C   UNL     1     -10.795   7.257  71.663  1.00  0.00    -0.246 A  
HETATM   15  C   UNL     1     -10.194   6.342  70.787  1.00  0.00    -0.238 A  
HETATM   16  C   UNL     1      -8.957   5.773  71.097  1.00  0.00    -0.146 A  
HETATM   17  C   UNL     1      -8.329   6.084  72.300  1.00  0.00    -0.113 A  
HETATM   18  C   UNL     1      -8.940   6.958  73.200  1.00  0.00    -0.151 A  
HETATM   19  C   UNL     1     -10.169   7.542  72.883  1.00  0.00    -0.331 A  
ENDBRANCH  12  14
ENDBRANCH   8  12
TORSDOF 2
ENDMDL
MODEL       80
REMARK 921   NORMALIZED FREE ENERGY PREDICTED BY IDOCK:   -5.16 KCAL/MOL
REMARK 922        TOTAL FREE ENERGY PREDICTED BY IDOCK:   -6.31 KCAL/MOL
REMARK 923 INTER-LIGAND FREE ENERGY PREDICTED BY IDOCK:   -5.80 KCAL/MOL
REMARK 924 INTRA-LIGAND FREE ENERGY PREDICTED BY IDOCK:   -0.50 KCAL/MOL
REMARK 927      BINDING AFFINITY PREDICTED BY RF-SCORE:    0.00 PKD
ROOT
HETATM    1  C   UNL     1     -10.062  18.168  67.014  1.00  0.00    -0.357 C  
HETATM    2  C   UNL     1     -10.258  16.759  66.452  1.00  0.00    -0.329 A  
HETATM    3  C   UNL     1     -10.442  19.317  66.075  1.00  0.00    -0.573 C  
HETATM    4  C   UNL     1      -8.635  18.439  67.487  1.00  0.00    -0.257 C  
HETATM    5  O   UNL     1      -7.662  17.952  66.679  1.00  0.00    -0.216 OA 
HETATM    6  O   UNL     1      -8.371  19.093  68.486  1.00  0.00    -0.340 OA 
HETATM    7  C   UNL     1      -9.833  15.653  67.213  1.00  0.00    -0.225 A  
HETATM    8  C   UNL     1      -9.886  14.352  66.690  1.00  0.00    -0.287 A  
HETATM    9  C   UNL     1     -10.478  14.131  65.446  1.00  0.00    -0.372 A  
HETATM   10  C   UNL     1     -10.839  16.512  65.198  1.00  0.00    -0.247 A  
HETATM   11  C   UNL     1     -10.961  15.209  64.707  1.00  0.00    -0.394 A  
ENDROOT
BRANCH   8  12
HETATM   12  C   UNL     1      -9.311  13.187  67.415  1.00  0.00    -0.213 C  
HETATM   13  O   UNL     1      -8.118  12.932  67.265  1.00  0.00    -0.176 OA 
BRANCH  12  14
HETATM   14  C   UNL     1     -10.137  12.354  68.338  1.00  0.00    -0.217 A  
HETATM   15  C   UNL     1      -9.913  10.982  68.511  1.00  0.00    -0.198 A  
HETATM   16  C   UNL     1     -10.692  10.245  69.406  1.00  0.00    -0.272 A  
HETATM   17  C   UNL     1     -11.724  10.865  70.105  1.00  0.00    -0.433 A  
HETATM   18  C   UNL     1     -11.986  12.221  69.906  1.00  0.00    -0.377 A  
HETATM   19  C   UNL     1     -11.196  12.964  69.025  1.00  0.00    -0.320 A  
ENDBRANCH  12  14
ENDBRANCH   8  12
TORSDOF 2
ENDMDL
MODEL       81
REMARK 921   NORMALIZED FREE ENERGY PREDICTED BY IDOCK:   -5.15 KCAL/MOL
REMARK 922        TOTAL FREE ENERGY PREDICTED BY IDOCK:   -6.30 KCAL/MOL
REMARK 923 INTER-LIGAND FREE ENERGY PREDICTED BY IDOCK:   -5.67 KCAL/MOL
REMARK 924 INTRA-LIGAND FREE ENERGY PREDICTED BY IDOCK:   -0.63 KCAL/MOL
REMARK 927      BINDING AFFINITY PREDICTED BY RF-SCORE:    0.00 PKD
ROOT
HETATM    1  C   UNL     1     -11.926  13.220  67.004  1.00  0.00    -0.419 C  
HETATM    2  C   UNL     1     -11.236  11.962  66.474  1.00  0.00    -0.383 A  
HETATM    3  C   UNL     1     -11.770  14.477  66.144  1.00  0.00    -0.355 C  
HETATM    4  C   UNL     1     -11.494  13.598  68.420  1.00  0.00    -0.311 C  
HETATM    5  O   UNL     1     -10.168  13.466  68.667  1.00  0.00    -0.235 OA 
HETATM    6  O   UNL     1     -12.263  14.042  69.262  1.00  0.00    -0.344 OA 
HETATM    7  C   UNL     1     -11.245  10.793  67.261  1.00  0.00    -0.272 A  
HETATM    8  C   UNL     1     -10.526   9.653  66.869  1.00  0.00    -0.282 A  
HETATM    9  C   UNL     1      -9.892   9.630  65.627  1.00  0.00    -0.369 A  
HETATM   10  C   UNL     1     -10.581  11.917  65.234  1.00  0.00    -0.320 A  
HETATM   11  C   UNL     1      -9.928  10.756  64.808  1.00  0.00    -0.382 A  
ENDROOT
BRANCH   8  12
HETATM   12  C   UNL     1     -10.401   8.460  67.749  1.00  0.00    -0.235 C  
HETATM   13  O   UNL     1     -10.550   7.346  67.252  1.00  0.00    -0.278 OA 
BRANCH  12  14
HETATM   14  C   UNL     1     -10.065   8.588  69.198  1.00  0.00    -0.207 A  
HETATM   15  C   UNL     1     -11.002   8.333  70.209  1.00  0.00    -0.233 A  
HETATM   16  C   UNL     1     -10.639   8.438  71.553  1.00  0.00    -0.307 A  
HETATM   17  C   UNL     1      -9.349   8.836  71.897  1.00  0.00    -0.343 A  
HETATM   18  C   UNL     1      -8.423   9.138  70.898  1.00  0.00    -0.251 A  
HETATM   19  C   UNL     1      -8.779   9.015  69.553  1.00  0.00    -0.144 A  
ENDBRANCH  12  14
ENDBRANCH   8  12
TORSDOF 2
ENDMDL
MODEL       82
REMARK 921   NORMALIZED FREE ENERGY PREDICTED BY IDOCK:   -5.11 KCAL/MOL
REMARK 922        TOTAL FREE ENERGY PREDICTED BY IDOCK:   -6.25 KCAL/MOL
REMARK 923 INTER-LIGAND FREE ENERGY PREDICTED BY IDOCK:   -5.74 KCAL/MOL
REMARK 924 INTRA-LIGAND FREE ENERGY PREDICTED BY IDOCK:   -0.52 KCAL/MOL
REMARK 927      BINDING AFFINITY PREDICTED BY RF-SCORE:    0.00 PKD
ROOT
HETATM    1  C   UNL     1     -10.576   7.674  71.443  1.00  0.00    -0.236 C  
HETATM    2  C   UNL     1     -11.380   8.932  71.108  1.00  0.00    -0.357 A  
HETATM    3  C   UNL     1     -10.812   7.086  72.836  1.00  0.00    -0.334 C  
HETATM    4  C   UNL     1      -9.067   7.862  71.293  1.00  0.00    -0.139 C  
HETATM    5  O   UNL     1      -8.589   9.044  71.751  1.00  0.00    -0.353 OA 
HETATM    6  O   UNL     1      -8.323   6.998  70.849  1.00  0.00    -0.126 OA 
HETATM    7  C   UNL     1     -11.141   9.593  69.887  1.00  0.00    -0.268 A  
HETATM    8  C   UNL     1     -11.768  10.812  69.590  1.00  0.00    -0.395 A  
HETATM    9  C   UNL     1     -12.735  11.321  70.458  1.00  0.00    -0.257 A  
HETATM   10  C   UNL     1     -12.348   9.470  71.969  1.00  0.00    -0.404 A  
HETATM   11  C   UNL     1     -13.030  10.646  71.640  1.00  0.00    -0.582 A  
ENDROOT
BRANCH   8  12
HETATM   12  C   UNL     1     -11.424  11.600  68.376  1.00  0.00    -0.297 C  
HETATM   13  O   UNL     1     -11.675  11.120  67.273  1.00  0.00    -0.540 OA 
BRANCH  12  14
HETATM   14  C   UNL     1     -10.818  12.962  68.473  1.00  0.00    -0.283 A  
HETATM   15  C   UNL     1     -11.598  14.124  68.552  1.00  0.00    -0.351 A  
HETATM   16  C   UNL     1     -10.991  15.376  68.669  1.00  0.00    -0.273 A  
HETATM   17  C   UNL     1      -9.602  15.480  68.671  1.00  0.00    -0.203 A  
HETATM   18  C   UNL     1      -8.817  14.333  68.547  1.00  0.00    -0.176 A  
HETATM   19  C   UNL     1      -9.422  13.078  68.447  1.00  0.00    -0.165 A  
ENDBRANCH  12  14
ENDBRANCH   8  12
TORSDOF 2
ENDMDL
MODEL       83
REMARK 921   NORMALIZED FREE ENERGY PREDICTED BY IDOCK:   -5.10 KCAL/MOL
REMARK 922        TOTAL FREE ENERGY PREDICTED BY IDOCK:   -6.25 KCAL/MOL
REMARK 923 INTER-LIGAND FREE ENERGY PREDICTED BY IDOCK:   -5.73 KCAL/MOL
REMARK 924 INTRA-LIGAND FREE ENERGY PREDICTED BY IDOCK:   -0.52 KCAL/MOL
REMARK 927      BINDING AFFINITY PREDICTED BY RF-SCORE:    0.00 PKD
ROOT
HETATM    1  C   UNL     1     -10.660  12.696  64.745  1.00  0.00    -0.341 C  
HETATM    2  C   UNL     1     -10.486  14.164  65.138  1.00  0.00    -0.422 A  
HETATM    3  C   UNL     1     -11.676  12.421  63.632  1.00  0.00    -0.596 C  
HETATM    4  C   UNL     1     -11.039  11.794  65.919  1.00  0.00    -0.302 C  
HETATM    5  O   UNL     1     -11.949  12.320  66.774  1.00  0.00    -0.586 OA 
HETATM    6  O   UNL     1     -10.606  10.659  66.061  1.00  0.00    -0.210 OA 
HETATM    7  C   UNL     1      -9.649  14.487  66.224  1.00  0.00    -0.328 A  
HETATM    8  C   UNL     1      -9.551  15.806  66.694  1.00  0.00    -0.266 A  
HETATM    9  C   UNL     1     -10.194  16.834  66.004  1.00  0.00    -0.361 A  
HETATM   10  C   UNL     1     -11.132  15.214  64.468  1.00  0.00    -0.252 A  
HETATM   11  C   UNL     1     -10.975  16.539  64.888  1.00  0.00    -0.223 A  
ENDROOT
BRANCH   8  12
HETATM   12  C   UNL     1      -8.790  16.149  67.925  1.00  0.00    -0.182 C  
HETATM   13  O   UNL     1      -8.763  15.335  68.845  1.00  0.00    -0.180 OA 
BRANCH  12  14
HETATM   14  C   UNL     1      -8.040  17.434  68.048  1.00  0.00    -0.227 A  
HETATM   15  C   UNL     1      -6.775  17.620  67.472  1.00  0.00    -0.178 A  
HETATM   16  C   UNL     1      -6.119  18.847  67.588  1.00  0.00    -0.200 A  
HETATM   17  C   UNL     1      -6.703  19.884  68.311  1.00  0.00    -0.323 A  
HETATM   18  C   UNL     1      -7.941  19.695  68.926  1.00  0.00    -0.285 A  
HETATM   19  C   UNL     1      -8.607  18.473  68.797  1.00  0.00    -0.266 A  
ENDBRANCH  12  14
ENDBRANCH   8  12
TORSDOF 2
ENDMDL
MODEL       84
REMARK 921   NORMALIZED FREE ENERGY PREDICTED BY IDOCK:   -5.09 KCAL/MOL
REMARK 922        TOTAL FREE ENERGY PREDICTED BY IDOCK:   -6.23 KCAL/MOL
REMARK 923 INTER-LIGAND FREE ENERGY PREDICTED BY IDOCK:   -5.88 KCAL/MOL
REMARK 924 INTRA-LIGAND FREE ENERGY PREDICTED BY IDOCK:   -0.35 KCAL/MOL
REMARK 927      BINDING AFFINITY PREDICTED BY RF-SCORE:    0.00 PKD
ROOT
HETATM    1  C   UNL     1     -12.005  11.161  69.213  1.00  0.00    -0.421 C  
HETATM    2  C   UNL     1     -11.886  12.182  68.081  1.00  0.00    -0.362 A  
HETATM    3  C   UNL     1     -12.192  11.744  70.617  1.00  0.00    -0.443 C  
HETATM    4  C   UNL     1     -10.819  10.200  69.290  1.00  0.00    -0.235 C  
HETATM    5  O   UNL     1      -9.606  10.771  69.093  1.00  0.00    -0.204 OA 
HETATM    6  O   UNL     1     -10.933   9.013  69.563  1.00  0.00    -0.207 OA 
HETATM    7  C   UNL     1     -11.606  11.729  66.776  1.00  0.00    -0.287 A  
HETATM    8  C   UNL     1     -11.373  12.635  65.731  1.00  0.00    -0.370 A  
HETATM    9  C   UNL     1     -11.538  14.003  65.952  1.00  0.00    -0.350 A  
HETATM   10  C   UNL     1     -12.035  13.564  68.280  1.00  0.00    -0.377 A  
HETATM   11  C   UNL     1     -11.878  14.464  67.223  1.00  0.00    -0.434 A  
ENDROOT
BRANCH   8  12
HETATM   12  C   UNL     1     -10.935  12.186  64.382  1.00  0.00    -0.326 C  
HETATM   13  O   UNL     1     -11.457  12.698  63.394  1.00  0.00    -0.487 OA 
BRANCH  12  14
HETATM   14  C   UNL     1      -9.860  11.164  64.209  1.00  0.00    -0.335 A  
HETATM   15  C   UNL     1      -8.940  10.867  65.223  1.00  0.00    -0.202 A  
HETATM   16  C   UNL     1      -7.967   9.884  65.029  1.00  0.00    -0.137 A  
HETATM   17  C   UNL     1      -7.883   9.218  63.809  1.00  0.00    -0.133 A  
HETATM   18  C   UNL     1      -8.765   9.539  62.777  1.00  0.00    -0.232 A  
HETATM   19  C   UNL     1      -9.751  10.509  62.975  1.00  0.00    -0.337 A  
ENDBRANCH  12  14
ENDBRANCH   8  12
TORSDOF 2
ENDMDL
MODEL       85
REMARK 921   NORMALIZED FREE ENERGY PREDICTED BY IDOCK:   -5.02 KCAL/MOL
REMARK 922        TOTAL FREE ENERGY PREDICTED BY IDOCK:   -6.15 KCAL/MOL
REMARK 923 INTER-LIGAND FREE ENERGY PREDICTED BY IDOCK:   -5.55 KCAL/MOL
REMARK 924 INTRA-LIGAND FREE ENERGY PREDICTED BY IDOCK:   -0.60 KCAL/MOL
REMARK 927      BINDING AFFINITY PREDICTED BY RF-SCORE:    0.00 PKD
ROOT
HETATM    1  C   UNL     1      -9.301   8.980  66.894  1.00  0.00    -0.203 C  
HETATM    2  C   UNL     1     -10.225   9.985  67.584  1.00  0.00    -0.249 A  
HETATM    3  C   UNL     1      -9.058   9.217  65.401  1.00  0.00    -0.277 C  
HETATM    4  C   UNL     1      -9.764   7.532  67.041  1.00  0.00    -0.198 C  
HETATM    5  O   UNL     1     -11.098   7.341  66.908  1.00  0.00    -0.287 OA 
HETATM    6  O   UNL     1      -8.995   6.594  67.209  1.00  0.00    -0.115 OA 
HETATM    7  C   UNL     1     -10.582   9.775  68.931  1.00  0.00    -0.240 A  
HETATM    8  C   UNL     1     -11.517  10.604  69.569  1.00  0.00    -0.360 A  
HETATM    9  C   UNL     1     -12.013  11.725  68.904  1.00  0.00    -0.332 A  
HETATM   10  C   UNL     1     -10.747  11.114  66.933  1.00  0.00    -0.322 A  
HETATM   11  C   UNL     1     -11.621  11.984  67.592  1.00  0.00    -0.392 A  
ENDROOT
BRANCH   8  12
HETATM   12  C   UNL     1     -12.018  10.317  70.940  1.00  0.00    -0.375 C  
HETATM   13  O   UNL     1     -12.610  11.206  71.547  1.00  0.00    -0.363 OA 
BRANCH  12  14
HETATM   14  C   UNL     1     -11.849   8.974  71.570  1.00  0.00    -0.415 A  
HETATM   15  C   UNL     1     -12.752   7.925  71.351  1.00  0.00    -0.312 A  
HETATM   16  C   UNL     1     -12.541   6.675  71.938  1.00  0.00    -0.303 A  
HETATM   17  C   UNL     1     -11.448   6.476  72.777  1.00  0.00    -0.167 A  
HETATM   18  C   UNL     1     -10.568   7.526  73.039  1.00  0.00    -0.422 A  
HETATM   19  C   UNL     1     -10.768   8.772  72.438  1.00  0.00    -0.220 A  
ENDBRANCH  12  14
ENDBRANCH   8  12
TORSDOF 2
ENDMDL
MODEL       86
REMARK 921   NORMALIZED FREE ENERGY PREDICTED BY IDOCK:   -5.00 KCAL/MOL
REMARK 922        TOTAL FREE ENERGY PREDICTED BY IDOCK:   -6.13 KCAL/MOL
REMARK 923 INTER-LIGAND FREE ENERGY PREDICTED BY IDOCK:   -5.68 KCAL/MOL
REMARK 924 INTRA-LIGAND FREE ENERGY PREDICTED BY IDOCK:   -0.45 KCAL/MOL
REMARK 927      BINDING AFFINITY PREDICTED BY RF-SCORE:    0.00 PKD
ROOT
HETATM    1  C   UNL     1      -6.848  20.145  68.740  1.00  0.00    -0.285 C  
HETATM    2  C   UNL     1      -7.402  18.978  67.922  1.00  0.00    -0.271 A  
HETATM    3  C   UNL     1      -5.768  20.986  68.052  1.00  0.00    -0.389 C  
HETATM    4  C   UNL     1      -6.279  19.720  70.093  1.00  0.00    -0.307 C  
HETATM    5  O   UNL     1      -5.556  18.575  70.076  1.00  0.00    -0.221 OA 
HETATM    6  O   UNL     1      -6.409  20.382  71.114  1.00  0.00    -0.566 OA 
HETATM    7  C   UNL     1      -8.321  18.095  68.523  1.00  0.00    -0.314 A  
HETATM    8  C   UNL     1      -8.766  16.946  67.851  1.00  0.00    -0.213 A  
HETATM    9  C   UNL     1      -8.391  16.734  66.524  1.00  0.00    -0.320 A  
HETATM   10  C   UNL     1      -7.032  18.736  66.590  1.00  0.00    -0.224 A  
HETATM   11  C   UNL     1      -7.534  17.633  65.893  1.00  0.00    -0.185 A  
ENDROOT
BRANCH   8  12
HETATM   12  C   UNL     1      -9.619  15.925  68.516  1.00  0.00    -0.205 C  
HETATM   13  O   UNL     1      -9.788  16.002  69.731  1.00  0.00    -0.246 OA 
BRANCH  12  14
HETATM   14  C   UNL     1     -10.295  14.844  67.739  1.00  0.00    -0.244 A  
HETATM   15  C   UNL     1     -11.612  14.966  67.277  1.00  0.00    -0.337 A  
HETATM   16  C   UNL     1     -12.197  13.942  66.530  1.00  0.00    -0.482 A  
HETATM   17  C   UNL     1     -11.485  12.773  66.272  1.00  0.00    -0.405 A  
HETATM   18  C   UNL     1     -10.189  12.623  66.767  1.00  0.00    -0.246 A  
HETATM   19  C   UNL     1      -9.596  13.654  67.499  1.00  0.00    -0.220 A  
ENDBRANCH  12  14
ENDBRANCH   8  12
TORSDOF 2
ENDMDL
MODEL       87
REMARK 921   NORMALIZED FREE ENERGY PREDICTED BY IDOCK:   -5.00 KCAL/MOL
REMARK 922        TOTAL FREE ENERGY PREDICTED BY IDOCK:   -6.13 KCAL/MOL
REMARK 923 INTER-LIGAND FREE ENERGY PREDICTED BY IDOCK:   -5.60 KCAL/MOL
REMARK 924 INTRA-LIGAND FREE ENERGY PREDICTED BY IDOCK:   -0.53 KCAL/MOL
REMARK 927      BINDING AFFINITY PREDICTED BY RF-SCORE:    0.00 PKD
ROOT
HETATM    1  C   UNL     1      -9.009   9.623  67.799  1.00  0.00    -0.122 C  
HETATM    2  C   UNL     1     -10.075  10.308  68.656  1.00  0.00    -0.187 A  
HETATM    3  C   UNL     1      -8.423   8.330  68.372  1.00  0.00    -0.129 C  
HETATM    4  C   UNL     1      -7.826  10.531  67.464  1.00  0.00    -0.106 C  
HETATM    5  O   UNL     1      -7.396  11.310  68.485  1.00  0.00    -0.092 OA 
HETATM    6  O   UNL     1      -7.262  10.526  66.378  1.00  0.00    -0.114 OA 
HETATM    7  C   UNL     1     -10.585  11.556  68.248  1.00  0.00    -0.228 A  
HETATM    8  C   UNL     1     -11.475  12.274  69.060  1.00  0.00    -0.349 A  
HETATM    9  C   UNL     1     -11.961  11.694  70.232  1.00  0.00    -0.445 A  
HETATM   10  C   UNL     1     -10.570   9.751  69.845  1.00  0.00    -0.301 A  
HETATM   11  C   UNL     1     -11.515  10.432  70.619  1.00  0.00    -0.438 A  
ENDROOT
BRANCH   8  12
HETATM   12  C   UNL     1     -11.914  13.654  68.721  1.00  0.00    -0.359 C  
HETATM   13  O   UNL     1     -12.470  14.324  69.588  1.00  0.00    -0.308 OA 
BRANCH  12  14
HETATM   14  C   UNL     1     -11.661  14.246  67.374  1.00  0.00    -0.422 A  
HETATM   15  C   UNL     1     -10.753  15.295  67.175  1.00  0.00    -0.316 A  
HETATM   16  C   UNL     1     -10.526  15.801  65.894  1.00  0.00    -0.366 A  
HETATM   17  C   UNL     1     -11.232  15.290  64.807  1.00  0.00    -0.405 A  
HETATM   18  C   UNL     1     -12.172  14.278  65.001  1.00  0.00    -0.438 A  
HETATM   19  C   UNL     1     -12.387  13.758  66.280  1.00  0.00    -0.479 A  
ENDBRANCH  12  14
ENDBRANCH   8  12
TORSDOF 2
ENDMDL
MODEL       88
REMARK 921   NORMALIZED FREE ENERGY PREDICTED BY IDOCK:   -4.99 KCAL/MOL
REMARK 922        TOTAL FREE ENERGY PREDICTED BY IDOCK:   -6.12 KCAL/MOL
REMARK 923 INTER-LIGAND FREE ENERGY PREDICTED BY IDOCK:   -5.59 KCAL/MOL
REMARK 924 INTRA-LIGAND FREE ENERGY PREDICTED BY IDOCK:   -0.54 KCAL/MOL
REMARK 927      BINDING AFFINITY PREDICTED BY RF-SCORE:    0.00 PKD
ROOT
HETATM    1  C   UNL     1     -10.417  10.971  64.082  1.00  0.00    -0.434 C  
HETATM    2  C   UNL     1      -9.834  10.770  65.481  1.00  0.00    -0.309 A  
HETATM    3  C   UNL     1      -9.415  11.369  62.994  1.00  0.00    -0.380 C  
HETATM    4  C   UNL     1     -11.546  12.000  64.038  1.00  0.00    -0.411 C  
HETATM    5  O   UNL     1     -11.341  13.108  64.790  1.00  0.00    -0.306 OA 
HETATM    6  O   UNL     1     -12.542  11.875  63.338  1.00  0.00    -0.590 OA 
HETATM    7  C   UNL     1     -10.707  10.506  66.556  1.00  0.00    -0.191 A  
HETATM    8  C   UNL     1     -10.229  10.431  67.873  1.00  0.00    -0.211 A  
HETATM    9  C   UNL     1      -8.857  10.496  68.114  1.00  0.00    -0.134 A  
HETATM   10  C   UNL     1      -8.459  10.843  65.752  1.00  0.00    -0.155 A  
HETATM   11  C   UNL     1      -7.974  10.692  67.055  1.00  0.00    -0.121 A  
ENDROOT
BRANCH   8  12
HETATM   12  C   UNL     1     -11.146  10.299  69.037  1.00  0.00    -0.230 C  
HETATM   13  O   UNL     1     -12.067  11.105  69.153  1.00  0.00    -0.348 OA 
BRANCH  12  14
HETATM   14  C   UNL     1     -10.991   9.199  70.034  1.00  0.00    -0.240 A  
HETATM   15  C   UNL     1     -10.912   9.443  71.411  1.00  0.00    -0.443 A  
HETATM   16  C   UNL     1     -10.795   8.382  72.312  1.00  0.00    -0.422 A  
HETATM   17  C   UNL     1     -10.719   7.073  71.841  1.00  0.00    -0.244 A  
HETATM   18  C   UNL     1     -10.751   6.823  70.469  1.00  0.00    -0.277 A  
HETATM   19  C   UNL     1     -10.886   7.882  69.568  1.00  0.00    -0.141 A  
ENDBRANCH  12  14
ENDBRANCH   8  12
TORSDOF 2
ENDMDL
MODEL       89
REMARK 921   NORMALIZED FREE ENERGY PREDICTED BY IDOCK:   -4.95 KCAL/MOL
REMARK 922        TOTAL FREE ENERGY PREDICTED BY IDOCK:   -6.07 KCAL/MOL
REMARK 923 INTER-LIGAND FREE ENERGY PREDICTED BY IDOCK:   -5.63 KCAL/MOL
REMARK 924 INTRA-LIGAND FREE ENERGY PREDICTED BY IDOCK:   -0.44 KCAL/MOL
REMARK 927      BINDING AFFINITY PREDICTED BY RF-SCORE:    0.00 PKD
ROOT
HETATM    1  C   UNL     1     -11.960  12.328  64.789  1.00  0.00    -0.429 C  
HETATM    2  C   UNL     1     -10.924  11.306  65.258  1.00  0.00    -0.207 A  
HETATM    3  C   UNL     1     -11.833  12.783  63.332  1.00  0.00    -0.591 C  
HETATM    4  C   UNL     1     -11.993  13.594  65.644  1.00  0.00    -0.395 C  
HETATM    5  O   UNL     1     -10.778  14.066  66.014  1.00  0.00    -0.287 OA 
HETATM    6  O   UNL     1     -13.025  14.183  65.934  1.00  0.00    -0.427 OA 
HETATM    7  C   UNL     1     -10.909  10.918  66.613  1.00  0.00    -0.258 A  
HETATM    8  C   UNL     1      -9.906  10.074  67.112  1.00  0.00    -0.231 A  
HETATM    9  C   UNL     1      -8.978   9.511  66.236  1.00  0.00    -0.188 A  
HETATM   10  C   UNL     1      -9.973  10.734  64.399  1.00  0.00    -0.400 A  
HETATM   11  C   UNL     1      -9.018   9.833  64.881  1.00  0.00    -0.257 A  
ENDROOT
BRANCH   8  12
HETATM   12  C   UNL     1      -9.783   9.768  68.563  1.00  0.00    -0.154 C  
HETATM   13  O   UNL     1      -9.287  10.615  69.302  1.00  0.00    -0.187 OA 
BRANCH  12  14
HETATM   14  C   UNL     1     -10.278   8.481  69.135  1.00  0.00    -0.218 A  
HETATM   15  C   UNL     1     -10.744   7.433  68.329  1.00  0.00    -0.151 A  
HETATM   16  C   UNL     1     -11.173   6.235  68.904  1.00  0.00    -0.387 A  
HETATM   17  C   UNL     1     -11.175   6.089  70.290  1.00  0.00    -0.392 A  
HETATM   18  C   UNL     1     -10.757   7.142  71.103  1.00  0.00    -0.252 A  
HETATM   19  C   UNL     1     -10.311   8.335  70.528  1.00  0.00    -0.217 A  
ENDBRANCH  12  14
ENDBRANCH   8  12
TORSDOF 2
ENDMDL
MODEL       90
REMARK 921   NORMALIZED FREE ENERGY PREDICTED BY IDOCK:   -4.94 KCAL/MOL
REMARK 922        TOTAL FREE ENERGY PREDICTED BY IDOCK:   -6.06 KCAL/MOL
REMARK 923 INTER-LIGAND FREE ENERGY PREDICTED BY IDOCK:   -5.54 KCAL/MOL
REMARK 924 INTRA-LIGAND FREE ENERGY PREDICTED BY IDOCK:   -0.52 KCAL/MOL
REMARK 927      BINDING AFFINITY PREDICTED BY RF-SCORE:    0.00 PKD
ROOT
HETATM    1  C   UNL     1      -8.697   8.883  65.198  1.00  0.00    -0.213 C  
HETATM    2  C   UNL     1      -9.710   9.666  66.035  1.00  0.00    -0.331 A  
HETATM    3  C   UNL     1      -8.010   7.713  65.907  1.00  0.00    -0.116 C  
HETATM    4  C   UNL     1      -7.588   9.758  64.615  1.00  0.00    -0.134 C  
HETATM    5  O   UNL     1      -7.101  10.701  65.457  1.00  0.00    -0.128 OA 
HETATM    6  O   UNL     1      -7.123   9.596  63.495  1.00  0.00    -0.101 OA 
HETATM    7  C   UNL     1     -10.306  10.820  65.487  1.00  0.00    -0.308 A  
HETATM    8  C   UNL     1     -11.150  11.633  66.259  1.00  0.00    -0.345 A  
HETATM    9  C   UNL     1     -11.504  11.234  67.548  1.00  0.00    -0.324 A  
HETATM   10  C   UNL     1     -10.074   9.292  67.338  1.00  0.00    -0.280 A  
HETATM   11  C   UNL     1     -10.974  10.061  68.082  1.00  0.00    -0.289 A  
ENDROOT
BRANCH   8  12
HETATM   12  C   UNL     1     -11.673  12.930  65.752  1.00  0.00    -0.390 C  
HETATM   13  O   UNL     1     -12.609  12.914  64.956  1.00  0.00    -0.513 OA 
BRANCH  12  14
HETATM   14  C   UNL     1     -11.113  14.234  66.214  1.00  0.00    -0.323 A  
HETATM   15  C   UNL     1     -10.092  14.898  65.521  1.00  0.00    -0.400 A  
HETATM   16  C   UNL     1      -9.615  16.130  65.974  1.00  0.00    -0.381 A  
HETATM   17  C   UNL     1     -10.128  16.690  67.142  1.00  0.00    -0.276 A  
HETATM   18  C   UNL     1     -11.113  16.015  67.864  1.00  0.00    -0.307 A  
HETATM   19  C   UNL     1     -11.603  14.790  67.403  1.00  0.00    -0.377 A  
ENDBRANCH  12  14
ENDBRANCH   8  12
TORSDOF 2
ENDMDL
MODEL       91
REMARK 921   NORMALIZED FREE ENERGY PREDICTED BY IDOCK:   -4.94 KCAL/MOL
REMARK 922        TOTAL FREE ENERGY PREDICTED BY IDOCK:   -6.06 KCAL/MOL
REMARK 923 INTER-LIGAND FREE ENERGY PREDICTED BY IDOCK:   -5.44 KCAL/MOL
REMARK 924 INTRA-LIGAND FREE ENERGY PREDICTED BY IDOCK:   -0.62 KCAL/MOL
REMARK 927      BINDING AFFINITY PREDICTED BY RF-SCORE:    0.00 PKD
ROOT
HETATM    1  C   UNL     1      -7.922  15.560  68.539  1.00  0.00    -0.137 C  
HETATM    2  C   UNL     1      -9.399  15.161  68.534  1.00  0.00    -0.192 A  
HETATM    3  C   UNL     1      -7.580  16.834  69.317  1.00  0.00    -0.103 C  
HETATM    4  C   UNL     1      -7.335  15.729  67.139  1.00  0.00    -0.222 C  
HETATM    5  O   UNL     1      -8.144  16.355  66.250  1.00  0.00    -0.312 OA 
HETATM    6  O   UNL     1      -6.201  15.382  66.839  1.00  0.00    -0.162 OA 
HETATM    7  C   UNL     1      -9.809  14.062  67.753  1.00  0.00    -0.232 A  
HETATM    8  C   UNL     1     -11.167  13.732  67.626  1.00  0.00    -0.316 A  
HETATM    9  C   UNL     1     -12.118  14.424  68.376  1.00  0.00    -0.278 A  
HETATM   10  C   UNL     1     -10.377  15.848  69.270  1.00  0.00    -0.249 A  
HETATM   11  C   UNL     1     -11.722  15.473  69.203  1.00  0.00    -0.380 A  
ENDROOT
BRANCH   8  12
HETATM   12  C   UNL     1     -11.636  12.671  66.696  1.00  0.00    -0.381 C  
HETATM   13  O   UNL     1     -12.519  12.947  65.887  1.00  0.00    -0.527 OA 
BRANCH  12  14
HETATM   14  C   UNL     1     -11.035  11.304  66.702  1.00  0.00    -0.326 A  
HETATM   15  C   UNL     1     -10.373  10.772  65.587  1.00  0.00    -0.297 A  
HETATM   16  C   UNL     1      -9.802   9.499  65.645  1.00  0.00    -0.343 A  
HETATM   17  C   UNL     1      -9.920   8.734  66.803  1.00  0.00    -0.338 A  
HETATM   18  C   UNL     1     -10.617   9.236  67.902  1.00  0.00    -0.288 A  
HETATM   19  C   UNL     1     -11.174  10.516  67.852  1.00  0.00    -0.358 A  
ENDBRANCH  12  14
ENDBRANCH   8  12
TORSDOF 2
ENDMDL
MODEL       92
REMARK 921   NORMALIZED FREE ENERGY PREDICTED BY IDOCK:   -4.93 KCAL/MOL
REMARK 922        TOTAL FREE ENERGY PREDICTED BY IDOCK:   -6.05 KCAL/MOL
REMARK 923 INTER-LIGAND FREE ENERGY PREDICTED BY IDOCK:   -5.54 KCAL/MOL
REMARK 924 INTRA-LIGAND FREE ENERGY PREDICTED BY IDOCK:   -0.52 KCAL/MOL
REMARK 927      BINDING AFFINITY PREDICTED BY RF-SCORE:    0.00 PKD
ROOT
HETATM    1  C   UNL     1      -9.212   9.732  68.232  1.00  0.00    -0.130 C  
HETATM    2  C   UNL     1     -10.292  10.242  69.189  1.00  0.00    -0.241 A  
HETATM    3  C   UNL     1      -8.891  10.645  67.046  1.00  0.00    -0.141 C  
HETATM    4  C   UNL     1      -9.516   8.351  67.656  1.00  0.00    -0.149 C  
HETATM    5  O   UNL     1     -10.807   8.152  67.297  1.00  0.00    -0.248 OA 
HETATM    6  O   UNL     1      -8.660   7.496  67.472  1.00  0.00    -0.122 OA 
HETATM    7  C   UNL     1     -10.718   9.412  70.245  1.00  0.00    -0.299 A  
HETATM    8  C   UNL     1     -11.785   9.789  71.074  1.00  0.00    -0.453 A  
HETATM    9  C   UNL     1     -12.356  11.054  70.933  1.00  0.00    -0.503 A  
HETATM   10  C   UNL     1     -10.890  11.505  69.061  1.00  0.00    -0.258 A  
HETATM   11  C   UNL     1     -11.903  11.912  69.934  1.00  0.00    -0.418 A  
ENDROOT
BRANCH   8  12
HETATM   12  C   UNL     1     -12.348   8.870  72.100  1.00  0.00    -0.378 C  
HETATM   13  O   UNL     1     -13.451   9.128  72.578  1.00  0.00    -0.464 OA 
BRANCH  12  14
HETATM   14  C   UNL     1     -11.623   7.638  72.529  1.00  0.00    -0.382 A  
HETATM   15  C   UNL     1     -12.109   6.351  72.260  1.00  0.00    -0.252 A  
HETATM   16  C   UNL     1     -11.384   5.224  72.655  1.00  0.00    -0.296 A  
HETATM   17  C   UNL     1     -10.189   5.374  73.355  1.00  0.00    -0.219 A  
HETATM   18  C   UNL     1      -9.720   6.650  73.668  1.00  0.00    -0.226 A  
HETATM   19  C   UNL     1     -10.434   7.779  73.258  1.00  0.00    -0.358 A  
ENDBRANCH  12  14
ENDBRANCH   8  12
TORSDOF 2
ENDMDL
MODEL       93
REMARK 921   NORMALIZED FREE ENERGY PREDICTED BY IDOCK:   -4.92 KCAL/MOL
REMARK 922        TOTAL FREE ENERGY PREDICTED BY IDOCK:   -6.04 KCAL/MOL
REMARK 923 INTER-LIGAND FREE ENERGY PREDICTED BY IDOCK:   -5.56 KCAL/MOL
REMARK 924 INTRA-LIGAND FREE ENERGY PREDICTED BY IDOCK:   -0.48 KCAL/MOL
REMARK 927      BINDING AFFINITY PREDICTED BY RF-SCORE:    0.00 PKD
ROOT
HETATM    1  C   UNL     1     -10.894  12.015  66.503  1.00  0.00    -0.314 C  
HETATM    2  C   UNL     1     -10.300  11.156  67.620  1.00  0.00    -0.223 A  
HETATM    3  C   UNL     1      -9.912  12.467  65.418  1.00  0.00    -0.253 C  
HETATM    4  C   UNL     1     -11.596  13.272  67.013  1.00  0.00    -0.359 C  
HETATM    5  O   UNL     1     -10.957  13.917  68.018  1.00  0.00    -0.242 OA 
HETATM    6  O   UNL     1     -12.629  13.710  66.524  1.00  0.00    -0.335 OA 
HETATM    7  C   UNL     1     -11.115  10.789  68.709  1.00  0.00    -0.312 A  
HETATM    8  C   UNL     1     -10.584  10.102  69.811  1.00  0.00    -0.298 A  
HETATM    9  C   UNL     1      -9.258   9.668  69.781  1.00  0.00    -0.237 A  
HETATM   10  C   UNL     1      -8.967  10.717  67.619  1.00  0.00    -0.139 A  
HETATM   11  C   UNL     1      -8.455   9.967  68.682  1.00  0.00    -0.118 A  
ENDROOT
BRANCH   8  12
HETATM   12  C   UNL     1     -11.387   9.832  71.034  1.00  0.00    -0.387 C  
HETATM   13  O   UNL     1     -12.155  10.703  71.436  1.00  0.00    -0.328 OA 
BRANCH  12  14
HETATM   14  C   UNL     1     -11.305   8.526  71.751  1.00  0.00    -0.377 A  
HETATM   15  C   UNL     1     -10.431   8.316  72.827  1.00  0.00    -0.329 A  
HETATM   16  C   UNL     1     -10.406   7.086  73.488  1.00  0.00    -0.394 A  
HETATM   17  C   UNL     1     -11.225   6.046  73.056  1.00  0.00    -0.232 A  
HETATM   18  C   UNL     1     -12.065   6.230  71.958  1.00  0.00    -0.321 A  
HETATM   19  C   UNL     1     -12.105   7.465  71.306  1.00  0.00    -0.359 A  
ENDBRANCH  12  14
ENDBRANCH   8  12
TORSDOF 2
ENDMDL
MODEL       94
REMARK 921   NORMALIZED FREE ENERGY PREDICTED BY IDOCK:   -4.91 KCAL/MOL
REMARK 922        TOTAL FREE ENERGY PREDICTED BY IDOCK:   -6.03 KCAL/MOL
REMARK 923 INTER-LIGAND FREE ENERGY PREDICTED BY IDOCK:   -5.61 KCAL/MOL
REMARK 924 INTRA-LIGAND FREE ENERGY PREDICTED BY IDOCK:   -0.42 KCAL/MOL
REMARK 927      BINDING AFFINITY PREDICTED BY RF-SCORE:    0.00 PKD
ROOT
HETATM    1  C   UNL     1     -10.015   8.331  70.470  1.00  0.00    -0.198 C  
HETATM    2  C   UNL     1     -10.190   9.136  69.181  1.00  0.00    -0.215 A  
HETATM    3  C   UNL     1      -9.642   6.857  70.289  1.00  0.00    -0.170 C  
HETATM    4  C   UNL     1     -11.244   8.366  71.378  1.00  0.00    -0.261 C  
HETATM    5  O   UNL     1     -12.432   8.260  70.736  1.00  0.00    -0.074 OA 
HETATM    6  O   UNL     1     -11.176   8.427  72.598  1.00  0.00    -0.369 OA 
HETATM    7  C   UNL     1     -10.636  10.470  69.261  1.00  0.00    -0.265 A  
HETATM    8  C   UNL     1     -10.922  11.208  68.102  1.00  0.00    -0.292 A  
HETATM    9  C   UNL     1     -10.648  10.659  66.850  1.00  0.00    -0.311 A  
HETATM   10  C   UNL     1      -9.933   8.603  67.908  1.00  0.00    -0.232 A  
HETATM   11  C   UNL     1     -10.146   9.362  66.754  1.00  0.00    -0.325 A  
ENDROOT
BRANCH   8  12
HETATM   12  C   UNL     1     -11.531  12.564  68.162  1.00  0.00    -0.319 C  
HETATM   13  O   UNL     1     -12.157  12.883  69.170  1.00  0.00    -0.266 OA 
BRANCH  12  14
HETATM   14  C   UNL     1     -11.367  13.544  67.048  1.00  0.00    -0.348 A  
HETATM   15  C   UNL     1     -10.350  14.508  67.042  1.00  0.00    -0.263 A  
HETATM   16  C   UNL     1     -10.215  15.388  65.967  1.00  0.00    -0.343 A  
HETATM   17  C   UNL     1     -11.119  15.338  64.908  1.00  0.00    -0.435 A  
HETATM   18  C   UNL     1     -12.163  14.413  64.925  1.00  0.00    -0.440 A  
HETATM   19  C   UNL     1     -12.288  13.519  65.992  1.00  0.00    -0.486 A  
ENDBRANCH  12  14
ENDBRANCH   8  12
TORSDOF 2
ENDMDL
MODEL       95
REMARK 921   NORMALIZED FREE ENERGY PREDICTED BY IDOCK:   -4.86 KCAL/MOL
REMARK 922        TOTAL FREE ENERGY PREDICTED BY IDOCK:   -5.97 KCAL/MOL
REMARK 923 INTER-LIGAND FREE ENERGY PREDICTED BY IDOCK:   -5.53 KCAL/MOL
REMARK 924 INTRA-LIGAND FREE ENERGY PREDICTED BY IDOCK:   -0.45 KCAL/MOL
REMARK 927      BINDING AFFINITY PREDICTED BY RF-SCORE:    0.00 PKD
ROOT
HETATM    1  C   UNL     1      -8.531  18.656  67.035  1.00  0.00    -0.275 C  
HETATM    2  C   UNL     1      -8.647  17.198  67.481  1.00  0.00    -0.209 A  
HETATM    3  C   UNL     1      -7.643  19.549  67.907  1.00  0.00    -0.324 C  
HETATM    4  C   UNL     1      -9.880  19.362  66.913  1.00  0.00    -0.352 C  
HETATM    5  O   UNL     1     -10.763  19.083  67.902  1.00  0.00    -0.381 OA 
HETATM    6  O   UNL     1     -10.141  20.165  66.028  1.00  0.00    -0.460 OA 
HETATM    7  C   UNL     1      -9.527  16.339  66.793  1.00  0.00    -0.253 A  
HETATM    8  C   UNL     1      -9.753  15.028  67.238  1.00  0.00    -0.220 A  
HETATM    9  C   UNL     1      -9.008  14.522  68.303  1.00  0.00    -0.184 A  
HETATM   10  C   UNL     1      -7.917  16.668  68.557  1.00  0.00    -0.224 A  
HETATM   11  C   UNL     1      -8.086  15.339  68.954  1.00  0.00    -0.180 A  
ENDROOT
BRANCH   8  12
HETATM   12  C   UNL     1     -10.784  14.152  66.618  1.00  0.00    -0.289 C  
HETATM   13  O   UNL     1     -11.599  14.658  65.849  1.00  0.00    -0.354 OA 
BRANCH  12  14
HETATM   14  C   UNL     1     -10.824  12.684  66.881  1.00  0.00    -0.282 A  
HETATM   15  C   UNL     1     -10.196  11.755  66.040  1.00  0.00    -0.265 A  
HETATM   16  C   UNL     1     -10.235  10.391  66.338  1.00  0.00    -0.292 A  
HETATM   17  C   UNL     1     -10.932   9.942  67.458  1.00  0.00    -0.239 A  
HETATM   18  C   UNL     1     -11.598  10.854  68.276  1.00  0.00    -0.335 A  
HETATM   19  C   UNL     1     -11.546  12.221  67.989  1.00  0.00    -0.408 A  
ENDBRANCH  12  14
ENDBRANCH   8  12
TORSDOF 2
ENDMDL
MODEL       96
REMARK 921   NORMALIZED FREE ENERGY PREDICTED BY IDOCK:   -4.86 KCAL/MOL
REMARK 922        TOTAL FREE ENERGY PREDICTED BY IDOCK:   -5.97 KCAL/MOL
REMARK 923 INTER-LIGAND FREE ENERGY PREDICTED BY IDOCK:   -5.39 KCAL/MOL
REMARK 924 INTRA-LIGAND FREE ENERGY PREDICTED BY IDOCK:   -0.58 KCAL/MOL
REMARK 927      BINDING AFFINITY PREDICTED BY RF-SCORE:    0.00 PKD
ROOT
HETATM    1  C   UNL     1      -9.249  15.221  67.753  1.00  0.00    -0.187 C  
HETATM    2  C   UNL     1     -10.327  14.419  67.022  1.00  0.00    -0.263 A  
HETATM    3  C   UNL     1      -9.759  16.320  68.690  1.00  0.00    -0.235 C  
HETATM    4  C   UNL     1      -8.240  15.877  66.813  1.00  0.00    -0.272 C  
HETATM    5  O   UNL     1      -8.772  16.427  65.695  1.00  0.00    -0.372 OA 
HETATM    6  O   UNL     1      -7.044  15.959  67.062  1.00  0.00    -0.211 OA 
HETATM    7  C   UNL     1      -9.936  13.462  66.064  1.00  0.00    -0.300 A  
HETATM    8  C   UNL     1     -10.890  12.787  65.286  1.00  0.00    -0.319 A  
HETATM    9  C   UNL     1     -12.248  12.973  65.545  1.00  0.00    -0.521 A  
HETATM   10  C   UNL     1     -11.699  14.595  67.255  1.00  0.00    -0.406 A  
HETATM   11  C   UNL     1     -12.651  13.868  66.533  1.00  0.00    -0.245 A  
ENDROOT
BRANCH   8  12
HETATM   12  C   UNL     1     -10.500  11.883  64.172  1.00  0.00    -0.349 C  
HETATM   13  O   UNL     1     -10.754  12.227  63.019  1.00  0.00    -0.266 OA 
BRANCH  12  14
HETATM   14  C   UNL     1      -9.783  10.597  64.421  1.00  0.00    -0.368 A  
HETATM   15  C   UNL     1      -9.996   9.833  65.577  1.00  0.00    -0.329 A  
HETATM   16  C   UNL     1      -9.324   8.622  65.758  1.00  0.00    -0.227 A  
HETATM   17  C   UNL     1      -8.407   8.185  64.806  1.00  0.00    -0.113 A  
HETATM   18  C   UNL     1      -8.153   8.960  63.674  1.00  0.00    -0.167 A  
HETATM   19  C   UNL     1      -8.838  10.163  63.482  1.00  0.00    -0.242 A  
ENDBRANCH  12  14
ENDBRANCH   8  12
TORSDOF 2
ENDMDL
MODEL       97
REMARK 921   NORMALIZED FREE ENERGY PREDICTED BY IDOCK:   -4.85 KCAL/MOL
REMARK 922        TOTAL FREE ENERGY PREDICTED BY IDOCK:   -5.97 KCAL/MOL
REMARK 923 INTER-LIGAND FREE ENERGY PREDICTED BY IDOCK:   -5.56 KCAL/MOL
REMARK 924 INTRA-LIGAND FREE ENERGY PREDICTED BY IDOCK:   -0.41 KCAL/MOL
REMARK 927      BINDING AFFINITY PREDICTED BY RF-SCORE:    0.00 PKD
ROOT
HETATM    1  C   UNL     1     -10.993  13.758  64.632  1.00  0.00    -0.406 C  
HETATM    2  C   UNL     1     -10.267  12.782  65.559  1.00  0.00    -0.293 A  
HETATM    3  C   UNL     1     -11.410  15.090  65.262  1.00  0.00    -0.349 C  
HETATM    4  C   UNL     1     -12.246  13.165  63.989  1.00  0.00    -0.414 C  
HETATM    5  O   UNL     1     -13.009  12.408  64.814  1.00  0.00    -0.786 OA 
HETATM    6  O   UNL     1     -12.581  13.392  62.834  1.00  0.00    -0.576 OA 
HETATM    7  C   UNL     1      -9.946  11.496  65.084  1.00  0.00    -0.304 A  
HETATM    8  C   UNL     1      -9.386  10.530  65.933  1.00  0.00    -0.220 A  
HETATM    9  C   UNL     1      -9.029  10.880  67.236  1.00  0.00    -0.139 A  
HETATM   10  C   UNL     1      -9.908  13.106  66.877  1.00  0.00    -0.249 A  
HETATM   11  C   UNL     1      -9.281  12.168  67.702  1.00  0.00    -0.181 A  
ENDROOT
BRANCH   8  12
HETATM   12  C   UNL     1      -9.173   9.124  65.496  1.00  0.00    -0.224 C  
HETATM   13  O   UNL     1      -8.837   8.915  64.333  1.00  0.00    -0.136 OA 
BRANCH  12  14
HETATM   14  C   UNL     1      -9.325   7.979  66.442  1.00  0.00    -0.259 A  
HETATM   15  C   UNL     1      -8.356   6.973  66.560  1.00  0.00    -0.121 A  
HETATM   16  C   UNL     1      -8.524   5.933  67.478  1.00  0.00    -0.103 A  
HETATM   17  C   UNL     1      -9.677   5.871  68.257  1.00  0.00    -0.147 A  
HETATM   18  C   UNL     1     -10.668   6.843  68.114  1.00  0.00    -0.260 A  
HETATM   19  C   UNL     1     -10.494   7.893  67.209  1.00  0.00    -0.390 A  
ENDBRANCH  12  14
ENDBRANCH   8  12
TORSDOF 2
ENDMDL
MODEL       98
REMARK 921   NORMALIZED FREE ENERGY PREDICTED BY IDOCK:   -4.85 KCAL/MOL
REMARK 922        TOTAL FREE ENERGY PREDICTED BY IDOCK:   -5.96 KCAL/MOL
REMARK 923 INTER-LIGAND FREE ENERGY PREDICTED BY IDOCK:   -5.39 KCAL/MOL
REMARK 924 INTRA-LIGAND FREE ENERGY PREDICTED BY IDOCK:   -0.57 KCAL/MOL
REMARK 927      BINDING AFFINITY PREDICTED BY RF-SCORE:    0.00 PKD
ROOT
HETATM    1  C   UNL     1      -8.658  18.850  66.344  1.00  0.00    -0.301 C  
HETATM    2  C   UNL     1      -8.154  17.543  66.959  1.00  0.00    -0.240 A  
HETATM    3  C   UNL     1      -7.849  20.103  66.689  1.00  0.00    -0.337 C  
HETATM    4  C   UNL     1     -10.115  19.158  66.686  1.00  0.00    -0.395 C  
HETATM    5  O   UNL     1     -10.469  18.897  67.968  1.00  0.00    -0.385 OA 
HETATM    6  O   UNL     1     -10.901  19.656  65.891  1.00  0.00    -0.446 OA 
HETATM    7  C   UNL     1      -8.904  16.365  66.775  1.00  0.00    -0.255 A  
HETATM    8  C   UNL     1      -8.543  15.170  67.416  1.00  0.00    -0.201 A  
HETATM    9  C   UNL     1      -7.358  15.112  68.151  1.00  0.00    -0.117 A  
HETATM   10  C   UNL     1      -6.972  17.461  67.712  1.00  0.00    -0.173 A  
HETATM   11  C   UNL     1      -6.571  16.253  68.290  1.00  0.00    -0.130 A  
ENDROOT
BRANCH   8  12
HETATM   12  C   UNL     1      -9.397  13.954  67.356  1.00  0.00    -0.228 C  
HETATM   13  O   UNL     1      -9.249  13.179  66.414  1.00  0.00    -0.218 OA 
BRANCH  12  14
HETATM   14  C   UNL     1     -10.394  13.644  68.423  1.00  0.00    -0.248 A  
HETATM   15  C   UNL     1     -10.793  12.332  68.717  1.00  0.00    -0.266 A  
HETATM   16  C   UNL     1     -11.707  12.084  69.742  1.00  0.00    -0.390 A  
HETATM   17  C   UNL     1     -12.259  13.146  70.456  1.00  0.00    -0.405 A  
HETATM   18  C   UNL     1     -11.904  14.457  70.141  1.00  0.00    -0.380 A  
HETATM   19  C   UNL     1     -10.975  14.706  69.127  1.00  0.00    -0.277 A  
ENDBRANCH  12  14
ENDBRANCH   8  12
TORSDOF 2
ENDMDL
MODEL       99
REMARK 921   NORMALIZED FREE ENERGY PREDICTED BY IDOCK:   -4.83 KCAL/MOL
REMARK 922        TOTAL FREE ENERGY PREDICTED BY IDOCK:   -5.94 KCAL/MOL
REMARK 923 INTER-LIGAND FREE ENERGY PREDICTED BY IDOCK:   -5.47 KCAL/MOL
REMARK 924 INTRA-LIGAND FREE ENERGY PREDICTED BY IDOCK:   -0.46 KCAL/MOL
REMARK 927      BINDING AFFINITY PREDICTED BY RF-SCORE:    0.00 PKD
ROOT
HETATM    1  C   UNL     1     -10.273   7.446  69.746  1.00  0.00    -0.210 C  
HETATM    2  C   UNL     1     -10.716   8.843  69.310  1.00  0.00    -0.177 A  
HETATM    3  C   UNL     1     -10.367   7.156  71.247  1.00  0.00    -0.209 C  
HETATM    4  C   UNL     1      -8.847   7.102  69.320  1.00  0.00    -0.136 C  
HETATM    5  O   UNL     1      -7.950   8.109  69.456  1.00  0.00    -0.109 OA 
HETATM    6  O   UNL     1      -8.509   5.991  68.936  1.00  0.00    -0.115 OA 
HETATM    7  C   UNL     1     -10.560   9.222  67.962  1.00  0.00    -0.262 A  
HETATM    8  C   UNL     1     -10.844  10.530  67.541  1.00  0.00    -0.357 A  
HETATM    9  C   UNL     1     -11.403  11.439  68.440  1.00  0.00    -0.346 A  
HETATM   10  C   UNL     1     -11.270   9.780  70.197  1.00  0.00    -0.324 A  
HETATM   11  C   UNL     1     -11.623  11.060  69.762  1.00  0.00    -0.401 A  
ENDROOT
BRANCH   8  12
HETATM   12  C   UNL     1     -10.550  10.994  66.158  1.00  0.00    -0.228 C  
HETATM   13  O   UNL     1     -10.053  10.198  65.365  1.00  0.00    -0.303 OA 
BRANCH  12  14
HETATM   14  C   UNL     1     -10.877  12.381  65.712  1.00  0.00    -0.312 A  
HETATM   15  C   UNL     1      -9.952  13.431  65.794  1.00  0.00    -0.264 A  
HETATM   16  C   UNL     1     -10.289  14.708  65.340  1.00  0.00    -0.406 A  
HETATM   17  C   UNL     1     -11.565  14.954  64.837  1.00  0.00    -0.395 A  
HETATM   18  C   UNL     1     -12.508  13.926  64.794  1.00  0.00    -0.386 A  
HETATM   19  C   UNL     1     -12.166  12.644  65.231  1.00  0.00    -0.532 A  
ENDBRANCH  12  14
ENDBRANCH   8  12
TORSDOF 2
ENDMDL
MODEL      100
REMARK 921   NORMALIZED FREE ENERGY PREDICTED BY IDOCK:   -4.81 KCAL/MOL
REMARK 922        TOTAL FREE ENERGY PREDICTED BY IDOCK:   -5.91 KCAL/MOL
REMARK 923 INTER-LIGAND FREE ENERGY PREDICTED BY IDOCK:   -5.30 KCAL/MOL
REMARK 924 INTRA-LIGAND FREE ENERGY PREDICTED BY IDOCK:   -0.61 KCAL/MOL
REMARK 927      BINDING AFFINITY PREDICTED BY RF-SCORE:    0.00 PKD
ROOT
HETATM    1  C   UNL     1     -11.088  14.473  64.743  1.00  0.00    -0.400 C  
HETATM    2  C   UNL     1     -10.740  14.203  66.207  1.00  0.00    -0.293 A  
HETATM    3  C   UNL     1     -11.188  15.948  64.344  1.00  0.00    -0.242 C  
HETATM    4  C   UNL     1     -12.388  13.807  64.295  1.00  0.00    -0.337 C  
HETATM    5  O   UNL     1     -13.400  13.865  65.194  1.00  0.00    -0.698 OA 
HETATM    6  O   UNL     1     -12.540  13.304  63.190  1.00  0.00    -0.666 OA 
HETATM    7  C   UNL     1     -10.734  12.874  66.675  1.00  0.00    -0.280 A  
HETATM    8  C   UNL     1     -10.536  12.587  68.035  1.00  0.00    -0.227 A  
HETATM    9  C   UNL     1     -10.221  13.619  68.919  1.00  0.00    -0.088 A  
HETATM   10  C   UNL     1     -10.432  15.224  67.119  1.00  0.00    -0.280 A  
HETATM   11  C   UNL     1     -10.161  14.933  68.460  1.00  0.00    -0.232 A  
ENDROOT
BRANCH   8  12
HETATM   12  C   UNL     1     -10.668  11.208  68.576  1.00  0.00    -0.201 C  
HETATM   13  O   UNL     1     -11.424  11.021  69.527  1.00  0.00    -0.245 OA 
BRANCH  12  14
HETATM   14  C   UNL     1      -9.936  10.056  67.972  1.00  0.00    -0.176 A  
HETATM   15  C   UNL     1     -10.589   8.885  67.565  1.00  0.00    -0.307 A  
HETATM   16  C   UNL     1      -9.869   7.841  66.978  1.00  0.00    -0.286 A  
HETATM   17  C   UNL     1      -8.488   7.945  66.828  1.00  0.00    -0.129 A  
HETATM   18  C   UNL     1      -7.822   9.088  67.272  1.00  0.00    -0.099 A  
HETATM   19  C   UNL     1      -8.543  10.140  67.843  1.00  0.00    -0.118 A  
ENDBRANCH  12  14
ENDBRANCH   8  12
TORSDOF 2
ENDMDL
MODEL      101
REMARK 921   NORMALIZED FREE ENERGY PREDICTED BY IDOCK:   -4.80 KCAL/MOL
REMARK 922        TOTAL FREE ENERGY PREDICTED BY IDOCK:   -5.91 KCAL/MOL
REMARK 923 INTER-LIGAND FREE ENERGY PREDICTED BY IDOCK:   -5.46 KCAL/MOL
REMARK 924 INTRA-LIGAND FREE ENERGY PREDICTED BY IDOCK:   -0.45 KCAL/MOL
REMARK 927      BINDING AFFINITY PREDICTED BY RF-SCORE:    0.00 PKD
ROOT
HETATM    1  C   UNL     1     -10.280  12.062  65.588  1.00  0.00    -0.284 C  
HETATM    2  C   UNL     1     -10.412  13.585  65.649  1.00  0.00    -0.296 A  
HETATM    3  C   UNL     1     -10.903  11.389  64.362  1.00  0.00    -0.397 C  
HETATM    4  C   UNL     1     -10.849  11.355  66.816  1.00  0.00    -0.286 C  
HETATM    5  O   UNL     1     -12.020  11.858  67.275  1.00  0.00    -0.605 OA 
HETATM    6  O   UNL     1     -10.330  10.371  67.326  1.00  0.00    -0.202 OA 
HETATM    7  C   UNL     1      -9.958  14.267  66.795  1.00  0.00    -0.266 A  
HETATM    8  C   UNL     1     -10.164  15.646  66.945  1.00  0.00    -0.281 A  
HETATM    9  C   UNL     1     -10.718  16.379  65.895  1.00  0.00    -0.219 A  
HETATM   10  C   UNL     1     -10.977  14.343  64.612  1.00  0.00    -0.367 A  
HETATM   11  C   UNL     1     -11.115  15.730  64.728  1.00  0.00    -0.413 A  
ENDROOT
BRANCH   8  12
HETATM   12  C   UNL     1      -9.825  16.362  68.204  1.00  0.00    -0.238 C  
HETATM   13  O   UNL     1     -10.713  16.984  68.783  1.00  0.00    -0.337 OA 
BRANCH  12  14
HETATM   14  C   UNL     1      -8.452  16.309  68.789  1.00  0.00    -0.240 A  
HETATM   15  C   UNL     1      -7.963  15.174  69.450  1.00  0.00    -0.205 A  
HETATM   16  C   UNL     1      -6.663  15.157  69.958  1.00  0.00    -0.129 A  
HETATM   17  C   UNL     1      -5.855  16.286  69.843  1.00  0.00    -0.187 A  
HETATM   18  C   UNL     1      -6.348  17.437  69.228  1.00  0.00    -0.244 A  
HETATM   19  C   UNL     1      -7.643  17.449  68.703  1.00  0.00    -0.265 A  
ENDBRANCH  12  14
ENDBRANCH   8  12
TORSDOF 2
ENDMDL
MODEL      102
REMARK 921   NORMALIZED FREE ENERGY PREDICTED BY IDOCK:   -4.80 KCAL/MOL
REMARK 922        TOTAL FREE ENERGY PREDICTED BY IDOCK:   -5.91 KCAL/MOL
REMARK 923 INTER-LIGAND FREE ENERGY PREDICTED BY IDOCK:   -5.29 KCAL/MOL
REMARK 924 INTRA-LIGAND FREE ENERGY PREDICTED BY IDOCK:   -0.61 KCAL/MOL
REMARK 927      BINDING AFFINITY PREDICTED BY RF-SCORE:    0.00 PKD
ROOT
HETATM    1  C   UNL     1      -9.444  16.650  68.117  1.00  0.00    -0.228 C  
HETATM    2  C   UNL     1     -10.377  15.675  68.838  1.00  0.00    -0.218 A  
HETATM    3  C   UNL     1      -9.631  18.130  68.465  1.00  0.00    -0.349 C  
HETATM    4  C   UNL     1      -9.515  16.543  66.595  1.00  0.00    -0.258 C  
HETATM    5  O   UNL     1     -10.762  16.389  66.089  1.00  0.00    -0.273 OA 
HETATM    6  O   UNL     1      -8.536  16.644  65.867  1.00  0.00    -0.451 OA 
HETATM    7  C   UNL     1     -10.339  14.310  68.494  1.00  0.00    -0.244 A  
HETATM    8  C   UNL     1     -11.254  13.400  69.043  1.00  0.00    -0.323 A  
HETATM    9  C   UNL     1     -12.139  13.825  70.035  1.00  0.00    -0.416 A  
HETATM   10  C   UNL     1     -11.283  16.080  69.830  1.00  0.00    -0.344 A  
HETATM   11  C   UNL     1     -12.146  15.160  70.433  1.00  0.00    -0.373 A  
ENDROOT
BRANCH   8  12
HETATM   12  C   UNL     1     -11.329  11.985  68.588  1.00  0.00    -0.277 C  
HETATM   13  O   UNL     1     -12.374  11.364  68.771  1.00  0.00    -0.480 OA 
BRANCH  12  14
HETATM   14  C   UNL     1     -10.185  11.326  67.892  1.00  0.00    -0.201 A  
HETATM   15  C   UNL     1     -10.133  11.197  66.497  1.00  0.00    -0.265 A  
HETATM   16  C   UNL     1      -9.030  10.597  65.884  1.00  0.00    -0.192 A  
HETATM   17  C   UNL     1      -7.991  10.089  66.660  1.00  0.00    -0.115 A  
HETATM   18  C   UNL     1      -8.056  10.172  68.051  1.00  0.00    -0.112 A  
HETATM   19  C   UNL     1      -9.149  10.788  68.666  1.00  0.00    -0.173 A  
ENDBRANCH  12  14
ENDBRANCH   8  12
TORSDOF 2
ENDMDL
MODEL      103
REMARK 921   NORMALIZED FREE ENERGY PREDICTED BY IDOCK:   -4.77 KCAL/MOL
REMARK 922        TOTAL FREE ENERGY PREDICTED BY IDOCK:   -5.87 KCAL/MOL
REMARK 923 INTER-LIGAND FREE ENERGY PREDICTED BY IDOCK:   -5.43 KCAL/MOL
REMARK 924 INTRA-LIGAND FREE ENERGY PREDICTED BY IDOCK:   -0.44 KCAL/MOL
REMARK 927      BINDING AFFINITY PREDICTED BY RF-SCORE:    0.00 PKD
ROOT
HETATM    1  C   UNL     1     -11.292  12.384  65.953  1.00  0.00    -0.399 C  
HETATM    2  C   UNL     1     -10.183  13.304  66.467  1.00  0.00    -0.283 A  
HETATM    3  C   UNL     1     -11.120  10.895  66.269  1.00  0.00    -0.038 C  
HETATM    4  C   UNL     1     -11.519  12.491  64.446  1.00  0.00    -0.349 C  
HETATM    5  O   UNL     1     -10.390  12.578  63.702  1.00  0.00    -0.422 OA 
HETATM    6  O   UNL     1     -12.627  12.446  63.929  1.00  0.00    -0.614 OA 
HETATM    7  C   UNL     1     -10.214  14.671  66.126  1.00  0.00    -0.313 A  
HETATM    8  C   UNL     1      -9.160  15.527  66.475  1.00  0.00    -0.336 A  
HETATM    9  C   UNL     1      -8.120  15.052  67.275  1.00  0.00    -0.237 A  
HETATM   10  C   UNL     1      -9.121  12.848  67.262  1.00  0.00    -0.208 A  
HETATM   11  C   UNL     1      -8.107  13.717  67.675  1.00  0.00    -0.181 A  
ENDROOT
BRANCH   8  12
HETATM   12  C   UNL     1      -9.100  16.937  66.003  1.00  0.00    -0.164 C  
HETATM   13  O   UNL     1      -9.993  17.347  65.265  1.00  0.00    -0.310 OA 
BRANCH  12  14
HETATM   14  C   UNL     1      -8.009  17.860  66.434  1.00  0.00    -0.302 A  
HETATM   15  C   UNL     1      -6.741  17.850  65.836  1.00  0.00    -0.312 A  
HETATM   16  C   UNL     1      -5.756  18.750  66.251  1.00  0.00    -0.183 A  
HETATM   17  C   UNL     1      -6.019  19.640  67.290  1.00  0.00    -0.191 A  
HETATM   18  C   UNL     1      -7.263  19.627  67.922  1.00  0.00    -0.308 A  
HETATM   19  C   UNL     1      -8.254  18.740  67.496  1.00  0.00    -0.278 A  
ENDBRANCH  12  14
ENDBRANCH   8  12
TORSDOF 2
ENDMDL
MODEL      104
REMARK 921   NORMALIZED FREE ENERGY PREDICTED BY IDOCK:   -4.76 KCAL/MOL
REMARK 922        TOTAL FREE ENERGY PREDICTED BY IDOCK:   -5.86 KCAL/MOL
REMARK 923 INTER-LIGAND FREE ENERGY PREDICTED BY IDOCK:   -5.41 KCAL/MOL
REMARK 924 INTRA-LIGAND FREE ENERGY PREDICTED BY IDOCK:   -0.45 KCAL/MOL
REMARK 927      BINDING AFFINITY PREDICTED BY RF-SCORE:    0.00 PKD
ROOT
HETATM    1  C   UNL     1      -8.591  18.908  66.380  1.00  0.00    -0.301 C  
HETATM    2  C   UNL     1      -8.243  17.893  67.470  1.00  0.00    -0.228 A  
HETATM    3  C   UNL     1      -7.540  19.991  66.119  1.00  0.00    -0.327 C  
HETATM    4  C   UNL     1      -9.916  19.630  66.624  1.00  0.00    -0.423 C  
HETATM    5  O   UNL     1     -10.138  19.998  67.909  1.00  0.00    -0.401 OA 
HETATM    6  O   UNL     1     -10.702  19.913  65.730  1.00  0.00    -0.479 OA 
HETATM    7  C   UNL     1      -9.203  16.931  67.842  1.00  0.00    -0.234 A  
HETATM    8  C   UNL     1      -8.972  16.057  68.914  1.00  0.00    -0.239 A  
HETATM    9  C   UNL     1      -7.729  16.054  69.548  1.00  0.00    -0.080 A  
HETATM   10  C   UNL     1      -7.005  17.878  68.131  1.00  0.00    -0.218 A  
HETATM   11  C   UNL     1      -6.745  16.958  69.150  1.00  0.00    -0.232 A  
ENDROOT
BRANCH   8  12
HETATM   12  C   UNL     1     -10.023  15.132  69.418  1.00  0.00    -0.228 C  
HETATM   13  O   UNL     1     -10.539  15.368  70.508  1.00  0.00    -0.304 OA 
BRANCH  12  14
HETATM   14  C   UNL     1     -10.482  13.959  68.617  1.00  0.00    -0.249 A  
HETATM   15  C   UNL     1     -11.554  13.151  69.020  1.00  0.00    -0.360 A  
HETATM   16  C   UNL     1     -11.969  12.079  68.227  1.00  0.00    -0.244 A  
HETATM   17  C   UNL     1     -11.292  11.783  67.046  1.00  0.00    -0.387 A  
HETATM   18  C   UNL     1     -10.195  12.553  66.659  1.00  0.00    -0.243 A  
HETATM   19  C   UNL     1      -9.790  13.637  67.442  1.00  0.00    -0.234 A  
ENDBRANCH  12  14
ENDBRANCH   8  12
TORSDOF 2
ENDMDL
MODEL      105
REMARK 921   NORMALIZED FREE ENERGY PREDICTED BY IDOCK:   -4.73 KCAL/MOL
REMARK 922        TOTAL FREE ENERGY PREDICTED BY IDOCK:   -5.83 KCAL/MOL
REMARK 923 INTER-LIGAND FREE ENERGY PREDICTED BY IDOCK:   -5.28 KCAL/MOL
REMARK 924 INTRA-LIGAND FREE ENERGY PREDICTED BY IDOCK:   -0.54 KCAL/MOL
REMARK 927      BINDING AFFINITY PREDICTED BY RF-SCORE:    0.00 PKD
ROOT
HETATM    1  C   UNL     1      -8.264  17.342  66.748  1.00  0.00    -0.279 C  
HETATM    2  C   UNL     1      -8.300  15.930  67.335  1.00  0.00    -0.192 A  
HETATM    3  C   UNL     1      -7.360  18.341  67.475  1.00  0.00    -0.212 C  
HETATM    4  C   UNL     1      -9.643  17.990  66.644  1.00  0.00    -0.315 C  
HETATM    5  O   UNL     1     -10.456  17.780  67.708  1.00  0.00    -0.368 OA 
HETATM    6  O   UNL     1      -9.985  18.696  65.705  1.00  0.00    -0.504 OA 
HETATM    7  C   UNL     1      -9.188  14.983  66.786  1.00  0.00    -0.280 A  
HETATM    8  C   UNL     1      -9.339  13.714  67.365  1.00  0.00    -0.227 A  
HETATM    9  C   UNL     1      -8.514  13.336  68.425  1.00  0.00    -0.128 A  
HETATM   10  C   UNL     1      -7.490  15.529  68.408  1.00  0.00    -0.115 A  
HETATM   11  C   UNL     1      -7.585  14.239  68.938  1.00  0.00    -0.113 A  
ENDROOT
BRANCH   8  12
HETATM   12  C   UNL     1     -10.371  12.751  66.895  1.00  0.00    -0.238 C  
HETATM   13  O   UNL     1     -11.412  12.644  67.541  1.00  0.00    -0.297 OA 
BRANCH  12  14
HETATM   14  C   UNL     1     -10.183  11.949  65.650  1.00  0.00    -0.280 A  
HETATM   15  C   UNL     1      -9.537  10.705  65.652  1.00  0.00    -0.268 A  
HETATM   16  C   UNL     1      -9.407   9.974  64.469  1.00  0.00    -0.345 A  
HETATM   17  C   UNL     1      -9.888  10.497  63.270  1.00  0.00    -0.309 A  
HETATM   18  C   UNL     1     -10.492  11.754  63.251  1.00  0.00    -0.439 A  
HETATM   19  C   UNL     1     -10.639  12.479  64.436  1.00  0.00    -0.376 A  
ENDBRANCH  12  14
ENDBRANCH   8  12
TORSDOF 2
ENDMDL
MODEL      106
REMARK 921   NORMALIZED FREE ENERGY PREDICTED BY IDOCK:   -4.71 KCAL/MOL
REMARK 922        TOTAL FREE ENERGY PREDICTED BY IDOCK:   -5.80 KCAL/MOL
REMARK 923 INTER-LIGAND FREE ENERGY PREDICTED BY IDOCK:   -5.21 KCAL/MOL
REMARK 924 INTRA-LIGAND FREE ENERGY PREDICTED BY IDOCK:   -0.60 KCAL/MOL
REMARK 927      BINDING AFFINITY PREDICTED BY RF-SCORE:    0.00 PKD
ROOT
HETATM    1  C   UNL     1     -12.966   9.217  72.277  1.00  0.00    -0.488 C  
HETATM    2  C   UNL     1     -11.760   8.366  71.877  1.00  0.00    -0.398 A  
HETATM    3  C   UNL     1     -14.336   8.563  72.083  1.00  0.00    -0.529 C  
HETATM    4  C   UNL     1     -13.018  10.567  71.562  1.00  0.00    -0.460 C  
HETATM    5  O   UNL     1     -12.691  10.532  70.248  1.00  0.00    -0.310 OA 
HETATM    6  O   UNL     1     -13.380  11.602  72.106  1.00  0.00    -0.491 OA 
HETATM    7  C   UNL     1     -10.472   8.936  71.926  1.00  0.00    -0.415 A  
HETATM    8  C   UNL     1      -9.352   8.232  71.459  1.00  0.00    -0.236 A  
HETATM    9  C   UNL     1      -9.491   6.904  71.052  1.00  0.00    -0.163 A  
HETATM   10  C   UNL     1     -11.874   7.033  71.453  1.00  0.00    -0.359 A  
HETATM   11  C   UNL     1     -10.748   6.305  71.058  1.00  0.00    -0.313 A  
ENDROOT
BRANCH   8  12
HETATM   12  C   UNL     1      -8.008   8.862  71.365  1.00  0.00    -0.102 C  
HETATM   13  O   UNL     1      -7.174   8.599  72.228  1.00  0.00    -0.223 OA 
BRANCH  12  14
HETATM   14  C   UNL     1      -7.647   9.770  70.235  1.00  0.00    -0.184 A  
HETATM   15  C   UNL     1      -8.443   9.889  69.088  1.00  0.00    -0.148 A  
HETATM   16  C   UNL     1      -8.083  10.770  68.066  1.00  0.00    -0.114 A  
HETATM   17  C   UNL     1      -6.906  11.510  68.166  1.00  0.00    -0.068 A  
HETATM   18  C   UNL     1      -6.084  11.364  69.283  1.00  0.00    -0.065 A  
HETATM   19  C   UNL     1      -6.452  10.496  70.315  1.00  0.00    -0.140 A  
ENDBRANCH  12  14
ENDBRANCH   8  12
TORSDOF 2
ENDMDL
MODEL      107
REMARK 921   NORMALIZED FREE ENERGY PREDICTED BY IDOCK:   -4.68 KCAL/MOL
REMARK 922        TOTAL FREE ENERGY PREDICTED BY IDOCK:   -5.77 KCAL/MOL
REMARK 923 INTER-LIGAND FREE ENERGY PREDICTED BY IDOCK:   -5.31 KCAL/MOL
REMARK 924 INTRA-LIGAND FREE ENERGY PREDICTED BY IDOCK:   -0.46 KCAL/MOL
REMARK 927      BINDING AFFINITY PREDICTED BY RF-SCORE:    0.00 PKD
ROOT
HETATM    1  C   UNL     1     -10.532  10.655  66.462  1.00  0.00    -0.285 C  
HETATM    2  C   UNL     1      -9.815   9.321  66.246  1.00  0.00    -0.361 A  
HETATM    3  C   UNL     1      -9.783  11.900  65.980  1.00  0.00    -0.257 C  
HETATM    4  C   UNL     1     -10.915  10.908  67.919  1.00  0.00    -0.271 C  
HETATM    5  O   UNL     1      -9.974  10.556  68.828  1.00  0.00    -0.175 OA 
HETATM    6  O   UNL     1     -11.964  11.441  68.256  1.00  0.00    -0.566 OA 
HETATM    7  C   UNL     1     -10.392   8.142  66.758  1.00  0.00    -0.361 A  
HETATM    8  C   UNL     1      -9.714   6.916  66.686  1.00  0.00    -0.221 A  
HETATM    9  C   UNL     1      -8.506   6.834  65.993  1.00  0.00    -0.143 A  
HETATM   10  C   UNL     1      -8.593   9.214  65.564  1.00  0.00    -0.192 A  
HETATM   11  C   UNL     1      -7.953   7.979  65.426  1.00  0.00    -0.121 A  
ENDROOT
BRANCH   8  12
HETATM   12  C   UNL     1     -10.235   5.688  67.345  1.00  0.00    -0.205 C  
HETATM   13  O   UNL     1     -10.624   4.761  66.637  1.00  0.00    -0.226 OA 
BRANCH  12  14
HETATM   14  C   UNL     1     -10.261   5.548  68.831  1.00  0.00    -0.284 A  
HETATM   15  C   UNL     1      -9.429   4.650  69.513  1.00  0.00    -0.236 A  
HETATM   16  C   UNL     1      -9.465   4.571  70.907  1.00  0.00    -0.236 A  
HETATM   17  C   UNL     1     -10.358   5.361  71.627  1.00  0.00    -0.280 A  
HETATM   18  C   UNL     1     -11.223   6.225  70.955  1.00  0.00    -0.386 A  
HETATM   19  C   UNL     1     -11.175   6.318  69.561  1.00  0.00    -0.500 A  
ENDBRANCH  12  14
ENDBRANCH   8  12
TORSDOF 2
ENDMDL
MODEL      108
REMARK 921   NORMALIZED FREE ENERGY PREDICTED BY IDOCK:   -4.66 KCAL/MOL
REMARK 922        TOTAL FREE ENERGY PREDICTED BY IDOCK:   -5.75 KCAL/MOL
REMARK 923 INTER-LIGAND FREE ENERGY PREDICTED BY IDOCK:   -5.63 KCAL/MOL
REMARK 924 INTRA-LIGAND FREE ENERGY PREDICTED BY IDOCK:   -0.12 KCAL/MOL
REMARK 927      BINDING AFFINITY PREDICTED BY RF-SCORE:    0.00 PKD
ROOT
HETATM    1  C   UNL     1     -11.806  14.086  65.643  1.00  0.00    -0.384 C  
HETATM    2  C   UNL     1     -11.152  12.751  65.286  1.00  0.00    -0.320 A  
HETATM    3  C   UNL     1     -12.279  14.933  64.458  1.00  0.00    -0.396 C  
HETATM    4  C   UNL     1     -10.918  14.986  66.501  1.00  0.00    -0.327 C  
HETATM    5  O   UNL     1      -9.612  15.011  66.142  1.00  0.00    -0.277 OA 
HETATM    6  O   UNL     1     -11.347  15.683  67.411  1.00  0.00    -0.281 OA 
HETATM    7  C   UNL     1     -10.596  11.964  66.314  1.00  0.00    -0.289 A  
HETATM    8  C   UNL     1      -9.884  10.791  66.022  1.00  0.00    -0.285 A  
HETATM    9  C   UNL     1      -9.826  10.328  64.707  1.00  0.00    -0.403 A  
HETATM   10  C   UNL     1     -11.070  12.269  63.970  1.00  0.00    -0.446 A  
HETATM   11  C   UNL     1     -10.426  11.062  63.686  1.00  0.00    -0.388 A  
ENDROOT
BRANCH   8  12
HETATM   12  C   UNL     1      -9.166  10.022  67.074  1.00  0.00    -0.146 C  
HETATM   13  O   UNL     1      -8.068   9.542  66.804  1.00  0.00    -0.108 OA 
BRANCH  12  14
HETATM   14  C   UNL     1      -9.732   9.856  68.445  1.00  0.00    -0.161 A  
HETATM   15  C   UNL     1      -8.959   9.408  69.525  1.00  0.00    -0.167 A  
HETATM   16  C   UNL     1      -9.521   9.293  70.798  1.00  0.00    -0.336 A  
HETATM   17  C   UNL     1     -10.868   9.588  70.994  1.00  0.00    -0.423 A  
HETATM   18  C   UNL     1     -11.658   9.991  69.917  1.00  0.00    -0.237 A  
HETATM   19  C   UNL     1     -11.093  10.124  68.646  1.00  0.00    -0.254 A  
ENDBRANCH  12  14
ENDBRANCH   8  12
TORSDOF 2
ENDMDL
MODEL      109
REMARK 921   NORMALIZED FREE ENERGY PREDICTED BY IDOCK:   -4.64 KCAL/MOL
REMARK 922        TOTAL FREE ENERGY PREDICTED BY IDOCK:   -5.73 KCAL/MOL
REMARK 923 INTER-LIGAND FREE ENERGY PREDICTED BY IDOCK:   -5.10 KCAL/MOL
REMARK 924 INTRA-LIGAND FREE ENERGY PREDICTED BY IDOCK:   -0.63 KCAL/MOL
REMARK 927      BINDING AFFINITY PREDICTED BY RF-SCORE:    0.00 PKD
ROOT
HETATM    1  C   UNL     1     -12.213   9.959  70.246  1.00  0.00    -0.118 C  
HETATM    2  C   UNL     1     -11.894  11.231  69.459  1.00  0.00    -0.427 A  
HETATM    3  C   UNL     1     -12.529  10.158  71.731  1.00  0.00    -0.455 C  
HETATM    4  C   UNL     1     -11.111   8.905  70.168  1.00  0.00    -0.201 C  
HETATM    5  O   UNL     1      -9.848   9.389  70.256  1.00  0.00    -0.209 OA 
HETATM    6  O   UNL     1     -11.333   7.704  70.088  1.00  0.00    -0.237 OA 
HETATM    7  C   UNL     1     -11.490  11.121  68.113  1.00  0.00    -0.373 A  
HETATM    8  C   UNL     1     -11.076  12.248  67.388  1.00  0.00    -0.333 A  
HETATM    9  C   UNL     1     -11.177  13.515  67.964  1.00  0.00    -0.300 A  
HETATM   10  C   UNL     1     -11.977  12.515  70.018  1.00  0.00    -0.372 A  
HETATM   11  C   UNL     1     -11.636  13.648  69.273  1.00  0.00    -0.363 A  
ENDROOT
BRANCH   8  12
HETATM   12  C   UNL     1     -10.509  12.138  66.017  1.00  0.00    -0.247 C  
HETATM   13  O   UNL     1     -10.904  12.918  65.154  1.00  0.00    -0.284 OA 
BRANCH  12  14
HETATM   14  C   UNL     1      -9.455  11.134  65.685  1.00  0.00    -0.252 A  
HETATM   15  C   UNL     1      -9.699  10.048  64.833  1.00  0.00    -0.377 A  
HETATM   16  C   UNL     1      -8.677   9.147  64.526  1.00  0.00    -0.192 A  
HETATM   17  C   UNL     1      -7.416   9.302  65.097  1.00  0.00    -0.105 A  
HETATM   18  C   UNL     1      -7.176  10.354  65.982  1.00  0.00    -0.134 A  
HETATM   19  C   UNL     1      -8.192  11.267  66.276  1.00  0.00    -0.126 A  
ENDBRANCH  12  14
ENDBRANCH   8  12
TORSDOF 2
ENDMDL
MODEL      110
REMARK 921   NORMALIZED FREE ENERGY PREDICTED BY IDOCK:   -4.63 KCAL/MOL
REMARK 922        TOTAL FREE ENERGY PREDICTED BY IDOCK:   -5.72 KCAL/MOL
REMARK 923 INTER-LIGAND FREE ENERGY PREDICTED BY IDOCK:   -5.26 KCAL/MOL
REMARK 924 INTRA-LIGAND FREE ENERGY PREDICTED BY IDOCK:   -0.45 KCAL/MOL
REMARK 927      BINDING AFFINITY PREDICTED BY RF-SCORE:    0.00 PKD
ROOT
HETATM    1  C   UNL     1     -11.623  13.463  65.141  1.00  0.00    -0.329 C  
HETATM    2  C   UNL     1     -11.450  12.686  66.447  1.00  0.00    -0.409 A  
HETATM    3  C   UNL     1     -12.286  14.837  65.267  1.00  0.00    -0.158 C  
HETATM    4  C   UNL     1     -12.403  12.693  64.077  1.00  0.00    -0.443 C  
HETATM    5  O   UNL     1     -13.477  12.008  64.538  1.00  0.00    -0.487 OA 
HETATM    6  O   UNL     1     -12.127  12.727  62.885  1.00  0.00    -0.229 OA 
HETATM    7  C   UNL     1     -10.946  11.371  66.401  1.00  0.00    -0.315 A  
HETATM    8  C   UNL     1     -10.881  10.581  67.558  1.00  0.00    -0.357 A  
HETATM    9  C   UNL     1     -11.205  11.139  68.795  1.00  0.00    -0.314 A  
HETATM   10  C   UNL     1     -11.781  13.221  67.702  1.00  0.00    -0.408 A  
HETATM   11  C   UNL     1     -11.645  12.459  68.867  1.00  0.00    -0.364 A  
ENDROOT
BRANCH   8  12
HETATM   12  C   UNL     1     -10.490   9.146  67.512  1.00  0.00    -0.270 C  
HETATM   13  O   UNL     1     -10.512   8.566  66.428  1.00  0.00    -0.195 OA 
BRANCH  12  14
HETATM   14  C   UNL     1     -10.043   8.417  68.735  1.00  0.00    -0.209 A  
HETATM   15  C   UNL     1     -10.945   7.787  69.603  1.00  0.00    -0.128 A  
HETATM   16  C   UNL     1     -10.483   7.091  70.722  1.00  0.00    -0.231 A  
HETATM   17  C   UNL     1      -9.119   7.053  71.004  1.00  0.00    -0.151 A  
HETATM   18  C   UNL     1      -8.216   7.715  70.172  1.00  0.00    -0.124 A  
HETATM   19  C   UNL     1      -8.676   8.396  69.042  1.00  0.00    -0.142 A  
ENDBRANCH  12  14
ENDBRANCH   8  12
TORSDOF 2
ENDMDL
MODEL      111
REMARK 921   NORMALIZED FREE ENERGY PREDICTED BY IDOCK:   -4.63 KCAL/MOL
REMARK 922        TOTAL FREE ENERGY PREDICTED BY IDOCK:   -5.72 KCAL/MOL
REMARK 923 INTER-LIGAND FREE ENERGY PREDICTED BY IDOCK:   -5.17 KCAL/MOL
REMARK 924 INTRA-LIGAND FREE ENERGY PREDICTED BY IDOCK:   -0.55 KCAL/MOL
REMARK 927      BINDING AFFINITY PREDICTED BY RF-SCORE:    0.00 PKD
ROOT
HETATM    1  C   UNL     1     -10.202  10.709  67.153  1.00  0.00    -0.261 C  
HETATM    2  C   UNL     1     -10.710  10.487  68.579  1.00  0.00    -0.259 A  
HETATM    3  C   UNL     1     -11.140  11.489  66.227  1.00  0.00    -0.321 C  
HETATM    4  C   UNL     1      -9.846   9.413  66.428  1.00  0.00    -0.269 C  
HETATM    5  O   UNL     1     -10.711   8.389  66.627  1.00  0.00    -0.195 OA 
HETATM    6  O   UNL     1      -8.887   9.305  65.676  1.00  0.00    -0.156 OA 
HETATM    7  C   UNL     1      -9.952   9.689  69.459  1.00  0.00    -0.223 A  
HETATM    8  C   UNL     1     -10.435   9.363  70.735  1.00  0.00    -0.372 A  
HETATM    9  C   UNL     1     -11.624   9.933  71.190  1.00  0.00    -0.468 A  
HETATM   10  C   UNL     1     -11.909  11.039  69.056  1.00  0.00    -0.399 A  
HETATM   11  C   UNL     1     -12.354  10.776  70.355  1.00  0.00    -0.438 A  
ENDROOT
BRANCH   8  12
HETATM   12  C   UNL     1      -9.724   8.407  71.626  1.00  0.00    -0.219 C  
HETATM   13  O   UNL     1      -9.202   8.837  72.652  1.00  0.00    -0.327 OA 
BRANCH  12  14
HETATM   14  C   UNL     1      -9.664   6.948  71.317  1.00  0.00    -0.175 A  
HETATM   15  C   UNL     1     -10.469   6.357  70.334  1.00  0.00    -0.269 A  
HETATM   16  C   UNL     1     -10.361   4.992  70.058  1.00  0.00    -0.303 A  
HETATM   17  C   UNL     1      -9.476   4.201  70.787  1.00  0.00    -0.242 A  
HETATM   18  C   UNL     1      -8.704   4.771  71.799  1.00  0.00    -0.134 A  
HETATM   19  C   UNL     1      -8.797   6.139  72.065  1.00  0.00    -0.139 A  
ENDBRANCH  12  14
ENDBRANCH   8  12
TORSDOF 2
ENDMDL
MODEL      112
REMARK 921   NORMALIZED FREE ENERGY PREDICTED BY IDOCK:   -4.61 KCAL/MOL
REMARK 922        TOTAL FREE ENERGY PREDICTED BY IDOCK:   -5.69 KCAL/MOL
REMARK 923 INTER-LIGAND FREE ENERGY PREDICTED BY IDOCK:   -5.21 KCAL/MOL
REMARK 924 INTRA-LIGAND FREE ENERGY PREDICTED BY IDOCK:   -0.48 KCAL/MOL
REMARK 927      BINDING AFFINITY PREDICTED BY RF-SCORE:    0.00 PKD
ROOT
HETATM    1  C   UNL     1      -9.391   9.996  66.870  1.00  0.00    -0.188 C  
HETATM    2  C   UNL     1      -9.975  11.094  65.979  1.00  0.00    -0.280 A  
HETATM    3  C   UNL     1      -9.321   8.600  66.245  1.00  0.00    -0.282 C  
HETATM    4  C   UNL     1     -10.121   9.846  68.203  1.00  0.00    -0.165 C  
HETATM    5  O   UNL     1     -11.471   9.934  68.130  1.00  0.00    -0.072 OA 
HETATM    6  O   UNL     1      -9.550   9.608  69.259  1.00  0.00    -0.167 OA 
HETATM    7  C   UNL     1     -10.170  12.381  66.517  1.00  0.00    -0.244 A  
HETATM    8  C   UNL     1     -10.809  13.386  65.775  1.00  0.00    -0.283 A  
HETATM    9  C   UNL     1     -11.150  13.149  64.443  1.00  0.00    -0.407 A  
HETATM   10  C   UNL     1     -10.337  10.878  64.640  1.00  0.00    -0.407 A  
HETATM   11  C   UNL     1     -10.905  11.900  63.875  1.00  0.00    -0.456 A  
ENDROOT
BRANCH   8  12
HETATM   12  C   UNL     1     -11.157  14.704  66.369  1.00  0.00    -0.334 C  
HETATM   13  O   UNL     1     -12.242  14.826  66.934  1.00  0.00    -0.230 OA 
BRANCH  12  14
HETATM   14  C   UNL     1     -10.210  15.857  66.323  1.00  0.00    -0.324 A  
HETATM   15  C   UNL     1     -10.649  17.183  66.206  1.00  0.00    -0.185 A  
HETATM   16  C   UNL     1      -9.730  18.234  66.195  1.00  0.00    -0.229 A  
HETATM   17  C   UNL     1      -8.364  17.967  66.263  1.00  0.00    -0.230 A  
HETATM   18  C   UNL     1      -7.915  16.648  66.334  1.00  0.00    -0.360 A  
HETATM   19  C   UNL     1      -8.834  15.596  66.363  1.00  0.00    -0.365 A  
ENDBRANCH  12  14
ENDBRANCH   8  12
TORSDOF 2
ENDMDL
MODEL      113
REMARK 921   NORMALIZED FREE ENERGY PREDICTED BY IDOCK:   -4.59 KCAL/MOL
REMARK 922        TOTAL FREE ENERGY PREDICTED BY IDOCK:   -5.67 KCAL/MOL
REMARK 923 INTER-LIGAND FREE ENERGY PREDICTED BY IDOCK:   -5.09 KCAL/MOL
REMARK 924 INTRA-LIGAND FREE ENERGY PREDICTED BY IDOCK:   -0.58 KCAL/MOL
REMARK 927      BINDING AFFINITY PREDICTED BY RF-SCORE:    0.00 PKD
ROOT
HETATM    1  C   UNL     1     -12.682   9.382  71.893  1.00  0.00    -0.484 C  
HETATM    2  C   UNL     1     -11.848   8.498  70.965  1.00  0.00    -0.290 A  
HETATM    3  C   UNL     1     -13.940   8.733  72.477  1.00  0.00    -0.430 C  
HETATM    4  C   UNL     1     -13.123  10.694  71.246  1.00  0.00    -0.359 C  
HETATM    5  O   UNL     1     -13.530  10.588  69.958  1.00  0.00     0.105 OA 
HETATM    6  O   UNL     1     -13.166  11.759  71.847  1.00  0.00    -0.482 OA 
HETATM    7  C   UNL     1     -10.734   9.056  70.305  1.00  0.00    -0.262 A  
HETATM    8  C   UNL     1     -10.011   8.317  69.357  1.00  0.00    -0.188 A  
HETATM    9  C   UNL     1     -10.319   6.972  69.148  1.00  0.00    -0.209 A  
HETATM   10  C   UNL     1     -12.144   7.147  70.729  1.00  0.00    -0.331 A  
HETATM   11  C   UNL     1     -11.377   6.387  69.840  1.00  0.00    -0.500 A  
ENDROOT
BRANCH   8  12
HETATM   12  C   UNL     1      -8.925   8.927  68.543  1.00  0.00    -0.134 C  
HETATM   13  O   UNL     1      -7.768   8.837  68.946  1.00  0.00    -0.092 OA 
BRANCH  12  14
HETATM   14  C   UNL     1      -9.209   9.609  67.246  1.00  0.00    -0.154 A  
HETATM   15  C   UNL     1      -9.121   8.943  66.016  1.00  0.00    -0.265 A  
HETATM   16  C   UNL     1      -9.422   9.611  64.827  1.00  0.00    -0.256 A  
HETATM   17  C   UNL     1      -9.776  10.958  64.854  1.00  0.00    -0.318 A  
HETATM   18  C   UNL     1      -9.822  11.642  66.069  1.00  0.00    -0.258 A  
HETATM   19  C   UNL     1      -9.539  10.971  67.262  1.00  0.00    -0.183 A  
ENDBRANCH  12  14
ENDBRANCH   8  12
TORSDOF 2
ENDMDL
MODEL      114
REMARK 921   NORMALIZED FREE ENERGY PREDICTED BY IDOCK:   -4.59 KCAL/MOL
REMARK 922        TOTAL FREE ENERGY PREDICTED BY IDOCK:   -5.67 KCAL/MOL
REMARK 923 INTER-LIGAND FREE ENERGY PREDICTED BY IDOCK:   -5.10 KCAL/MOL
REMARK 924 INTRA-LIGAND FREE ENERGY PREDICTED BY IDOCK:   -0.57 KCAL/MOL
REMARK 927      BINDING AFFINITY PREDICTED BY RF-SCORE:    0.00 PKD
ROOT
HETATM    1  C   UNL     1      -9.582   7.818  68.295  1.00  0.00    -0.162 C  
HETATM    2  C   UNL     1     -10.362   8.744  69.229  1.00  0.00    -0.221 A  
HETATM    3  C   UNL     1      -9.164   6.471  68.892  1.00  0.00    -0.129 C  
HETATM    4  C   UNL     1      -8.319   8.457  67.723  1.00  0.00    -0.130 C  
HETATM    5  O   UNL     1      -7.603   9.197  68.604  1.00  0.00    -0.082 OA 
HETATM    6  O   UNL     1      -7.936   8.280  66.574  1.00  0.00    -0.097 OA 
HETATM    7  C   UNL     1     -10.691  10.042  68.789  1.00  0.00    -0.250 A  
HETATM    8  C   UNL     1     -11.302  10.965  69.651  1.00  0.00    -0.362 A  
HETATM    9  C   UNL     1     -11.701  10.560  70.925  1.00  0.00    -0.431 A  
HETATM   10  C   UNL     1     -10.765   8.365  70.519  1.00  0.00    -0.247 A  
HETATM   11  C   UNL     1     -11.441   9.260  71.354  1.00  0.00    -0.439 A  
ENDROOT
BRANCH   8  12
HETATM   12  C   UNL     1     -11.526  12.382  69.258  1.00  0.00    -0.288 C  
HETATM   13  O   UNL     1     -11.987  13.157  70.092  1.00  0.00    -0.334 OA 
BRANCH  12  14
HETATM   14  C   UNL     1     -11.171  12.881  67.896  1.00  0.00    -0.306 A  
HETATM   15  C   UNL     1     -11.992  12.662  66.782  1.00  0.00    -0.362 A  
HETATM   16  C   UNL     1     -11.637  13.170  65.530  1.00  0.00    -0.365 A  
HETATM   17  C   UNL     1     -10.441  13.868  65.376  1.00  0.00    -0.357 A  
HETATM   18  C   UNL     1      -9.594  14.052  66.469  1.00  0.00    -0.307 A  
HETATM   19  C   UNL     1      -9.957  13.559  67.726  1.00  0.00    -0.232 A  
ENDBRANCH  12  14
ENDBRANCH   8  12
TORSDOF 2
ENDMDL
MODEL      115
REMARK 921   NORMALIZED FREE ENERGY PREDICTED BY IDOCK:   -4.58 KCAL/MOL
REMARK 922        TOTAL FREE ENERGY PREDICTED BY IDOCK:   -5.66 KCAL/MOL
REMARK 923 INTER-LIGAND FREE ENERGY PREDICTED BY IDOCK:   -5.13 KCAL/MOL
REMARK 924 INTRA-LIGAND FREE ENERGY PREDICTED BY IDOCK:   -0.53 KCAL/MOL
REMARK 927      BINDING AFFINITY PREDICTED BY RF-SCORE:    0.00 PKD
ROOT
HETATM    1  C   UNL     1      -9.376   7.512  70.631  1.00  0.00    -0.163 C  
HETATM    2  C   UNL     1      -9.721   7.880  69.187  1.00  0.00    -0.162 A  
HETATM    3  C   UNL     1      -9.974   6.198  71.143  1.00  0.00    -0.218 C  
HETATM    4  C   UNL     1      -9.759   8.593  71.640  1.00  0.00    -0.278 C  
HETATM    5  O   UNL     1     -10.958   9.183  71.419  1.00  0.00    -0.288 OA 
HETATM    6  O   UNL     1      -9.073   8.878  72.613  1.00  0.00    -0.321 OA 
HETATM    7  C   UNL     1      -9.296   9.123  68.677  1.00  0.00    -0.135 A  
HETATM    8  C   UNL     1      -9.688   9.553  67.400  1.00  0.00    -0.201 A  
HETATM    9  C   UNL     1     -10.407   8.691  66.572  1.00  0.00    -0.237 A  
HETATM   10  C   UNL     1     -10.453   7.036  68.338  1.00  0.00    -0.231 A  
HETATM   11  C   UNL     1     -10.780   7.432  67.038  1.00  0.00    -0.389 A  
ENDROOT
BRANCH   8  12
HETATM   12  C   UNL     1      -9.375  10.918  66.898  1.00  0.00    -0.168 C  
HETATM   13  O   UNL     1      -8.220  11.168  66.559  1.00  0.00    -0.158 OA 
BRANCH  12  14
HETATM   14  C   UNL     1     -10.431  11.964  66.765  1.00  0.00    -0.253 A  
HETATM   15  C   UNL     1     -11.242  12.069  65.627  1.00  0.00    -0.377 A  
HETATM   16  C   UNL     1     -12.237  13.046  65.555  1.00  0.00    -0.521 A  
HETATM   17  C   UNL     1     -12.405  13.948  66.603  1.00  0.00    -0.411 A  
HETATM   18  C   UNL     1     -11.574  13.880  67.721  1.00  0.00    -0.381 A  
HETATM   19  C   UNL     1     -10.589  12.893  67.802  1.00  0.00    -0.231 A  
ENDBRANCH  12  14
ENDBRANCH   8  12
TORSDOF 2
ENDMDL
MODEL      116
REMARK 921   NORMALIZED FREE ENERGY PREDICTED BY IDOCK:   -4.54 KCAL/MOL
REMARK 922        TOTAL FREE ENERGY PREDICTED BY IDOCK:   -5.62 KCAL/MOL
REMARK 923 INTER-LIGAND FREE ENERGY PREDICTED BY IDOCK:   -5.03 KCAL/MOL
REMARK 924 INTRA-LIGAND FREE ENERGY PREDICTED BY IDOCK:   -0.59 KCAL/MOL
REMARK 927      BINDING AFFINITY PREDICTED BY RF-SCORE:    0.00 PKD
ROOT
HETATM    1  C   UNL     1     -11.995  11.547  70.862  1.00  0.00    -0.220 C  
HETATM    2  C   UNL     1     -12.236  10.051  71.070  1.00  0.00    -0.462 A  
HETATM    3  C   UNL     1     -13.102  12.476  71.369  1.00  0.00    -0.303 C  
HETATM    4  C   UNL     1     -11.739  11.923  69.404  1.00  0.00    -0.339 C  
HETATM    5  O   UNL     1     -12.528  11.290  68.502  1.00  0.00    -0.434 OA 
HETATM    6  O   UNL     1     -10.926  12.771  69.061  1.00  0.00    -0.242 OA 
HETATM    7  C   UNL     1     -11.314   9.128  70.537  1.00  0.00    -0.300 A  
HETATM    8  C   UNL     1     -11.554   7.747  70.601  1.00  0.00    -0.233 A  
HETATM    9  C   UNL     1     -12.659   7.271  71.307  1.00  0.00    -0.402 A  
HETATM   10  C   UNL     1     -13.345   9.546  71.765  1.00  0.00    -0.501 A  
HETATM   11  C   UNL     1     -13.547   8.169  71.896  1.00  0.00    -0.370 A  
ENDROOT
BRANCH   8  12
HETATM   12  C   UNL     1     -10.672   6.762  69.920  1.00  0.00    -0.250 C  
HETATM   13  O   UNL     1     -11.116   5.640  69.686  1.00  0.00    -0.328 OA 
BRANCH  12  14
HETATM   14  C   UNL     1      -9.287   7.117  69.491  1.00  0.00    -0.148 A  
HETATM   15  C   UNL     1      -8.225   7.221  70.399  1.00  0.00    -0.125 A  
HETATM   16  C   UNL     1      -6.938   7.529  69.951  1.00  0.00    -0.059 A  
HETATM   17  C   UNL     1      -6.711   7.774  68.599  1.00  0.00    -0.058 A  
HETATM   18  C   UNL     1      -7.771   7.719  67.693  1.00  0.00    -0.121 A  
HETATM   19  C   UNL     1      -9.055   7.393  68.137  1.00  0.00    -0.131 A  
ENDBRANCH  12  14
ENDBRANCH   8  12
TORSDOF 2
ENDMDL
MODEL      117
REMARK 921   NORMALIZED FREE ENERGY PREDICTED BY IDOCK:   -4.54 KCAL/MOL
REMARK 922        TOTAL FREE ENERGY PREDICTED BY IDOCK:   -5.62 KCAL/MOL
REMARK 923 INTER-LIGAND FREE ENERGY PREDICTED BY IDOCK:   -5.08 KCAL/MOL
REMARK 924 INTRA-LIGAND FREE ENERGY PREDICTED BY IDOCK:   -0.54 KCAL/MOL
REMARK 927      BINDING AFFINITY PREDICTED BY RF-SCORE:    0.00 PKD
ROOT
HETATM    1  C   UNL     1     -10.804  13.729  64.666  1.00  0.00    -0.416 C  
HETATM    2  C   UNL     1     -10.242  12.934  65.845  1.00  0.00    -0.299 A  
HETATM    3  C   UNL     1     -10.969  15.234  64.896  1.00  0.00    -0.445 C  
HETATM    4  C   UNL     1     -12.153  13.208  64.171  1.00  0.00    -0.430 C  
HETATM    5  O   UNL     1     -13.020  12.850  65.148  1.00  0.00    -0.758 OA 
HETATM    6  O   UNL     1     -12.464  13.165  62.989  1.00  0.00    -0.598 OA 
HETATM    7  C   UNL     1     -10.159  11.530  65.748  1.00  0.00    -0.278 A  
HETATM    8  C   UNL     1      -9.761  10.752  66.845  1.00  0.00    -0.209 A  
HETATM    9  C   UNL     1      -9.324  11.378  68.013  1.00  0.00    -0.171 A  
HETATM   10  C   UNL     1      -9.807  13.538  67.035  1.00  0.00    -0.251 A  
HETATM   11  C   UNL     1      -9.339  12.768  68.103  1.00  0.00    -0.214 A  
ENDROOT
BRANCH   8  12
HETATM   12  C   UNL     1      -9.805   9.265  66.814  1.00  0.00    -0.225 C  
HETATM   13  O   UNL     1     -10.848   8.702  67.140  1.00  0.00    -0.212 OA 
BRANCH  12  14
HETATM   14  C   UNL     1      -8.633   8.457  66.366  1.00  0.00    -0.139 A  
HETATM   15  C   UNL     1      -7.686   7.949  67.266  1.00  0.00    -0.105 A  
HETATM   16  C   UNL     1      -6.619   7.174  66.807  1.00  0.00    -0.055 A  
HETATM   17  C   UNL     1      -6.468   6.933  65.444  1.00  0.00    -0.046 A  
HETATM   18  C   UNL     1      -7.379   7.473  64.535  1.00  0.00    -0.087 A  
HETATM   19  C   UNL     1      -8.457   8.234  64.994  1.00  0.00    -0.141 A  
ENDBRANCH  12  14
ENDBRANCH   8  12
TORSDOF 2
ENDMDL
MODEL      118
REMARK 921   NORMALIZED FREE ENERGY PREDICTED BY IDOCK:   -4.54 KCAL/MOL
REMARK 922        TOTAL FREE ENERGY PREDICTED BY IDOCK:   -5.62 KCAL/MOL
REMARK 923 INTER-LIGAND FREE ENERGY PREDICTED BY IDOCK:   -5.10 KCAL/MOL
REMARK 924 INTRA-LIGAND FREE ENERGY PREDICTED BY IDOCK:   -0.52 KCAL/MOL
REMARK 927      BINDING AFFINITY PREDICTED BY RF-SCORE:    0.00 PKD
ROOT
HETATM    1  C   UNL     1      -9.081   9.665  67.929  1.00  0.00    -0.130 C  
HETATM    2  C   UNL     1     -10.180  10.252  68.817  1.00  0.00    -0.205 A  
HETATM    3  C   UNL     1      -8.549   8.292  68.349  1.00  0.00    -0.133 C  
HETATM    4  C   UNL     1      -7.868  10.581  67.781  1.00  0.00    -0.104 C  
HETATM    5  O   UNL     1      -7.479  11.205  68.919  1.00  0.00    -0.109 OA 
HETATM    6  O   UNL     1      -7.247  10.710  66.734  1.00  0.00    -0.106 OA 
HETATM    7  C   UNL     1     -10.646  11.556  68.558  1.00  0.00    -0.236 A  
HETATM    8  C   UNL     1     -11.567  12.178  69.415  1.00  0.00    -0.381 A  
HETATM    9  C   UNL     1     -12.123  11.456  70.471  1.00  0.00    -0.487 A  
HETATM   10  C   UNL     1     -10.746   9.551  69.893  1.00  0.00    -0.268 A  
HETATM   11  C   UNL     1     -11.720  10.143  70.703  1.00  0.00    -0.425 A  
ENDROOT
BRANCH   8  12
HETATM   12  C   UNL     1     -11.963  13.602  69.245  1.00  0.00    -0.336 C  
HETATM   13  O   UNL     1     -12.061  14.053  68.106  1.00  0.00    -0.355 OA 
BRANCH  12  14
HETATM   14  C   UNL     1     -12.275  14.471  70.418  1.00  0.00    -0.394 A  
HETATM   15  C   UNL     1     -13.538  15.048  70.607  1.00  0.00    -0.132 A  
HETATM   16  C   UNL     1     -13.795  15.834  71.733  1.00  0.00    -0.289 A  
HETATM   17  C   UNL     1     -12.782  16.080  72.657  1.00  0.00    -0.525 A  
HETATM   18  C   UNL     1     -11.509  15.548  72.454  1.00  0.00    -0.469 A  
HETATM   19  C   UNL     1     -11.255  14.747  71.338  1.00  0.00    -0.011 A  
ENDBRANCH  12  14
ENDBRANCH   8  12
TORSDOF 2
ENDMDL
MODEL      119
REMARK 921   NORMALIZED FREE ENERGY PREDICTED BY IDOCK:   -4.53 KCAL/MOL
REMARK 922        TOTAL FREE ENERGY PREDICTED BY IDOCK:   -5.61 KCAL/MOL
REMARK 923 INTER-LIGAND FREE ENERGY PREDICTED BY IDOCK:   -5.02 KCAL/MOL
REMARK 924 INTRA-LIGAND FREE ENERGY PREDICTED BY IDOCK:   -0.59 KCAL/MOL
REMARK 927      BINDING AFFINITY PREDICTED BY RF-SCORE:    0.00 PKD
ROOT
HETATM    1  C   UNL     1     -11.185  14.007  64.453  1.00  0.00    -0.318 C  
HETATM    2  C   UNL     1     -10.520  14.038  65.830  1.00  0.00    -0.317 A  
HETATM    3  C   UNL     1     -12.141  15.163  64.149  1.00  0.00    -0.195 C  
HETATM    4  C   UNL     1     -11.955  12.715  64.181  1.00  0.00    -0.426 C  
HETATM    5  O   UNL     1     -12.675  12.247  65.229  1.00  0.00    -0.543 OA 
HETATM    6  O   UNL     1     -11.977  12.163  63.089  1.00  0.00    -0.390 OA 
HETATM    7  C   UNL     1      -9.709  12.955  66.224  1.00  0.00    -0.268 A  
HETATM    8  C   UNL     1      -9.175  12.887  67.520  1.00  0.00    -0.192 A  
HETATM    9  C   UNL     1      -9.345  13.960  68.394  1.00  0.00    -0.201 A  
HETATM   10  C   UNL     1     -10.685  15.100  66.732  1.00  0.00    -0.311 A  
HETATM   11  C   UNL     1     -10.091  15.068  67.997  1.00  0.00    -0.223 A  
ENDROOT
BRANCH   8  12
HETATM   12  C   UNL     1      -8.440  11.689  68.006  1.00  0.00    -0.151 C  
HETATM   13  O   UNL     1      -7.275  11.529  67.649  1.00  0.00    -0.092 OA 
BRANCH  12  14
HETATM   14  C   UNL     1      -9.072  10.708  68.938  1.00  0.00    -0.181 A  
HETATM   15  C   UNL     1     -10.461  10.544  69.023  1.00  0.00    -0.238 A  
HETATM   16  C   UNL     1     -11.010   9.595  69.888  1.00  0.00    -0.281 A  
HETATM   17  C   UNL     1     -10.177   8.830  70.702  1.00  0.00    -0.247 A  
HETATM   18  C   UNL     1      -8.796   9.017  70.658  1.00  0.00    -0.259 A  
HETATM   19  C   UNL     1      -8.244   9.954  69.780  1.00  0.00    -0.191 A  
ENDBRANCH  12  14
ENDBRANCH   8  12
TORSDOF 2
ENDMDL
MODEL      120
REMARK 921   NORMALIZED FREE ENERGY PREDICTED BY IDOCK:   -4.52 KCAL/MOL
REMARK 922        TOTAL FREE ENERGY PREDICTED BY IDOCK:   -5.59 KCAL/MOL
REMARK 923 INTER-LIGAND FREE ENERGY PREDICTED BY IDOCK:   -5.23 KCAL/MOL
REMARK 924 INTRA-LIGAND FREE ENERGY PREDICTED BY IDOCK:   -0.36 KCAL/MOL
REMARK 927      BINDING AFFINITY PREDICTED BY RF-SCORE:    0.00 PKD
ROOT
HETATM    1  C   UNL     1      -8.273   8.968  70.862  1.00  0.00    -0.222 C  
HETATM    2  C   UNL     1      -8.422   9.997  69.741  1.00  0.00    -0.189 A  
HETATM    3  C   UNL     1      -6.839   8.534  71.181  1.00  0.00    -0.064 C  
HETATM    4  C   UNL     1      -9.076   7.690  70.623  1.00  0.00    -0.158 C  
HETATM    5  O   UNL     1      -9.051   7.229  69.349  1.00  0.00    -0.143 OA 
HETATM    6  O   UNL     1      -9.657   7.085  71.513  1.00  0.00    -0.159 OA 
HETATM    7  C   UNL     1      -9.714  10.366  69.317  1.00  0.00    -0.231 A  
HETATM    8  C   UNL     1      -9.898  11.217  68.216  1.00  0.00    -0.195 A  
HETATM    9  C   UNL     1      -8.790  11.804  67.604  1.00  0.00    -0.162 A  
HETATM   10  C   UNL     1      -7.324  10.592  69.101  1.00  0.00    -0.111 A  
HETATM   11  C   UNL     1      -7.507  11.499  68.052  1.00  0.00    -0.098 A  
ENDROOT
BRANCH   8  12
HETATM   12  C   UNL     1     -11.248  11.505  67.660  1.00  0.00    -0.281 C  
HETATM   13  O   UNL     1     -12.235  11.177  68.315  1.00  0.00    -0.613 OA 
BRANCH  12  14
HETATM   14  C   UNL     1     -11.422  12.208  66.355  1.00  0.00    -0.430 A  
HETATM   15  C   UNL     1     -10.982  11.658  65.144  1.00  0.00    -0.326 A  
HETATM   16  C   UNL     1     -11.190  12.337  63.941  1.00  0.00    -0.488 A  
HETATM   17  C   UNL     1     -11.805  13.587  63.945  1.00  0.00    -0.460 A  
HETATM   18  C   UNL     1     -12.205  14.165  65.150  1.00  0.00    -0.439 A  
HETATM   19  C   UNL     1     -12.014  13.478  66.352  1.00  0.00    -0.459 A  
ENDBRANCH  12  14
ENDBRANCH   8  12
TORSDOF 2
ENDMDL
MODEL      121
REMARK 921   NORMALIZED FREE ENERGY PREDICTED BY IDOCK:   -4.51 KCAL/MOL
REMARK 922        TOTAL FREE ENERGY PREDICTED BY IDOCK:   -5.59 KCAL/MOL
REMARK 923 INTER-LIGAND FREE ENERGY PREDICTED BY IDOCK:   -5.00 KCAL/MOL
REMARK 924 INTRA-LIGAND FREE ENERGY PREDICTED BY IDOCK:   -0.59 KCAL/MOL
REMARK 927      BINDING AFFINITY PREDICTED BY RF-SCORE:    0.00 PKD
ROOT
HETATM    1  C   UNL     1      -8.670   9.969  67.006  1.00  0.00    -0.137 C  
HETATM    2  C   UNL     1      -9.851  10.730  67.612  1.00  0.00    -0.193 A  
HETATM    3  C   UNL     1      -8.109   8.825  67.855  1.00  0.00    -0.107 C  
HETATM    4  C   UNL     1      -7.490  10.870  66.645  1.00  0.00    -0.139 C  
HETATM    5  O   UNL     1      -7.207  11.833  67.554  1.00  0.00    -0.105 OA 
HETATM    6  O   UNL     1      -6.805  10.712  65.643  1.00  0.00    -0.131 OA 
HETATM    7  C   UNL     1     -10.354  11.861  66.940  1.00  0.00    -0.238 A  
HETATM    8  C   UNL     1     -11.357  12.657  67.515  1.00  0.00    -0.361 A  
HETATM    9  C   UNL     1     -11.952  12.258  68.712  1.00  0.00    -0.281 A  
HETATM   10  C   UNL     1     -10.459  10.357  68.820  1.00  0.00    -0.219 A  
HETATM   11  C   UNL     1     -11.510  11.106  69.358  1.00  0.00    -0.368 A  
ENDROOT
BRANCH   8  12
HETATM   12  C   UNL     1     -11.802  13.934  66.895  1.00  0.00    -0.423 C  
HETATM   13  O   UNL     1     -12.800  13.923  66.178  1.00  0.00    -0.384 OA 
BRANCH  12  14
HETATM   14  C   UNL     1     -11.087  15.219  67.154  1.00  0.00    -0.323 A  
HETATM   15  C   UNL     1     -11.364  16.017  68.272  1.00  0.00    -0.326 A  
HETATM   16  C   UNL     1     -10.653  17.199  68.491  1.00  0.00    -0.361 A  
HETATM   17  C   UNL     1      -9.688  17.611  67.575  1.00  0.00    -0.280 A  
HETATM   18  C   UNL     1      -9.437  16.848  66.435  1.00  0.00    -0.306 A  
HETATM   19  C   UNL     1     -10.135  15.656  66.224  1.00  0.00    -0.316 A  
ENDBRANCH  12  14
ENDBRANCH   8  12
TORSDOF 2
ENDMDL
MODEL      122
REMARK 921   NORMALIZED FREE ENERGY PREDICTED BY IDOCK:   -4.50 KCAL/MOL
REMARK 922        TOTAL FREE ENERGY PREDICTED BY IDOCK:   -5.57 KCAL/MOL
REMARK 923 INTER-LIGAND FREE ENERGY PREDICTED BY IDOCK:   -5.04 KCAL/MOL
REMARK 924 INTRA-LIGAND FREE ENERGY PREDICTED BY IDOCK:   -0.53 KCAL/MOL
REMARK 927      BINDING AFFINITY PREDICTED BY RF-SCORE:    0.00 PKD
ROOT
HETATM    1  C   UNL     1      -9.946  11.283  67.642  1.00  0.00    -0.197 C  
HETATM    2  C   UNL     1      -9.613  10.148  68.613  1.00  0.00    -0.165 A  
HETATM    3  C   UNL     1      -9.343  12.649  67.983  1.00  0.00    -0.209 C  
HETATM    4  C   UNL     1     -11.446  11.498  67.454  1.00  0.00    -0.274 C  
HETATM    5  O   UNL     1     -12.183  11.415  68.587  1.00  0.00    -0.532 OA 
HETATM    6  O   UNL     1     -11.955  11.782  66.377  1.00  0.00    -0.515 OA 
HETATM    7  C   UNL     1     -10.215   8.888  68.426  1.00  0.00    -0.231 A  
HETATM    8  C   UNL     1     -10.031   7.854  69.356  1.00  0.00    -0.189 A  
HETATM    9  C   UNL     1      -9.144   8.031  70.418  1.00  0.00    -0.150 A  
HETATM   10  C   UNL     1      -8.734  10.304  69.696  1.00  0.00    -0.125 A  
HETATM   11  C   UNL     1      -8.491   9.251  70.582  1.00  0.00    -0.258 A  
ENDROOT
BRANCH   8  12
HETATM   12  C   UNL     1     -10.769   6.566  69.259  1.00  0.00    -0.280 C  
HETATM   13  O   UNL     1     -11.784   6.418  69.936  1.00  0.00    -0.426 OA 
BRANCH  12  14
HETATM   14  C   UNL     1     -10.325   5.478  68.338  1.00  0.00    -0.243 A  
HETATM   15  C   UNL     1     -10.592   5.506  66.963  1.00  0.00    -0.332 A  
HETATM   16  C   UNL     1     -10.134   4.480  66.133  1.00  0.00    -0.282 A  
HETATM   17  C   UNL     1      -9.441   3.401  66.676  1.00  0.00    -0.151 A  
HETATM   18  C   UNL     1      -9.211   3.341  68.050  1.00  0.00    -0.243 A  
HETATM   19  C   UNL     1      -9.652   4.375  68.880  1.00  0.00    -0.233 A  
ENDBRANCH  12  14
ENDBRANCH   8  12
TORSDOF 2
ENDMDL
MODEL      123
REMARK 921   NORMALIZED FREE ENERGY PREDICTED BY IDOCK:   -4.49 KCAL/MOL
REMARK 922        TOTAL FREE ENERGY PREDICTED BY IDOCK:   -5.56 KCAL/MOL
REMARK 923 INTER-LIGAND FREE ENERGY PREDICTED BY IDOCK:   -5.08 KCAL/MOL
REMARK 924 INTRA-LIGAND FREE ENERGY PREDICTED BY IDOCK:   -0.48 KCAL/MOL
REMARK 927      BINDING AFFINITY PREDICTED BY RF-SCORE:    0.00 PKD
ROOT
HETATM    1  C   UNL     1      -7.950  17.133  68.294  1.00  0.00    -0.236 C  
HETATM    2  C   UNL     1      -8.993  16.731  67.250  1.00  0.00    -0.222 A  
HETATM    3  C   UNL     1      -7.642  18.630  68.385  1.00  0.00    -0.321 C  
HETATM    4  C   UNL     1      -6.611  16.418  68.119  1.00  0.00    -0.128 C  
HETATM    5  O   UNL     1      -6.191  16.295  66.837  1.00  0.00    -0.299 OA 
HETATM    6  O   UNL     1      -5.929  16.030  69.058  1.00  0.00    -0.119 OA 
HETATM    7  C   UNL     1      -9.253  15.364  67.032  1.00  0.00    -0.242 A  
HETATM    8  C   UNL     1     -10.114  14.946  66.006  1.00  0.00    -0.331 A  
HETATM    9  C   UNL     1     -10.818  15.896  65.266  1.00  0.00    -0.401 A  
HETATM   10  C   UNL     1      -9.705  17.667  66.484  1.00  0.00    -0.310 A  
HETATM   11  C   UNL     1     -10.620  17.253  65.511  1.00  0.00    -0.136 A  
ENDROOT
BRANCH   8  12
HETATM   12  C   UNL     1     -10.292  13.510  65.663  1.00  0.00    -0.297 C  
HETATM   13  O   UNL     1     -10.009  13.138  64.527  1.00  0.00    -0.254 OA 
BRANCH  12  14
HETATM   14  C   UNL     1     -10.768  12.518  66.672  1.00  0.00    -0.261 A  
HETATM   15  C   UNL     1     -11.494  12.896  67.810  1.00  0.00    -0.369 A  
HETATM   16  C   UNL     1     -11.944  11.933  68.715  1.00  0.00    -0.307 A  
HETATM   17  C   UNL     1     -11.640  10.589  68.511  1.00  0.00    -0.222 A  
HETATM   18  C   UNL     1     -10.879  10.206  67.406  1.00  0.00    -0.323 A  
HETATM   19  C   UNL     1     -10.443  11.167  66.490  1.00  0.00    -0.305 A  
ENDBRANCH  12  14
ENDBRANCH   8  12
TORSDOF 2
ENDMDL
MODEL      124
REMARK 921   NORMALIZED FREE ENERGY PREDICTED BY IDOCK:   -4.46 KCAL/MOL
REMARK 922        TOTAL FREE ENERGY PREDICTED BY IDOCK:   -5.53 KCAL/MOL
REMARK 923 INTER-LIGAND FREE ENERGY PREDICTED BY IDOCK:   -5.33 KCAL/MOL
REMARK 924 INTRA-LIGAND FREE ENERGY PREDICTED BY IDOCK:   -0.20 KCAL/MOL
REMARK 927      BINDING AFFINITY PREDICTED BY RF-SCORE:    0.00 PKD
ROOT
HETATM    1  C   UNL     1      -8.936   7.650  66.705  1.00  0.00    -0.166 C  
HETATM    2  C   UNL     1      -9.551   9.024  66.439  1.00  0.00    -0.309 A  
HETATM    3  C   UNL     1      -8.424   6.899  65.472  1.00  0.00    -0.122 C  
HETATM    4  C   UNL     1      -9.876   6.697  67.442  1.00  0.00    -0.131 C  
HETATM    5  O   UNL     1     -11.165   6.730  67.026  1.00  0.00    -0.393 OA 
HETATM    6  O   UNL     1      -9.500   5.915  68.305  1.00  0.00    -0.115 OA 
HETATM    7  C   UNL     1     -10.139   9.730  67.507  1.00  0.00    -0.246 A  
HETATM    8  C   UNL     1     -10.817  10.939  67.288  1.00  0.00    -0.342 A  
HETATM    9  C   UNL     1     -10.809  11.515  66.018  1.00  0.00    -0.330 A  
HETATM   10  C   UNL     1      -9.566   9.620  65.168  1.00  0.00    -0.324 A  
HETATM   11  C   UNL     1     -10.176  10.861  64.963  1.00  0.00    -0.367 A  
ENDROOT
BRANCH   8  12
HETATM   12  C   UNL     1     -11.569  11.628  68.371  1.00  0.00    -0.312 C  
HETATM   13  O   UNL     1     -12.497  11.031  68.913  1.00  0.00    -0.460 OA 
BRANCH  12  14
HETATM   14  C   UNL     1     -11.198  12.999  68.831  1.00  0.00    -0.326 A  
HETATM   15  C   UNL     1     -10.277  13.796  68.139  1.00  0.00    -0.253 A  
HETATM   16  C   UNL     1      -9.979  15.085  68.589  1.00  0.00    -0.220 A  
HETATM   17  C   UNL     1     -10.570  15.571  69.753  1.00  0.00    -0.301 A  
HETATM   18  C   UNL     1     -11.454  14.767  70.474  1.00  0.00    -0.300 A  
HETATM   19  C   UNL     1     -11.767  13.485  70.016  1.00  0.00    -0.311 A  
ENDBRANCH  12  14
ENDBRANCH   8  12
TORSDOF 2
ENDMDL
MODEL      125
REMARK 921   NORMALIZED FREE ENERGY PREDICTED BY IDOCK:   -4.44 KCAL/MOL
REMARK 922        TOTAL FREE ENERGY PREDICTED BY IDOCK:   -5.51 KCAL/MOL
REMARK 923 INTER-LIGAND FREE ENERGY PREDICTED BY IDOCK:   -5.09 KCAL/MOL
REMARK 924 INTRA-LIGAND FREE ENERGY PREDICTED BY IDOCK:   -0.42 KCAL/MOL
REMARK 927      BINDING AFFINITY PREDICTED BY RF-SCORE:    0.00 PKD
ROOT
HETATM    1  C   UNL     1      -9.224   6.913  68.617  1.00  0.00    -0.130 C  
HETATM    2  C   UNL     1      -8.689   8.139  67.876  1.00  0.00    -0.128 A  
HETATM    3  C   UNL     1      -8.417   5.624  68.438  1.00  0.00    -0.105 C  
HETATM    4  C   UNL     1     -10.673   6.578  68.268  1.00  0.00    -0.278 C  
HETATM    5  O   UNL     1     -10.988   6.696  66.956  1.00  0.00    -0.376 OA 
HETATM    6  O   UNL     1     -11.487   6.177  69.089  1.00  0.00    -0.379 OA 
HETATM    7  C   UNL     1      -9.433   9.336  67.905  1.00  0.00    -0.154 A  
HETATM    8  C   UNL     1      -9.042  10.449  67.145  1.00  0.00    -0.152 A  
HETATM    9  C   UNL     1      -7.836  10.417  66.445  1.00  0.00    -0.128 A  
HETATM   10  C   UNL     1      -7.486   8.130  67.154  1.00  0.00    -0.089 A  
HETATM   11  C   UNL     1      -7.056   9.263  66.458  1.00  0.00    -0.085 A  
ENDROOT
BRANCH   8  12
HETATM   12  C   UNL     1      -9.886  11.670  67.045  1.00  0.00    -0.193 C  
HETATM   13  O   UNL     1      -9.811  12.511  67.938  1.00  0.00    -0.195 OA 
BRANCH  12  14
HETATM   14  C   UNL     1     -10.784  11.906  65.876  1.00  0.00    -0.326 A  
HETATM   15  C   UNL     1     -11.928  12.711  65.962  1.00  0.00    -0.478 A  
HETATM   16  C   UNL     1     -12.727  12.928  64.837  1.00  0.00    -0.474 A  
HETATM   17  C   UNL     1     -12.410  12.312  63.628  1.00  0.00    -0.664 A  
HETATM   18  C   UNL     1     -11.299  11.472  63.544  1.00  0.00    -0.375 A  
HETATM   19  C   UNL     1     -10.489  11.268  64.664  1.00  0.00    -0.387 A  
ENDBRANCH  12  14
ENDBRANCH   8  12
TORSDOF 2
ENDMDL
MODEL      126
REMARK 921   NORMALIZED FREE ENERGY PREDICTED BY IDOCK:   -4.43 KCAL/MOL
REMARK 922        TOTAL FREE ENERGY PREDICTED BY IDOCK:   -5.49 KCAL/MOL
REMARK 923 INTER-LIGAND FREE ENERGY PREDICTED BY IDOCK:   -5.76 KCAL/MOL
REMARK 924 INTRA-LIGAND FREE ENERGY PREDICTED BY IDOCK:    0.27 KCAL/MOL
REMARK 927      BINDING AFFINITY PREDICTED BY RF-SCORE:    0.00 PKD
ROOT
HETATM    1  C   UNL     1     -10.014   7.143  71.379  1.00  0.00    -0.193 C  
HETATM    2  C   UNL     1     -10.370   8.126  70.263  1.00  0.00    -0.209 A  
HETATM    3  C   UNL     1      -9.634   5.730  70.925  1.00  0.00    -0.205 C  
HETATM    4  C   UNL     1     -11.117   6.987  72.424  1.00  0.00    -0.259 C  
HETATM    5  O   UNL     1     -12.375   6.930  71.925  1.00  0.00    -0.331 OA 
HETATM    6  O   UNL     1     -10.896   6.864  73.622  1.00  0.00    -0.315 OA 
HETATM    7  C   UNL     1     -10.832   9.413  70.605  1.00  0.00    -0.346 A  
HETATM    8  C   UNL     1     -11.280  10.305  69.620  1.00  0.00    -0.322 A  
HETATM    9  C   UNL     1     -11.156   9.966  68.272  1.00  0.00    -0.207 A  
HETATM   10  C   UNL     1     -10.266   7.804  68.901  1.00  0.00    -0.220 A  
HETATM   11  C   UNL     1     -10.641   8.721  67.915  1.00  0.00    -0.236 A  
ENDROOT
BRANCH   8  12
HETATM   12  C   UNL     1     -11.906  11.610  69.965  1.00  0.00    -0.355 C  
HETATM   13  O   UNL     1     -12.479  11.718  71.046  1.00  0.00    -0.372 OA 
BRANCH  12  14
HETATM   14  C   UNL     1     -11.821  12.785  69.048  1.00  0.00    -0.344 A  
HETATM   15  C   UNL     1     -11.718  12.644  67.657  1.00  0.00    -0.420 A  
HETATM   16  C   UNL     1     -11.668  13.771  66.834  1.00  0.00    -0.424 A  
HETATM   17  C   UNL     1     -11.682  15.045  67.395  1.00  0.00    -0.255 A  
HETATM   18  C   UNL     1     -11.738  15.196  68.781  1.00  0.00    -0.366 A  
HETATM   19  C   UNL     1     -11.806  14.070  69.606  1.00  0.00    -0.386 A  
ENDBRANCH  12  14
ENDBRANCH   8  12
TORSDOF 2
ENDMDL
MODEL      127
REMARK 921   NORMALIZED FREE ENERGY PREDICTED BY IDOCK:   -4.37 KCAL/MOL
REMARK 922        TOTAL FREE ENERGY PREDICTED BY IDOCK:   -5.43 KCAL/MOL
REMARK 923 INTER-LIGAND FREE ENERGY PREDICTED BY IDOCK:   -4.83 KCAL/MOL
REMARK 924 INTRA-LIGAND FREE ENERGY PREDICTED BY IDOCK:   -0.60 KCAL/MOL
REMARK 927      BINDING AFFINITY PREDICTED BY RF-SCORE:    0.00 PKD
ROOT
HETATM    1  C   UNL     1      -6.895  16.922  69.694  1.00  0.00    -0.014 C  
HETATM    2  C   UNL     1      -7.503  17.487  68.409  1.00  0.00    -0.247 A  
HETATM    3  C   UNL     1      -5.613  17.605  70.180  1.00  0.00    -0.248 C  
HETATM    4  C   UNL     1      -6.594  15.426  69.615  1.00  0.00    -0.178 C  
HETATM    5  O   UNL     1      -6.061  15.011  68.440  1.00  0.00    -0.091 OA 
HETATM    6  O   UNL     1      -6.763  14.656  70.551  1.00  0.00    -0.101 OA 
HETATM    7  C   UNL     1      -8.621  16.847  67.840  1.00  0.00    -0.208 A  
HETATM    8  C   UNL     1      -9.139  17.259  66.603  1.00  0.00    -0.286 A  
HETATM    9  C   UNL     1      -8.619  18.394  65.981  1.00  0.00    -0.018 A  
HETATM   10  C   UNL     1      -6.991  18.620  67.757  1.00  0.00    -0.223 A  
HETATM   11  C   UNL     1      -7.553  19.078  66.562  1.00  0.00    -0.264 A  
ENDROOT
BRANCH   8  12
HETATM   12  C   UNL     1     -10.224  16.510  65.914  1.00  0.00    -0.349 C  
HETATM   13  O   UNL     1     -10.779  17.034  64.951  1.00  0.00    -0.728 OA 
BRANCH  12  14
HETATM   14  C   UNL     1     -10.621  15.136  66.343  1.00  0.00    -0.305 A  
HETATM   15  C   UNL     1     -10.000  13.986  65.839  1.00  0.00    -0.325 A  
HETATM   16  C   UNL     1     -10.383  12.720  66.288  1.00  0.00    -0.271 A  
HETATM   17  C   UNL     1     -11.415  12.593  67.215  1.00  0.00    -0.402 A  
HETATM   18  C   UNL     1     -12.071  13.729  67.689  1.00  0.00    -0.333 A  
HETATM   19  C   UNL     1     -11.676  14.997  67.254  1.00  0.00    -0.238 A  
ENDBRANCH  12  14
ENDBRANCH   8  12
TORSDOF 2
ENDMDL
MODEL      128
REMARK 921   NORMALIZED FREE ENERGY PREDICTED BY IDOCK:   -4.31 KCAL/MOL
REMARK 922        TOTAL FREE ENERGY PREDICTED BY IDOCK:   -5.36 KCAL/MOL
REMARK 923 INTER-LIGAND FREE ENERGY PREDICTED BY IDOCK:   -4.90 KCAL/MOL
REMARK 924 INTRA-LIGAND FREE ENERGY PREDICTED BY IDOCK:   -0.46 KCAL/MOL
REMARK 927      BINDING AFFINITY PREDICTED BY RF-SCORE:    0.00 PKD
ROOT
HETATM    1  C   UNL     1      -7.829   9.141  66.226  1.00  0.00    -0.103 C  
HETATM    2  C   UNL     1      -8.906   9.771  67.111  1.00  0.00    -0.141 A  
HETATM    3  C   UNL     1      -7.874   9.530  64.745  1.00  0.00    -0.120 C  
HETATM    4  C   UNL     1      -7.817   7.614  66.280  1.00  0.00    -0.091 C  
HETATM    5  O   UNL     1      -9.040   7.031  66.280  1.00  0.00    -0.162 OA 
HETATM    6  O   UNL     1      -6.789   6.949  66.267  1.00  0.00    -0.060 OA 
HETATM    7  C   UNL     1      -8.995   9.381  68.462  1.00  0.00    -0.128 A  
HETATM    8  C   UNL     1     -10.037   9.843  69.280  1.00  0.00    -0.214 A  
HETATM    9  C   UNL     1     -10.930  10.796  68.789  1.00  0.00    -0.295 A  
HETATM   10  C   UNL     1      -9.823  10.722  66.638  1.00  0.00    -0.241 A  
HETATM   11  C   UNL     1     -10.816  11.240  67.473  1.00  0.00    -0.292 A  
ENDROOT
BRANCH   8  12
HETATM   12  C   UNL     1     -10.238   9.335  70.664  1.00  0.00    -0.272 C  
HETATM   13  O   UNL     1      -9.281   9.340  71.436  1.00  0.00    -0.282 OA 
BRANCH  12  14
HETATM   14  C   UNL     1     -11.571   8.857  71.136  1.00  0.00    -0.360 A  
HETATM   15  C   UNL     1     -11.987   7.528  70.984  1.00  0.00    -0.317 A  
HETATM   16  C   UNL     1     -13.232   7.117  71.465  1.00  0.00    -0.419 A  
HETATM   17  C   UNL     1     -14.085   8.038  72.068  1.00  0.00    -0.426 A  
HETATM   18  C   UNL     1     -13.699   9.374  72.183  1.00  0.00    -0.490 A  
HETATM   19  C   UNL     1     -12.447   9.783  71.719  1.00  0.00    -0.485 A  
ENDBRANCH  12  14
ENDBRANCH   8  12
TORSDOF 2
ENDMDL
MODEL      129
REMARK 921   NORMALIZED FREE ENERGY PREDICTED BY IDOCK:   -4.30 KCAL/MOL
REMARK 922        TOTAL FREE ENERGY PREDICTED BY IDOCK:   -5.35 KCAL/MOL
REMARK 923 INTER-LIGAND FREE ENERGY PREDICTED BY IDOCK:   -5.07 KCAL/MOL
REMARK 924 INTRA-LIGAND FREE ENERGY PREDICTED BY IDOCK:   -0.28 KCAL/MOL
REMARK 927      BINDING AFFINITY PREDICTED BY RF-SCORE:    0.00 PKD
ROOT
HETATM    1  C   UNL     1      -8.959  17.775  68.374  1.00  0.00    -0.281 C  
HETATM    2  C   UNL     1      -9.864  16.562  68.596  1.00  0.00    -0.250 A  
HETATM    3  C   UNL     1      -9.571  19.134  68.724  1.00  0.00    -0.474 C  
HETATM    4  C   UNL     1      -8.432  17.884  66.944  1.00  0.00    -0.244 C  
HETATM    5  O   UNL     1      -9.337  17.600  65.977  1.00  0.00    -0.494 OA 
HETATM    6  O   UNL     1      -7.297  18.254  66.673  1.00  0.00    -0.204 OA 
HETATM    7  C   UNL     1      -9.411  15.288  68.199  1.00  0.00    -0.203 A  
HETATM    8  C   UNL     1     -10.251  14.166  68.275  1.00  0.00    -0.243 A  
HETATM    9  C   UNL     1     -11.510  14.285  68.864  1.00  0.00    -0.318 A  
HETATM   10  C   UNL     1     -11.139  16.657  69.174  1.00  0.00    -0.219 A  
HETATM   11  C   UNL     1     -11.949  15.527  69.320  1.00  0.00    -0.338 A  
ENDROOT
BRANCH   8  12
HETATM   12  C   UNL     1      -9.849  12.842  67.728  1.00  0.00    -0.221 C  
HETATM   13  O   UNL     1      -9.621  12.749  66.524  1.00  0.00    -0.247 OA 
BRANCH  12  14
HETATM   14  C   UNL     1      -9.685  11.649  68.610  1.00  0.00    -0.151 A  
HETATM   15  C   UNL     1     -10.731  11.153  69.401  1.00  0.00    -0.220 A  
HETATM   16  C   UNL     1     -10.543  10.017  70.191  1.00  0.00    -0.350 A  
HETATM   17  C   UNL     1      -9.299   9.391  70.227  1.00  0.00    -0.294 A  
HETATM   18  C   UNL     1      -8.239   9.904  69.479  1.00  0.00    -0.163 A  
HETATM   19  C   UNL     1      -8.430  11.030  68.674  1.00  0.00    -0.157 A  
ENDBRANCH  12  14
ENDBRANCH   8  12
TORSDOF 2
ENDMDL
MODEL      130
REMARK 921   NORMALIZED FREE ENERGY PREDICTED BY IDOCK:   -4.28 KCAL/MOL
REMARK 922        TOTAL FREE ENERGY PREDICTED BY IDOCK:   -5.32 KCAL/MOL
REMARK 923 INTER-LIGAND FREE ENERGY PREDICTED BY IDOCK:   -5.08 KCAL/MOL
REMARK 924 INTRA-LIGAND FREE ENERGY PREDICTED BY IDOCK:   -0.24 KCAL/MOL
REMARK 927      BINDING AFFINITY PREDICTED BY RF-SCORE:    0.00 PKD
ROOT
HETATM    1  C   UNL     1     -12.639  14.686  69.479  1.00  0.00    -0.039 C  
HETATM    2  C   UNL     1     -11.926  13.334  69.422  1.00  0.00    -0.356 A  
HETATM    3  C   UNL     1     -11.836  15.884  68.964  1.00  0.00    -0.328 C  
HETATM    4  C   UNL     1     -13.129  15.054  70.879  1.00  0.00    -0.406 C  
HETATM    5  O   UNL     1     -12.266  14.764  71.882  1.00  0.00    -0.332 OA 
HETATM    6  O   UNL     1     -14.193  15.620  71.091  1.00  0.00    -0.514 OA 
HETATM    7  C   UNL     1     -12.558  12.202  69.974  1.00  0.00     0.087 A  
HETATM    8  C   UNL     1     -11.895  10.968  70.049  1.00  0.00    -0.435 A  
HETATM    9  C   UNL     1     -10.639  10.823  69.460  1.00  0.00    -0.235 A  
HETATM   10  C   UNL     1     -10.657  13.164  68.846  1.00  0.00    -0.159 A  
HETATM   11  C   UNL     1     -10.026  11.917  68.853  1.00  0.00    -0.024 A  
ENDROOT
BRANCH   8  12
HETATM   12  C   UNL     1     -12.483   9.799  70.757  1.00  0.00    -0.213 C  
HETATM   13  O   UNL     1     -13.705   9.737  70.873  1.00  0.00    -0.238 OA 
BRANCH  12  14
HETATM   14  C   UNL     1     -11.629   8.697  71.290  1.00  0.00    -0.340 A  
HETATM   15  C   UNL     1     -10.450   8.943  72.005  1.00  0.00    -0.383 A  
HETATM   16  C   UNL     1      -9.695   7.882  72.510  1.00  0.00    -0.290 A  
HETATM   17  C   UNL     1     -10.091   6.569  72.272  1.00  0.00    -0.191 A  
HETATM   18  C   UNL     1     -11.239   6.312  71.521  1.00  0.00    -0.344 A  
HETATM   19  C   UNL     1     -12.005   7.372  71.030  1.00  0.00    -0.337 A  
ENDBRANCH  12  14
ENDBRANCH   8  12
TORSDOF 2
ENDMDL
MODEL      131
REMARK 921   NORMALIZED FREE ENERGY PREDICTED BY IDOCK:   -4.26 KCAL/MOL
REMARK 922        TOTAL FREE ENERGY PREDICTED BY IDOCK:   -5.31 KCAL/MOL
REMARK 923 INTER-LIGAND FREE ENERGY PREDICTED BY IDOCK:   -4.71 KCAL/MOL
REMARK 924 INTRA-LIGAND FREE ENERGY PREDICTED BY IDOCK:   -0.60 KCAL/MOL
REMARK 927      BINDING AFFINITY PREDICTED BY RF-SCORE:    0.00 PKD
ROOT
HETATM    1  C   UNL     1     -11.943  13.348  66.013  1.00  0.00    -0.460 C  
HETATM    2  C   UNL     1     -11.164  12.070  65.697  1.00  0.00    -0.377 A  
HETATM    3  C   UNL     1     -12.125  14.321  64.845  1.00  0.00    -0.442 C  
HETATM    4  C   UNL     1     -11.347  14.151  67.167  1.00  0.00    -0.332 C  
HETATM    5  O   UNL     1      -9.995  14.232  67.170  1.00  0.00    -0.248 OA 
HETATM    6  O   UNL     1     -12.026  14.732  68.003  1.00  0.00    -0.316 OA 
HETATM    7  C   UNL     1     -10.864  11.174  66.743  1.00  0.00    -0.322 A  
HETATM    8  C   UNL     1     -10.054  10.051  66.522  1.00  0.00    -0.296 A  
HETATM    9  C   UNL     1      -9.636   9.744  65.227  1.00  0.00    -0.368 A  
HETATM   10  C   UNL     1     -10.723  11.745  64.405  1.00  0.00    -0.381 A  
HETATM   11  C   UNL     1      -9.978  10.585  64.170  1.00  0.00    -0.385 A  
ENDROOT
BRANCH   8  12
HETATM   12  C   UNL     1      -9.604   9.173  67.636  1.00  0.00    -0.149 C  
HETATM   13  O   UNL     1     -10.455   8.606  68.318  1.00  0.00    -0.218 OA 
BRANCH  12  14
HETATM   14  C   UNL     1      -8.155   8.942  67.914  1.00  0.00    -0.106 A  
HETATM   15  C   UNL     1      -7.604   7.656  67.993  1.00  0.00    -0.110 A  
HETATM   16  C   UNL     1      -6.237   7.486  68.228  1.00  0.00    -0.036 A  
HETATM   17  C   UNL     1      -5.420   8.597  68.423  1.00  0.00    -0.038 A  
HETATM   18  C   UNL     1      -5.967   9.880  68.391  1.00  0.00    -0.042 A  
HETATM   19  C   UNL     1      -7.331  10.053  68.139  1.00  0.00    -0.083 A  
ENDBRANCH  12  14
ENDBRANCH   8  12
TORSDOF 2
ENDMDL
MODEL      132
REMARK 921   NORMALIZED FREE ENERGY PREDICTED BY IDOCK:   -4.24 KCAL/MOL
REMARK 922        TOTAL FREE ENERGY PREDICTED BY IDOCK:   -5.28 KCAL/MOL
REMARK 923 INTER-LIGAND FREE ENERGY PREDICTED BY IDOCK:   -4.78 KCAL/MOL
REMARK 924 INTRA-LIGAND FREE ENERGY PREDICTED BY IDOCK:   -0.50 KCAL/MOL
REMARK 927      BINDING AFFINITY PREDICTED BY RF-SCORE:    0.00 PKD
ROOT
HETATM    1  C   UNL     1      -9.315  11.733  67.124  1.00  0.00    -0.178 C  
HETATM    2  C   UNL     1     -10.278  12.451  68.071  1.00  0.00    -0.219 A  
HETATM    3  C   UNL     1      -9.487  10.215  67.025  1.00  0.00    -0.197 C  
HETATM    4  C   UNL     1      -7.844  11.989  67.447  1.00  0.00    -0.162 C  
HETATM    5  O   UNL     1      -7.538  11.981  68.767  1.00  0.00    -0.117 OA 
HETATM    6  O   UNL     1      -6.983  12.135  66.590  1.00  0.00     0.028 OA 
HETATM    7  C   UNL     1     -10.115  13.832  68.297  1.00  0.00    -0.239 A  
HETATM    8  C   UNL     1     -10.899  14.507  69.244  1.00  0.00    -0.270 A  
HETATM    9  C   UNL     1     -11.938  13.833  69.887  1.00  0.00    -0.412 A  
HETATM   10  C   UNL     1     -11.323  11.793  68.738  1.00  0.00    -0.325 A  
HETATM   11  C   UNL     1     -12.154  12.481  69.627  1.00  0.00    -0.272 A  
ENDROOT
BRANCH   8  12
HETATM   12  C   UNL     1     -10.649  15.928  69.605  1.00  0.00    -0.301 C  
HETATM   13  O   UNL     1     -11.058  16.340  70.689  1.00  0.00    -0.341 OA 
BRANCH  12  14
HETATM   14  C   UNL     1      -9.889  16.842  68.702  1.00  0.00    -0.270 A  
HETATM   15  C   UNL     1      -8.488  16.849  68.651  1.00  0.00    -0.260 A  
HETATM   16  C   UNL     1      -7.817  17.702  67.772  1.00  0.00    -0.211 A  
HETATM   17  C   UNL     1      -8.538  18.580  66.965  1.00  0.00    -0.273 A  
HETATM   18  C   UNL     1      -9.931  18.613  67.042  1.00  0.00    -0.368 A  
HETATM   19  C   UNL     1     -10.604  17.748  67.909  1.00  0.00    -0.389 A  
ENDBRANCH  12  14
ENDBRANCH   8  12
TORSDOF 2
ENDMDL
MODEL      133
REMARK 921   NORMALIZED FREE ENERGY PREDICTED BY IDOCK:   -4.22 KCAL/MOL
REMARK 922        TOTAL FREE ENERGY PREDICTED BY IDOCK:   -5.26 KCAL/MOL
REMARK 923 INTER-LIGAND FREE ENERGY PREDICTED BY IDOCK:   -4.94 KCAL/MOL
REMARK 924 INTRA-LIGAND FREE ENERGY PREDICTED BY IDOCK:   -0.32 KCAL/MOL
REMARK 927      BINDING AFFINITY PREDICTED BY RF-SCORE:    0.00 PKD
ROOT
HETATM    1  C   UNL     1      -9.968  10.431  69.248  1.00  0.00    -0.246 C  
HETATM    2  C   UNL     1     -10.845   9.911  70.388  1.00  0.00    -0.380 A  
HETATM    3  C   UNL     1     -10.649  11.391  68.269  1.00  0.00    -0.224 C  
HETATM    4  C   UNL     1      -9.341   9.319  68.410  1.00  0.00    -0.138 C  
HETATM    5  O   UNL     1     -10.162   8.277  68.135  1.00  0.00    -0.197 OA 
HETATM    6  O   UNL     1      -8.202   9.373  67.964  1.00  0.00    -0.113 OA 
HETATM    7  C   UNL     1     -10.323   8.943  71.268  1.00  0.00    -0.355 A  
HETATM    8  C   UNL     1     -11.128   8.353  72.254  1.00  0.00    -0.438 A  
HETATM    9  C   UNL     1     -12.430   8.814  72.449  1.00  0.00    -0.421 A  
HETATM   10  C   UNL     1     -12.162  10.350  70.598  1.00  0.00    -0.441 A  
HETATM   11  C   UNL     1     -12.942   9.816  71.628  1.00  0.00    -0.517 A  
ENDROOT
BRANCH   8  12
HETATM   12  C   UNL     1     -10.643   7.228  73.098  1.00  0.00    -0.355 C  
HETATM   13  O   UNL     1     -10.659   7.361  74.320  1.00  0.00    -0.039 OA 
BRANCH  12  14
HETATM   14  C   UNL     1     -10.176   5.944  72.497  1.00  0.00    -0.214 A  
HETATM   15  C   UNL     1     -10.765   4.712  72.812  1.00  0.00    -0.273 A  
HETATM   16  C   UNL     1     -10.316   3.537  72.206  1.00  0.00    -0.125 A  
HETATM   17  C   UNL     1      -9.250   3.579  71.310  1.00  0.00    -0.195 A  
HETATM   18  C   UNL     1      -8.627   4.794  71.024  1.00  0.00    -0.126 A  
HETATM   19  C   UNL     1      -9.087   5.973  71.616  1.00  0.00    -0.147 A  
ENDBRANCH  12  14
ENDBRANCH   8  12
TORSDOF 2
ENDMDL
MODEL      134
REMARK 921   NORMALIZED FREE ENERGY PREDICTED BY IDOCK:   -4.22 KCAL/MOL
REMARK 922        TOTAL FREE ENERGY PREDICTED BY IDOCK:   -5.26 KCAL/MOL
REMARK 923 INTER-LIGAND FREE ENERGY PREDICTED BY IDOCK:   -4.91 KCAL/MOL
REMARK 924 INTRA-LIGAND FREE ENERGY PREDICTED BY IDOCK:   -0.35 KCAL/MOL
REMARK 927      BINDING AFFINITY PREDICTED BY RF-SCORE:    0.00 PKD
ROOT
HETATM    1  C   UNL     1     -12.094  12.179  64.944  1.00  0.00    -0.342 C  
HETATM    2  C   UNL     1     -10.665  11.688  65.185  1.00  0.00    -0.351 A  
HETATM    3  C   UNL     1     -12.723  11.767  63.610  1.00  0.00    -0.407 C  
HETATM    4  C   UNL     1     -12.239  13.696  65.049  1.00  0.00    -0.421 C  
HETATM    5  O   UNL     1     -11.235  14.408  64.484  1.00  0.00    -0.364 OA 
HETATM    6  O   UNL     1     -13.211  14.245  65.552  1.00  0.00    -0.641 OA 
HETATM    7  C   UNL     1      -9.981  12.113  66.341  1.00  0.00    -0.243 A  
HETATM    8  C   UNL     1      -8.632  11.784  66.544  1.00  0.00    -0.148 A  
HETATM    9  C   UNL     1      -7.990  10.923  65.654  1.00  0.00    -0.037 A  
HETATM   10  C   UNL     1      -9.993  10.832  64.299  1.00  0.00    -0.403 A  
HETATM   11  C   UNL     1      -8.673  10.442  64.539  1.00  0.00    -0.205 A  
ENDROOT
BRANCH   8  12
HETATM   12  C   UNL     1      -7.848  12.339  67.680  1.00  0.00    -0.156 C  
HETATM   13  O   UNL     1      -7.170  11.570  68.358  1.00  0.00    -0.077 OA 
BRANCH  12  14
HETATM   14  C   UNL     1      -7.842  13.800  67.986  1.00  0.00    -0.152 A  
HETATM   15  C   UNL     1      -8.343  14.755  67.090  1.00  0.00    -0.240 A  
HETATM   16  C   UNL     1      -8.344  16.110  67.427  1.00  0.00    -0.191 A  
HETATM   17  C   UNL     1      -7.810  16.525  68.644  1.00  0.00    -0.226 A  
HETATM   18  C   UNL     1      -7.267  15.588  69.524  1.00  0.00    -0.201 A  
HETATM   19  C   UNL     1      -7.282  14.230  69.196  1.00  0.00    -0.104 A  
ENDBRANCH  12  14
ENDBRANCH   8  12
TORSDOF 2
ENDMDL
MODEL      135
REMARK 921   NORMALIZED FREE ENERGY PREDICTED BY IDOCK:   -4.20 KCAL/MOL
REMARK 922        TOTAL FREE ENERGY PREDICTED BY IDOCK:   -5.24 KCAL/MOL
REMARK 923 INTER-LIGAND FREE ENERGY PREDICTED BY IDOCK:   -4.65 KCAL/MOL
REMARK 924 INTRA-LIGAND FREE ENERGY PREDICTED BY IDOCK:   -0.59 KCAL/MOL
REMARK 927      BINDING AFFINITY PREDICTED BY RF-SCORE:    0.00 PKD
ROOT
HETATM    1  C   UNL     1     -10.283  10.676  66.212  1.00  0.00    -0.304 C  
HETATM    2  C   UNL     1      -9.280  11.385  67.123  1.00  0.00    -0.170 A  
HETATM    3  C   UNL     1     -10.378   9.157  66.382  1.00  0.00    -0.235 C  
HETATM    4  C   UNL     1     -10.043  10.938  64.726  1.00  0.00    -0.321 C  
HETATM    5  O   UNL     1      -8.743  10.927  64.346  1.00  0.00    -0.128 OA 
HETATM    6  O   UNL     1     -10.947  11.092  63.916  1.00  0.00    -0.374 OA 
HETATM    7  C   UNL     1      -9.059  12.766  66.954  1.00  0.00    -0.221 A  
HETATM    8  C   UNL     1      -8.066  13.434  67.687  1.00  0.00    -0.175 A  
HETATM    9  C   UNL     1      -7.368  12.752  68.684  1.00  0.00    -0.099 A  
HETATM   10  C   UNL     1      -8.557  10.719  68.125  1.00  0.00    -0.129 A  
HETATM   11  C   UNL     1      -7.620  11.400  68.908  1.00  0.00    -0.114 A  
ENDROOT
BRANCH   8  12
HETATM   12  C   UNL     1      -7.715  14.855  67.424  1.00  0.00    -0.204 C  
HETATM   13  O   UNL     1      -6.553  15.128  67.131  1.00  0.00    -0.285 OA 
BRANCH  12  14
HETATM   14  C   UNL     1      -8.742  15.937  67.473  1.00  0.00    -0.189 A  
HETATM   15  C   UNL     1      -9.245  16.437  68.681  1.00  0.00    -0.231 A  
HETATM   16  C   UNL     1     -10.186  17.470  68.683  1.00  0.00    -0.373 A  
HETATM   17  C   UNL     1     -10.659  17.983  67.478  1.00  0.00    -0.402 A  
HETATM   18  C   UNL     1     -10.199  17.460  66.269  1.00  0.00    -0.344 A  
HETATM   19  C   UNL     1      -9.244  16.440  66.265  1.00  0.00    -0.350 A  
ENDBRANCH  12  14
ENDBRANCH   8  12
TORSDOF 2
ENDMDL
MODEL      136
REMARK 921   NORMALIZED FREE ENERGY PREDICTED BY IDOCK:   -4.20 KCAL/MOL
REMARK 922        TOTAL FREE ENERGY PREDICTED BY IDOCK:   -5.24 KCAL/MOL
REMARK 923 INTER-LIGAND FREE ENERGY PREDICTED BY IDOCK:   -4.71 KCAL/MOL
REMARK 924 INTRA-LIGAND FREE ENERGY PREDICTED BY IDOCK:   -0.53 KCAL/MOL
REMARK 927      BINDING AFFINITY PREDICTED BY RF-SCORE:    0.00 PKD
ROOT
HETATM    1  C   UNL     1     -10.071   5.915  66.622  1.00  0.00    -0.229 C  
HETATM    2  C   UNL     1     -10.227   7.315  67.217  1.00  0.00    -0.323 A  
HETATM    3  C   UNL     1     -10.165   4.754  67.617  1.00  0.00    -0.096 C  
HETATM    4  C   UNL     1      -8.767   5.726  65.848  1.00  0.00    -0.149 C  
HETATM    5  O   UNL     1      -7.674   6.280  66.426  1.00  0.00    -0.096 OA 
HETATM    6  O   UNL     1      -8.687   5.079  64.813  1.00  0.00    -0.151 OA 
HETATM    7  C   UNL     1     -10.047   8.437  66.384  1.00  0.00    -0.242 A  
HETATM    8  C   UNL     1     -10.065   9.738  66.909  1.00  0.00    -0.287 A  
HETATM    9  C   UNL     1     -10.384   9.935  68.253  1.00  0.00    -0.232 A  
HETATM   10  C   UNL     1     -10.535   7.540  68.567  1.00  0.00    -0.211 A  
HETATM   11  C   UNL     1     -10.628   8.838  69.077  1.00  0.00    -0.191 A  
ENDROOT
BRANCH   8  12
HETATM   12  C   UNL     1      -9.734  10.928  66.080  1.00  0.00    -0.224 C  
HETATM   13  O   UNL     1      -8.902  10.806  65.184  1.00  0.00    -0.195 OA 
BRANCH  12  14
HETATM   14  C   UNL     1     -10.413  12.241  66.290  1.00  0.00    -0.266 A  
HETATM   15  C   UNL     1      -9.810  13.291  66.995  1.00  0.00    -0.242 A  
HETATM   16  C   UNL     1     -10.469  14.513  67.145  1.00  0.00    -0.267 A  
HETATM   17  C   UNL     1     -11.750  14.682  66.625  1.00  0.00    -0.345 A  
HETATM   18  C   UNL     1     -12.378  13.628  65.961  1.00  0.00    -0.493 A  
HETATM   19  C   UNL     1     -11.713  12.410  65.794  1.00  0.00    -0.470 A  
ENDBRANCH  12  14
ENDBRANCH   8  12
TORSDOF 2
ENDMDL
MODEL      137
REMARK 921   NORMALIZED FREE ENERGY PREDICTED BY IDOCK:   -4.18 KCAL/MOL
REMARK 922        TOTAL FREE ENERGY PREDICTED BY IDOCK:   -5.21 KCAL/MOL
REMARK 923 INTER-LIGAND FREE ENERGY PREDICTED BY IDOCK:   -4.66 KCAL/MOL
REMARK 924 INTRA-LIGAND FREE ENERGY PREDICTED BY IDOCK:   -0.55 KCAL/MOL
REMARK 927      BINDING AFFINITY PREDICTED BY RF-SCORE:    0.00 PKD
ROOT
HETATM    1  C   UNL     1      -9.925  11.381  67.847  1.00  0.00    -0.190 C  
HETATM    2  C   UNL     1      -9.477  10.204  68.715  1.00  0.00    -0.171 A  
HETATM    3  C   UNL     1      -9.259  12.725  68.153  1.00  0.00    -0.212 C  
HETATM    4  C   UNL     1     -11.434  11.619  67.881  1.00  0.00    -0.311 C  
HETATM    5  O   UNL     1     -12.005  11.496  69.103  1.00  0.00    -0.321 OA 
HETATM    6  O   UNL     1     -12.084  11.951  66.899  1.00  0.00    -0.599 OA 
HETATM    7  C   UNL     1     -10.119   8.959  68.566  1.00  0.00    -0.209 A  
HETATM    8  C   UNL     1      -9.821   7.885  69.419  1.00  0.00    -0.180 A  
HETATM    9  C   UNL     1      -8.791   8.010  70.352  1.00  0.00    -0.141 A  
HETATM   10  C   UNL     1      -8.452  10.307  69.669  1.00  0.00    -0.132 A  
HETATM   11  C   UNL     1      -8.103   9.215  70.469  1.00  0.00    -0.182 A  
ENDROOT
BRANCH   8  12
HETATM   12  C   UNL     1     -10.586   6.610  69.377  1.00  0.00    -0.240 C  
HETATM   13  O   UNL     1     -11.109   6.274  68.317  1.00  0.00    -0.324 OA 
BRANCH  12  14
HETATM   14  C   UNL     1     -10.697   5.724  70.574  1.00  0.00    -0.361 A  
HETATM   15  C   UNL     1      -9.929   4.561  70.718  1.00  0.00    -0.269 A  
HETATM   16  C   UNL     1     -10.044   3.775  71.867  1.00  0.00    -0.194 A  
HETATM   17  C   UNL     1     -10.954   4.125  72.861  1.00  0.00    -0.178 A  
HETATM   18  C   UNL     1     -11.756   5.255  72.707  1.00  0.00    -0.214 A  
HETATM   19  C   UNL     1     -11.630   6.052  71.566  1.00  0.00    -0.238 A  
ENDBRANCH  12  14
ENDBRANCH   8  12
TORSDOF 2
ENDMDL
MODEL      138
REMARK 921   NORMALIZED FREE ENERGY PREDICTED BY IDOCK:   -4.16 KCAL/MOL
REMARK 922        TOTAL FREE ENERGY PREDICTED BY IDOCK:   -5.19 KCAL/MOL
REMARK 923 INTER-LIGAND FREE ENERGY PREDICTED BY IDOCK:   -4.60 KCAL/MOL
REMARK 924 INTRA-LIGAND FREE ENERGY PREDICTED BY IDOCK:   -0.59 KCAL/MOL
REMARK 927      BINDING AFFINITY PREDICTED BY RF-SCORE:    0.00 PKD
ROOT
HETATM    1  C   UNL     1     -10.224  10.561  66.594  1.00  0.00    -0.289 C  
HETATM    2  C   UNL     1      -9.541   9.290  67.101  1.00  0.00    -0.208 A  
HETATM    3  C   UNL     1      -9.324  11.547  65.844  1.00  0.00    -0.242 C  
HETATM    4  C   UNL     1     -10.924  11.355  67.696  1.00  0.00    -0.250 C  
HETATM    5  O   UNL     1     -10.238  11.441  68.862  1.00  0.00    -0.207 OA 
HETATM    6  O   UNL     1     -11.996  11.923  67.538  1.00  0.00    -0.586 OA 
HETATM    7  C   UNL     1     -10.277   8.385  67.890  1.00  0.00    -0.273 A  
HETATM    8  C   UNL     1      -9.661   7.267  68.474  1.00  0.00    -0.149 A  
HETATM    9  C   UNL     1      -8.330   6.977  68.173  1.00  0.00    -0.123 A  
HETATM   10  C   UNL     1      -8.200   8.982  66.822  1.00  0.00    -0.115 A  
HETATM   11  C   UNL     1      -7.605   7.828  67.341  1.00  0.00    -0.105 A  
ENDROOT
BRANCH   8  12
HETATM   12  C   UNL     1     -10.380   6.379  69.427  1.00  0.00    -0.209 C  
HETATM   13  O   UNL     1     -10.903   5.355  68.994  1.00  0.00    -0.170 OA 
BRANCH  12  14
HETATM   14  C   UNL     1     -10.446   6.688  70.886  1.00  0.00    -0.249 A  
HETATM   15  C   UNL     1     -11.450   7.497  71.435  1.00  0.00    -0.291 A  
HETATM   16  C   UNL     1     -11.491   7.738  72.810  1.00  0.00    -0.415 A  
HETATM   17  C   UNL     1     -10.508   7.205  73.640  1.00  0.00    -0.412 A  
HETATM   18  C   UNL     1      -9.478   6.437  73.098  1.00  0.00    -0.146 A  
HETATM   19  C   UNL     1      -9.446   6.180  71.725  1.00  0.00    -0.162 A  
ENDBRANCH  12  14
ENDBRANCH   8  12
TORSDOF 2
ENDMDL
MODEL      139
REMARK 921   NORMALIZED FREE ENERGY PREDICTED BY IDOCK:   -4.15 KCAL/MOL
REMARK 922        TOTAL FREE ENERGY PREDICTED BY IDOCK:   -5.18 KCAL/MOL
REMARK 923 INTER-LIGAND FREE ENERGY PREDICTED BY IDOCK:   -4.62 KCAL/MOL
REMARK 924 INTRA-LIGAND FREE ENERGY PREDICTED BY IDOCK:   -0.56 KCAL/MOL
REMARK 927      BINDING AFFINITY PREDICTED BY RF-SCORE:    0.00 PKD
ROOT
HETATM    1  C   UNL     1      -8.984   8.114  68.483  1.00  0.00    -0.137 C  
HETATM    2  C   UNL     1      -9.018   9.206  67.412  1.00  0.00    -0.128 A  
HETATM    3  C   UNL     1      -7.993   6.973  68.239  1.00  0.00    -0.123 C  
HETATM    4  C   UNL     1     -10.346   7.469  68.735  1.00  0.00    -0.200 C  
HETATM    5  O   UNL     1     -11.077   7.223  67.621  1.00  0.00    -0.139 OA 
HETATM    6  O   UNL     1     -10.739   7.140  69.846  1.00  0.00    -0.227 OA 
HETATM    7  C   UNL     1      -9.977  10.233  67.511  1.00  0.00    -0.226 A  
HETATM    8  C   UNL     1     -10.122  11.188  66.493  1.00  0.00    -0.265 A  
HETATM    9  C   UNL     1      -9.228  11.196  65.422  1.00  0.00    -0.225 A  
HETATM   10  C   UNL     1      -8.138   9.230  66.319  1.00  0.00    -0.107 A  
HETATM   11  C   UNL     1      -8.233  10.225  65.341  1.00  0.00    -0.156 A  
ENDROOT
BRANCH   8  12
HETATM   12  C   UNL     1     -11.220  12.192  66.505  1.00  0.00    -0.328 C  
HETATM   13  O   UNL     1     -12.178  12.024  65.754  1.00  0.00    -0.520 OA 
BRANCH  12  14
HETATM   14  C   UNL     1     -11.195  13.366  67.426  1.00  0.00    -0.311 A  
HETATM   15  C   UNL     1     -11.978  13.424  68.587  1.00  0.00    -0.362 A  
HETATM   16  C   UNL     1     -11.904  14.530  69.437  1.00  0.00    -0.367 A  
HETATM   17  C   UNL     1     -11.077  15.603  69.113  1.00  0.00    -0.284 A  
HETATM   18  C   UNL     1     -10.328  15.576  67.936  1.00  0.00    -0.250 A  
HETATM   19  C   UNL     1     -10.387  14.462  67.094  1.00  0.00    -0.262 A  
ENDBRANCH  12  14
ENDBRANCH   8  12
TORSDOF 2
ENDMDL
MODEL      140
REMARK 921   NORMALIZED FREE ENERGY PREDICTED BY IDOCK:   -4.14 KCAL/MOL
REMARK 922        TOTAL FREE ENERGY PREDICTED BY IDOCK:   -5.17 KCAL/MOL
REMARK 923 INTER-LIGAND FREE ENERGY PREDICTED BY IDOCK:   -4.79 KCAL/MOL
REMARK 924 INTRA-LIGAND FREE ENERGY PREDICTED BY IDOCK:   -0.38 KCAL/MOL
REMARK 927      BINDING AFFINITY PREDICTED BY RF-SCORE:    0.00 PKD
ROOT
HETATM    1  C   UNL     1     -12.850   8.625  71.525  1.00  0.00    -0.351 C  
HETATM    2  C   UNL     1     -12.334   9.876  70.811  1.00  0.00    -0.363 A  
HETATM    3  C   UNL     1     -13.803   8.874  72.698  1.00  0.00    -0.393 C  
HETATM    4  C   UNL     1     -11.734   7.722  72.047  1.00  0.00    -0.304 C  
HETATM    5  O   UNL     1     -10.689   8.373  72.613  1.00  0.00    -0.339 OA 
HETATM    6  O   UNL     1     -11.789   6.500  72.018  1.00  0.00    -0.308 OA 
HETATM    7  C   UNL     1     -11.373   9.735  69.791  1.00  0.00    -0.201 A  
HETATM    8  C   UNL     1     -10.786  10.859  69.190  1.00  0.00    -0.280 A  
HETATM    9  C   UNL     1     -11.245  12.135  69.518  1.00  0.00    -0.201 A  
HETATM   10  C   UNL     1     -12.771  11.171  71.130  1.00  0.00    -0.510 A  
HETATM   11  C   UNL     1     -12.241  12.289  70.479  1.00  0.00    -0.387 A  
ENDROOT
BRANCH   8  12
HETATM   12  C   UNL     1      -9.667  10.739  68.217  1.00  0.00    -0.164 C  
HETATM   13  O   UNL     1      -9.235  11.762  67.690  1.00  0.00    -0.172 OA 
BRANCH  12  14
HETATM   14  C   UNL     1      -9.044   9.420  67.900  1.00  0.00    -0.136 A  
HETATM   15  C   UNL     1      -9.758   8.384  67.281  1.00  0.00    -0.240 A  
HETATM   16  C   UNL     1      -9.129   7.175  66.978  1.00  0.00    -0.149 A  
HETATM   17  C   UNL     1      -7.794   6.977  67.325  1.00  0.00    -0.110 A  
HETATM   18  C   UNL     1      -7.088   7.985  67.983  1.00  0.00    -0.086 A  
HETATM   19  C   UNL     1      -7.711   9.202  68.271  1.00  0.00    -0.091 A  
ENDBRANCH  12  14
ENDBRANCH   8  12
TORSDOF 2
ENDMDL
MODEL      141
REMARK 921   NORMALIZED FREE ENERGY PREDICTED BY IDOCK:   -4.12 KCAL/MOL
REMARK 922        TOTAL FREE ENERGY PREDICTED BY IDOCK:   -5.15 KCAL/MOL
REMARK 923 INTER-LIGAND FREE ENERGY PREDICTED BY IDOCK:   -4.59 KCAL/MOL
REMARK 924 INTRA-LIGAND FREE ENERGY PREDICTED BY IDOCK:   -0.56 KCAL/MOL
REMARK 927      BINDING AFFINITY PREDICTED BY RF-SCORE:    0.00 PKD
ROOT
HETATM    1  C   UNL     1     -11.469  10.530  70.608  1.00  0.00    -0.418 C  
HETATM    2  C   UNL     1     -11.409   9.019  70.836  1.00  0.00    -0.351 A  
HETATM    3  C   UNL     1     -12.814  11.196  70.910  1.00  0.00    -0.374 C  
HETATM    4  C   UNL     1     -11.082  10.944  69.189  1.00  0.00    -0.245 C  
HETATM    5  O   UNL     1     -11.569  10.149  68.207  1.00  0.00    -0.193 OA 
HETATM    6  O   UNL     1     -10.429  11.948  68.937  1.00  0.00    -0.202 OA 
HETATM    7  C   UNL     1     -10.240   8.317  70.480  1.00  0.00    -0.213 A  
HETATM    8  C   UNL     1     -10.183   6.918  70.562  1.00  0.00    -0.209 A  
HETATM    9  C   UNL     1     -11.253   6.215  71.117  1.00  0.00    -0.355 A  
HETATM   10  C   UNL     1     -12.476   8.287  71.381  1.00  0.00    -0.315 A  
HETATM   11  C   UNL     1     -12.392   6.900  71.533  1.00  0.00    -0.420 A  
ENDROOT
BRANCH   8  12
HETATM   12  C   UNL     1      -9.016   6.146  70.057  1.00  0.00    -0.147 C  
HETATM   13  O   UNL     1      -7.934   6.281  70.623  1.00  0.00    -0.107 OA 
BRANCH  12  14
HETATM   14  C   UNL     1      -9.143   5.196  68.913  1.00  0.00    -0.135 A  
HETATM   15  C   UNL     1      -9.301   3.816  69.100  1.00  0.00    -0.243 A  
HETATM   16  C   UNL     1      -9.443   2.965  68.001  1.00  0.00    -0.214 A  
HETATM   17  C   UNL     1      -9.392   3.481  66.709  1.00  0.00    -0.203 A  
HETATM   18  C   UNL     1      -9.189   4.847  66.511  1.00  0.00    -0.135 A  
HETATM   19  C   UNL     1      -9.064   5.702  67.609  1.00  0.00    -0.106 A  
ENDBRANCH  12  14
ENDBRANCH   8  12
TORSDOF 2
ENDMDL
MODEL      142
REMARK 921   NORMALIZED FREE ENERGY PREDICTED BY IDOCK:   -4.12 KCAL/MOL
REMARK 922        TOTAL FREE ENERGY PREDICTED BY IDOCK:   -5.14 KCAL/MOL
REMARK 923 INTER-LIGAND FREE ENERGY PREDICTED BY IDOCK:   -4.66 KCAL/MOL
REMARK 924 INTRA-LIGAND FREE ENERGY PREDICTED BY IDOCK:   -0.49 KCAL/MOL
REMARK 927      BINDING AFFINITY PREDICTED BY RF-SCORE:    0.00 PKD
ROOT
HETATM    1  C   UNL     1      -9.614   7.047  73.120  1.00  0.00    -0.196 C  
HETATM    2  C   UNL     1      -9.189   8.070  72.066  1.00  0.00    -0.229 A  
HETATM    3  C   UNL     1      -8.477   6.264  73.784  1.00  0.00    -0.124 C  
HETATM    4  C   UNL     1     -10.611   6.015  72.597  1.00  0.00    -0.219 C  
HETATM    5  O   UNL     1     -10.354   5.551  71.350  1.00  0.00    -0.212 OA 
HETATM    6  O   UNL     1     -11.546   5.586  73.260  1.00  0.00    -0.180 OA 
HETATM    7  C   UNL     1     -10.181   8.754  71.336  1.00  0.00    -0.350 A  
HETATM    8  C   UNL     1      -9.839   9.613  70.281  1.00  0.00    -0.321 A  
HETATM    9  C   UNL     1      -8.496   9.891  70.024  1.00  0.00    -0.191 A  
HETATM   10  C   UNL     1      -7.845   8.358  71.781  1.00  0.00    -0.161 A  
HETATM   11  C   UNL     1      -7.502   9.272  70.780  1.00  0.00    -0.144 A  
ENDROOT
BRANCH   8  12
HETATM   12  C   UNL     1     -10.869  10.232  69.403  1.00  0.00    -0.245 C  
HETATM   13  O   UNL     1     -11.949  10.546  69.897  1.00  0.00    -0.276 OA 
BRANCH  12  14
HETATM   14  C   UNL     1     -10.603  10.508  67.960  1.00  0.00    -0.251 A  
HETATM   15  C   UNL     1     -10.687  11.797  67.417  1.00  0.00    -0.277 A  
HETATM   16  C   UNL     1     -10.403  12.016  66.067  1.00  0.00    -0.271 A  
HETATM   17  C   UNL     1     -10.073  10.943  65.242  1.00  0.00    -0.340 A  
HETATM   18  C   UNL     1     -10.032   9.649  65.763  1.00  0.00    -0.342 A  
HETATM   19  C   UNL     1     -10.297   9.431  67.117  1.00  0.00    -0.326 A  
ENDBRANCH  12  14
ENDBRANCH   8  12
TORSDOF 2
ENDMDL
MODEL      143
REMARK 921   NORMALIZED FREE ENERGY PREDICTED BY IDOCK:   -4.11 KCAL/MOL
REMARK 922        TOTAL FREE ENERGY PREDICTED BY IDOCK:   -5.13 KCAL/MOL
REMARK 923 INTER-LIGAND FREE ENERGY PREDICTED BY IDOCK:   -4.61 KCAL/MOL
REMARK 924 INTRA-LIGAND FREE ENERGY PREDICTED BY IDOCK:   -0.52 KCAL/MOL
REMARK 927      BINDING AFFINITY PREDICTED BY RF-SCORE:    0.00 PKD
ROOT
HETATM    1  C   UNL     1      -7.964   6.496  72.622  1.00  0.00    -0.103 C  
HETATM    2  C   UNL     1      -9.256   6.598  71.810  1.00  0.00    -0.148 A  
HETATM    3  C   UNL     1      -8.101   5.873  74.015  1.00  0.00    -0.104 C  
HETATM    4  C   UNL     1      -7.257   7.837  72.807  1.00  0.00    -0.083 C  
HETATM    5  O   UNL     1      -8.075   8.884  73.072  1.00  0.00    -0.380 OA 
HETATM    6  O   UNL     1      -6.040   7.965  72.778  1.00  0.00    -0.051 OA 
HETATM    7  C   UNL     1      -9.232   7.254  70.564  1.00  0.00    -0.158 A  
HETATM    8  C   UNL     1     -10.413   7.474  69.839  1.00  0.00    -0.232 A  
HETATM    9  C   UNL     1     -11.615   6.932  70.297  1.00  0.00    -0.362 A  
HETATM   10  C   UNL     1     -10.480   6.072  72.254  1.00  0.00    -0.241 A  
HETATM   11  C   UNL     1     -11.645   6.225  71.497  1.00  0.00    -0.345 A  
ENDROOT
BRANCH   8  12
HETATM   12  C   UNL     1     -10.434   8.289  68.595  1.00  0.00    -0.168 C  
HETATM   13  O   UNL     1     -10.120   7.752  67.535  1.00  0.00    -0.175 OA 
BRANCH  12  14
HETATM   14  C   UNL     1     -10.859   9.720  68.605  1.00  0.00    -0.223 A  
HETATM   15  C   UNL     1     -10.941  10.485  67.433  1.00  0.00    -0.352 A  
HETATM   16  C   UNL     1     -11.369  11.813  67.483  1.00  0.00    -0.377 A  
HETATM   17  C   UNL     1     -11.682  12.398  68.707  1.00  0.00    -0.379 A  
HETATM   18  C   UNL     1     -11.560  11.660  69.885  1.00  0.00    -0.366 A  
HETATM   19  C   UNL     1     -11.149  10.326  69.834  1.00  0.00    -0.362 A  
ENDBRANCH  12  14
ENDBRANCH   8  12
TORSDOF 2
ENDMDL
MODEL      144
REMARK 921   NORMALIZED FREE ENERGY PREDICTED BY IDOCK:   -4.10 KCAL/MOL
REMARK 922        TOTAL FREE ENERGY PREDICTED BY IDOCK:   -5.12 KCAL/MOL
REMARK 923 INTER-LIGAND FREE ENERGY PREDICTED BY IDOCK:   -4.62 KCAL/MOL
REMARK 924 INTRA-LIGAND FREE ENERGY PREDICTED BY IDOCK:   -0.50 KCAL/MOL
REMARK 927      BINDING AFFINITY PREDICTED BY RF-SCORE:    0.00 PKD
ROOT
HETATM    1  C   UNL     1     -12.728   8.196  71.378  1.00  0.00    -0.283 C  
HETATM    2  C   UNL     1     -11.937   9.259  70.613  1.00  0.00    -0.206 A  
HETATM    3  C   UNL     1     -13.775   8.727  72.362  1.00  0.00    -0.471 C  
HETATM    4  C   UNL     1     -11.842   7.226  72.158  1.00  0.00    -0.286 C  
HETATM    5  O   UNL     1     -10.791   7.796  72.795  1.00  0.00    -0.317 OA 
HETATM    6  O   UNL     1     -12.081   6.030  72.257  1.00  0.00    -0.301 OA 
HETATM    7  C   UNL     1     -10.884   8.853  69.768  1.00  0.00    -0.207 A  
HETATM    8  C   UNL     1     -10.058   9.796  69.139  1.00  0.00    -0.200 A  
HETATM    9  C   UNL     1     -10.352  11.155  69.250  1.00  0.00    -0.148 A  
HETATM   10  C   UNL     1     -12.205  10.632  70.717  1.00  0.00    -0.474 A  
HETATM   11  C   UNL     1     -11.429  11.571  70.031  1.00  0.00    -0.304 A  
ENDROOT
BRANCH   8  12
HETATM   12  C   UNL     1      -8.854   9.396  68.362  1.00  0.00    -0.128 C  
HETATM   13  O   UNL     1      -7.977   8.748  68.930  1.00  0.00    -0.102 OA 
BRANCH  12  14
HETATM   14  C   UNL     1      -8.711   9.731  66.914  1.00  0.00    -0.143 A  
HETATM   15  C   UNL     1      -7.489  10.130  66.356  1.00  0.00    -0.108 A  
HETATM   16  C   UNL     1      -7.392  10.408  64.991  1.00  0.00    -0.070 A  
HETATM   17  C   UNL     1      -8.522  10.326  64.181  1.00  0.00    -0.180 A  
HETATM   18  C   UNL     1      -9.753   9.974  64.736  1.00  0.00    -0.363 A  
HETATM   19  C   UNL     1      -9.848   9.678  66.098  1.00  0.00    -0.334 A  
ENDBRANCH  12  14
ENDBRANCH   8  12
TORSDOF 2
ENDMDL
MODEL      145
REMARK 921   NORMALIZED FREE ENERGY PREDICTED BY IDOCK:   -4.09 KCAL/MOL
REMARK 922        TOTAL FREE ENERGY PREDICTED BY IDOCK:   -5.12 KCAL/MOL
REMARK 923 INTER-LIGAND FREE ENERGY PREDICTED BY IDOCK:   -4.54 KCAL/MOL
REMARK 924 INTRA-LIGAND FREE ENERGY PREDICTED BY IDOCK:   -0.58 KCAL/MOL
REMARK 927      BINDING AFFINITY PREDICTED BY RF-SCORE:    0.00 PKD
ROOT
HETATM    1  C   UNL     1     -12.437  15.048  70.440  1.00  0.00    -0.407 C  
HETATM    2  C   UNL     1     -11.426  14.598  69.384  1.00  0.00    -0.330 A  
HETATM    3  C   UNL     1     -11.933  16.091  71.442  1.00  0.00    -0.507 C  
HETATM    4  C   UNL     1     -13.012  13.893  71.259  1.00  0.00    -0.341 C  
HETATM    5  O   UNL     1     -12.113  12.947  71.623  1.00  0.00     0.279 OA 
HETATM    6  O   UNL     1     -14.181  13.840  71.617  1.00  0.00    -0.254 OA 
HETATM    7  C   UNL     1     -11.780  13.565  68.494  1.00  0.00    -0.392 A  
HETATM    8  C   UNL     1     -10.846  13.041  67.587  1.00  0.00    -0.256 A  
HETATM    9  C   UNL     1      -9.585  13.629  67.477  1.00  0.00    -0.220 A  
HETATM   10  C   UNL     1     -10.148  15.165  69.261  1.00  0.00    -0.246 A  
HETATM   11  C   UNL     1      -9.242  14.695  68.307  1.00  0.00    -0.198 A  
ENDROOT
BRANCH   8  12
HETATM   12  C   UNL     1     -11.149  11.857  66.740  1.00  0.00    -0.308 C  
HETATM   13  O   UNL     1     -11.777  12.025  65.697  1.00  0.00    -0.356 OA 
BRANCH  12  14
HETATM   14  C   UNL     1     -10.680  10.489  67.111  1.00  0.00    -0.323 A  
HETATM   15  C   UNL     1     -11.256   9.759  68.160  1.00  0.00    -0.073 A  
HETATM   16  C   UNL     1     -10.805   8.471  68.457  1.00  0.00     0.020 A  
HETATM   17  C   UNL     1      -9.751   7.918  67.734  1.00  0.00    -0.189 A  
HETATM   18  C   UNL     1      -9.140   8.654  66.718  1.00  0.00    -0.183 A  
HETATM   19  C   UNL     1      -9.602   9.936  66.408  1.00  0.00    -0.255 A  
ENDBRANCH  12  14
ENDBRANCH   8  12
TORSDOF 2
ENDMDL
MODEL      146
REMARK 921   NORMALIZED FREE ENERGY PREDICTED BY IDOCK:   -4.06 KCAL/MOL
REMARK 922        TOTAL FREE ENERGY PREDICTED BY IDOCK:   -5.08 KCAL/MOL
REMARK 923 INTER-LIGAND FREE ENERGY PREDICTED BY IDOCK:   -4.61 KCAL/MOL
REMARK 924 INTRA-LIGAND FREE ENERGY PREDICTED BY IDOCK:   -0.47 KCAL/MOL
REMARK 927      BINDING AFFINITY PREDICTED BY RF-SCORE:    0.00 PKD
ROOT
HETATM    1  C   UNL     1     -10.143   9.917  67.434  1.00  0.00    -0.254 C  
HETATM    2  C   UNL     1     -10.859  10.076  68.776  1.00  0.00    -0.252 A  
HETATM    3  C   UNL     1     -10.696  10.760  66.281  1.00  0.00    -0.205 C  
HETATM    4  C   UNL     1     -10.096   8.472  66.940  1.00  0.00    -0.294 C  
HETATM    5  O   UNL     1     -11.238   7.767  67.121  1.00  0.00     0.041 OA 
HETATM    6  O   UNL     1      -9.127   7.988  66.370  1.00  0.00    -0.164 OA 
HETATM    7  C   UNL     1     -10.478   9.257  69.858  1.00  0.00    -0.247 A  
HETATM    8  C   UNL     1     -11.183   9.285  71.070  1.00  0.00    -0.392 A  
HETATM    9  C   UNL     1     -12.200  10.222  71.255  1.00  0.00    -0.496 A  
HETATM   10  C   UNL     1     -11.894  11.001  68.984  1.00  0.00    -0.399 A  
HETATM   11  C   UNL     1     -12.548  11.083  70.217  1.00  0.00    -0.321 A  
ENDROOT
BRANCH   8  12
HETATM   12  C   UNL     1     -10.892   8.330  72.173  1.00  0.00    -0.320 C  
HETATM   13  O   UNL     1     -11.799   8.035  72.949  1.00  0.00    -0.337 OA 
BRANCH  12  14
HETATM   14  C   UNL     1      -9.546   7.704  72.332  1.00  0.00    -0.220 A  
HETATM   15  C   UNL     1      -8.581   8.216  73.209  1.00  0.00    -0.308 A  
HETATM   16  C   UNL     1      -7.344   7.584  73.348  1.00  0.00    -0.109 A  
HETATM   17  C   UNL     1      -7.048   6.458  72.583  1.00  0.00    -0.075 A  
HETATM   18  C   UNL     1      -7.984   5.967  71.673  1.00  0.00    -0.113 A  
HETATM   19  C   UNL     1      -9.229   6.588  71.546  1.00  0.00    -0.144 A  
ENDBRANCH  12  14
ENDBRANCH   8  12
TORSDOF 2
ENDMDL
MODEL      147
REMARK 921   NORMALIZED FREE ENERGY PREDICTED BY IDOCK:   -4.04 KCAL/MOL
REMARK 922        TOTAL FREE ENERGY PREDICTED BY IDOCK:   -5.06 KCAL/MOL
REMARK 923 INTER-LIGAND FREE ENERGY PREDICTED BY IDOCK:   -4.74 KCAL/MOL
REMARK 924 INTRA-LIGAND FREE ENERGY PREDICTED BY IDOCK:   -0.32 KCAL/MOL
REMARK 927      BINDING AFFINITY PREDICTED BY RF-SCORE:    0.00 PKD
ROOT
HETATM    1  C   UNL     1      -7.918   8.498  66.201  1.00  0.00    -0.102 C  
HETATM    2  C   UNL     1      -9.043   7.821  66.985  1.00  0.00    -0.162 A  
HETATM    3  C   UNL     1      -7.450   7.763  64.941  1.00  0.00    -0.094 C  
HETATM    4  C   UNL     1      -6.671   8.769  67.041  1.00  0.00    -0.066 C  
HETATM    5  O   UNL     1      -6.324   7.770  67.888  1.00  0.00    -0.047 OA 
HETATM    6  O   UNL     1      -5.993   9.781  66.930  1.00  0.00    -0.054 OA 
HETATM    7  C   UNL     1      -9.456   8.379  68.211  1.00  0.00    -0.147 A  
HETATM    8  C   UNL     1     -10.401   7.730  69.020  1.00  0.00    -0.219 A  
HETATM    9  C   UNL     1     -11.033   6.577  68.553  1.00  0.00    -0.360 A  
HETATM   10  C   UNL     1      -9.686   6.654  66.544  1.00  0.00    -0.176 A  
HETATM   11  C   UNL     1     -10.682   6.046  67.314  1.00  0.00    -0.400 A  
ENDROOT
BRANCH   8  12
HETATM   12  C   UNL     1     -10.745   8.223  70.381  1.00  0.00    -0.232 C  
HETATM   13  O   UNL     1     -10.396   7.556  71.352  1.00  0.00    -0.195 OA 
BRANCH  12  14
HETATM   14  C   UNL     1     -11.465   9.514  70.586  1.00  0.00    -0.362 A  
HETATM   15  C   UNL     1     -11.165  10.665  69.845  1.00  0.00    -0.378 A  
HETATM   16  C   UNL     1     -11.883  11.845  70.050  1.00  0.00    -0.407 A  
HETATM   17  C   UNL     1     -12.879  11.895  71.022  1.00  0.00    -0.291 A  
HETATM   18  C   UNL     1     -13.154  10.769  71.797  1.00  0.00    -0.573 A  
HETATM   19  C   UNL     1     -12.449   9.582  71.581  1.00  0.00    -0.476 A  
ENDBRANCH  12  14
ENDBRANCH   8  12
TORSDOF 2
ENDMDL
MODEL      148
REMARK 921   NORMALIZED FREE ENERGY PREDICTED BY IDOCK:   -4.01 KCAL/MOL
REMARK 922        TOTAL FREE ENERGY PREDICTED BY IDOCK:   -5.03 KCAL/MOL
REMARK 923 INTER-LIGAND FREE ENERGY PREDICTED BY IDOCK:   -4.49 KCAL/MOL
REMARK 924 INTRA-LIGAND FREE ENERGY PREDICTED BY IDOCK:   -0.54 KCAL/MOL
REMARK 927      BINDING AFFINITY PREDICTED BY RF-SCORE:    0.00 PKD
ROOT
HETATM    1  C   UNL     1      -8.113   7.554  66.605  1.00  0.00    -0.123 C  
HETATM    2  C   UNL     1      -8.494   7.049  67.997  1.00  0.00    -0.125 A  
HETATM    3  C   UNL     1      -7.514   6.509  65.659  1.00  0.00    -0.082 C  
HETATM    4  C   UNL     1      -7.141   8.732  66.631  1.00  0.00    -0.081 C  
HETATM    5  O   UNL     1      -6.149   8.635  67.549  1.00  0.00    -0.050 OA 
HETATM    6  O   UNL     1      -7.205   9.674  65.853  1.00  0.00    -0.094 OA 
HETATM    7  C   UNL     1      -8.953   7.972  68.958  1.00  0.00    -0.145 A  
HETATM    8  C   UNL     1      -9.202   7.575  70.281  1.00  0.00    -0.157 A  
HETATM    9  C   UNL     1      -9.112   6.226  70.625  1.00  0.00    -0.153 A  
HETATM   10  C   UNL     1      -8.401   5.700  68.372  1.00  0.00    -0.106 A  
HETATM   11  C   UNL     1      -8.721   5.290  69.669  1.00  0.00    -0.112 A  
ENDROOT
BRANCH   8  12
HETATM   12  C   UNL     1      -9.546   8.554  71.346  1.00  0.00    -0.215 C  
HETATM   13  O   UNL     1      -8.664   8.907  72.126  1.00  0.00    -0.386 OA 
BRANCH  12  14
HETATM   14  C   UNL     1     -10.916   9.136  71.462  1.00  0.00    -0.434 A  
HETATM   15  C   UNL     1     -11.929   8.522  72.210  1.00  0.00    -0.454 A  
HETATM   16  C   UNL     1     -13.190   9.114  72.314  1.00  0.00    -0.528 A  
HETATM   17  C   UNL     1     -13.458  10.303  71.641  1.00  0.00    -0.360 A  
HETATM   18  C   UNL     1     -12.471  10.899  70.856  1.00  0.00    -0.507 A  
HETATM   19  C   UNL     1     -11.203  10.317  70.765  1.00  0.00    -0.373 A  
ENDBRANCH  12  14
ENDBRANCH   8  12
TORSDOF 2
ENDMDL
MODEL      149
REMARK 921   NORMALIZED FREE ENERGY PREDICTED BY IDOCK:   -4.00 KCAL/MOL
REMARK 922        TOTAL FREE ENERGY PREDICTED BY IDOCK:   -5.01 KCAL/MOL
REMARK 923 INTER-LIGAND FREE ENERGY PREDICTED BY IDOCK:   -4.42 KCAL/MOL
REMARK 924 INTRA-LIGAND FREE ENERGY PREDICTED BY IDOCK:   -0.59 KCAL/MOL
REMARK 927      BINDING AFFINITY PREDICTED BY RF-SCORE:    0.00 PKD
ROOT
HETATM    1  C   UNL     1     -10.622   6.325  72.037  1.00  0.00    -0.253 C  
HETATM    2  C   UNL     1     -10.176   5.956  70.621  1.00  0.00    -0.268 A  
HETATM    3  C   UNL     1     -10.959   5.148  72.956  1.00  0.00    -0.355 C  
HETATM    4  C   UNL     1     -11.825   7.267  72.068  1.00  0.00    -0.296 C  
HETATM    5  O   UNL     1     -12.795   6.986  71.165  1.00  0.00    -0.374 OA 
HETATM    6  O   UNL     1     -11.945   8.176  72.877  1.00  0.00    -0.313 OA 
HETATM    7  C   UNL     1      -9.950   6.984  69.684  1.00  0.00    -0.177 A  
HETATM    8  C   UNL     1      -9.655   6.689  68.344  1.00  0.00    -0.123 A  
HETATM    9  C   UNL     1      -9.462   5.363  67.956  1.00  0.00    -0.138 A  
HETATM   10  C   UNL     1      -9.987   4.630  70.202  1.00  0.00    -0.304 A  
HETATM   11  C   UNL     1      -9.619   4.338  68.885  1.00  0.00    -0.227 A  
ENDROOT
BRANCH   8  12
HETATM   12  C   UNL     1      -9.556   7.751  67.307  1.00  0.00    -0.161 C  
HETATM   13  O   UNL     1      -9.382   7.416  66.138  1.00  0.00    -0.146 OA 
BRANCH  12  14
HETATM   14  C   UNL     1      -9.697   9.197  67.652  1.00  0.00    -0.198 A  
HETATM   15  C   UNL     1     -10.909   9.886  67.506  1.00  0.00    -0.307 A  
HETATM   16  C   UNL     1     -11.006  11.232  67.866  1.00  0.00    -0.302 A  
HETATM   17  C   UNL     1      -9.884  11.908  68.339  1.00  0.00    -0.201 A  
HETATM   18  C   UNL     1      -8.662  11.244  68.444  1.00  0.00    -0.159 A  
HETATM   19  C   UNL     1      -8.568   9.893  68.101  1.00  0.00    -0.118 A  
ENDBRANCH  12  14
ENDBRANCH   8  12
TORSDOF 2
ENDMDL
MODEL      150
REMARK 921   NORMALIZED FREE ENERGY PREDICTED BY IDOCK:   -3.96 KCAL/MOL
REMARK 922        TOTAL FREE ENERGY PREDICTED BY IDOCK:   -4.97 KCAL/MOL
REMARK 923 INTER-LIGAND FREE ENERGY PREDICTED BY IDOCK:   -4.49 KCAL/MOL
REMARK 924 INTRA-LIGAND FREE ENERGY PREDICTED BY IDOCK:   -0.48 KCAL/MOL
REMARK 927      BINDING AFFINITY PREDICTED BY RF-SCORE:    0.00 PKD
ROOT
HETATM    1  C   UNL     1     -12.827   9.194  72.006  1.00  0.00    -0.483 C  
HETATM    2  C   UNL     1     -11.829   8.356  71.205  1.00  0.00    -0.314 A  
HETATM    3  C   UNL     1     -14.211   8.569  72.205  1.00  0.00    -0.471 C  
HETATM    4  C   UNL     1     -13.053  10.588  71.424  1.00  0.00    -0.410 C  
HETATM    5  O   UNL     1     -13.146  10.636  70.073  1.00  0.00    -0.098 OA 
HETATM    6  O   UNL     1     -13.199  11.589  72.113  1.00  0.00    -0.505 OA 
HETATM    7  C   UNL     1     -10.571   8.907  70.889  1.00  0.00    -0.295 A  
HETATM    8  C   UNL     1      -9.671   8.222  70.059  1.00  0.00    -0.176 A  
HETATM    9  C   UNL     1      -9.969   6.927  69.636  1.00  0.00    -0.179 A  
HETATM   10  C   UNL     1     -12.110   7.056  70.758  1.00  0.00    -0.374 A  
HETATM   11  C   UNL     1     -11.183   6.342  69.993  1.00  0.00    -0.475 A  
ENDROOT
BRANCH   8  12
HETATM   12  C   UNL     1      -8.401   8.842  69.593  1.00  0.00    -0.123 C  
HETATM   13  O   UNL     1      -7.941   9.787  70.230  1.00  0.00    -0.170 OA 
BRANCH  12  14
HETATM   14  C   UNL     1      -7.667   8.321  68.402  1.00  0.00    -0.105 A  
HETATM   15  C   UNL     1      -6.440   7.652  68.513  1.00  0.00    -0.048 A  
HETATM   16  C   UNL     1      -5.800   7.156  67.375  1.00  0.00    -0.025 A  
HETATM   17  C   UNL     1      -6.360   7.359  66.116  1.00  0.00    -0.042 A  
HETATM   18  C   UNL     1      -7.557   8.064  65.991  1.00  0.00    -0.085 A  
HETATM   19  C   UNL     1      -8.208   8.545  67.130  1.00  0.00    -0.108 A  
ENDBRANCH  12  14
ENDBRANCH   8  12
TORSDOF 2
ENDMDL
MODEL      151
REMARK 921   NORMALIZED FREE ENERGY PREDICTED BY IDOCK:   -3.95 KCAL/MOL
REMARK 922        TOTAL FREE ENERGY PREDICTED BY IDOCK:   -4.96 KCAL/MOL
REMARK 923 INTER-LIGAND FREE ENERGY PREDICTED BY IDOCK:   -4.40 KCAL/MOL
REMARK 924 INTRA-LIGAND FREE ENERGY PREDICTED BY IDOCK:   -0.56 KCAL/MOL
REMARK 927      BINDING AFFINITY PREDICTED BY RF-SCORE:    0.00 PKD
ROOT
HETATM    1  C   UNL     1     -12.118  15.217  70.084  1.00  0.00    -0.384 C  
HETATM    2  C   UNL     1     -11.386  16.140  69.109  1.00  0.00    -0.323 A  
HETATM    3  C   UNL     1     -11.795  15.425  71.567  1.00  0.00    -0.450 C  
HETATM    4  C   UNL     1     -11.904  13.733  69.791  1.00  0.00    -0.331 C  
HETATM    5  O   UNL     1     -10.639  13.394  69.448  1.00  0.00     0.004 OA 
HETATM    6  O   UNL     1     -12.785  12.891  69.908  1.00  0.00     0.102 OA 
HETATM    7  C   UNL     1     -11.549  15.940  67.723  1.00  0.00    -0.044 A  
HETATM    8  C   UNL     1     -10.808  16.685  66.794  1.00  0.00    -0.037 A  
HETATM    9  C   UNL     1      -9.986  17.721  67.237  1.00  0.00    -0.324 A  
HETATM   10  C   UNL     1     -10.545  17.181  69.529  1.00  0.00    -0.083 A  
HETATM   11  C   UNL     1      -9.863  17.974  68.602  1.00  0.00    -0.383 A  
ENDROOT
BRANCH   8  12
HETATM   12  C   UNL     1     -10.854  16.394  65.335  1.00  0.00    -0.239 C  
HETATM   13  O   UNL     1     -10.616  17.307  64.547  1.00  0.00    -0.132 OA 
BRANCH  12  14
HETATM   14  C   UNL     1     -11.145  15.024  64.820  1.00  0.00    -0.388 A  
HETATM   15  C   UNL     1     -12.450  14.580  64.568  1.00  0.00    -0.346 A  
HETATM   16  C   UNL     1     -12.676  13.299  64.059  1.00  0.00    -0.092 A  
HETATM   17  C   UNL     1     -11.604  12.440  63.835  1.00  0.00    -0.518 A  
HETATM   18  C   UNL     1     -10.304  12.855  64.125  1.00  0.00    -0.385 A  
HETATM   19  C   UNL     1     -10.075  14.143  64.617  1.00  0.00    -0.047 A  
ENDBRANCH  12  14
ENDBRANCH   8  12
TORSDOF 2
ENDMDL
MODEL      152
REMARK 921   NORMALIZED FREE ENERGY PREDICTED BY IDOCK:   -3.94 KCAL/MOL
REMARK 922        TOTAL FREE ENERGY PREDICTED BY IDOCK:   -4.94 KCAL/MOL
REMARK 923 INTER-LIGAND FREE ENERGY PREDICTED BY IDOCK:   -4.37 KCAL/MOL
REMARK 924 INTRA-LIGAND FREE ENERGY PREDICTED BY IDOCK:   -0.57 KCAL/MOL
REMARK 927      BINDING AFFINITY PREDICTED BY RF-SCORE:    0.00 PKD
ROOT
HETATM    1  C   UNL     1      -7.197  19.963  68.561  1.00  0.00    -0.331 C  
HETATM    2  C   UNL     1      -7.563  18.654  67.861  1.00  0.00    -0.264 A  
HETATM    3  C   UNL     1      -6.416  20.974  67.716  1.00  0.00    -0.407 C  
HETATM    4  C   UNL     1      -6.402  19.760  69.850  1.00  0.00    -0.342 C  
HETATM    5  O   UNL     1      -5.447  18.801  69.788  1.00  0.00    -0.204 OA 
HETATM    6  O   UNL     1      -6.563  20.440  70.854  1.00  0.00    -0.456 OA 
HETATM    7  C   UNL     1      -8.188  17.632  68.602  1.00  0.00    -0.264 A  
HETATM    8  C   UNL     1      -8.436  16.374  68.033  1.00  0.00    -0.183 A  
HETATM    9  C   UNL     1      -8.172  16.165  66.679  1.00  0.00    -0.321 A  
HETATM   10  C   UNL     1      -7.298  18.415  66.504  1.00  0.00    -0.262 A  
HETATM   11  C   UNL     1      -7.613  17.187  65.915  1.00  0.00     0.007 A  
ENDROOT
BRANCH   8  12
HETATM   12  C   UNL     1      -8.959  15.235  68.834  1.00  0.00    -0.209 C  
HETATM   13  O   UNL     1      -8.231  14.263  69.019  1.00  0.00    -0.093 OA 
BRANCH  12  14
HETATM   14  C   UNL     1     -10.323  15.268  69.441  1.00  0.00    -0.255 A  
HETATM   15  C   UNL     1     -10.530  15.515  70.805  1.00  0.00     0.048 A  
HETATM   16  C   UNL     1     -11.824  15.564  71.327  1.00  0.00    -0.453 A  
HETATM   17  C   UNL     1     -12.919  15.329  70.499  1.00  0.00    -0.380 A  
HETATM   18  C   UNL     1     -12.722  15.036  69.149  1.00  0.00     0.327 A  
HETATM   19  C   UNL     1     -11.428  15.005  68.621  1.00  0.00    -0.329 A  
ENDBRANCH  12  14
ENDBRANCH   8  12
TORSDOF 2
ENDMDL
MODEL      153
REMARK 921   NORMALIZED FREE ENERGY PREDICTED BY IDOCK:   -3.91 KCAL/MOL
REMARK 922        TOTAL FREE ENERGY PREDICTED BY IDOCK:   -4.91 KCAL/MOL
REMARK 923 INTER-LIGAND FREE ENERGY PREDICTED BY IDOCK:   -4.28 KCAL/MOL
REMARK 924 INTRA-LIGAND FREE ENERGY PREDICTED BY IDOCK:   -0.63 KCAL/MOL
REMARK 927      BINDING AFFINITY PREDICTED BY RF-SCORE:    0.00 PKD
ROOT
HETATM    1  C   UNL     1     -12.132  10.030  70.239  1.00  0.00    -0.226 C  
HETATM    2  C   UNL     1     -11.796  11.461  69.817  1.00  0.00    -0.435 A  
HETATM    3  C   UNL     1     -13.073   9.893  71.439  1.00  0.00    -0.500 C  
HETATM    4  C   UNL     1     -10.898   9.184  70.549  1.00  0.00    -0.255 C  
HETATM    5  O   UNL     1      -9.925   9.823  71.242  1.00  0.00    -0.059 OA 
HETATM    6  O   UNL     1     -10.802   8.001  70.251  1.00  0.00    -0.238 OA 
HETATM    7  C   UNL     1     -10.854  11.670  68.790  1.00  0.00    -0.262 A  
HETATM    8  C   UNL     1     -10.429  12.963  68.451  1.00  0.00    -0.260 A  
HETATM    9  C   UNL     1     -11.033  14.068  69.052  1.00  0.00    -0.287 A  
HETATM   10  C   UNL     1     -12.380  12.589  70.414  1.00  0.00    -0.311 A  
HETATM   11  C   UNL     1     -12.012  13.880  70.025  1.00  0.00    -0.404 A  
ENDROOT
BRANCH   8  12
HETATM   12  C   UNL     1      -9.333  13.201  67.474  1.00  0.00    -0.207 C  
HETATM   13  O   UNL     1      -9.508  14.033  66.586  1.00  0.00    -0.270 OA 
BRANCH  12  14
HETATM   14  C   UNL     1      -8.028  12.483  67.572  1.00  0.00    -0.175 A  
HETATM   15  C   UNL     1      -7.601  11.569  66.600  1.00  0.00    -0.088 A  
HETATM   16  C   UNL     1      -6.360  10.940  66.716  1.00  0.00    -0.097 A  
HETATM   17  C   UNL     1      -5.553  11.190  67.824  1.00  0.00    -0.043 A  
HETATM   18  C   UNL     1      -5.989  12.063  68.821  1.00  0.00    -0.056 A  
HETATM   19  C   UNL     1      -7.222  12.707  68.697  1.00  0.00    -0.108 A  
ENDBRANCH  12  14
ENDBRANCH   8  12
TORSDOF 2
ENDMDL
MODEL      154
REMARK 921   NORMALIZED FREE ENERGY PREDICTED BY IDOCK:   -3.88 KCAL/MOL
REMARK 922        TOTAL FREE ENERGY PREDICTED BY IDOCK:   -4.88 KCAL/MOL
REMARK 923 INTER-LIGAND FREE ENERGY PREDICTED BY IDOCK:   -4.33 KCAL/MOL
REMARK 924 INTRA-LIGAND FREE ENERGY PREDICTED BY IDOCK:   -0.54 KCAL/MOL
REMARK 927      BINDING AFFINITY PREDICTED BY RF-SCORE:    0.00 PKD
ROOT
HETATM    1  C   UNL     1     -10.359   8.652  71.474  1.00  0.00    -0.341 C  
HETATM    2  C   UNL     1      -9.512   9.453  70.484  1.00  0.00    -0.327 A  
HETATM    3  C   UNL     1      -9.610   7.585  72.278  1.00  0.00    -0.197 C  
HETATM    4  C   UNL     1     -11.555   7.957  70.826  1.00  0.00    -0.247 C  
HETATM    5  O   UNL     1     -11.302   7.387  69.623  1.00  0.00    -0.109 OA 
HETATM    6  O   UNL     1     -12.650   7.862  71.363  1.00  0.00    -0.316 OA 
HETATM    7  C   UNL     1     -10.147  10.379  69.632  1.00  0.00    -0.226 A  
HETATM    8  C   UNL     1      -9.429  11.050  68.630  1.00  0.00    -0.197 A  
HETATM    9  C   UNL     1      -8.045  10.892  68.549  1.00  0.00    -0.137 A  
HETATM   10  C   UNL     1      -8.121   9.304  70.375  1.00  0.00    -0.178 A  
HETATM   11  C   UNL     1      -7.393  10.028  69.426  1.00  0.00    -0.100 A  
ENDROOT
BRANCH   8  12
HETATM   12  C   UNL     1     -10.101  11.919  67.628  1.00  0.00    -0.191 C  
HETATM   13  O   UNL     1     -10.797  11.390  66.764  1.00  0.00    -0.262 OA 
BRANCH  12  14
HETATM   14  C   UNL     1      -9.976  13.406  67.673  1.00  0.00    -0.229 A  
HETATM   15  C   UNL     1      -9.171  14.118  66.773  1.00  0.00    -0.282 A  
HETATM   16  C   UNL     1      -9.104  15.511  66.833  1.00  0.00    -0.264 A  
HETATM   17  C   UNL     1      -9.810  16.201  67.816  1.00  0.00    -0.232 A  
HETATM   18  C   UNL     1     -10.577  15.499  68.746  1.00  0.00    -0.242 A  
HETATM   19  C   UNL     1     -10.660  14.106  68.676  1.00  0.00    -0.253 A  
ENDBRANCH  12  14
ENDBRANCH   8  12
TORSDOF 2
ENDMDL
MODEL      155
REMARK 921   NORMALIZED FREE ENERGY PREDICTED BY IDOCK:   -3.87 KCAL/MOL
REMARK 922        TOTAL FREE ENERGY PREDICTED BY IDOCK:   -4.87 KCAL/MOL
REMARK 923 INTER-LIGAND FREE ENERGY PREDICTED BY IDOCK:   -4.33 KCAL/MOL
REMARK 924 INTRA-LIGAND FREE ENERGY PREDICTED BY IDOCK:   -0.54 KCAL/MOL
REMARK 927      BINDING AFFINITY PREDICTED BY RF-SCORE:    0.00 PKD
ROOT
HETATM    1  C   UNL     1     -11.895  12.388  65.689  1.00  0.00    -0.468 C  
HETATM    2  C   UNL     1     -10.777  11.591  65.014  1.00  0.00    -0.350 A  
HETATM    3  C   UNL     1     -12.649  13.370  64.788  1.00  0.00    -0.370 C  
HETATM    4  C   UNL     1     -11.423  13.180  66.907  1.00  0.00    -0.341 C  
HETATM    5  O   UNL     1     -10.224  13.793  66.761  1.00  0.00    -0.260 OA 
HETATM    6  O   UNL     1     -12.091  13.309  67.925  1.00  0.00    -0.331 OA 
HETATM    7  C   UNL     1      -9.969  10.745  65.798  1.00  0.00    -0.306 A  
HETATM    8  C   UNL     1      -8.861  10.086  65.244  1.00  0.00    -0.205 A  
HETATM    9  C   UNL     1      -8.623  10.170  63.872  1.00  0.00    -0.197 A  
HETATM   10  C   UNL     1     -10.510  11.667  63.638  1.00  0.00    -0.483 A  
HETATM   11  C   UNL     1      -9.452  10.952  63.070  1.00  0.00    -0.369 A  
ENDROOT
BRANCH   8  12
HETATM   12  C   UNL     1      -7.909   9.306  66.080  1.00  0.00    -0.102 C  
HETATM   13  O   UNL     1      -7.226   9.906  66.907  1.00  0.00    -0.089 OA 
BRANCH  12  14
HETATM   14  C   UNL     1      -7.795   7.823  65.958  1.00  0.00    -0.100 A  
HETATM   15  C   UNL     1      -8.903   7.006  65.691  1.00  0.00    -0.037 A  
HETATM   16  C   UNL     1      -8.748   5.625  65.557  1.00  0.00    -0.151 A  
HETATM   17  C   UNL     1      -7.493   5.045  65.728  1.00  0.00    -0.082 A  
HETATM   18  C   UNL     1      -6.392   5.843  66.039  1.00  0.00    -0.042 A  
HETATM   19  C   UNL     1      -6.542   7.228  66.155  1.00  0.00    -0.052 A  
ENDBRANCH  12  14
ENDBRANCH   8  12
TORSDOF 2
ENDMDL
MODEL      156
REMARK 921   NORMALIZED FREE ENERGY PREDICTED BY IDOCK:   -3.85 KCAL/MOL
REMARK 922        TOTAL FREE ENERGY PREDICTED BY IDOCK:   -4.85 KCAL/MOL
REMARK 923 INTER-LIGAND FREE ENERGY PREDICTED BY IDOCK:   -4.26 KCAL/MOL
REMARK 924 INTRA-LIGAND FREE ENERGY PREDICTED BY IDOCK:   -0.59 KCAL/MOL
REMARK 927      BINDING AFFINITY PREDICTED BY RF-SCORE:    0.00 PKD
ROOT
HETATM    1  C   UNL     1      -7.949   7.107  67.206  1.00  0.00    -0.111 C  
HETATM    2  C   UNL     1      -8.975   8.226  67.392  1.00  0.00    -0.142 A  
HETATM    3  C   UNL     1      -7.435   6.906  65.778  1.00  0.00    -0.084 C  
HETATM    4  C   UNL     1      -8.444   5.745  67.691  1.00  0.00    -0.103 C  
HETATM    5  O   UNL     1      -9.733   5.463  67.387  1.00  0.00    -0.126 OA 
HETATM    6  O   UNL     1      -7.727   4.935  68.263  1.00  0.00    -0.081 OA 
HETATM    7  C   UNL     1      -9.574   8.404  68.655  1.00  0.00    -0.153 A  
HETATM    8  C   UNL     1     -10.602   9.339  68.842  1.00  0.00    -0.222 A  
HETATM    9  C   UNL     1     -10.958  10.192  67.798  1.00  0.00    -0.338 A  
HETATM   10  C   UNL     1      -9.359   9.089  66.354  1.00  0.00    -0.264 A  
HETATM   11  C   UNL     1     -10.331  10.073  66.559  1.00  0.00    -0.268 A  
ENDROOT
BRANCH   8  12
HETATM   12  C   UNL     1     -11.348   9.444  70.125  1.00  0.00    -0.185 C  
HETATM   13  O   UNL     1     -12.062  10.427  70.311  1.00  0.00    -0.277 OA 
BRANCH  12  14
HETATM   14  C   UNL     1     -11.274   8.373  71.163  1.00  0.00    -0.307 A  
HETATM   15  C   UNL     1     -10.340   8.407  72.207  1.00  0.00    -0.403 A  
HETATM   16  C   UNL     1     -10.323   7.398  73.173  1.00  0.00    -0.384 A  
HETATM   17  C   UNL     1     -11.213   6.330  73.082  1.00  0.00    -0.125 A  
HETATM   18  C   UNL     1     -12.116   6.264  72.020  1.00  0.00    -0.321 A  
HETATM   19  C   UNL     1     -12.146   7.281  71.063  1.00  0.00    -0.361 A  
ENDBRANCH  12  14
ENDBRANCH   8  12
TORSDOF 2
ENDMDL
MODEL      157
REMARK 921   NORMALIZED FREE ENERGY PREDICTED BY IDOCK:   -3.85 KCAL/MOL
REMARK 922        TOTAL FREE ENERGY PREDICTED BY IDOCK:   -4.84 KCAL/MOL
REMARK 923 INTER-LIGAND FREE ENERGY PREDICTED BY IDOCK:   -4.66 KCAL/MOL
REMARK 924 INTRA-LIGAND FREE ENERGY PREDICTED BY IDOCK:   -0.18 KCAL/MOL
REMARK 927      BINDING AFFINITY PREDICTED BY RF-SCORE:    0.00 PKD
ROOT
HETATM    1  C   UNL     1      -8.501   8.187  65.239  1.00  0.00    -0.157 C  
HETATM    2  C   UNL     1      -8.469   8.396  66.754  1.00  0.00    -0.114 A  
HETATM    3  C   UNL     1      -7.363   7.341  64.660  1.00  0.00    -0.079 C  
HETATM    4  C   UNL     1      -8.524   9.493  64.447  1.00  0.00    -0.181 C  
HETATM    5  O   UNL     1      -7.710  10.466  64.923  1.00  0.00    -0.144 OA 
HETATM    6  O   UNL     1      -9.180   9.649  63.426  1.00  0.00    -0.241 OA 
HETATM    7  C   UNL     1      -9.420   9.249  67.348  1.00  0.00    -0.165 A  
HETATM    8  C   UNL     1      -9.357   9.562  68.714  1.00  0.00    -0.146 A  
HETATM    9  C   UNL     1      -8.415   8.928  69.525  1.00  0.00    -0.128 A  
HETATM   10  C   UNL     1      -7.524   7.780  67.589  1.00  0.00    -0.104 A  
HETATM   11  C   UNL     1      -7.507   8.032  68.964  1.00  0.00    -0.093 A  
ENDROOT
BRANCH   8  12
HETATM   12  C   UNL     1     -10.258  10.571  69.334  1.00  0.00    -0.221 C  
HETATM   13  O   UNL     1     -10.184  11.737  68.953  1.00  0.00    -0.188 OA 
BRANCH  12  14
HETATM   14  C   UNL     1     -11.261  10.191  70.372  1.00  0.00    -0.402 A  
HETATM   15  C   UNL     1     -12.213  11.096  70.860  1.00  0.00    -0.468 A  
HETATM   16  C   UNL     1     -13.152  10.692  71.811  1.00  0.00    -0.571 A  
HETATM   17  C   UNL     1     -13.123   9.391  72.310  1.00  0.00    -0.509 A  
HETATM   18  C   UNL     1     -12.150   8.495  71.864  1.00  0.00    -0.411 A  
HETATM   19  C   UNL     1     -11.222   8.893  70.899  1.00  0.00    -0.334 A  
ENDBRANCH  12  14
ENDBRANCH   8  12
TORSDOF 2
ENDMDL
MODEL      158
REMARK 921   NORMALIZED FREE ENERGY PREDICTED BY IDOCK:   -3.84 KCAL/MOL
REMARK 922        TOTAL FREE ENERGY PREDICTED BY IDOCK:   -4.84 KCAL/MOL
REMARK 923 INTER-LIGAND FREE ENERGY PREDICTED BY IDOCK:   -4.22 KCAL/MOL
REMARK 924 INTRA-LIGAND FREE ENERGY PREDICTED BY IDOCK:   -0.62 KCAL/MOL
REMARK 927      BINDING AFFINITY PREDICTED BY RF-SCORE:    0.00 PKD
ROOT
HETATM    1  C   UNL     1     -11.210   6.535  72.419  1.00  0.00    -0.310 C  
HETATM    2  C   UNL     1      -9.826   6.875  71.866  1.00  0.00    -0.173 A  
HETATM    3  C   UNL     1     -11.400   5.093  72.898  1.00  0.00    -0.354 C  
HETATM    4  C   UNL     1     -12.344   6.824  71.436  1.00  0.00    -0.353 C  
HETATM    5  O   UNL     1     -12.087   6.483  70.150  1.00  0.00    -0.323 OA 
HETATM    6  O   UNL     1     -13.428   7.278  71.775  1.00  0.00    -0.353 OA 
HETATM    7  C   UNL     1      -9.604   8.150  71.309  1.00  0.00    -0.203 A  
HETATM    8  C   UNL     1      -8.388   8.465  70.686  1.00  0.00    -0.129 A  
HETATM    9  C   UNL     1      -7.336   7.550  70.722  1.00  0.00    -0.068 A  
HETATM   10  C   UNL     1      -8.755   5.967  71.880  1.00  0.00    -0.137 A  
HETATM   11  C   UNL     1      -7.517   6.307  71.326  1.00  0.00    -0.093 A  
ENDROOT
BRANCH   8  12
HETATM   12  C   UNL     1      -8.182   9.750  69.964  1.00  0.00    -0.191 C  
HETATM   13  O   UNL     1      -7.259  10.481  70.317  1.00  0.00    -0.226 OA 
BRANCH  12  14
HETATM   14  C   UNL     1      -9.043  10.146  68.811  1.00  0.00    -0.153 A  
HETATM   15  C   UNL     1      -9.599  11.427  68.697  1.00  0.00    -0.179 A  
HETATM   16  C   UNL     1     -10.377  11.765  67.587  1.00  0.00    -0.219 A  
HETATM   17  C   UNL     1     -10.635  10.814  66.602  1.00  0.00    -0.291 A  
HETATM   18  C   UNL     1     -10.124   9.522  66.729  1.00  0.00    -0.312 A  
HETATM   19  C   UNL     1      -9.331   9.188  67.830  1.00  0.00    -0.152 A  
ENDBRANCH  12  14
ENDBRANCH   8  12
TORSDOF 2
ENDMDL
MODEL      159
REMARK 921   NORMALIZED FREE ENERGY PREDICTED BY IDOCK:   -3.82 KCAL/MOL
REMARK 922        TOTAL FREE ENERGY PREDICTED BY IDOCK:   -4.81 KCAL/MOL
REMARK 923 INTER-LIGAND FREE ENERGY PREDICTED BY IDOCK:   -4.39 KCAL/MOL
REMARK 924 INTRA-LIGAND FREE ENERGY PREDICTED BY IDOCK:   -0.42 KCAL/MOL
REMARK 927      BINDING AFFINITY PREDICTED BY RF-SCORE:    0.00 PKD
ROOT
HETATM    1  C   UNL     1      -9.478   2.328  64.399  1.00  0.00    -0.133 C  
HETATM    2  C   UNL     1      -8.999   3.450  65.321  1.00  0.00    -0.140 A  
HETATM    3  C   UNL     1      -8.416   1.731  63.470  1.00  0.00    -0.080 C  
HETATM    4  C   UNL     1     -10.658   2.731  63.516  1.00  0.00    -0.213 C  
HETATM    5  O   UNL     1     -10.580   3.976  62.990  1.00  0.00    -0.193 OA 
HETATM    6  O   UNL     1     -11.585   1.978  63.249  1.00  0.00    -0.323 OA 
HETATM    7  C   UNL     1      -9.939   4.121  66.129  1.00  0.00    -0.188 A  
HETATM    8  C   UNL     1      -9.566   5.231  66.901  1.00  0.00    -0.153 A  
HETATM    9  C   UNL     1      -8.224   5.606  66.969  1.00  0.00    -0.101 A  
HETATM   10  C   UNL     1      -7.657   3.854  65.398  1.00  0.00    -0.082 A  
HETATM   11  C   UNL     1      -7.271   4.912  66.225  1.00  0.00    -0.077 A  
ENDROOT
BRANCH   8  12
HETATM   12  C   UNL     1     -10.564   6.044  67.647  1.00  0.00    -0.264 C  
HETATM   13  O   UNL     1     -11.283   6.815  67.015  1.00  0.00    -0.393 OA 
BRANCH  12  14
HETATM   14  C   UNL     1     -10.731   5.915  69.125  1.00  0.00    -0.394 A  
HETATM   15  C   UNL     1     -11.627   6.713  69.849  1.00  0.00    -0.393 A  
HETATM   16  C   UNL     1     -11.772   6.541  71.227  1.00  0.00    -0.386 A  
HETATM   17  C   UNL     1     -10.997   5.597  71.897  1.00  0.00    -0.297 A  
HETATM   18  C   UNL     1     -10.069   4.830  71.193  1.00  0.00    -0.261 A  
HETATM   19  C   UNL     1      -9.935   4.988  69.811  1.00  0.00    -0.319 A  
ENDBRANCH  12  14
ENDBRANCH   8  12
TORSDOF 2
ENDMDL
MODEL      160
REMARK 921   NORMALIZED FREE ENERGY PREDICTED BY IDOCK:   -3.80 KCAL/MOL
REMARK 922        TOTAL FREE ENERGY PREDICTED BY IDOCK:   -4.79 KCAL/MOL
REMARK 923 INTER-LIGAND FREE ENERGY PREDICTED BY IDOCK:   -4.24 KCAL/MOL
REMARK 924 INTRA-LIGAND FREE ENERGY PREDICTED BY IDOCK:   -0.55 KCAL/MOL
REMARK 927      BINDING AFFINITY PREDICTED BY RF-SCORE:    0.00 PKD
ROOT
HETATM    1  C   UNL     1      -7.474   8.663  64.121  1.00  0.00    -0.110 C  
HETATM    2  C   UNL     1      -8.474   9.805  64.311  1.00  0.00    -0.184 A  
HETATM    3  C   UNL     1      -7.596   7.883  62.809  1.00  0.00    -0.124 C  
HETATM    4  C   UNL     1      -7.508   7.634  65.250  1.00  0.00    -0.083 C  
HETATM    5  O   UNL     1      -8.747   7.307  65.690  1.00  0.00    -0.143 OA 
HETATM    6  O   UNL     1      -6.505   7.093  65.696  1.00  0.00    -0.045 OA 
HETATM    7  C   UNL     1      -8.494  10.501  65.536  1.00  0.00    -0.177 A  
HETATM    8  C   UNL     1      -9.469  11.475  65.798  1.00  0.00    -0.255 A  
HETATM    9  C   UNL     1     -10.358  11.850  64.790  1.00  0.00    -0.323 A  
HETATM   10  C   UNL     1      -9.386  10.192  63.318  1.00  0.00    -0.332 A  
HETATM   11  C   UNL     1     -10.310  11.216  63.550  1.00  0.00    -0.446 A  
ENDROOT
BRANCH   8  12
HETATM   12  C   UNL     1      -9.602  12.118  67.132  1.00  0.00    -0.194 C  
HETATM   13  O   UNL     1      -9.024  13.185  67.330  1.00  0.00    -0.198 OA 
BRANCH  12  14
HETATM   14  C   UNL     1     -10.442  11.518  68.210  1.00  0.00    -0.219 A  
HETATM   15  C   UNL     1     -10.208  10.230  68.711  1.00  0.00    -0.205 A  
HETATM   16  C   UNL     1     -11.001   9.716  69.740  1.00  0.00    -0.266 A  
HETATM   17  C   UNL     1     -12.056  10.470  70.249  1.00  0.00    -0.402 A  
HETATM   18  C   UNL     1     -12.325  11.735  69.726  1.00  0.00    -0.175 A  
HETATM   19  C   UNL     1     -11.522  12.257  68.709  1.00  0.00    -0.360 A  
ENDBRANCH  12  14
ENDBRANCH   8  12
TORSDOF 2
ENDMDL
MODEL      161
REMARK 921   NORMALIZED FREE ENERGY PREDICTED BY IDOCK:   -3.80 KCAL/MOL
REMARK 922        TOTAL FREE ENERGY PREDICTED BY IDOCK:   -4.79 KCAL/MOL
REMARK 923 INTER-LIGAND FREE ENERGY PREDICTED BY IDOCK:   -4.19 KCAL/MOL
REMARK 924 INTRA-LIGAND FREE ENERGY PREDICTED BY IDOCK:   -0.60 KCAL/MOL
REMARK 927      BINDING AFFINITY PREDICTED BY RF-SCORE:    0.00 PKD
ROOT
HETATM    1  C   UNL     1     -12.552   9.720  70.815  1.00  0.00    -0.276 C  
HETATM    2  C   UNL     1     -11.149   9.264  70.411  1.00  0.00    -0.300 A  
HETATM    3  C   UNL     1     -12.700  11.208  71.142  1.00  0.00    -0.510 C  
HETATM    4  C   UNL     1     -13.119   8.949  72.007  1.00  0.00    -0.402 C  
HETATM    5  O   UNL     1     -12.235   8.704  73.003  1.00  0.00    -0.175 OA 
HETATM    6  O   UNL     1     -14.295   8.620  72.096  1.00  0.00    -0.446 OA 
HETATM    7  C   UNL     1     -10.908   7.892  70.199  1.00  0.00    -0.243 A  
HETATM    8  C   UNL     1      -9.614   7.417  69.941  1.00  0.00    -0.163 A  
HETATM    9  C   UNL     1      -8.566   8.322  69.773  1.00  0.00    -0.129 A  
HETATM   10  C   UNL     1     -10.076  10.154  70.248  1.00  0.00    -0.131 A  
HETATM   11  C   UNL     1      -8.799   9.688  69.917  1.00  0.00    -0.240 A  
ENDROOT
BRANCH   8  12
HETATM   12  C   UNL     1      -9.311   5.963  69.858  1.00  0.00    -0.150 C  
HETATM   13  O   UNL     1      -9.168   5.455  68.748  1.00  0.00    -0.118 OA 
BRANCH  12  14
HETATM   14  C   UNL     1      -9.143   5.127  71.083  1.00  0.00    -0.174 A  
HETATM   15  C   UNL     1      -8.105   5.342  72.000  1.00  0.00    -0.114 A  
HETATM   16  C   UNL     1      -8.000   4.554  73.148  1.00  0.00    -0.095 A  
HETATM   17  C   UNL     1      -8.910   3.522  73.370  1.00  0.00    -0.088 A  
HETATM   18  C   UNL     1      -9.919   3.270  72.441  1.00  0.00    -0.233 A  
HETATM   19  C   UNL     1     -10.036   4.069  71.301  1.00  0.00    -0.202 A  
ENDBRANCH  12  14
ENDBRANCH   8  12
TORSDOF 2
ENDMDL
MODEL      162
REMARK 921   NORMALIZED FREE ENERGY PREDICTED BY IDOCK:   -3.79 KCAL/MOL
REMARK 922        TOTAL FREE ENERGY PREDICTED BY IDOCK:   -4.78 KCAL/MOL
REMARK 923 INTER-LIGAND FREE ENERGY PREDICTED BY IDOCK:   -4.28 KCAL/MOL
REMARK 924 INTRA-LIGAND FREE ENERGY PREDICTED BY IDOCK:   -0.49 KCAL/MOL
REMARK 927      BINDING AFFINITY PREDICTED BY RF-SCORE:    0.00 PKD
ROOT
HETATM    1  C   UNL     1      -9.334   9.113  65.780  1.00  0.00    -0.309 C  
HETATM    2  C   UNL     1      -8.959   8.408  67.085  1.00  0.00    -0.153 A  
HETATM    3  C   UNL     1      -8.376   8.894  64.606  1.00  0.00    -0.179 C  
HETATM    4  C   UNL     1      -9.504  10.623  65.934  1.00  0.00    -0.196 C  
HETATM    5  O   UNL     1      -8.580  11.226  66.721  1.00  0.00    -0.148 OA 
HETATM    6  O   UNL     1     -10.368  11.265  65.353  1.00  0.00    -0.253 OA 
HETATM    7  C   UNL     1      -9.732   8.646  68.239  1.00  0.00    -0.171 A  
HETATM    8  C   UNL     1      -9.356   8.114  69.482  1.00  0.00    -0.155 A  
HETATM    9  C   UNL     1      -8.272   7.240  69.560  1.00  0.00    -0.131 A  
HETATM   10  C   UNL     1      -7.866   7.534  67.192  1.00  0.00    -0.117 A  
HETATM   11  C   UNL     1      -7.535   6.944  68.415  1.00  0.00    -0.098 A  
ENDROOT
BRANCH   8  12
HETATM   12  C   UNL     1     -10.071   8.468  70.738  1.00  0.00    -0.198 C  
HETATM   13  O   UNL     1     -10.512   9.608  70.861  1.00  0.00    -0.300 OA 
BRANCH  12  14
HETATM   14  C   UNL     1     -10.291   7.465  71.822  1.00  0.00    -0.215 A  
HETATM   15  C   UNL     1     -10.986   6.268  71.604  1.00  0.00    -0.310 A  
HETATM   16  C   UNL     1     -11.145   5.344  72.639  1.00  0.00    -0.332 A  
HETATM   17  C   UNL     1     -10.644   5.626  73.908  1.00  0.00    -0.285 A  
HETATM   18  C   UNL     1      -9.991   6.835  74.147  1.00  0.00    -0.373 A  
HETATM   19  C   UNL     1      -9.815   7.753  73.108  1.00  0.00    -0.361 A  
ENDBRANCH  12  14
ENDBRANCH   8  12
TORSDOF 2
ENDMDL
MODEL      163
REMARK 921   NORMALIZED FREE ENERGY PREDICTED BY IDOCK:   -3.79 KCAL/MOL
REMARK 922        TOTAL FREE ENERGY PREDICTED BY IDOCK:   -4.77 KCAL/MOL
REMARK 923 INTER-LIGAND FREE ENERGY PREDICTED BY IDOCK:   -4.24 KCAL/MOL
REMARK 924 INTRA-LIGAND FREE ENERGY PREDICTED BY IDOCK:   -0.54 KCAL/MOL
REMARK 927      BINDING AFFINITY PREDICTED BY RF-SCORE:    0.00 PKD
ROOT
HETATM    1  C   UNL     1      -8.006   9.799  67.020  1.00  0.00    -0.105 C  
HETATM    2  C   UNL     1      -9.098  10.783  66.598  1.00  0.00    -0.174 A  
HETATM    3  C   UNL     1      -7.792   8.603  66.088  1.00  0.00    -0.098 C  
HETATM    4  C   UNL     1      -8.210   9.233  68.424  1.00  0.00    -0.115 C  
HETATM    5  O   UNL     1      -9.490   8.909  68.730  1.00  0.00    -0.143 OA 
HETATM    6  O   UNL     1      -7.292   9.027  69.206  1.00  0.00    -0.067 OA 
HETATM    7  C   UNL     1      -9.427  11.851  67.456  1.00  0.00    -0.176 A  
HETATM    8  C   UNL     1     -10.499  12.708  67.165  1.00  0.00    -0.245 A  
HETATM    9  C   UNL     1     -11.176  12.580  65.951  1.00  0.00    -0.356 A  
HETATM   10  C   UNL     1      -9.802  10.669  65.389  1.00  0.00    -0.325 A  
HETATM   11  C   UNL     1     -10.821  11.568  65.062  1.00  0.00    -0.336 A  
ENDROOT
BRANCH   8  12
HETATM   12  C   UNL     1     -10.957  13.750  68.123  1.00  0.00    -0.246 C  
HETATM   13  O   UNL     1     -11.831  13.457  68.936  1.00  0.00    -0.302 OA 
BRANCH  12  14
HETATM   14  C   UNL     1     -10.358  15.117  68.137  1.00  0.00    -0.239 A  
HETATM   15  C   UNL     1      -9.301  15.462  68.990  1.00  0.00    -0.232 A  
HETATM   16  C   UNL     1      -8.752  16.746  68.952  1.00  0.00    -0.224 A  
HETATM   17  C   UNL     1      -9.278  17.704  68.089  1.00  0.00    -0.282 A  
HETATM   18  C   UNL     1     -10.360  17.384  67.268  1.00  0.00    -0.336 A  
HETATM   19  C   UNL     1     -10.900  16.095  67.292  1.00  0.00    -0.235 A  
ENDBRANCH  12  14
ENDBRANCH   8  12
TORSDOF 2
ENDMDL
MODEL      164
REMARK 921   NORMALIZED FREE ENERGY PREDICTED BY IDOCK:   -3.78 KCAL/MOL
REMARK 922        TOTAL FREE ENERGY PREDICTED BY IDOCK:   -4.77 KCAL/MOL
REMARK 923 INTER-LIGAND FREE ENERGY PREDICTED BY IDOCK:   -4.15 KCAL/MOL
REMARK 924 INTRA-LIGAND FREE ENERGY PREDICTED BY IDOCK:   -0.62 KCAL/MOL
REMARK 927      BINDING AFFINITY PREDICTED BY RF-SCORE:    0.00 PKD
ROOT
HETATM    1  C   UNL     1      -9.466   6.807  70.602  1.00  0.00    -0.171 C  
HETATM    2  C   UNL     1      -8.980   7.135  69.189  1.00  0.00    -0.138 A  
HETATM    3  C   UNL     1      -8.956   5.489  71.192  1.00  0.00    -0.153 C  
HETATM    4  C   UNL     1     -10.989   6.787  70.730  1.00  0.00    -0.262 C  
HETATM    5  O   UNL     1     -11.642   6.202  69.697  1.00  0.00    -0.407 OA 
HETATM    6  O   UNL     1     -11.586   7.211  71.710  1.00  0.00    -0.261 OA 
HETATM    7  C   UNL     1      -9.488   8.277  68.538  1.00  0.00    -0.149 A  
HETATM    8  C   UNL     1      -9.161   8.552  67.202  1.00  0.00    -0.173 A  
HETATM    9  C   UNL     1      -8.225   7.755  66.542  1.00  0.00    -0.124 A  
HETATM   10  C   UNL     1      -8.049   6.343  68.500  1.00  0.00    -0.110 A  
HETATM   11  C   UNL     1      -7.664   6.659  67.193  1.00  0.00    -0.100 A  
ENDROOT
BRANCH   8  12
HETATM   12  C   UNL     1      -9.796   9.666  66.448  1.00  0.00    -0.244 C  
HETATM   13  O   UNL     1     -10.030   9.509  65.252  1.00  0.00    -0.247 OA 
BRANCH  12  14
HETATM   14  C   UNL     1     -10.184  10.943  67.118  1.00  0.00    -0.249 A  
HETATM   15  C   UNL     1     -11.521  11.282  67.367  1.00  0.00    -0.300 A  
HETATM   16  C   UNL     1     -11.838  12.474  68.022  1.00  0.00    -0.382 A  
HETATM   17  C   UNL     1     -10.825  13.353  68.398  1.00  0.00    -0.284 A  
HETATM   18  C   UNL     1      -9.495  13.047  68.114  1.00  0.00    -0.218 A  
HETATM   19  C   UNL     1      -9.174  11.846  67.475  1.00  0.00    -0.177 A  
ENDBRANCH  12  14
ENDBRANCH   8  12
TORSDOF 2
ENDMDL
MODEL      165
REMARK 921   NORMALIZED FREE ENERGY PREDICTED BY IDOCK:   -3.77 KCAL/MOL
REMARK 922        TOTAL FREE ENERGY PREDICTED BY IDOCK:   -4.76 KCAL/MOL
REMARK 923 INTER-LIGAND FREE ENERGY PREDICTED BY IDOCK:   -4.22 KCAL/MOL
REMARK 924 INTRA-LIGAND FREE ENERGY PREDICTED BY IDOCK:   -0.54 KCAL/MOL
REMARK 927      BINDING AFFINITY PREDICTED BY RF-SCORE:    0.00 PKD
ROOT
HETATM    1  C   UNL     1     -10.049  15.231  68.644  1.00  0.00    -0.222 C  
HETATM    2  C   UNL     1     -10.436  13.872  68.059  1.00  0.00    -0.243 A  
HETATM    3  C   UNL     1     -10.972  16.399  68.283  1.00  0.00    -0.355 C  
HETATM    4  C   UNL     1      -8.629  15.665  68.282  1.00  0.00    -0.158 C  
HETATM    5  O   UNL     1      -8.263  15.412  67.002  1.00  0.00    -0.200 OA 
HETATM    6  O   UNL     1      -7.886  16.248  69.059  1.00  0.00    -0.217 OA 
HETATM    7  C   UNL     1      -9.579  12.771  68.258  1.00  0.00    -0.211 A  
HETATM    8  C   UNL     1      -9.834  11.536  67.643  1.00  0.00    -0.192 A  
HETATM    9  C   UNL     1     -11.015  11.355  66.922  1.00  0.00    -0.355 A  
HETATM   10  C   UNL     1     -11.611  13.667  67.319  1.00  0.00    -0.387 A  
HETATM   11  C   UNL     1     -11.905  12.416  66.769  1.00  0.00    -0.385 A  
ENDROOT
BRANCH   8  12
HETATM   12  C   UNL     1      -8.872  10.405  67.720  1.00  0.00    -0.128 C  
HETATM   13  O   UNL     1      -7.880  10.428  66.994  1.00  0.00    -0.109 OA 
BRANCH  12  14
HETATM   14  C   UNL     1      -9.068   9.274  68.674  1.00  0.00    -0.132 A  
HETATM   15  C   UNL     1      -8.926   7.934  68.287  1.00  0.00    -0.132 A  
HETATM   16  C   UNL     1      -9.092   6.907  69.219  1.00  0.00    -0.140 A  
HETATM   17  C   UNL     1      -9.437   7.209  70.534  1.00  0.00    -0.162 A  
HETATM   18  C   UNL     1      -9.626   8.536  70.918  1.00  0.00    -0.228 A  
HETATM   19  C   UNL     1      -9.443   9.566  69.992  1.00  0.00    -0.265 A  
ENDBRANCH  12  14
ENDBRANCH   8  12
TORSDOF 2
ENDMDL
MODEL      166
REMARK 921   NORMALIZED FREE ENERGY PREDICTED BY IDOCK:   -3.74 KCAL/MOL
REMARK 922        TOTAL FREE ENERGY PREDICTED BY IDOCK:   -4.73 KCAL/MOL
REMARK 923 INTER-LIGAND FREE ENERGY PREDICTED BY IDOCK:   -4.27 KCAL/MOL
REMARK 924 INTRA-LIGAND FREE ENERGY PREDICTED BY IDOCK:   -0.46 KCAL/MOL
REMARK 927      BINDING AFFINITY PREDICTED BY RF-SCORE:    0.00 PKD
ROOT
HETATM    1  C   UNL     1     -12.554   9.719  70.816  1.00  0.00    -0.276 C  
HETATM    2  C   UNL     1     -11.225   9.112  70.366  1.00  0.00    -0.279 A  
HETATM    3  C   UNL     1     -12.523  11.212  71.155  1.00  0.00    -0.498 C  
HETATM    4  C   UNL     1     -13.169   9.007  72.020  1.00  0.00    -0.429 C  
HETATM    5  O   UNL     1     -12.288   8.654  72.987  1.00  0.00    -0.198 OA 
HETATM    6  O   UNL     1     -14.371   8.812  72.145  1.00  0.00    -0.440 OA 
HETATM    7  C   UNL     1     -11.148   7.724  70.138  1.00  0.00    -0.216 A  
HETATM    8  C   UNL     1      -9.924   7.108  69.837  1.00  0.00    -0.184 A  
HETATM    9  C   UNL     1      -8.786   7.891  69.641  1.00  0.00    -0.138 A  
HETATM   10  C   UNL     1     -10.064   9.877  70.174  1.00  0.00    -0.309 A  
HETATM   11  C   UNL     1      -8.859   9.273  69.800  1.00  0.00    -0.174 A  
ENDROOT
BRANCH   8  12
HETATM   12  C   UNL     1      -9.790   5.630  69.736  1.00  0.00    -0.185 C  
HETATM   13  O   UNL     1     -10.330   4.931  70.591  1.00  0.00    -0.228 OA 
BRANCH  12  14
HETATM   14  C   UNL     1      -9.051   4.986  68.609  1.00  0.00    -0.139 A  
HETATM   15  C   UNL     1      -7.678   4.713  68.674  1.00  0.00    -0.072 A  
HETATM   16  C   UNL     1      -7.031   4.085  67.607  1.00  0.00    -0.055 A  
HETATM   17  C   UNL     1      -7.742   3.760  66.455  1.00  0.00    -0.089 A  
HETATM   18  C   UNL     1      -9.100   4.069  66.362  1.00  0.00    -0.140 A  
HETATM   19  C   UNL     1      -9.753   4.681  67.435  1.00  0.00    -0.215 A  
ENDBRANCH  12  14
ENDBRANCH   8  12
TORSDOF 2
ENDMDL
MODEL      167
REMARK 921   NORMALIZED FREE ENERGY PREDICTED BY IDOCK:   -3.74 KCAL/MOL
REMARK 922        TOTAL FREE ENERGY PREDICTED BY IDOCK:   -4.72 KCAL/MOL
REMARK 923 INTER-LIGAND FREE ENERGY PREDICTED BY IDOCK:   -4.13 KCAL/MOL
REMARK 924 INTRA-LIGAND FREE ENERGY PREDICTED BY IDOCK:   -0.59 KCAL/MOL
REMARK 927      BINDING AFFINITY PREDICTED BY RF-SCORE:    0.00 PKD
ROOT
HETATM    1  C   UNL     1     -11.098  12.670  69.032  1.00  0.00    -0.291 C  
HETATM    2  C   UNL     1     -10.225  11.464  68.680  1.00  0.00    -0.217 A  
HETATM    3  C   UNL     1     -12.225  12.405  70.036  1.00  0.00    -0.264 C  
HETATM    4  C   UNL     1     -11.741  13.330  67.814  1.00  0.00    -0.358 C  
HETATM    5  O   UNL     1     -12.217  12.469  66.881  1.00  0.00    -0.511 OA 
HETATM    6  O   UNL     1     -11.875  14.540  67.697  1.00  0.00    -0.371 OA 
HETATM    7  C   UNL     1      -9.236  11.602  67.686  1.00  0.00    -0.178 A  
HETATM    8  C   UNL     1      -8.492  10.496  67.249  1.00  0.00    -0.122 A  
HETATM    9  C   UNL     1      -8.644   9.265  67.887  1.00  0.00    -0.120 A  
HETATM   10  C   UNL     1     -10.367  10.213  69.299  1.00  0.00    -0.242 A  
HETATM   11  C   UNL     1      -9.573   9.127  68.916  1.00  0.00    -0.152 A  
ENDROOT
BRANCH   8  12
HETATM   12  C   UNL     1      -7.547  10.586  66.103  1.00  0.00    -0.135 C  
HETATM   13  O   UNL     1      -6.496  11.204  66.256  1.00  0.00    -0.132 OA 
BRANCH  12  14
HETATM   14  C   UNL     1      -7.833   9.916  64.800  1.00  0.00    -0.141 A  
HETATM   15  C   UNL     1      -8.944  10.251  64.014  1.00  0.00    -0.261 A  
HETATM   16  C   UNL     1      -9.159   9.619  62.787  1.00  0.00    -0.254 A  
HETATM   17  C   UNL     1      -8.287   8.623  62.354  1.00  0.00    -0.200 A  
HETATM   18  C   UNL     1      -7.204   8.250  63.150  1.00  0.00    -0.094 A  
HETATM   19  C   UNL     1      -6.977   8.893  64.370  1.00  0.00    -0.088 A  
ENDBRANCH  12  14
ENDBRANCH   8  12
TORSDOF 2
ENDMDL
MODEL      168
REMARK 921   NORMALIZED FREE ENERGY PREDICTED BY IDOCK:   -3.73 KCAL/MOL
REMARK 922        TOTAL FREE ENERGY PREDICTED BY IDOCK:   -4.72 KCAL/MOL
REMARK 923 INTER-LIGAND FREE ENERGY PREDICTED BY IDOCK:   -4.51 KCAL/MOL
REMARK 924 INTRA-LIGAND FREE ENERGY PREDICTED BY IDOCK:   -0.21 KCAL/MOL
REMARK 927      BINDING AFFINITY PREDICTED BY RF-SCORE:    0.00 PKD
ROOT
HETATM    1  C   UNL     1      -7.892   6.983  64.943  1.00  0.00    -0.126 C  
HETATM    2  C   UNL     1      -8.266   7.819  66.168  1.00  0.00    -0.123 A  
HETATM    3  C   UNL     1      -6.555   6.241  65.027  1.00  0.00    -0.039 C  
HETATM    4  C   UNL     1      -7.868   7.788  63.645  1.00  0.00    -0.128 C  
HETATM    5  O   UNL     1      -7.318   9.022  63.746  1.00  0.00    -0.098 OA 
HETATM    6  O   UNL     1      -8.260   7.347  62.573  1.00  0.00    -0.131 OA 
HETATM    7  C   UNL     1      -9.428   8.615  66.126  1.00  0.00    -0.308 A  
HETATM    8  C   UNL     1      -9.747   9.485  67.180  1.00  0.00    -0.221 A  
HETATM    9  C   UNL     1      -8.972   9.478  68.339  1.00  0.00    -0.127 A  
HETATM   10  C   UNL     1      -7.497   7.839  67.342  1.00  0.00    -0.093 A  
HETATM   11  C   UNL     1      -7.855   8.650  68.423  1.00  0.00    -0.105 A  
ENDROOT
BRANCH   8  12
HETATM   12  C   UNL     1     -10.886  10.439  67.096  1.00  0.00    -0.238 C  
HETATM   13  O   UNL     1     -11.705  10.457  68.012  1.00  0.00    -0.383 OA 
BRANCH  12  14
HETATM   14  C   UNL     1     -11.030  11.387  65.952  1.00  0.00    -0.268 A  
HETATM   15  C   UNL     1     -10.539  11.096  64.672  1.00  0.00    -0.386 A  
HETATM   16  C   UNL     1     -10.719  12.000  63.623  1.00  0.00    -0.506 A  
HETATM   17  C   UNL     1     -11.357  13.216  63.853  1.00  0.00    -0.420 A  
HETATM   18  C   UNL     1     -11.808  13.536  65.134  1.00  0.00    -0.363 A  
HETATM   19  C   UNL     1     -11.645  12.625  66.181  1.00  0.00    -0.445 A  
ENDBRANCH  12  14
ENDBRANCH   8  12
TORSDOF 2
ENDMDL
MODEL      169
REMARK 921   NORMALIZED FREE ENERGY PREDICTED BY IDOCK:   -3.72 KCAL/MOL
REMARK 922        TOTAL FREE ENERGY PREDICTED BY IDOCK:   -4.70 KCAL/MOL
REMARK 923 INTER-LIGAND FREE ENERGY PREDICTED BY IDOCK:   -4.11 KCAL/MOL
REMARK 924 INTRA-LIGAND FREE ENERGY PREDICTED BY IDOCK:   -0.59 KCAL/MOL
REMARK 927      BINDING AFFINITY PREDICTED BY RF-SCORE:    0.00 PKD
ROOT
HETATM    1  C   UNL     1     -11.134  10.386  68.478  1.00  0.00    -0.318 C  
HETATM    2  C   UNL     1     -10.761  10.572  67.006  1.00  0.00    -0.310 A  
HETATM    3  C   UNL     1     -11.889  11.550  69.126  1.00  0.00    -0.406 C  
HETATM    4  C   UNL     1      -9.935  10.085  69.375  1.00  0.00    -0.223 C  
HETATM    5  O   UNL     1      -8.822  10.809  69.104  1.00  0.00    -0.156 OA 
HETATM    6  O   UNL     1      -9.974   9.294  70.308  1.00  0.00    -0.188 OA 
HETATM    7  C   UNL     1      -9.975   9.592  66.369  1.00  0.00    -0.339 A  
HETATM    8  C   UNL     1      -9.511   9.777  65.058  1.00  0.00    -0.337 A  
HETATM    9  C   UNL     1      -9.930  10.889  64.328  1.00  0.00    -0.392 A  
HETATM   10  C   UNL     1     -11.160  11.688  66.254  1.00  0.00    -0.345 A  
HETATM   11  C   UNL     1     -10.760  11.837  64.922  1.00  0.00    -0.347 A  
ENDROOT
BRANCH   8  12
HETATM   12  C   UNL     1      -8.562   8.827  64.417  1.00  0.00    -0.084 C  
HETATM   13  O   UNL     1      -8.323   8.956  63.218  1.00  0.00    -0.184 OA 
BRANCH  12  14
HETATM   14  C   UNL     1      -7.878   7.756  65.200  1.00  0.00    -0.123 A  
HETATM   15  C   UNL     1      -8.394   6.457  65.302  1.00  0.00    -0.131 A  
HETATM   16  C   UNL     1      -7.707   5.478  66.022  1.00  0.00    -0.095 A  
HETATM   17  C   UNL     1      -6.520   5.798  66.678  1.00  0.00    -0.050 A  
HETATM   18  C   UNL     1      -6.022   7.100  66.621  1.00  0.00    -0.035 A  
HETATM   19  C   UNL     1      -6.699   8.077  65.886  1.00  0.00    -0.049 A  
ENDBRANCH  12  14
ENDBRANCH   8  12
TORSDOF 2
ENDMDL
MODEL      170
REMARK 921   NORMALIZED FREE ENERGY PREDICTED BY IDOCK:   -3.71 KCAL/MOL
REMARK 922        TOTAL FREE ENERGY PREDICTED BY IDOCK:   -4.69 KCAL/MOL
REMARK 923 INTER-LIGAND FREE ENERGY PREDICTED BY IDOCK:   -4.48 KCAL/MOL
REMARK 924 INTRA-LIGAND FREE ENERGY PREDICTED BY IDOCK:   -0.20 KCAL/MOL
REMARK 927      BINDING AFFINITY PREDICTED BY RF-SCORE:    0.00 PKD
ROOT
HETATM    1  C   UNL     1      -6.941  18.308  67.086  1.00  0.00    -0.210 C  
HETATM    2  C   UNL     1      -7.010  16.913  67.709  1.00  0.00    -0.156 A  
HETATM    3  C   UNL     1      -5.821  19.214  67.607  1.00  0.00    -0.195 C  
HETATM    4  C   UNL     1      -8.243  19.097  67.219  1.00  0.00    -0.276 C  
HETATM    5  O   UNL     1      -8.861  18.982  68.419  1.00  0.00    -0.318 OA 
HETATM    6  O   UNL     1      -8.679  19.826  66.339  1.00  0.00    -0.343 OA 
HETATM    7  C   UNL     1      -8.075  16.059  67.359  1.00  0.00    -0.188 A  
HETATM    8  C   UNL     1      -8.244  14.818  67.991  1.00  0.00    -0.142 A  
HETATM    9  C   UNL     1      -7.280  14.365  68.892  1.00  0.00    -0.125 A  
HETATM   10  C   UNL     1      -6.060  16.439  68.626  1.00  0.00    -0.126 A  
HETATM   11  C   UNL     1      -6.186  15.171  69.202  1.00  0.00    -0.106 A  
ENDROOT
BRANCH   8  12
HETATM   12  C   UNL     1      -9.438  13.965  67.746  1.00  0.00    -0.214 C  
HETATM   13  O   UNL     1      -9.851  13.255  68.660  1.00  0.00    -0.191 OA 
BRANCH  12  14
HETATM   14  C   UNL     1     -10.155  13.981  66.437  1.00  0.00    -0.299 A  
HETATM   15  C   UNL     1     -10.241  12.848  65.616  1.00  0.00    -0.295 A  
HETATM   16  C   UNL     1     -10.946  12.899  64.411  1.00  0.00    -0.400 A  
HETATM   17  C   UNL     1     -11.536  14.091  64.000  1.00  0.00    -0.204 A  
HETATM   18  C   UNL     1     -11.417  15.237  64.787  1.00  0.00    -0.364 A  
HETATM   19  C   UNL     1     -10.728  15.183  66.001  1.00  0.00    -0.333 A  
ENDBRANCH  12  14
ENDBRANCH   8  12
TORSDOF 2
ENDMDL
MODEL      171
REMARK 921   NORMALIZED FREE ENERGY PREDICTED BY IDOCK:   -3.69 KCAL/MOL
REMARK 922        TOTAL FREE ENERGY PREDICTED BY IDOCK:   -4.67 KCAL/MOL
REMARK 923 INTER-LIGAND FREE ENERGY PREDICTED BY IDOCK:   -4.11 KCAL/MOL
REMARK 924 INTRA-LIGAND FREE ENERGY PREDICTED BY IDOCK:   -0.55 KCAL/MOL
REMARK 927      BINDING AFFINITY PREDICTED BY RF-SCORE:    0.00 PKD
ROOT
HETATM    1  C   UNL     1      -8.926   8.386  69.356  1.00  0.00    -0.153 C  
HETATM    2  C   UNL     1      -9.236   9.315  68.181  1.00  0.00    -0.136 A  
HETATM    3  C   UNL     1      -8.850   6.894  69.022  1.00  0.00    -0.130 C  
HETATM    4  C   UNL     1      -9.910   8.528  70.516  1.00  0.00    -0.180 C  
HETATM    5  O   UNL     1     -11.208   8.657  70.153  1.00  0.00    -0.237 OA 
HETATM    6  O   UNL     1      -9.575   8.473  71.692  1.00  0.00    -0.198 OA 
HETATM    7  C   UNL     1      -9.427  10.689  68.426  1.00  0.00    -0.165 A  
HETATM    8  C   UNL     1      -9.827  11.558  67.400  1.00  0.00    -0.202 A  
HETATM    9  C   UNL     1      -9.921  11.084  66.091  1.00  0.00    -0.277 A  
HETATM   10  C   UNL     1      -9.348   8.860  66.858  1.00  0.00    -0.213 A  
HETATM   11  C   UNL     1      -9.673   9.739  65.821  1.00  0.00    -0.340 A  
ENDROOT
BRANCH   8  12
HETATM   12  C   UNL     1     -10.175  12.980  67.662  1.00  0.00    -0.216 C  
HETATM   13  O   UNL     1     -11.226  13.229  68.249  1.00  0.00    -0.248 OA 
BRANCH  12  14
HETATM   14  C   UNL     1      -9.265  14.095  67.263  1.00  0.00    -0.222 A  
HETATM   15  C   UNL     1      -9.644  15.073  66.333  1.00  0.00    -0.314 A  
HETATM   16  C   UNL     1      -8.772  16.115  66.008  1.00  0.00    -0.282 A  
HETATM   17  C   UNL     1      -7.503  16.166  66.580  1.00  0.00    -0.200 A  
HETATM   18  C   UNL     1      -7.100  15.172  67.472  1.00  0.00    -0.225 A  
HETATM   19  C   UNL     1      -7.977  14.139  67.812  1.00  0.00    -0.175 A  
ENDBRANCH  12  14
ENDBRANCH   8  12
TORSDOF 2
ENDMDL
MODEL      172
REMARK 921   NORMALIZED FREE ENERGY PREDICTED BY IDOCK:   -3.66 KCAL/MOL
REMARK 922        TOTAL FREE ENERGY PREDICTED BY IDOCK:   -4.63 KCAL/MOL
REMARK 923 INTER-LIGAND FREE ENERGY PREDICTED BY IDOCK:   -4.34 KCAL/MOL
REMARK 924 INTRA-LIGAND FREE ENERGY PREDICTED BY IDOCK:   -0.30 KCAL/MOL
REMARK 927      BINDING AFFINITY PREDICTED BY RF-SCORE:    0.00 PKD
ROOT
HETATM    1  C   UNL     1      -9.972  18.204  67.362  1.00  0.00    -0.329 C  
HETATM    2  C   UNL     1     -10.458  16.958  66.620  1.00  0.00    -0.257 A  
HETATM    3  C   UNL     1     -10.018  19.512  66.567  1.00  0.00    -0.518 C  
HETATM    4  C   UNL     1      -8.551  18.070  67.907  1.00  0.00    -0.257 C  
HETATM    5  O   UNL     1      -7.673  17.463  67.072  1.00  0.00    -0.187 OA 
HETATM    6  O   UNL     1      -8.201  18.520  68.989  1.00  0.00    -0.218 OA 
HETATM    7  C   UNL     1     -10.347  15.701  67.246  1.00  0.00    -0.277 A  
HETATM    8  C   UNL     1     -10.671  14.520  66.560  1.00  0.00    -0.312 A  
HETATM    9  C   UNL     1     -11.224  14.595  65.281  1.00  0.00    -0.358 A  
HETATM   10  C   UNL     1     -11.007  17.005  65.329  1.00  0.00    -0.010 A  
HETATM   11  C   UNL     1     -11.400  15.835  64.672  1.00  0.00    -0.343 A  
ENDROOT
BRANCH   8  12
HETATM   12  C   UNL     1     -10.426  13.176  67.147  1.00  0.00    -0.247 C  
HETATM   13  O   UNL     1     -11.380  12.413  67.287  1.00  0.00    -0.282 OA 
BRANCH  12  14
HETATM   14  C   UNL     1      -9.055  12.728  67.531  1.00  0.00    -0.193 A  
HETATM   15  C   UNL     1      -8.124  13.591  68.125  1.00  0.00    -0.154 A  
HETATM   16  C   UNL     1      -6.861  13.124  68.495  1.00  0.00    -0.099 A  
HETATM   17  C   UNL     1      -6.505  11.802  68.238  1.00  0.00    -0.051 A  
HETATM   18  C   UNL     1      -7.407  10.947  67.606  1.00  0.00    -0.094 A  
HETATM   19  C   UNL     1      -8.678  11.408  67.252  1.00  0.00    -0.148 A  
ENDBRANCH  12  14
ENDBRANCH   8  12
TORSDOF 2
ENDMDL
MODEL      173
REMARK 921   NORMALIZED FREE ENERGY PREDICTED BY IDOCK:   -3.65 KCAL/MOL
REMARK 922        TOTAL FREE ENERGY PREDICTED BY IDOCK:   -4.62 KCAL/MOL
REMARK 923 INTER-LIGAND FREE ENERGY PREDICTED BY IDOCK:   -4.08 KCAL/MOL
REMARK 924 INTRA-LIGAND FREE ENERGY PREDICTED BY IDOCK:   -0.55 KCAL/MOL
REMARK 927      BINDING AFFINITY PREDICTED BY RF-SCORE:    0.00 PKD
ROOT
HETATM    1  C   UNL     1      -6.734   8.871  65.834  1.00  0.00    -0.068 C  
HETATM    2  C   UNL     1      -7.999   8.876  66.694  1.00  0.00    -0.103 A  
HETATM    3  C   UNL     1      -5.752   7.726  66.101  1.00  0.00    -0.037 C  
HETATM    4  C   UNL     1      -5.932  10.168  65.928  1.00  0.00    -0.084 C  
HETATM    5  O   UNL     1      -5.835  10.692  67.174  1.00  0.00    -0.045 OA 
HETATM    6  O   UNL     1      -5.367  10.680  64.971  1.00  0.00    -0.135 OA 
HETATM    7  C   UNL     1      -8.899   9.954  66.582  1.00  0.00    -0.149 A  
HETATM    8  C   UNL     1     -10.010  10.059  67.432  1.00  0.00    -0.242 A  
HETATM    9  C   UNL     1     -10.300   9.023  68.320  1.00  0.00    -0.252 A  
HETATM   10  C   UNL     1      -8.307   7.852  67.603  1.00  0.00    -0.124 A  
HETATM   11  C   UNL     1      -9.455   7.918  68.398  1.00  0.00    -0.150 A  
ENDROOT
BRANCH   8  12
HETATM   12  C   UNL     1     -10.892  11.257  67.432  1.00  0.00    -0.262 C  
HETATM   13  O   UNL     1     -11.991  11.177  67.976  1.00  0.00    -0.625 OA 
BRANCH  12  14
HETATM   14  C   UNL     1     -10.457  12.548  66.822  1.00  0.00    -0.243 A  
HETATM   15  C   UNL     1      -9.436  13.332  67.378  1.00  0.00    -0.218 A  
HETATM   16  C   UNL     1      -9.041  14.520  66.760  1.00  0.00    -0.283 A  
HETATM   17  C   UNL     1      -9.687  14.953  65.604  1.00  0.00    -0.326 A  
HETATM   18  C   UNL     1     -10.735  14.204  65.069  1.00  0.00    -0.429 A  
HETATM   19  C   UNL     1     -11.120  13.006  65.676  1.00  0.00    -0.301 A  
ENDBRANCH  12  14
ENDBRANCH   8  12
TORSDOF 2
ENDMDL
MODEL      174
REMARK 921   NORMALIZED FREE ENERGY PREDICTED BY IDOCK:   -3.64 KCAL/MOL
REMARK 922        TOTAL FREE ENERGY PREDICTED BY IDOCK:   -4.61 KCAL/MOL
REMARK 923 INTER-LIGAND FREE ENERGY PREDICTED BY IDOCK:   -4.10 KCAL/MOL
REMARK 924 INTRA-LIGAND FREE ENERGY PREDICTED BY IDOCK:   -0.51 KCAL/MOL
REMARK 927      BINDING AFFINITY PREDICTED BY RF-SCORE:    0.00 PKD
ROOT
HETATM    1  C   UNL     1      -6.775  17.921  67.045  1.00  0.00    -0.203 C  
HETATM    2  C   UNL     1      -7.734  16.874  67.613  1.00  0.00    -0.179 A  
HETATM    3  C   UNL     1      -6.450  19.098  67.970  1.00  0.00    -0.248 C  
HETATM    4  C   UNL     1      -7.246  18.520  65.720  1.00  0.00    -0.189 C  
HETATM    5  O   UNL     1      -8.571  18.792  65.655  1.00  0.00    -0.323 OA 
HETATM    6  O   UNL     1      -6.488  18.793  64.799  1.00  0.00    -0.506 OA 
HETATM    7  C   UNL     1      -8.164  15.818  66.785  1.00  0.00    -0.302 A  
HETATM    8  C   UNL     1      -9.131  14.903  67.224  1.00  0.00    -0.211 A  
HETATM    9  C   UNL     1      -9.589  14.961  68.541  1.00  0.00    -0.215 A  
HETATM   10  C   UNL     1      -8.218  16.918  68.929  1.00  0.00    -0.218 A  
HETATM   11  C   UNL     1      -9.126  15.961  69.393  1.00  0.00    -0.222 A  
ENDROOT
BRANCH   8  12
HETATM   12  C   UNL     1      -9.707  13.870  66.321  1.00  0.00    -0.289 C  
HETATM   13  O   UNL     1     -10.732  14.139  65.700  1.00  0.00    -0.294 OA 
BRANCH  12  14
HETATM   14  C   UNL     1      -9.050  12.543  66.132  1.00  0.00    -0.012 A  
HETATM   15  C   UNL     1      -9.616  11.533  65.342  1.00  0.00    -0.249 A  
HETATM   16  C   UNL     1      -8.955  10.315  65.169  1.00  0.00    -0.220 A  
HETATM   17  C   UNL     1      -7.742  10.083  65.814  1.00  0.00    -0.122 A  
HETATM   18  C   UNL     1      -7.193  11.064  66.640  1.00  0.00    -0.143 A  
HETATM   19  C   UNL     1      -7.844  12.290  66.799  1.00  0.00     0.043 A  
ENDBRANCH  12  14
ENDBRANCH   8  12
TORSDOF 2
ENDMDL
MODEL      175
REMARK 921   NORMALIZED FREE ENERGY PREDICTED BY IDOCK:   -3.56 KCAL/MOL
REMARK 922        TOTAL FREE ENERGY PREDICTED BY IDOCK:   -4.52 KCAL/MOL
REMARK 923 INTER-LIGAND FREE ENERGY PREDICTED BY IDOCK:   -3.98 KCAL/MOL
REMARK 924 INTRA-LIGAND FREE ENERGY PREDICTED BY IDOCK:   -0.53 KCAL/MOL
REMARK 927      BINDING AFFINITY PREDICTED BY RF-SCORE:    0.00 PKD
ROOT
HETATM    1  C   UNL     1     -11.913   6.696  71.274  1.00  0.00    -0.409 C  
HETATM    2  C   UNL     1     -11.129   6.805  69.965  1.00  0.00    -0.366 A  
HETATM    3  C   UNL     1     -12.206   8.020  71.986  1.00  0.00    -0.374 C  
HETATM    4  C   UNL     1     -11.252   5.780  72.302  1.00  0.00    -0.278 C  
HETATM    5  O   UNL     1      -9.905   5.899  72.393  1.00  0.00    -0.163 OA 
HETATM    6  O   UNL     1     -11.880   5.029  73.036  1.00  0.00    -0.269 OA 
HETATM    7  C   UNL     1     -10.729   5.626  69.306  1.00  0.00    -0.350 A  
HETATM    8  C   UNL     1      -9.910   5.676  68.168  1.00  0.00    -0.170 A  
HETATM    9  C   UNL     1      -9.583   6.911  67.606  1.00  0.00    -0.143 A  
HETATM   10  C   UNL     1     -10.777   8.035  69.387  1.00  0.00    -0.167 A  
HETATM   11  C   UNL     1     -10.024   8.087  68.210  1.00  0.00    -0.210 A  
ENDROOT
BRANCH   8  12
HETATM   12  C   UNL     1      -9.356   4.446  67.541  1.00  0.00    -0.154 C  
HETATM   13  O   UNL     1      -8.918   3.560  68.271  1.00  0.00    -0.108 OA 
BRANCH  12  14
HETATM   14  C   UNL     1      -9.355   4.255  66.060  1.00  0.00    -0.163 A  
HETATM   15  C   UNL     1      -8.170   4.123  65.323  1.00  0.00    -0.102 A  
HETATM   16  C   UNL     1      -8.215   3.918  63.942  1.00  0.00    -0.091 A  
HETATM   17  C   UNL     1      -9.442   3.883  63.283  1.00  0.00    -0.136 A  
HETATM   18  C   UNL     1     -10.625   4.060  64.000  1.00  0.00    -0.180 A  
HETATM   19  C   UNL     1     -10.583   4.247  65.384  1.00  0.00    -0.152 A  
ENDBRANCH  12  14
ENDBRANCH   8  12
TORSDOF 2
ENDMDL
MODEL      176
REMARK 921   NORMALIZED FREE ENERGY PREDICTED BY IDOCK:   -3.52 KCAL/MOL
REMARK 922        TOTAL FREE ENERGY PREDICTED BY IDOCK:   -4.47 KCAL/MOL
REMARK 923 INTER-LIGAND FREE ENERGY PREDICTED BY IDOCK:   -3.90 KCAL/MOL
REMARK 924 INTRA-LIGAND FREE ENERGY PREDICTED BY IDOCK:   -0.57 KCAL/MOL
REMARK 927      BINDING AFFINITY PREDICTED BY RF-SCORE:    0.00 PKD
ROOT
HETATM    1  C   UNL     1      -7.297   6.980  67.539  1.00  0.00    -0.092 C  
HETATM    2  C   UNL     1      -7.967   7.935  68.528  1.00  0.00    -0.121 A  
HETATM    3  C   UNL     1      -6.325   7.623  66.546  1.00  0.00    -0.046 C  
HETATM    4  C   UNL     1      -8.293   6.166  66.714  1.00  0.00    -0.110 C  
HETATM    5  O   UNL     1      -9.373   6.857  66.276  1.00  0.00    -0.163 OA 
HETATM    6  O   UNL     1      -8.117   4.993  66.414  1.00  0.00    -0.107 OA 
HETATM    7  C   UNL     1      -8.953   7.436  69.402  1.00  0.00    -0.139 A  
HETATM    8  C   UNL     1      -9.675   8.296  70.243  1.00  0.00    -0.177 A  
HETATM    9  C   UNL     1      -9.333   9.647  70.307  1.00  0.00    -0.292 A  
HETATM   10  C   UNL     1      -7.649   9.300  68.603  1.00  0.00    -0.081 A  
HETATM   11  C   UNL     1      -8.316  10.145  69.495  1.00  0.00    -0.178 A  
ENDROOT
BRANCH   8  12
HETATM   12  C   UNL     1     -10.817   7.816  71.067  1.00  0.00    -0.239 C  
HETATM   13  O   UNL     1     -11.954   8.161  70.752  1.00  0.00    -0.238 OA 
BRANCH  12  14
HETATM   14  C   UNL     1     -10.613   6.906  72.233  1.00  0.00    -0.244 A  
HETATM   15  C   UNL     1     -10.061   7.351  73.442  1.00  0.00    -0.389 A  
HETATM   16  C   UNL     1      -9.913   6.473  74.517  1.00  0.00    -0.358 A  
HETATM   17  C   UNL     1     -10.280   5.136  74.381  1.00  0.00    -0.301 A  
HETATM   18  C   UNL     1     -10.788   4.673  73.167  1.00  0.00    -0.338 A  
HETATM   19  C   UNL     1     -10.953   5.554  72.095  1.00  0.00    -0.291 A  
ENDBRANCH  12  14
ENDBRANCH   8  12
TORSDOF 2
ENDMDL
MODEL      177
REMARK 921   NORMALIZED FREE ENERGY PREDICTED BY IDOCK:   -3.51 KCAL/MOL
REMARK 922        TOTAL FREE ENERGY PREDICTED BY IDOCK:   -4.46 KCAL/MOL
REMARK 923 INTER-LIGAND FREE ENERGY PREDICTED BY IDOCK:   -3.87 KCAL/MOL
REMARK 924 INTRA-LIGAND FREE ENERGY PREDICTED BY IDOCK:   -0.59 KCAL/MOL
REMARK 927      BINDING AFFINITY PREDICTED BY RF-SCORE:    0.00 PKD
ROOT
HETATM    1  C   UNL     1      -6.415   7.551  72.787  1.00  0.00    -0.060 C  
HETATM    2  C   UNL     1      -7.194   6.732  71.756  1.00  0.00    -0.084 A  
HETATM    3  C   UNL     1      -5.131   6.905  73.317  1.00  0.00    -0.037 C  
HETATM    4  C   UNL     1      -7.248   7.940  74.007  1.00  0.00    -0.144 C  
HETATM    5  O   UNL     1      -8.065   6.966  74.476  1.00  0.00    -0.126 OA 
HETATM    6  O   UNL     1      -7.156   9.025  74.566  1.00  0.00    -0.401 OA 
HETATM    7  C   UNL     1      -8.438   7.211  71.300  1.00  0.00    -0.113 A  
HETATM    8  C   UNL     1      -9.240   6.439  70.446  1.00  0.00    -0.159 A  
HETATM    9  C   UNL     1      -8.750   5.234  69.940  1.00  0.00    -0.117 A  
HETATM   10  C   UNL     1      -6.729   5.512  71.242  1.00  0.00    -0.052 A  
HETATM   11  C   UNL     1      -7.494   4.777  70.331  1.00  0.00    -0.051 A  
ENDROOT
BRANCH   8  12
HETATM   12  C   UNL     1     -10.617   6.856  70.067  1.00  0.00    -0.226 C  
HETATM   13  O   UNL     1     -11.451   5.985  69.832  1.00  0.00    -0.388 OA 
BRANCH  12  14
HETATM   14  C   UNL     1     -11.008   8.296  70.004  1.00  0.00    -0.197 A  
HETATM   15  C   UNL     1     -10.480   9.173  69.047  1.00  0.00    -0.238 A  
HETATM   16  C   UNL     1     -10.895  10.506  69.005  1.00  0.00    -0.272 A  
HETATM   17  C   UNL     1     -11.810  10.981  69.942  1.00  0.00    -0.431 A  
HETATM   18  C   UNL     1     -12.307  10.127  70.927  1.00  0.00    -0.461 A  
HETATM   19  C   UNL     1     -11.907   8.789  70.959  1.00  0.00    -0.315 A  
ENDBRANCH  12  14
ENDBRANCH   8  12
TORSDOF 2
ENDMDL
MODEL      178
REMARK 921   NORMALIZED FREE ENERGY PREDICTED BY IDOCK:   -3.46 KCAL/MOL
REMARK 922        TOTAL FREE ENERGY PREDICTED BY IDOCK:   -4.41 KCAL/MOL
REMARK 923 INTER-LIGAND FREE ENERGY PREDICTED BY IDOCK:   -3.95 KCAL/MOL
REMARK 924 INTRA-LIGAND FREE ENERGY PREDICTED BY IDOCK:   -0.46 KCAL/MOL
REMARK 927      BINDING AFFINITY PREDICTED BY RF-SCORE:    0.00 PKD
ROOT
HETATM    1  C   UNL     1     -11.432  11.011  67.737  1.00  0.00    -0.339 C  
HETATM    2  C   UNL     1     -10.513  10.053  66.978  1.00  0.00    -0.302 A  
HETATM    3  C   UNL     1     -11.181  12.503  67.497  1.00  0.00    -0.342 C  
HETATM    4  C   UNL     1     -11.413  10.799  69.250  1.00  0.00    -0.298 C  
HETATM    5  O   UNL     1     -10.188  10.563  69.779  1.00  0.00    -0.213 OA 
HETATM    6  O   UNL     1     -12.410  10.888  69.954  1.00  0.00    -0.326 OA 
HETATM    7  C   UNL     1     -10.611   8.669  67.226  1.00  0.00    -0.308 A  
HETATM    8  C   UNL     1      -9.712   7.764  66.641  1.00  0.00    -0.292 A  
HETATM    9  C   UNL     1      -8.783   8.221  65.707  1.00  0.00    -0.196 A  
HETATM   10  C   UNL     1      -9.562  10.488  66.042  1.00  0.00    -0.242 A  
HETATM   11  C   UNL     1      -8.715   9.579  65.402  1.00  0.00    -0.190 A  
ENDROOT
BRANCH   8  12
HETATM   12  C   UNL     1      -9.703   6.321  66.999  1.00  0.00    -0.144 C  
HETATM   13  O   UNL     1     -10.581   5.895  67.746  1.00  0.00    -0.222 OA 
BRANCH  12  14
HETATM   14  C   UNL     1      -8.680   5.384  66.447  1.00  0.00    -0.121 A  
HETATM   15  C   UNL     1      -7.474   5.118  67.109  1.00  0.00    -0.087 A  
HETATM   16  C   UNL     1      -6.556   4.214  66.570  1.00  0.00    -0.045 A  
HETATM   17  C   UNL     1      -6.819   3.598  65.348  1.00  0.00    -0.049 A  
HETATM   18  C   UNL     1      -7.995   3.892  64.659  1.00  0.00    -0.086 A  
HETATM   19  C   UNL     1      -8.923   4.783  65.205  1.00  0.00    -0.151 A  
ENDBRANCH  12  14
ENDBRANCH   8  12
TORSDOF 2
ENDMDL
MODEL      179
REMARK 921   NORMALIZED FREE ENERGY PREDICTED BY IDOCK:   -3.45 KCAL/MOL
REMARK 922        TOTAL FREE ENERGY PREDICTED BY IDOCK:   -4.40 KCAL/MOL
REMARK 923 INTER-LIGAND FREE ENERGY PREDICTED BY IDOCK:   -3.84 KCAL/MOL
REMARK 924 INTRA-LIGAND FREE ENERGY PREDICTED BY IDOCK:   -0.56 KCAL/MOL
REMARK 927      BINDING AFFINITY PREDICTED BY RF-SCORE:    0.00 PKD
ROOT
HETATM    1  C   UNL     1      -9.856   5.568  72.278  1.00  0.00    -0.192 C  
HETATM    2  C   UNL     1     -10.059   5.929  70.805  1.00  0.00    -0.253 A  
HETATM    3  C   UNL     1     -10.049   4.092  72.633  1.00  0.00    -0.225 C  
HETATM    4  C   UNL     1     -10.745   6.370  73.227  1.00  0.00    -0.263 C  
HETATM    5  O   UNL     1     -12.019   6.550  72.802  1.00  0.00    -0.034 OA 
HETATM    6  O   UNL     1     -10.369   6.777  74.317  1.00  0.00    -0.369 OA 
HETATM    7  C   UNL     1     -10.003   7.283  70.418  1.00  0.00    -0.192 A  
HETATM    8  C   UNL     1     -10.299   7.671  69.102  1.00  0.00    -0.217 A  
HETATM    9  C   UNL     1     -10.534   6.697  68.131  1.00  0.00    -0.257 A  
HETATM   10  C   UNL     1     -10.309   4.970  69.812  1.00  0.00    -0.286 A  
HETATM   11  C   UNL     1     -10.530   5.349  68.485  1.00  0.00    -0.192 A  
ENDROOT
BRANCH   8  12
HETATM   12  C   UNL     1     -10.389   9.101  68.704  1.00  0.00    -0.209 C  
HETATM   13  O   UNL     1     -11.199   9.822  69.282  1.00  0.00    -0.190 OA 
BRANCH  12  14
HETATM   14  C   UNL     1      -9.499   9.678  67.653  1.00  0.00    -0.155 A  
HETATM   15  C   UNL     1      -9.985  10.089  66.404  1.00  0.00    -0.300 A  
HETATM   16  C   UNL     1      -9.123  10.649  65.459  1.00  0.00    -0.214 A  
HETATM   17  C   UNL     1      -7.764  10.768  65.739  1.00  0.00    -0.094 A  
HETATM   18  C   UNL     1      -7.262  10.319  66.961  1.00  0.00    -0.091 A  
HETATM   19  C   UNL     1      -8.127   9.775  67.915  1.00  0.00    -0.112 A  
ENDBRANCH  12  14
ENDBRANCH   8  12
TORSDOF 2
ENDMDL
MODEL      180
REMARK 921   NORMALIZED FREE ENERGY PREDICTED BY IDOCK:   -3.44 KCAL/MOL
REMARK 922        TOTAL FREE ENERGY PREDICTED BY IDOCK:   -4.39 KCAL/MOL
REMARK 923 INTER-LIGAND FREE ENERGY PREDICTED BY IDOCK:   -3.94 KCAL/MOL
REMARK 924 INTRA-LIGAND FREE ENERGY PREDICTED BY IDOCK:   -0.45 KCAL/MOL
REMARK 927      BINDING AFFINITY PREDICTED BY RF-SCORE:    0.00 PKD
ROOT
HETATM    1  C   UNL     1      -8.723   6.573  71.880  1.00  0.00    -0.130 C  
HETATM    2  C   UNL     1      -9.009   5.657  70.689  1.00  0.00    -0.157 A  
HETATM    3  C   UNL     1      -8.528   5.872  73.228  1.00  0.00    -0.118 C  
HETATM    4  C   UNL     1      -9.793   7.643  72.092  1.00  0.00    -0.178 C  
HETATM    5  O   UNL     1     -11.069   7.218  71.928  1.00  0.00    -0.231 OA 
HETATM    6  O   UNL     1      -9.538   8.789  72.439  1.00  0.00    -0.279 OA 
HETATM    7  C   UNL     1      -9.304   6.233  69.438  1.00  0.00    -0.145 A  
HETATM    8  C   UNL     1      -9.687   5.436  68.348  1.00  0.00    -0.179 A  
HETATM    9  C   UNL     1      -9.658   4.046  68.465  1.00  0.00    -0.184 A  
HETATM   10  C   UNL     1      -8.999   4.257  70.784  1.00  0.00    -0.154 A  
HETATM   11  C   UNL     1      -9.306   3.459  69.679  1.00  0.00    -0.241 A  
ENDROOT
BRANCH   8  12
HETATM   12  C   UNL     1     -10.143   6.027  67.061  1.00  0.00    -0.179 C  
HETATM   13  O   UNL     1     -10.809   5.331  66.298  1.00  0.00    -0.285 OA 
BRANCH  12  14
HETATM   14  C   UNL     1      -9.841   7.444  66.701  1.00  0.00    -0.263 A  
HETATM   15  C   UNL     1     -10.516   8.525  67.284  1.00  0.00    -0.366 A  
HETATM   16  C   UNL     1     -10.183   9.837  66.938  1.00  0.00    -0.310 A  
HETATM   17  C   UNL     1      -9.201  10.077  65.981  1.00  0.00    -0.204 A  
HETATM   18  C   UNL     1      -8.555   9.007  65.361  1.00  0.00    -0.200 A  
HETATM   19  C   UNL     1      -8.874   7.695  65.719  1.00  0.00    -0.134 A  
ENDBRANCH  12  14
ENDBRANCH   8  12
TORSDOF 2
ENDMDL
MODEL      181
REMARK 921   NORMALIZED FREE ENERGY PREDICTED BY IDOCK:   -3.43 KCAL/MOL
REMARK 922        TOTAL FREE ENERGY PREDICTED BY IDOCK:   -4.38 KCAL/MOL
REMARK 923 INTER-LIGAND FREE ENERGY PREDICTED BY IDOCK:   -3.78 KCAL/MOL
REMARK 924 INTRA-LIGAND FREE ENERGY PREDICTED BY IDOCK:   -0.60 KCAL/MOL
REMARK 927      BINDING AFFINITY PREDICTED BY RF-SCORE:    0.00 PKD
ROOT
HETATM    1  C   UNL     1      -7.744   8.398  66.801  1.00  0.00    -0.091 C  
HETATM    2  C   UNL     1      -8.568   7.134  67.050  1.00  0.00    -0.122 A  
HETATM    3  C   UNL     1      -7.106   8.514  65.414  1.00  0.00    -0.082 C  
HETATM    4  C   UNL     1      -6.623   8.601  67.819  1.00  0.00    -0.062 C  
HETATM    5  O   UNL     1      -5.948   7.476  68.159  1.00  0.00    -0.033 OA 
HETATM    6  O   UNL     1      -6.308   9.697  68.262  1.00  0.00    -0.055 OA 
HETATM    7  C   UNL     1      -9.099   6.904  68.334  1.00  0.00    -0.126 A  
HETATM    8  C   UNL     1      -9.761   5.705  68.639  1.00  0.00    -0.175 A  
HETATM    9  C   UNL     1     -10.006   4.775  67.628  1.00  0.00    -0.178 A  
HETATM   10  C   UNL     1      -8.818   6.178  66.053  1.00  0.00    -0.160 A  
HETATM   11  C   UNL     1      -9.543   5.017  66.336  1.00  0.00    -0.171 A  
ENDROOT
BRANCH   8  12
HETATM   12  C   UNL     1     -10.201   5.377  70.022  1.00  0.00    -0.279 C  
HETATM   13  O   UNL     1      -9.963   4.255  70.463  1.00  0.00    -0.209 OA 
BRANCH  12  14
HETATM   14  C   UNL     1     -10.885   6.385  70.884  1.00  0.00    -0.316 A  
HETATM   15  C   UNL     1     -12.226   6.747  70.693  1.00  0.00    -0.312 A  
HETATM   16  C   UNL     1     -12.836   7.674  71.540  1.00  0.00    -0.376 A  
HETATM   17  C   UNL     1     -12.102   8.274  72.561  1.00  0.00    -0.400 A  
HETATM   18  C   UNL     1     -10.755   7.955  72.731  1.00  0.00    -0.435 A  
HETATM   19  C   UNL     1     -10.147   7.014  71.895  1.00  0.00    -0.198 A  
ENDBRANCH  12  14
ENDBRANCH   8  12
TORSDOF 2
ENDMDL
MODEL      182
REMARK 921   NORMALIZED FREE ENERGY PREDICTED BY IDOCK:   -3.42 KCAL/MOL
REMARK 922        TOTAL FREE ENERGY PREDICTED BY IDOCK:   -4.37 KCAL/MOL
REMARK 923 INTER-LIGAND FREE ENERGY PREDICTED BY IDOCK:   -3.93 KCAL/MOL
REMARK 924 INTRA-LIGAND FREE ENERGY PREDICTED BY IDOCK:   -0.44 KCAL/MOL
REMARK 927      BINDING AFFINITY PREDICTED BY RF-SCORE:    0.00 PKD
ROOT
HETATM    1  C   UNL     1     -11.159   9.720  69.115  1.00  0.00    -0.158 C  
HETATM    2  C   UNL     1     -10.476   9.686  67.747  1.00  0.00    -0.309 A  
HETATM    3  C   UNL     1     -11.579  11.106  69.615  1.00  0.00    -0.398 C  
HETATM    4  C   UNL     1     -10.322   9.087  70.226  1.00  0.00    -0.209 C  
HETATM    5  O   UNL     1      -9.000   9.380  70.184  1.00  0.00    -0.189 OA 
HETATM    6  O   UNL     1     -10.802   8.411  71.126  1.00  0.00    -0.224 OA 
HETATM    7  C   UNL     1      -9.966   8.464  67.266  1.00  0.00    -0.291 A  
HETATM    8  C   UNL     1      -9.231   8.407  66.073  1.00  0.00    -0.247 A  
HETATM    9  C   UNL     1      -9.103   9.551  65.285  1.00  0.00    -0.276 A  
HETATM   10  C   UNL     1     -10.325  10.825  66.942  1.00  0.00    -0.290 A  
HETATM   11  C   UNL     1      -9.657  10.755  65.715  1.00  0.00    -0.254 A  
ENDROOT
BRANCH   8  12
HETATM   12  C   UNL     1      -8.560   7.159  65.620  1.00  0.00    -0.107 C  
HETATM   13  O   UNL     1      -7.817   7.214  64.642  1.00  0.00    -0.113 OA 
BRANCH  12  14
HETATM   14  C   UNL     1      -8.742   5.866  66.343  1.00  0.00    -0.131 A  
HETATM   15  C   UNL     1      -8.202   5.638  67.616  1.00  0.00    -0.101 A  
HETATM   16  C   UNL     1      -8.420   4.423  68.269  1.00  0.00    -0.101 A  
HETATM   17  C   UNL     1      -9.145   3.414  67.640  1.00  0.00    -0.204 A  
HETATM   18  C   UNL     1      -9.648   3.614  66.354  1.00  0.00    -0.152 A  
HETATM   19  C   UNL     1      -9.446   4.835  65.706  1.00  0.00    -0.173 A  
ENDBRANCH  12  14
ENDBRANCH   8  12
TORSDOF 2
ENDMDL
MODEL      183
REMARK 921   NORMALIZED FREE ENERGY PREDICTED BY IDOCK:   -3.34 KCAL/MOL
REMARK 922        TOTAL FREE ENERGY PREDICTED BY IDOCK:   -4.28 KCAL/MOL
REMARK 923 INTER-LIGAND FREE ENERGY PREDICTED BY IDOCK:   -3.88 KCAL/MOL
REMARK 924 INTRA-LIGAND FREE ENERGY PREDICTED BY IDOCK:   -0.40 KCAL/MOL
REMARK 927      BINDING AFFINITY PREDICTED BY RF-SCORE:    0.00 PKD
ROOT
HETATM    1  C   UNL     1     -10.595  14.221  70.072  1.00  0.00     0.306 C  
HETATM    2  C   UNL     1      -9.450  14.666  69.160  1.00  0.00    -0.070 A  
HETATM    3  C   UNL     1     -11.821  13.638  69.364  1.00  0.00    -0.392 C  
HETATM    4  C   UNL     1     -11.103  15.330  70.991  1.00  0.00    -0.291 C  
HETATM    5  O   UNL     1     -11.209  16.550  70.412  1.00  0.00    -0.336 OA 
HETATM    6  O   UNL     1     -11.447  15.138  72.150  1.00  0.00    -0.420 OA 
HETATM    7  C   UNL     1      -8.333  15.309  69.727  1.00  0.00     0.006 A  
HETATM    8  C   UNL     1      -7.315  15.837  68.919  1.00  0.00    -0.162 A  
HETATM    9  C   UNL     1      -7.345  15.619  67.541  1.00  0.00    -0.213 A  
HETATM   10  C   UNL     1      -9.462  14.469  67.770  1.00  0.00    -0.210 A  
HETATM   11  C   UNL     1      -8.412  14.929  66.970  1.00  0.00    -0.260 A  
ENDROOT
BRANCH   8  12
HETATM   12  C   UNL     1      -6.200  16.645  69.482  1.00  0.00    -0.220 C  
HETATM   13  O   UNL     1      -5.278  16.061  70.047  1.00  0.00    -0.123 OA 
BRANCH  12  14
HETATM   14  C   UNL     1      -6.165  18.131  69.345  1.00  0.00    -0.251 A  
HETATM   15  C   UNL     1      -5.259  18.928  70.060  1.00  0.00    -0.207 A  
HETATM   16  C   UNL     1      -5.241  20.313  69.881  1.00  0.00    -0.280 A  
HETATM   17  C   UNL     1      -6.152  20.916  69.017  1.00  0.00    -0.180 A  
HETATM   18  C   UNL     1      -7.088  20.137  68.336  1.00  0.00    -0.278 A  
HETATM   19  C   UNL     1      -7.096  18.749  68.500  1.00  0.00    -0.298 A  
ENDBRANCH  12  14
ENDBRANCH   8  12
TORSDOF 2
ENDMDL
MODEL      184
REMARK 921   NORMALIZED FREE ENERGY PREDICTED BY IDOCK:   -3.33 KCAL/MOL
REMARK 922        TOTAL FREE ENERGY PREDICTED BY IDOCK:   -4.27 KCAL/MOL
REMARK 923 INTER-LIGAND FREE ENERGY PREDICTED BY IDOCK:   -3.95 KCAL/MOL
REMARK 924 INTRA-LIGAND FREE ENERGY PREDICTED BY IDOCK:   -0.32 KCAL/MOL
REMARK 927      BINDING AFFINITY PREDICTED BY RF-SCORE:    0.00 PKD
ROOT
HETATM    1  C   UNL     1     -11.861   9.116  70.422  1.00  0.00    -0.057 C  
HETATM    2  C   UNL     1     -11.010   9.756  69.325  1.00  0.00    -0.222 A  
HETATM    3  C   UNL     1     -12.130   9.989  71.651  1.00  0.00    -0.420 C  
HETATM    4  C   UNL     1     -11.292   7.795  70.937  1.00  0.00    -0.275 C  
HETATM    5  O   UNL     1      -9.948   7.777  71.104  1.00  0.00    -0.176 OA 
HETATM    6  O   UNL     1     -11.988   6.833  71.235  1.00  0.00    -0.329 OA 
HETATM    7  C   UNL     1     -10.631   8.981  68.211  1.00  0.00    -0.213 A  
HETATM    8  C   UNL     1      -9.756   9.490  67.240  1.00  0.00    -0.215 A  
HETATM    9  C   UNL     1      -9.348  10.823  67.309  1.00  0.00    -0.165 A  
HETATM   10  C   UNL     1     -10.577  11.090  69.377  1.00  0.00    -0.212 A  
HETATM   11  C   UNL     1      -9.766  11.623  68.370  1.00  0.00    -0.199 A  
ENDROOT
BRANCH   8  12
HETATM   12  C   UNL     1      -9.227   8.646  66.135  1.00  0.00    -0.213 C  
HETATM   13  O   UNL     1      -9.327   7.424  66.230  1.00  0.00    -0.169 OA 
BRANCH  12  14
HETATM   14  C   UNL     1      -8.616   9.248  64.913  1.00  0.00    -0.204 A  
HETATM   15  C   UNL     1      -9.307  10.160  64.103  1.00  0.00    -0.340 A  
HETATM   16  C   UNL     1      -8.688  10.721  62.984  1.00  0.00    -0.201 A  
HETATM   17  C   UNL     1      -7.390  10.347  62.644  1.00  0.00    -0.142 A  
HETATM   18  C   UNL     1      -6.711   9.405  63.418  1.00  0.00    -0.094 A  
HETATM   19  C   UNL     1      -7.321   8.857  64.548  1.00  0.00    -0.102 A  
ENDBRANCH  12  14
ENDBRANCH   8  12
TORSDOF 2
ENDMDL
MODEL      185
REMARK 921   NORMALIZED FREE ENERGY PREDICTED BY IDOCK:   -3.30 KCAL/MOL
REMARK 922        TOTAL FREE ENERGY PREDICTED BY IDOCK:   -4.24 KCAL/MOL
REMARK 923 INTER-LIGAND FREE ENERGY PREDICTED BY IDOCK:   -3.75 KCAL/MOL
REMARK 924 INTRA-LIGAND FREE ENERGY PREDICTED BY IDOCK:   -0.49 KCAL/MOL
REMARK 927      BINDING AFFINITY PREDICTED BY RF-SCORE:    0.00 PKD
ROOT
HETATM    1  C   UNL     1      -9.457  11.172  63.066  1.00  0.00    -0.386 C  
HETATM    2  C   UNL     1     -10.457  12.117  63.734  1.00  0.00    -0.470 A  
HETATM    3  C   UNL     1     -10.029   9.842  62.567  1.00  0.00     0.695 C  
HETATM    4  C   UNL     1      -8.260  10.831  63.953  1.00  0.00     0.108 C  
HETATM    5  O   UNL     1      -8.559  10.600  65.254  1.00  0.00    -0.174 OA 
HETATM    6  O   UNL     1      -7.119  10.715  63.527  1.00  0.00     0.018 OA 
HETATM    7  C   UNL     1      -9.988  13.313  64.313  1.00  0.00     0.085 A  
HETATM    8  C   UNL     1     -10.849  14.152  65.037  1.00  0.00    -0.408 A  
HETATM    9  C   UNL     1     -12.213  13.865  65.084  1.00  0.00    -0.443 A  
HETATM   10  C   UNL     1     -11.832  11.845  63.805  1.00  0.00    -0.558 A  
HETATM   11  C   UNL     1     -12.704  12.719  64.462  1.00  0.00    -0.405 A  
ENDROOT
BRANCH   8  12
HETATM   12  C   UNL     1     -10.350  15.341  65.778  1.00  0.00    -0.344 C  
HETATM   13  O   UNL     1     -11.099  16.306  65.912  1.00  0.00    -0.093 OA 
BRANCH  12  14
HETATM   14  C   UNL     1      -8.987  15.369  66.386  1.00  0.00    -0.351 A  
HETATM   15  C   UNL     1      -8.512  14.336  67.206  1.00  0.00    -0.226 A  
HETATM   16  C   UNL     1      -7.219  14.389  67.732  1.00  0.00    -0.188 A  
HETATM   17  C   UNL     1      -6.407  15.491  67.476  1.00  0.00    -0.165 A  
HETATM   18  C   UNL     1      -6.887  16.545  66.699  1.00  0.00    -0.161 A  
HETATM   19  C   UNL     1      -8.174  16.486  66.157  1.00  0.00    -0.279 A  
ENDBRANCH  12  14
ENDBRANCH   8  12
TORSDOF 2
ENDMDL
MODEL      186
REMARK 921   NORMALIZED FREE ENERGY PREDICTED BY IDOCK:   -3.30 KCAL/MOL
REMARK 922        TOTAL FREE ENERGY PREDICTED BY IDOCK:   -4.23 KCAL/MOL
REMARK 923 INTER-LIGAND FREE ENERGY PREDICTED BY IDOCK:   -3.79 KCAL/MOL
REMARK 924 INTRA-LIGAND FREE ENERGY PREDICTED BY IDOCK:   -0.44 KCAL/MOL
REMARK 927      BINDING AFFINITY PREDICTED BY RF-SCORE:    0.00 PKD
ROOT
HETATM    1  C   UNL     1      -9.157   2.910  65.724  1.00  0.00    -0.137 C  
HETATM    2  C   UNL     1      -8.875   3.480  67.115  1.00  0.00    -0.146 A  
HETATM    3  C   UNL     1      -7.976   2.219  65.037  1.00  0.00    -0.078 C  
HETATM    4  C   UNL     1      -9.692   3.949  64.741  1.00  0.00    -0.187 C  
HETATM    5  O   UNL     1      -9.091   5.161  64.804  1.00  0.00    -0.113 OA 
HETATM    6  O   UNL     1     -10.560   3.706  63.912  1.00  0.00    -0.252 OA 
HETATM    7  C   UNL     1      -9.879   4.223  67.768  1.00  0.00    -0.132 A  
HETATM    8  C   UNL     1      -9.626   4.862  68.991  1.00  0.00    -0.224 A  
HETATM    9  C   UNL     1      -8.404   4.664  69.634  1.00  0.00    -0.077 A  
HETATM   10  C   UNL     1      -7.650   3.305  67.778  1.00  0.00    -0.064 A  
HETATM   11  C   UNL     1      -7.422   3.879  69.032  1.00  0.00    -0.054 A  
ENDROOT
BRANCH   8  12
HETATM   12  C   UNL     1     -10.620   5.768  69.627  1.00  0.00    -0.326 C  
HETATM   13  O   UNL     1     -11.599   6.118  68.972  1.00  0.00    -0.236 OA 
BRANCH  12  14
HETATM   14  C   UNL     1     -10.469   6.226  71.040  1.00  0.00    -0.274 A  
HETATM   15  C   UNL     1     -10.637   5.360  72.129  1.00  0.00    -0.284 A  
HETATM   16  C   UNL     1     -10.460   5.823  73.435  1.00  0.00    -0.264 A  
HETATM   17  C   UNL     1     -10.152   7.162  73.663  1.00  0.00    -0.389 A  
HETATM   18  C   UNL     1     -10.028   8.043  72.588  1.00  0.00    -0.358 A  
HETATM   19  C   UNL     1     -10.187   7.577  71.280  1.00  0.00    -0.198 A  
ENDBRANCH  12  14
ENDBRANCH   8  12
TORSDOF 2
ENDMDL
MODEL      187
REMARK 921   NORMALIZED FREE ENERGY PREDICTED BY IDOCK:   -3.28 KCAL/MOL
REMARK 922        TOTAL FREE ENERGY PREDICTED BY IDOCK:   -4.21 KCAL/MOL
REMARK 923 INTER-LIGAND FREE ENERGY PREDICTED BY IDOCK:   -3.93 KCAL/MOL
REMARK 924 INTRA-LIGAND FREE ENERGY PREDICTED BY IDOCK:   -0.28 KCAL/MOL
REMARK 927      BINDING AFFINITY PREDICTED BY RF-SCORE:    0.00 PKD
ROOT
HETATM    1  C   UNL     1     -11.154  12.679  69.119  1.00  0.00    -0.252 C  
HETATM    2  C   UNL     1     -10.719  11.242  69.413  1.00  0.00    -0.188 A  
HETATM    3  C   UNL     1     -12.410  13.158  69.852  1.00  0.00    -0.201 C  
HETATM    4  C   UNL     1     -11.382  12.950  67.633  1.00  0.00    -0.303 C  
HETATM    5  O   UNL     1     -12.016  11.960  66.960  1.00  0.00    -0.615 OA 
HETATM    6  O   UNL     1     -11.072  14.000  67.086  1.00  0.00    -0.291 OA 
HETATM    7  C   UNL     1      -9.636  10.694  68.698  1.00  0.00    -0.179 A  
HETATM    8  C   UNL     1      -9.277   9.346  68.851  1.00  0.00    -0.140 A  
HETATM    9  C   UNL     1      -9.921   8.565  69.811  1.00  0.00    -0.191 A  
HETATM   10  C   UNL     1     -11.358  10.432  70.365  1.00  0.00    -0.417 A  
HETATM   11  C   UNL     1     -10.952   9.110  70.573  1.00  0.00    -0.307 A  
ENDROOT
BRANCH   8  12
HETATM   12  C   UNL     1      -8.235   8.707  68.004  1.00  0.00    -0.115 C  
HETATM   13  O   UNL     1      -7.156   9.280  67.868  1.00  0.00    -0.077 OA 
BRANCH  12  14
HETATM   14  C   UNL     1      -8.459   7.382  67.353  1.00  0.00    -0.119 A  
HETATM   15  C   UNL     1      -8.557   6.194  68.089  1.00  0.00    -0.115 A  
HETATM   16  C   UNL     1      -8.795   4.979  67.443  1.00  0.00    -0.102 A  
HETATM   17  C   UNL     1      -8.899   4.937  66.054  1.00  0.00    -0.126 A  
HETATM   18  C   UNL     1      -8.757   6.107  65.309  1.00  0.00    -0.033 A  
HETATM   19  C   UNL     1      -8.537   7.327  65.955  1.00  0.00    -0.160 A  
ENDBRANCH  12  14
ENDBRANCH   8  12
TORSDOF 2
ENDMDL
MODEL      188
REMARK 921   NORMALIZED FREE ENERGY PREDICTED BY IDOCK:   -3.14 KCAL/MOL
REMARK 922        TOTAL FREE ENERGY PREDICTED BY IDOCK:   -4.06 KCAL/MOL
REMARK 923 INTER-LIGAND FREE ENERGY PREDICTED BY IDOCK:   -3.48 KCAL/MOL
REMARK 924 INTRA-LIGAND FREE ENERGY PREDICTED BY IDOCK:   -0.58 KCAL/MOL
REMARK 927      BINDING AFFINITY PREDICTED BY RF-SCORE:    0.00 PKD
ROOT
HETATM    1  C   UNL     1      -9.304   3.157  65.535  1.00  0.00    -0.117 C  
HETATM    2  C   UNL     1      -9.003   3.805  66.888  1.00  0.00    -0.154 A  
HETATM    3  C   UNL     1      -8.189   2.285  64.953  1.00  0.00    -0.083 C  
HETATM    4  C   UNL     1      -9.685   4.165  64.452  1.00  0.00    -0.155 C  
HETATM    5  O   UNL     1      -8.951   5.304  64.446  1.00  0.00    -0.064 OA 
HETATM    6  O   UNL     1     -10.548   3.953  63.611  1.00  0.00    -0.235 OA 
HETATM    7  C   UNL     1      -9.936   4.706  67.439  1.00  0.00    -0.190 A  
HETATM    8  C   UNL     1      -9.650   5.411  68.618  1.00  0.00    -0.173 A  
HETATM    9  C   UNL     1      -8.480   5.131  69.324  1.00  0.00    -0.093 A  
HETATM   10  C   UNL     1      -7.828   3.549  67.611  1.00  0.00    -0.077 A  
HETATM   11  C   UNL     1      -7.576   4.195  68.825  1.00  0.00    -0.055 A  
ENDROOT
BRANCH   8  12
HETATM   12  C   UNL     1     -10.553   6.472  69.140  1.00  0.00    -0.243 C  
HETATM   13  O   UNL     1     -11.515   6.138  69.829  1.00  0.00    -0.433 OA 
BRANCH  12  14
HETATM   14  C   UNL     1     -10.296   7.918  68.875  1.00  0.00    -0.225 A  
HETATM   15  C   UNL     1      -9.801   8.783  69.860  1.00  0.00    -0.189 A  
HETATM   16  C   UNL     1      -9.548  10.124  69.563  1.00  0.00    -0.243 A  
HETATM   17  C   UNL     1      -9.824  10.619  68.290  1.00  0.00    -0.174 A  
HETATM   18  C   UNL     1     -10.360   9.777  67.315  1.00  0.00    -0.308 A  
HETATM   19  C   UNL     1     -10.596   8.431  67.606  1.00  0.00    -0.265 A  
ENDBRANCH  12  14
ENDBRANCH   8  12
TORSDOF 2
ENDMDL
MODEL      189
REMARK 921   NORMALIZED FREE ENERGY PREDICTED BY IDOCK:   -3.11 KCAL/MOL
REMARK 922        TOTAL FREE ENERGY PREDICTED BY IDOCK:   -4.02 KCAL/MOL
REMARK 923 INTER-LIGAND FREE ENERGY PREDICTED BY IDOCK:   -3.66 KCAL/MOL
REMARK 924 INTRA-LIGAND FREE ENERGY PREDICTED BY IDOCK:   -0.36 KCAL/MOL
REMARK 927      BINDING AFFINITY PREDICTED BY RF-SCORE:    0.00 PKD
ROOT
HETATM    1  C   UNL     1     -11.096  13.428  66.305  1.00  0.00    -0.305 C  
HETATM    2  C   UNL     1     -11.100  12.673  67.636  1.00  0.00    -0.303 A  
HETATM    3  C   UNL     1     -12.220  14.449  66.116  1.00  0.00    -0.358 C  
HETATM    4  C   UNL     1     -11.127  12.507  65.086  1.00  0.00    -0.299 C  
HETATM    5  O   UNL     1     -11.959  11.443  65.194  1.00  0.00     0.054 OA 
HETATM    6  O   UNL     1     -10.498  12.729  64.060  1.00  0.00    -0.406 OA 
HETATM    7  C   UNL     1     -10.161  11.643  67.842  1.00  0.00    -0.203 A  
HETATM    8  C   UNL     1     -10.203  10.848  68.997  1.00  0.00    -0.219 A  
HETATM    9  C   UNL     1     -11.108  11.154  70.014  1.00  0.00    -0.174 A  
HETATM   10  C   UNL     1     -12.008  12.954  68.669  1.00  0.00    -0.282 A  
HETATM   11  C   UNL     1     -12.002  12.211  69.853  1.00  0.00    -0.380 A  
ENDROOT
BRANCH   8  12
HETATM   12  C   UNL     1      -9.319   9.665  69.172  1.00  0.00    -0.172 C  
HETATM   13  O   UNL     1      -9.795   8.545  69.001  1.00  0.00    -0.174 OA 
BRANCH  12  14
HETATM   14  C   UNL     1      -7.873   9.813  69.512  1.00  0.00    -0.128 A  
HETATM   15  C   UNL     1      -7.279   9.119  70.576  1.00  0.00    -0.097 A  
HETATM   16  C   UNL     1      -5.916   9.266  70.843  1.00  0.00    -0.059 A  
HETATM   17  C   UNL     1      -5.145  10.134  70.074  1.00  0.00    -0.037 A  
HETATM   18  C   UNL     1      -5.735  10.863  69.042  1.00  0.00    -0.040 A  
HETATM   19  C   UNL     1      -7.095  10.705  68.762  1.00  0.00    -0.076 A  
ENDBRANCH  12  14
ENDBRANCH   8  12
TORSDOF 2
ENDMDL
MODEL      190
REMARK 921   NORMALIZED FREE ENERGY PREDICTED BY IDOCK:   -3.11 KCAL/MOL
REMARK 922        TOTAL FREE ENERGY PREDICTED BY IDOCK:   -4.02 KCAL/MOL
REMARK 923 INTER-LIGAND FREE ENERGY PREDICTED BY IDOCK:   -3.53 KCAL/MOL
REMARK 924 INTRA-LIGAND FREE ENERGY PREDICTED BY IDOCK:   -0.49 KCAL/MOL
REMARK 927      BINDING AFFINITY PREDICTED BY RF-SCORE:    0.00 PKD
ROOT
HETATM    1  C   UNL     1     -11.199  10.819  66.878  1.00  0.00    -0.109 C  
HETATM    2  C   UNL     1     -10.213   9.821  67.488  1.00  0.00    -0.271 A  
HETATM    3  C   UNL     1     -10.858  11.315  65.470  1.00  0.00    -0.244 C  
HETATM    4  C   UNL     1     -11.417  12.060  67.741  1.00  0.00    -0.325 C  
HETATM    5  O   UNL     1     -10.296  12.564  68.312  1.00  0.00    -0.224 OA 
HETATM    6  O   UNL     1     -12.505  12.605  67.873  1.00  0.00    -0.062 OA 
HETATM    7  C   UNL     1     -10.400   9.399  68.819  1.00  0.00    -0.230 A  
HETATM    8  C   UNL     1      -9.458   8.578  69.456  1.00  0.00    -0.165 A  
HETATM    9  C   UNL     1      -8.381   8.070  68.729  1.00  0.00    -0.127 A  
HETATM   10  C   UNL     1      -9.115   9.305  66.781  1.00  0.00    -0.170 A  
HETATM   11  C   UNL     1      -8.216   8.426  67.393  1.00  0.00    -0.120 A  
ENDROOT
BRANCH   8  12
HETATM   12  C   UNL     1      -9.558   8.239  70.901  1.00  0.00    -0.165 C  
HETATM   13  O   UNL     1      -9.918   9.113  71.686  1.00  0.00    -0.316 OA 
BRANCH  12  14
HETATM   14  C   UNL     1      -9.267   6.864  71.404  1.00  0.00    -0.156 A  
HETATM   15  C   UNL     1      -8.003   6.494  71.883  1.00  0.00    -0.103 A  
HETATM   16  C   UNL     1      -7.780   5.204  72.370  1.00  0.00    -0.097 A  
HETATM   17  C   UNL     1      -8.808   4.264  72.347  1.00  0.00    -0.121 A  
HETATM   18  C   UNL     1     -10.057   4.608  71.829  1.00  0.00    -0.261 A  
HETATM   19  C   UNL     1     -10.286   5.904  71.358  1.00  0.00    -0.261 A  
ENDBRANCH  12  14
ENDBRANCH   8  12
TORSDOF 2
ENDMDL
MODEL      191
REMARK 921   NORMALIZED FREE ENERGY PREDICTED BY IDOCK:   -3.10 KCAL/MOL
REMARK 922        TOTAL FREE ENERGY PREDICTED BY IDOCK:   -4.01 KCAL/MOL
REMARK 923 INTER-LIGAND FREE ENERGY PREDICTED BY IDOCK:   -3.52 KCAL/MOL
REMARK 924 INTRA-LIGAND FREE ENERGY PREDICTED BY IDOCK:   -0.49 KCAL/MOL
REMARK 927      BINDING AFFINITY PREDICTED BY RF-SCORE:    0.00 PKD
ROOT
HETATM    1  C   UNL     1     -11.556   6.415  71.577  1.00  0.00    -0.364 C  
HETATM    2  C   UNL     1     -11.015   6.089  70.184  1.00  0.00    -0.429 A  
HETATM    3  C   UNL     1     -12.268   7.763  71.716  1.00  0.00    -0.338 C  
HETATM    4  C   UNL     1     -10.488   6.366  72.669  1.00  0.00    -0.210 C  
HETATM    5  O   UNL     1      -9.293   6.905  72.325  1.00  0.00    -0.139 OA 
HETATM    6  O   UNL     1     -10.695   5.929  73.793  1.00  0.00    -0.264 OA 
HETATM    7  C   UNL     1     -10.256   4.916  70.001  1.00  0.00    -0.313 A  
HETATM    8  C   UNL     1      -9.643   4.637  68.770  1.00  0.00    -0.229 A  
HETATM    9  C   UNL     1      -9.884   5.467  67.675  1.00  0.00    -0.176 A  
HETATM   10  C   UNL     1     -11.233   6.914  69.070  1.00  0.00    -0.131 A  
HETATM   11  C   UNL     1     -10.684   6.597  67.823  1.00  0.00    -0.352 A  
ENDROOT
BRANCH   8  12
HETATM   12  C   UNL     1      -8.720   3.484  68.593  1.00  0.00    -0.100 C  
HETATM   13  O   UNL     1      -8.385   2.842  69.586  1.00  0.00    -0.047 OA 
BRANCH  12  14
HETATM   14  C   UNL     1      -8.228   3.075  67.244  1.00  0.00    -0.084 A  
HETATM   15  C   UNL     1      -8.936   2.183  66.428  1.00  0.00    -0.109 A  
HETATM   16  C   UNL     1      -8.454   1.848  65.161  1.00  0.00    -0.094 A  
HETATM   17  C   UNL     1      -7.243   2.373  64.716  1.00  0.00    -0.054 A  
HETATM   18  C   UNL     1      -6.507   3.226  65.539  1.00  0.00    -0.032 A  
HETATM   19  C   UNL     1      -6.997   3.576  66.800  1.00  0.00    -0.054 A  
ENDBRANCH  12  14
ENDBRANCH   8  12
TORSDOF 2
ENDMDL
MODEL      192
REMARK 921   NORMALIZED FREE ENERGY PREDICTED BY IDOCK:   -3.10 KCAL/MOL
REMARK 922        TOTAL FREE ENERGY PREDICTED BY IDOCK:   -4.00 KCAL/MOL
REMARK 923 INTER-LIGAND FREE ENERGY PREDICTED BY IDOCK:   -3.42 KCAL/MOL
REMARK 924 INTRA-LIGAND FREE ENERGY PREDICTED BY IDOCK:   -0.58 KCAL/MOL
REMARK 927      BINDING AFFINITY PREDICTED BY RF-SCORE:    0.00 PKD
ROOT
HETATM    1  C   UNL     1      -8.361   8.027  66.756  1.00  0.00    -0.116 C  
HETATM    2  C   UNL     1      -9.023   8.386  68.088  1.00  0.00    -0.139 A  
HETATM    3  C   UNL     1      -9.009   8.630  65.507  1.00  0.00    -0.209 C  
HETATM    4  C   UNL     1      -8.258   6.522  66.517  1.00  0.00    -0.113 C  
HETATM    5  O   UNL     1      -9.353   5.809  66.878  1.00  0.00    -0.121 OA 
HETATM    6  O   UNL     1      -7.292   5.989  65.987  1.00  0.00    -0.074 OA 
HETATM    7  C   UNL     1      -8.549   7.787  69.272  1.00  0.00    -0.138 A  
HETATM    8  C   UNL     1      -9.200   7.995  70.497  1.00  0.00    -0.154 A  
HETATM    9  C   UNL     1     -10.256   8.903  70.573  1.00  0.00    -0.247 A  
HETATM   10  C   UNL     1     -10.094   9.287  68.188  1.00  0.00    -0.222 A  
HETATM   11  C   UNL     1     -10.696   9.554  69.422  1.00  0.00    -0.244 A  
ENDROOT
BRANCH   8  12
HETATM   12  C   UNL     1      -8.809   7.262  71.731  1.00  0.00    -0.116 C  
HETATM   13  O   UNL     1      -7.936   7.743  72.449  1.00  0.00    -0.100 OA 
BRANCH  12  14
HETATM   14  C   UNL     1      -9.476   5.986  72.126  1.00  0.00    -0.158 A  
HETATM   15  C   UNL     1      -9.042   4.738  71.657  1.00  0.00    -0.169 A  
HETATM   16  C   UNL     1      -9.677   3.566  72.074  1.00  0.00    -0.232 A  
HETATM   17  C   UNL     1     -10.773   3.634  72.931  1.00  0.00    -0.192 A  
HETATM   18  C   UNL     1     -11.241   4.874  73.368  1.00  0.00    -0.415 A  
HETATM   19  C   UNL     1     -10.595   6.046  72.967  1.00  0.00    -0.265 A  
ENDBRANCH  12  14
ENDBRANCH   8  12
TORSDOF 2
ENDMDL
MODEL      193
REMARK 921   NORMALIZED FREE ENERGY PREDICTED BY IDOCK:   -3.09 KCAL/MOL
REMARK 922        TOTAL FREE ENERGY PREDICTED BY IDOCK:   -4.00 KCAL/MOL
REMARK 923 INTER-LIGAND FREE ENERGY PREDICTED BY IDOCK:   -3.46 KCAL/MOL
REMARK 924 INTRA-LIGAND FREE ENERGY PREDICTED BY IDOCK:   -0.54 KCAL/MOL
REMARK 927      BINDING AFFINITY PREDICTED BY RF-SCORE:    0.00 PKD
ROOT
HETATM    1  C   UNL     1     -10.194  11.266  67.555  1.00  0.00    -0.217 C  
HETATM    2  C   UNL     1     -10.108  10.433  68.835  1.00  0.00    -0.213 A  
HETATM    3  C   UNL     1     -11.516  12.004  67.329  1.00  0.00    -0.403 C  
HETATM    4  C   UNL     1      -9.916  10.460  66.287  1.00  0.00    -0.226 C  
HETATM    5  O   UNL     1     -10.472   9.224  66.262  1.00  0.00    -0.188 OA 
HETATM    6  O   UNL     1      -9.290  10.902  65.333  1.00  0.00    -0.192 OA 
HETATM    7  C   UNL     1      -8.964   9.642  69.062  1.00  0.00    -0.148 A  
HETATM    8  C   UNL     1      -8.893   8.773  70.162  1.00  0.00    -0.160 A  
HETATM    9  C   UNL     1      -9.914   8.778  71.113  1.00  0.00    -0.317 A  
HETATM   10  C   UNL     1     -11.126  10.411  69.801  1.00  0.00    -0.352 A  
HETATM   11  C   UNL     1     -11.023   9.603  70.936  1.00  0.00    -0.412 A  
ENDROOT
BRANCH   8  12
HETATM   12  C   UNL     1      -7.763   7.824  70.344  1.00  0.00    -0.088 C  
HETATM   13  O   UNL     1      -6.811   8.169  71.041  1.00  0.00    -0.040 OA 
BRANCH  12  14
HETATM   14  C   UNL     1      -7.779   6.462  69.732  1.00  0.00    -0.109 A  
HETATM   15  C   UNL     1      -8.326   6.217  68.465  1.00  0.00    -0.115 A  
HETATM   16  C   UNL     1      -8.296   4.933  67.918  1.00  0.00    -0.103 A  
HETATM   17  C   UNL     1      -7.754   3.877  68.647  1.00  0.00    -0.060 A  
HETATM   18  C   UNL     1      -7.248   4.101  69.927  1.00  0.00    -0.046 A  
HETATM   19  C   UNL     1      -7.261   5.389  70.469  1.00  0.00    -0.066 A  
ENDBRANCH  12  14
ENDBRANCH   8  12
TORSDOF 2
ENDMDL
MODEL      194
REMARK 921   NORMALIZED FREE ENERGY PREDICTED BY IDOCK:   -3.08 KCAL/MOL
REMARK 922        TOTAL FREE ENERGY PREDICTED BY IDOCK:   -3.99 KCAL/MOL
REMARK 923 INTER-LIGAND FREE ENERGY PREDICTED BY IDOCK:   -3.41 KCAL/MOL
REMARK 924 INTRA-LIGAND FREE ENERGY PREDICTED BY IDOCK:   -0.58 KCAL/MOL
REMARK 927      BINDING AFFINITY PREDICTED BY RF-SCORE:    0.00 PKD
ROOT
HETATM    1  C   UNL     1     -11.069   7.043  71.355  1.00  0.00    -0.274 C  
HETATM    2  C   UNL     1     -10.728   5.706  72.016  1.00  0.00    -0.291 A  
HETATM    3  C   UNL     1     -12.470   7.590  71.645  1.00  0.00    -0.371 C  
HETATM    4  C   UNL     1     -10.910   7.025  69.835  1.00  0.00    -0.251 C  
HETATM    5  O   UNL     1     -11.354   5.900  69.226  1.00  0.00    -0.325 OA 
HETATM    6  O   UNL     1     -10.469   7.970  69.195  1.00  0.00    -0.219 OA 
HETATM    7  C   UNL     1      -9.500   5.086  71.713  1.00  0.00    -0.194 A  
HETATM    8  C   UNL     1      -9.196   3.807  72.204  1.00  0.00    -0.169 A  
HETATM    9  C   UNL     1     -10.064   3.188  73.102  1.00  0.00    -0.210 A  
HETATM   10  C   UNL     1     -11.590   5.057  72.913  1.00  0.00    -0.261 A  
HETATM   11  C   UNL     1     -11.255   3.816  73.463  1.00  0.00    -0.299 A  
ENDROOT
BRANCH   8  12
HETATM   12  C   UNL     1      -7.973   3.072  71.782  1.00  0.00    -0.057 C  
HETATM   13  O   UNL     1      -7.086   2.883  72.611  1.00  0.00    -0.033 OA 
BRANCH  12  14
HETATM   14  C   UNL     1      -7.822   2.535  70.397  1.00  0.00    -0.047 A  
HETATM   15  C   UNL     1      -6.567   2.323  69.809  1.00  0.00    -0.029 A  
HETATM   16  C   UNL     1      -6.471   1.793  68.521  1.00  0.00    -0.029 A  
HETATM   17  C   UNL     1      -7.626   1.506  67.797  1.00  0.00    -0.054 A  
HETATM   18  C   UNL     1      -8.879   1.756  68.356  1.00  0.00    -0.137 A  
HETATM   19  C   UNL     1      -8.978   2.270  69.651  1.00  0.00    -0.158 A  
ENDBRANCH  12  14
ENDBRANCH   8  12
TORSDOF 2
ENDMDL
MODEL      195
REMARK 921   NORMALIZED FREE ENERGY PREDICTED BY IDOCK:   -3.04 KCAL/MOL
REMARK 922        TOTAL FREE ENERGY PREDICTED BY IDOCK:   -3.94 KCAL/MOL
REMARK 923 INTER-LIGAND FREE ENERGY PREDICTED BY IDOCK:   -3.37 KCAL/MOL
REMARK 924 INTRA-LIGAND FREE ENERGY PREDICTED BY IDOCK:   -0.57 KCAL/MOL
REMARK 927      BINDING AFFINITY PREDICTED BY RF-SCORE:    0.00 PKD
ROOT
HETATM    1  C   UNL     1      -7.182   8.815  68.045  1.00  0.00    -0.083 C  
HETATM    2  C   UNL     1      -8.472   8.932  68.859  1.00  0.00    -0.131 A  
HETATM    3  C   UNL     1      -6.715  10.097  67.351  1.00  0.00    -0.073 C  
HETATM    4  C   UNL     1      -7.239   7.728  66.972  1.00  0.00    -0.089 C  
HETATM    5  O   UNL     1      -8.409   7.654  66.295  1.00  0.00    -0.119 OA 
HETATM    6  O   UNL     1      -6.289   7.009  66.694  1.00  0.00    -0.046 OA 
HETATM    7  C   UNL     1      -9.023   7.772  69.440  1.00  0.00    -0.142 A  
HETATM    8  C   UNL     1     -10.263   7.811  70.095  1.00  0.00    -0.205 A  
HETATM    9  C   UNL     1     -10.907   9.035  70.282  1.00  0.00    -0.269 A  
HETATM   10  C   UNL     1      -9.145  10.148  69.051  1.00  0.00    -0.176 A  
HETATM   11  C   UNL     1     -10.344  10.201  69.768  1.00  0.00    -0.297 A  
ENDROOT
BRANCH   8  12
HETATM   12  C   UNL     1     -10.932   6.578  70.588  1.00  0.00    -0.287 C  
HETATM   13  O   UNL     1     -12.142   6.613  70.805  1.00  0.00    -0.385 OA 
BRANCH  12  14
HETATM   14  C   UNL     1     -10.179   5.305  70.788  1.00  0.00    -0.317 A  
HETATM   15  C   UNL     1      -9.511   5.010  71.985  1.00  0.00    -0.180 A  
HETATM   16  C   UNL     1      -8.840   3.795  72.139  1.00  0.00    -0.124 A  
HETATM   17  C   UNL     1      -8.799   2.883  71.088  1.00  0.00    -0.141 A  
HETATM   18  C   UNL     1      -9.422   3.186  69.877  1.00  0.00    -0.203 A  
HETATM   19  C   UNL     1     -10.109   4.393  69.726  1.00  0.00    -0.101 A  
ENDBRANCH  12  14
ENDBRANCH   8  12
TORSDOF 2
ENDMDL
MODEL      196
REMARK 921   NORMALIZED FREE ENERGY PREDICTED BY IDOCK:   -3.04 KCAL/MOL
REMARK 922        TOTAL FREE ENERGY PREDICTED BY IDOCK:   -3.94 KCAL/MOL
REMARK 923 INTER-LIGAND FREE ENERGY PREDICTED BY IDOCK:   -3.38 KCAL/MOL
REMARK 924 INTRA-LIGAND FREE ENERGY PREDICTED BY IDOCK:   -0.56 KCAL/MOL
REMARK 927      BINDING AFFINITY PREDICTED BY RF-SCORE:    0.00 PKD
ROOT
HETATM    1  C   UNL     1      -9.497   8.406  71.099  1.00  0.00    -0.227 C  
HETATM    2  C   UNL     1      -9.447   6.882  70.972  1.00  0.00    -0.163 A  
HETATM    3  C   UNL     1     -10.473   8.955  72.143  1.00  0.00    -0.320 C  
HETATM    4  C   UNL     1      -9.816   9.113  69.783  1.00  0.00    -0.181 C  
HETATM    5  O   UNL     1     -10.776   8.521  69.033  1.00  0.00    -0.193 OA 
HETATM    6  O   UNL     1      -9.294  10.166  69.442  1.00  0.00    -0.201 OA 
HETATM    7  C   UNL     1      -8.653   6.304  69.962  1.00  0.00    -0.134 A  
HETATM    8  C   UNL     1      -8.668   4.920  69.735  1.00  0.00    -0.110 A  
HETATM    9  C   UNL     1      -9.384   4.086  70.595  1.00  0.00    -0.217 A  
HETATM   10  C   UNL     1     -10.167   6.023  71.817  1.00  0.00    -0.242 A  
HETATM   11  C   UNL     1     -10.124   4.637  71.639  1.00  0.00    -0.258 A  
ENDROOT
BRANCH   8  12
HETATM   12  C   UNL     1      -7.954   4.302  68.585  1.00  0.00    -0.073 C  
HETATM   13  O   UNL     1      -6.813   3.879  68.761  1.00  0.00    -0.045 OA 
BRANCH  12  14
HETATM   14  C   UNL     1      -8.602   4.157  67.248  1.00  0.00    -0.103 A  
HETATM   15  C   UNL     1      -7.969   3.514  66.175  1.00  0.00    -0.092 A  
HETATM   16  C   UNL     1      -8.622   3.376  64.949  1.00  0.00    -0.102 A  
HETATM   17  C   UNL     1      -9.896   3.911  64.774  1.00  0.00    -0.197 A  
HETATM   18  C   UNL     1     -10.516   4.593  65.821  1.00  0.00    -0.290 A  
HETATM   19  C   UNL     1      -9.871   4.717  67.054  1.00  0.00    -0.232 A  
ENDBRANCH  12  14
ENDBRANCH   8  12
TORSDOF 2
ENDMDL
MODEL      197
REMARK 921   NORMALIZED FREE ENERGY PREDICTED BY IDOCK:   -3.02 KCAL/MOL
REMARK 922        TOTAL FREE ENERGY PREDICTED BY IDOCK:   -3.92 KCAL/MOL
REMARK 923 INTER-LIGAND FREE ENERGY PREDICTED BY IDOCK:   -3.46 KCAL/MOL
REMARK 924 INTRA-LIGAND FREE ENERGY PREDICTED BY IDOCK:   -0.46 KCAL/MOL
REMARK 927      BINDING AFFINITY PREDICTED BY RF-SCORE:    0.00 PKD
ROOT
HETATM    1  C   UNL     1      -8.879   8.947  69.422  1.00  0.00    -0.143 C  
HETATM    2  C   UNL     1      -8.426   8.368  70.763  1.00  0.00    -0.151 A  
HETATM    3  C   UNL     1      -7.985  10.044  68.836  1.00  0.00    -0.101 C  
HETATM    4  C   UNL     1     -10.300   9.507  69.453  1.00  0.00    -0.214 C  
HETATM    5  O   UNL     1     -10.616  10.206  70.569  1.00  0.00    -0.290 OA 
HETATM    6  O   UNL     1     -11.088   9.391  68.524  1.00  0.00    -0.084 OA 
HETATM    7  C   UNL     1      -9.250   7.431  71.418  1.00  0.00    -0.148 A  
HETATM    8  C   UNL     1      -8.933   6.961  72.701  1.00  0.00    -0.142 A  
HETATM    9  C   UNL     1      -7.725   7.331  73.293  1.00  0.00    -0.109 A  
HETATM   10  C   UNL     1      -7.221   8.732  71.384  1.00  0.00    -0.104 A  
HETATM   11  C   UNL     1      -6.867   8.207  72.631  1.00  0.00    -0.099 A  
ENDROOT
BRANCH   8  12
HETATM   12  C   UNL     1      -9.858   6.087  73.471  1.00  0.00    -0.171 C  
HETATM   13  O   UNL     1     -10.491   6.578  74.403  1.00  0.00    -0.313 OA 
BRANCH  12  14
HETATM   14  C   UNL     1     -10.055   4.651  73.115  1.00  0.00    -0.202 A  
HETATM   15  C   UNL     1     -10.967   3.830  73.792  1.00  0.00    -0.312 A  
HETATM   16  C   UNL     1     -11.141   2.498  73.408  1.00  0.00    -0.293 A  
HETATM   17  C   UNL     1     -10.377   1.967  72.371  1.00  0.00    -0.217 A  
HETATM   18  C   UNL     1      -9.434   2.763  71.721  1.00  0.00    -0.206 A  
HETATM   19  C   UNL     1      -9.272   4.100  72.092  1.00  0.00    -0.166 A  
ENDBRANCH  12  14
ENDBRANCH   8  12
TORSDOF 2
ENDMDL
MODEL      198
REMARK 921   NORMALIZED FREE ENERGY PREDICTED BY IDOCK:   -2.95 KCAL/MOL
REMARK 922        TOTAL FREE ENERGY PREDICTED BY IDOCK:   -3.84 KCAL/MOL
REMARK 923 INTER-LIGAND FREE ENERGY PREDICTED BY IDOCK:   -3.26 KCAL/MOL
REMARK 924 INTRA-LIGAND FREE ENERGY PREDICTED BY IDOCK:   -0.59 KCAL/MOL
REMARK 927      BINDING AFFINITY PREDICTED BY RF-SCORE:    0.00 PKD
ROOT
HETATM    1  C   UNL     1     -10.598   9.663  69.186  1.00  0.00    -0.237 C  
HETATM    2  C   UNL     1     -10.116   8.905  67.948  1.00  0.00    -0.255 A  
HETATM    3  C   UNL     1     -10.245  11.152  69.234  1.00  0.00    -0.110 C  
HETATM    4  C   UNL     1     -10.109   9.053  70.499  1.00  0.00    -0.215 C  
HETATM    5  O   UNL     1      -8.821   8.633  70.490  1.00  0.00    -0.142 OA 
HETATM    6  O   UNL     1     -10.797   8.991  71.509  1.00  0.00    -0.292 OA 
HETATM    7  C   UNL     1     -10.310   7.511  67.880  1.00  0.00    -0.266 A  
HETATM    8  C   UNL     1      -9.782   6.759  66.820  1.00  0.00    -0.222 A  
HETATM    9  C   UNL     1      -9.160   7.410  65.754  1.00  0.00    -0.006 A  
HETATM   10  C   UNL     1      -9.477   9.535  66.869  1.00  0.00    -0.204 A  
HETATM   11  C   UNL     1      -9.017   8.796  65.775  1.00  0.00    -0.253 A  
ENDROOT
BRANCH   8  12
HETATM   12  C   UNL     1      -9.846   5.273  66.799  1.00  0.00    -0.176 C  
HETATM   13  O   UNL     1     -10.716   4.732  66.120  1.00  0.00    -0.308 OA 
BRANCH  12  14
HETATM   14  C   UNL     1      -8.864   4.437  67.551  1.00  0.00    -0.119 A  
HETATM   15  C   UNL     1      -7.673   3.978  66.972  1.00  0.00    -0.085 A  
HETATM   16  C   UNL     1      -6.769   3.221  67.720  1.00  0.00    -0.042 A  
HETATM   17  C   UNL     1      -7.065   2.885  69.039  1.00  0.00    -0.045 A  
HETATM   18  C   UNL     1      -8.269   3.297  69.610  1.00  0.00    -0.072 A  
HETATM   19  C   UNL     1      -9.167   4.070  68.869  1.00  0.00    -0.210 A  
ENDBRANCH  12  14
ENDBRANCH   8  12
TORSDOF 2
ENDMDL
MODEL      199
REMARK 921   NORMALIZED FREE ENERGY PREDICTED BY IDOCK:   -2.95 KCAL/MOL
REMARK 922        TOTAL FREE ENERGY PREDICTED BY IDOCK:   -3.84 KCAL/MOL
REMARK 923 INTER-LIGAND FREE ENERGY PREDICTED BY IDOCK:   -3.61 KCAL/MOL
REMARK 924 INTRA-LIGAND FREE ENERGY PREDICTED BY IDOCK:   -0.22 KCAL/MOL
REMARK 927      BINDING AFFINITY PREDICTED BY RF-SCORE:    0.00 PKD
ROOT
HETATM    1  C   UNL     1      -9.838   9.308  69.535  1.00  0.00    -0.188 C  
HETATM    2  C   UNL     1     -10.519  10.677  69.500  1.00  0.00    -0.236 A  
HETATM    3  C   UNL     1     -10.258   8.386  70.684  1.00  0.00    -0.222 C  
HETATM    4  C   UNL     1      -8.313   9.390  69.572  1.00  0.00    -0.127 C  
HETATM    5  O   UNL     1      -7.811  10.353  70.380  1.00  0.00    -0.072 OA 
HETATM    6  O   UNL     1      -7.584   8.615  68.967  1.00  0.00    -0.087 OA 
HETATM    7  C   UNL     1     -10.109  11.621  68.538  1.00  0.00    -0.210 A  
HETATM    8  C   UNL     1     -10.622  12.927  68.542  1.00  0.00    -0.270 A  
HETATM    9  C   UNL     1     -11.640  13.266  69.434  1.00  0.00    -0.364 A  
HETATM   10  C   UNL     1     -11.536  11.047  70.394  1.00  0.00    -0.389 A  
HETATM   11  C   UNL     1     -12.101  12.325  70.351  1.00  0.00    -0.385 A  
ENDROOT
BRANCH   8  12
HETATM   12  C   UNL     1     -10.100  13.982  67.632  1.00  0.00    -0.241 C  
HETATM   13  O   UNL     1     -10.903  14.633  66.966  1.00  0.00    -0.292 OA 
BRANCH  12  14
HETATM   14  C   UNL     1      -8.641  14.283  67.539  1.00  0.00    -0.203 A  
HETATM   15  C   UNL     1      -7.669  13.274  67.505  1.00  0.00    -0.175 A  
HETATM   16  C   UNL     1      -6.315  13.600  67.389  1.00  0.00     0.070 A  
HETATM   17  C   UNL     1      -5.921  14.935  67.345  1.00  0.00     0.192 A  
HETATM   18  C   UNL     1      -6.877  15.948  67.425  1.00  0.00    -0.228 A  
HETATM   19  C   UNL     1      -8.233  15.624  67.522  1.00  0.00    -0.185 A  
ENDBRANCH  12  14
ENDBRANCH   8  12
TORSDOF 2
ENDMDL
MODEL      200
REMARK 921   NORMALIZED FREE ENERGY PREDICTED BY IDOCK:   -2.94 KCAL/MOL
REMARK 922        TOTAL FREE ENERGY PREDICTED BY IDOCK:   -3.83 KCAL/MOL
REMARK 923 INTER-LIGAND FREE ENERGY PREDICTED BY IDOCK:   -3.25 KCAL/MOL
REMARK 924 INTRA-LIGAND FREE ENERGY PREDICTED BY IDOCK:   -0.58 KCAL/MOL
REMARK 927      BINDING AFFINITY PREDICTED BY RF-SCORE:    0.00 PKD
ROOT
HETATM    1  C   UNL     1     -11.818   7.831  71.404  1.00  0.00    -0.324 C  
HETATM    2  C   UNL     1     -10.737   7.139  70.573  1.00  0.00    -0.259 A  
HETATM    3  C   UNL     1     -13.221   7.225  71.308  1.00  0.00    -0.352 C  
HETATM    4  C   UNL     1     -11.960   9.320  71.094  1.00  0.00    -0.322 C  
HETATM    5  O   UNL     1     -11.886   9.641  69.780  1.00  0.00    -0.004 OA 
HETATM    6  O   UNL     1     -12.180  10.167  71.949  1.00  0.00    -0.332 OA 
HETATM    7  C   UNL     1      -9.445   7.699  70.526  1.00  0.00    -0.164 A  
HETATM    8  C   UNL     1      -8.456   7.166  69.687  1.00  0.00    -0.134 A  
HETATM    9  C   UNL     1      -8.711   5.991  68.978  1.00  0.00    -0.122 A  
HETATM   10  C   UNL     1     -10.972   5.964  69.842  1.00  0.00    -0.444 A  
HETATM   11  C   UNL     1      -9.964   5.388  69.064  1.00  0.00    -0.260 A  
ENDROOT
BRANCH   8  12
HETATM   12  C   UNL     1      -7.134   7.824  69.509  1.00  0.00    -0.063 C  
HETATM   13  O   UNL     1      -6.238   7.568  70.311  1.00  0.00    -0.033 OA 
BRANCH  12  14
HETATM   14  C   UNL     1      -6.868   8.751  68.369  1.00  0.00    -0.065 A  
HETATM   15  C   UNL     1      -7.761   9.770  68.009  1.00  0.00    -0.083 A  
HETATM   16  C   UNL     1      -7.460  10.632  66.953  1.00  0.00    -0.115 A  
HETATM   17  C   UNL     1      -6.285  10.460  66.225  1.00  0.00    -0.092 A  
HETATM   18  C   UNL     1      -5.412   9.421  66.546  1.00  0.00    -0.045 A  
HETATM   19  C   UNL     1      -5.702   8.567  67.614  1.00  0.00    -0.039 A  
ENDBRANCH  12  14
ENDBRANCH   8  12
TORSDOF 2
ENDMDL
MODEL      201
REMARK 921   NORMALIZED FREE ENERGY PREDICTED BY IDOCK:   -2.89 KCAL/MOL
REMARK 922        TOTAL FREE ENERGY PREDICTED BY IDOCK:   -3.78 KCAL/MOL
REMARK 923 INTER-LIGAND FREE ENERGY PREDICTED BY IDOCK:   -3.22 KCAL/MOL
REMARK 924 INTRA-LIGAND FREE ENERGY PREDICTED BY IDOCK:   -0.56 KCAL/MOL
REMARK 927      BINDING AFFINITY PREDICTED BY RF-SCORE:    0.00 PKD
ROOT
HETATM    1  C   UNL     1      -8.159   8.780  66.172  1.00  0.00    -0.107 C  
HETATM    2  C   UNL     1      -8.554   7.510  66.926  1.00  0.00    -0.124 A  
HETATM    3  C   UNL     1      -7.063   8.614  65.116  1.00  0.00    -0.086 C  
HETATM    4  C   UNL     1      -7.716   9.918  67.091  1.00  0.00    -0.092 C  
HETATM    5  O   UNL     1      -6.930   9.542  68.129  1.00  0.00    -0.076 OA 
HETATM    6  O   UNL     1      -7.994  11.092  66.889  1.00  0.00    -0.137 OA 
HETATM    7  C   UNL     1      -9.479   7.601  67.985  1.00  0.00    -0.151 A  
HETATM    8  C   UNL     1      -9.782   6.484  68.779  1.00  0.00    -0.131 A  
HETATM    9  C   UNL     1      -9.255   5.236  68.444  1.00  0.00    -0.135 A  
HETATM   10  C   UNL     1      -8.029   6.245  66.617  1.00  0.00    -0.108 A  
HETATM   11  C   UNL     1      -8.388   5.117  67.361  1.00  0.00    -0.106 A  
ENDROOT
BRANCH   8  12
HETATM   12  C   UNL     1     -10.641   6.587  69.989  1.00  0.00    -0.230 C  
HETATM   13  O   UNL     1     -11.861   6.556  69.847  1.00  0.00    -0.381 OA 
BRANCH  12  14
HETATM   14  C   UNL     1     -10.055   6.690  71.358  1.00  0.00    -0.209 A  
HETATM   15  C   UNL     1      -8.675   6.806  71.575  1.00  0.00    -0.127 A  
HETATM   16  C   UNL     1      -8.171   6.927  72.871  1.00  0.00    -0.117 A  
HETATM   17  C   UNL     1      -9.037   6.896  73.962  1.00  0.00    -0.225 A  
HETATM   18  C   UNL     1     -10.408   6.734  73.759  1.00  0.00    -0.397 A  
HETATM   19  C   UNL     1     -10.916   6.631  72.462  1.00  0.00    -0.280 A  
ENDBRANCH  12  14
ENDBRANCH   8  12
TORSDOF 2
ENDMDL
MODEL      202
REMARK 921   NORMALIZED FREE ENERGY PREDICTED BY IDOCK:   -2.68 KCAL/MOL
REMARK 922        TOTAL FREE ENERGY PREDICTED BY IDOCK:   -3.54 KCAL/MOL
REMARK 923 INTER-LIGAND FREE ENERGY PREDICTED BY IDOCK:   -3.03 KCAL/MOL
REMARK 924 INTRA-LIGAND FREE ENERGY PREDICTED BY IDOCK:   -0.50 KCAL/MOL
REMARK 927      BINDING AFFINITY PREDICTED BY RF-SCORE:    0.00 PKD
ROOT
HETATM    1  C   UNL     1     -11.060   6.275  71.498  1.00  0.00    -0.333 C  
HETATM    2  C   UNL     1     -10.557   6.107  70.063  1.00  0.00    -0.323 A  
HETATM    3  C   UNL     1     -12.473   6.848  71.645  1.00  0.00    -0.418 C  
HETATM    4  C   UNL     1     -10.144   7.138  72.364  1.00  0.00    -0.182 C  
HETATM    5  O   UNL     1      -9.642   8.236  71.749  1.00  0.00    -0.170 OA 
HETATM    6  O   UNL     1      -9.914   6.901  73.542  1.00  0.00    -0.205 OA 
HETATM    7  C   UNL     1      -9.230   5.687  69.847  1.00  0.00    -0.173 A  
HETATM    8  C   UNL     1      -8.691   5.631  68.553  1.00  0.00    -0.110 A  
HETATM    9  C   UNL     1      -9.511   5.878  67.452  1.00  0.00    -0.112 A  
HETATM   10  C   UNL     1     -11.359   6.361  68.939  1.00  0.00    -0.292 A  
HETATM   11  C   UNL     1     -10.844   6.233  67.646  1.00  0.00    -0.433 A  
ENDROOT
BRANCH   8  12
HETATM   12  C   UNL     1      -7.254   5.331  68.311  1.00  0.00    -0.067 C  
HETATM   13  O   UNL     1      -6.552   6.198  67.794  1.00  0.00    -0.054 OA 
BRANCH  12  14
HETATM   14  C   UNL     1      -6.648   4.027  68.711  1.00  0.00    -0.045 A  
HETATM   15  C   UNL     1      -6.554   2.943  67.828  1.00  0.00    -0.037 A  
HETATM   16  C   UNL     1      -5.955   1.749  68.235  1.00  0.00    -0.024 A  
HETATM   17  C   UNL     1      -5.481   1.616  69.538  1.00  0.00    -0.013 A  
HETATM   18  C   UNL     1      -5.611   2.673  70.438  1.00  0.00    -0.016 A  
HETATM   19  C   UNL     1      -6.194   3.875  70.028  1.00  0.00    -0.027 A  
ENDBRANCH  12  14
ENDBRANCH   8  12
TORSDOF 2
ENDMDL
MODEL      203
REMARK 921   NORMALIZED FREE ENERGY PREDICTED BY IDOCK:   -2.64 KCAL/MOL
REMARK 922        TOTAL FREE ENERGY PREDICTED BY IDOCK:   -3.50 KCAL/MOL
REMARK 923 INTER-LIGAND FREE ENERGY PREDICTED BY IDOCK:   -3.05 KCAL/MOL
REMARK 924 INTRA-LIGAND FREE ENERGY PREDICTED BY IDOCK:   -0.45 KCAL/MOL
REMARK 927      BINDING AFFINITY PREDICTED BY RF-SCORE:    0.00 PKD
ROOT
HETATM    1  C   UNL     1     -11.445   6.713  71.200  1.00  0.00    -0.370 C  
HETATM    2  C   UNL     1     -10.778   6.459  69.848  1.00  0.00    -0.332 A  
HETATM    3  C   UNL     1     -12.925   7.105  71.149  1.00  0.00    -0.316 C  
HETATM    4  C   UNL     1     -10.736   7.778  72.035  1.00  0.00    -0.231 C  
HETATM    5  O   UNL     1     -10.310   8.860  71.341  1.00  0.00    -0.251 OA 
HETATM    6  O   UNL     1     -10.605   7.703  73.250  1.00  0.00    -0.365 OA 
HETATM    7  C   UNL     1      -9.394   6.198  69.805  1.00  0.00    -0.162 A  
HETATM    8  C   UNL     1      -8.719   6.075  68.581  1.00  0.00    -0.110 A  
HETATM    9  C   UNL     1      -9.444   6.090  67.389  1.00  0.00    -0.113 A  
HETATM   10  C   UNL     1     -11.482   6.481  68.634  1.00  0.00    -0.045 A  
HETATM   11  C   UNL     1     -10.823   6.284  67.417  1.00  0.00    -0.448 A  
ENDROOT
BRANCH   8  12
HETATM   12  C   UNL     1      -7.239   5.945  68.507  1.00  0.00    -0.083 C  
HETATM   13  O   UNL     1      -6.590   6.019  69.548  1.00  0.00    -0.040 OA 
BRANCH  12  14
HETATM   14  C   UNL     1      -6.540   5.693  67.212  1.00  0.00    -0.057 A  
HETATM   15  C   UNL     1      -6.160   4.407  66.804  1.00  0.00    -0.031 A  
HETATM   16  C   UNL     1      -5.532   4.212  65.572  1.00  0.00    -0.010 A  
HETATM   17  C   UNL     1      -5.246   5.303  64.756  1.00  0.00    -0.009 A  
HETATM   18  C   UNL     1      -5.578   6.592  65.173  1.00  0.00    -0.030 A  
HETATM   19  C   UNL     1      -6.223   6.787  66.397  1.00  0.00    -0.044 A  
ENDBRANCH  12  14
ENDBRANCH   8  12
TORSDOF 2
ENDMDL
MODEL      204
REMARK 921   NORMALIZED FREE ENERGY PREDICTED BY IDOCK:   -2.58 KCAL/MOL
REMARK 922        TOTAL FREE ENERGY PREDICTED BY IDOCK:   -3.42 KCAL/MOL
REMARK 923 INTER-LIGAND FREE ENERGY PREDICTED BY IDOCK:   -2.93 KCAL/MOL
REMARK 924 INTRA-LIGAND FREE ENERGY PREDICTED BY IDOCK:   -0.49 KCAL/MOL
REMARK 927      BINDING AFFINITY PREDICTED BY RF-SCORE:    0.00 PKD
ROOT
HETATM    1  C   UNL     1      -8.790   8.823  68.792  1.00  0.00    -0.134 C  
HETATM    2  C   UNL     1      -9.220   7.358  68.884  1.00  0.00    -0.142 A  
HETATM    3  C   UNL     1      -8.879   9.626  70.093  1.00  0.00    -0.266 C  
HETATM    4  C   UNL     1      -9.558   9.614  67.733  1.00  0.00    -0.139 C  
HETATM    5  O   UNL     1     -10.886   9.351  67.674  1.00  0.00    -0.267 OA 
HETATM    6  O   UNL     1      -9.040  10.465  67.023  1.00  0.00    -0.139 OA 
HETATM    7  C   UNL     1      -9.267   6.582  67.709  1.00  0.00    -0.113 A  
HETATM    8  C   UNL     1      -9.765   5.271  67.728  1.00  0.00    -0.170 A  
HETATM    9  C   UNL     1     -10.106   4.680  68.945  1.00  0.00    -0.103 A  
HETATM   10  C   UNL     1      -9.579   6.744  70.094  1.00  0.00    -0.165 A  
HETATM   11  C   UNL     1     -10.005   5.412  70.126  1.00  0.00    -0.301 A  
ENDROOT
BRANCH   8  12
HETATM   12  C   UNL     1      -9.961   4.484  66.481  1.00  0.00    -0.240 C  
HETATM   13  O   UNL     1     -10.957   4.707  65.797  1.00  0.00    -0.237 OA 
BRANCH  12  14
HETATM   14  C   UNL     1      -8.965   3.467  66.033  1.00  0.00    -0.143 A  
HETATM   15  C   UNL     1      -9.244   2.541  65.019  1.00  0.00    -0.128 A  
HETATM   16  C   UNL     1      -8.274   1.624  64.611  1.00  0.00    -0.071 A  
HETATM   17  C   UNL     1      -7.030   1.600  65.238  1.00  0.00    -0.046 A  
HETATM   18  C   UNL     1      -6.758   2.487  66.280  1.00  0.00    -0.043 A  
HETATM   19  C   UNL     1      -7.722   3.417  66.677  1.00  0.00    -0.080 A  
ENDBRANCH  12  14
ENDBRANCH   8  12
TORSDOF 2
ENDMDL
MODEL      205
REMARK 921   NORMALIZED FREE ENERGY PREDICTED BY IDOCK:   -2.49 KCAL/MOL
REMARK 922        TOTAL FREE ENERGY PREDICTED BY IDOCK:   -3.33 KCAL/MOL
REMARK 923 INTER-LIGAND FREE ENERGY PREDICTED BY IDOCK:   -3.50 KCAL/MOL
REMARK 924 INTRA-LIGAND FREE ENERGY PREDICTED BY IDOCK:    0.17 KCAL/MOL
REMARK 927      BINDING AFFINITY PREDICTED BY RF-SCORE:    0.00 PKD
ROOT
HETATM    1  C   UNL     1      -9.189  16.773  67.178  1.00  0.00    -0.233 C  
HETATM    2  C   UNL     1      -9.660  15.369  66.796  1.00  0.00    -0.257 A  
HETATM    3  C   UNL     1      -9.831  17.925  66.400  1.00  0.00    -0.339 C  
HETATM    4  C   UNL     1      -7.676  16.956  67.066  1.00  0.00    -0.195 C  
HETATM    5  O   UNL     1      -7.110  16.386  65.975  1.00  0.00     0.141 OA 
HETATM    6  O   UNL     1      -7.017  17.612  67.861  1.00  0.00    -0.181 OA 
HETATM    7  C   UNL     1      -9.040  14.252  67.392  1.00  0.00    -0.199 A  
HETATM    8  C   UNL     1      -9.359  12.947  66.987  1.00  0.00    -0.235 A  
HETATM    9  C   UNL     1     -10.389  12.741  66.069  1.00  0.00    -0.291 A  
HETATM   10  C   UNL     1     -10.686  15.135  65.867  1.00  0.00    -0.341 A  
HETATM   11  C   UNL     1     -11.056  13.833  65.518  1.00  0.00    -0.300 A  
ENDROOT
BRANCH   8  12
HETATM   12  C   UNL     1      -8.617  11.762  67.495  1.00  0.00    -0.157 C  
HETATM   13  O   UNL     1      -8.385  11.686  68.699  1.00  0.00    -0.151 OA 
BRANCH  12  14
HETATM   14  C   UNL     1      -8.186  10.660  66.585  1.00  0.00    -0.134 A  
HETATM   15  C   UNL     1      -7.276   9.672  66.984  1.00  0.00    -0.087 A  
HETATM   16  C   UNL     1      -6.920   8.643  66.109  1.00  0.00    -0.080 A  
HETATM   17  C   UNL     1      -7.442   8.614  64.818  1.00  0.00    -0.097 A  
HETATM   18  C   UNL     1      -8.314   9.618  64.396  1.00  0.00    -0.171 A  
HETATM   19  C   UNL     1      -8.684  10.639  65.275  1.00  0.00    -0.198 A  
ENDBRANCH  12  14
ENDBRANCH   8  12
TORSDOF 2
ENDMDL
MODEL      206
REMARK 921   NORMALIZED FREE ENERGY PREDICTED BY IDOCK:   -2.47 KCAL/MOL
REMARK 922        TOTAL FREE ENERGY PREDICTED BY IDOCK:   -3.30 KCAL/MOL
REMARK 923 INTER-LIGAND FREE ENERGY PREDICTED BY IDOCK:   -2.80 KCAL/MOL
REMARK 924 INTRA-LIGAND FREE ENERGY PREDICTED BY IDOCK:   -0.50 KCAL/MOL
REMARK 927      BINDING AFFINITY PREDICTED BY RF-SCORE:    0.00 PKD
ROOT
HETATM    1  C   UNL     1      -7.628   5.631  66.244  1.00  0.00    -0.091 C  
HETATM    2  C   UNL     1      -7.381   6.824  67.169  1.00  0.00    -0.086 A  
HETATM    3  C   UNL     1      -6.747   4.403  66.492  1.00  0.00    -0.050 C  
HETATM    4  C   UNL     1      -7.496   5.975  64.762  1.00  0.00    -0.079 C  
HETATM    5  O   UNL     1      -6.462   6.795  64.454  1.00  0.00    -0.037 OA 
HETATM    6  O   UNL     1      -8.225   5.510  63.896  1.00  0.00    -0.120 OA 
HETATM    7  C   UNL     1      -8.078   8.026  66.936  1.00  0.00    -0.108 A  
HETATM    8  C   UNL     1      -7.798   9.180  67.684  1.00  0.00    -0.096 A  
HETATM    9  C   UNL     1      -6.906   9.110  68.754  1.00  0.00    -0.061 A  
HETATM   10  C   UNL     1      -6.480   6.782  68.244  1.00  0.00    -0.053 A  
HETATM   11  C   UNL     1      -6.256   7.910  69.038  1.00  0.00    -0.039 A  
ENDROOT
BRANCH   8  12
HETATM   12  C   UNL     1      -8.413  10.496  67.363  1.00  0.00    -0.122 C  
HETATM   13  O   UNL     1      -7.884  11.198  66.504  1.00  0.00    -0.150 OA 
BRANCH  12  14
HETATM   14  C   UNL     1      -9.666  10.958  68.031  1.00  0.00    -0.176 A  
HETATM   15  C   UNL     1     -10.222  10.284  69.127  1.00  0.00    -0.234 A  
HETATM   16  C   UNL     1     -11.381  10.766  69.740  1.00  0.00    -0.372 A  
HETATM   17  C   UNL     1     -12.013  11.901  69.239  1.00  0.00    -0.342 A  
HETATM   18  C   UNL     1     -11.494  12.553  68.120  1.00  0.00    -0.368 A  
HETATM   19  C   UNL     1     -10.324  12.082  67.517  1.00  0.00    -0.217 A  
ENDBRANCH  12  14
ENDBRANCH   8  12
TORSDOF 2
ENDMDL
MODEL      207
REMARK 921   NORMALIZED FREE ENERGY PREDICTED BY IDOCK:   -2.38 KCAL/MOL
REMARK 922        TOTAL FREE ENERGY PREDICTED BY IDOCK:   -3.21 KCAL/MOL
REMARK 923 INTER-LIGAND FREE ENERGY PREDICTED BY IDOCK:   -2.74 KCAL/MOL
REMARK 924 INTRA-LIGAND FREE ENERGY PREDICTED BY IDOCK:   -0.46 KCAL/MOL
REMARK 927      BINDING AFFINITY PREDICTED BY RF-SCORE:    0.00 PKD
ROOT
HETATM    1  C   UNL     1      -9.156   9.533  68.621  1.00  0.00    -0.132 C  
HETATM    2  C   UNL     1      -8.446   8.203  68.877  1.00  0.00    -0.130 A  
HETATM    3  C   UNL     1      -8.433  10.783  69.132  1.00  0.00    -0.105 C  
HETATM    4  C   UNL     1     -10.574   9.582  69.187  1.00  0.00    -0.222 C  
HETATM    5  O   UNL     1     -10.719   9.027  70.414  1.00  0.00    -0.208 OA 
HETATM    6  O   UNL     1     -11.508  10.128  68.615  1.00  0.00    -0.167 OA 
HETATM    7  C   UNL     1      -9.096   7.002  68.531  1.00  0.00    -0.131 A  
HETATM    8  C   UNL     1      -8.534   5.757  68.854  1.00  0.00    -0.104 A  
HETATM    9  C   UNL     1      -7.259   5.700  69.416  1.00  0.00    -0.066 A  
HETATM   10  C   UNL     1      -7.168   8.119  69.452  1.00  0.00    -0.067 A  
HETATM   11  C   UNL     1      -6.574   6.879  69.706  1.00  0.00    -0.045 A  
ENDROOT
BRANCH   8  12
HETATM   12  C   UNL     1      -9.266   4.481  68.631  1.00  0.00    -0.130 C  
HETATM   13  O   UNL     1      -9.901   3.997  69.565  1.00  0.00    -0.195 OA 
BRANCH  12  14
HETATM   14  C   UNL     1      -9.272   3.805  67.300  1.00  0.00    -0.208 A  
HETATM   15  C   UNL     1      -8.729   2.527  67.107  1.00  0.00    -0.139 A  
HETATM   16  C   UNL     1      -8.780   1.919  65.851  1.00  0.00    -0.116 A  
HETATM   17  C   UNL     1      -9.339   2.598  64.770  1.00  0.00    -0.139 A  
HETATM   18  C   UNL     1      -9.840   3.889  64.941  1.00  0.00    -0.197 A  
HETATM   19  C   UNL     1      -9.806   4.491  66.202  1.00  0.00    -0.243 A  
ENDBRANCH  12  14
ENDBRANCH   8  12
TORSDOF 2
ENDMDL
MODEL      208
REMARK 921   NORMALIZED FREE ENERGY PREDICTED BY IDOCK:   -2.36 KCAL/MOL
REMARK 922        TOTAL FREE ENERGY PREDICTED BY IDOCK:   -3.18 KCAL/MOL
REMARK 923 INTER-LIGAND FREE ENERGY PREDICTED BY IDOCK:   -2.59 KCAL/MOL
REMARK 924 INTRA-LIGAND FREE ENERGY PREDICTED BY IDOCK:   -0.59 KCAL/MOL
REMARK 927      BINDING AFFINITY PREDICTED BY RF-SCORE:    0.00 PKD
ROOT
HETATM    1  C   UNL     1      -8.790   9.228  69.108  1.00  0.00    -0.141 C  
HETATM    2  C   UNL     1      -8.383   8.375  70.311  1.00  0.00    -0.124 A  
HETATM    3  C   UNL     1      -8.407  10.709  69.182  1.00  0.00    -0.140 C  
HETATM    4  C   UNL     1     -10.287   9.175  68.807  1.00  0.00    -0.214 C  
HETATM    5  O   UNL     1     -11.092   9.213  69.897  1.00  0.00    -0.229 OA 
HETATM    6  O   UNL     1     -10.744   9.156  67.672  1.00  0.00    -0.262 OA 
HETATM    7  C   UNL     1      -8.791   7.028  70.366  1.00  0.00    -0.155 A  
HETATM    8  C   UNL     1      -8.541   6.243  71.501  1.00  0.00    -0.131 A  
HETATM    9  C   UNL     1      -7.772   6.760  72.543  1.00  0.00    -0.096 A  
HETATM   10  C   UNL     1      -7.620   8.876  71.377  1.00  0.00    -0.118 A  
HETATM   11  C   UNL     1      -7.305   8.071  72.476  1.00  0.00    -0.122 A  
ENDROOT
BRANCH   8  12
HETATM   12  C   UNL     1      -9.088   4.866  71.643  1.00  0.00    -0.140 C  
HETATM   13  O   UNL     1      -9.982   4.671  72.463  1.00  0.00    -0.156 OA 
BRANCH  12  14
HETATM   14  C   UNL     1      -8.601   3.740  70.793  1.00  0.00    -0.110 A  
HETATM   15  C   UNL     1      -9.460   2.995  69.973  1.00  0.00    -0.195 A  
HETATM   16  C   UNL     1      -8.958   1.966  69.173  1.00  0.00    -0.152 A  
HETATM   17  C   UNL     1      -7.603   1.650  69.213  1.00  0.00    -0.042 A  
HETATM   18  C   UNL     1      -6.747   2.355  70.060  1.00  0.00    -0.033 A  
HETATM   19  C   UNL     1      -7.244   3.396  70.848  1.00  0.00    -0.033 A  
ENDBRANCH  12  14
ENDBRANCH   8  12
TORSDOF 2
ENDMDL
MODEL      209
REMARK 921   NORMALIZED FREE ENERGY PREDICTED BY IDOCK:   -2.32 KCAL/MOL
REMARK 922        TOTAL FREE ENERGY PREDICTED BY IDOCK:   -3.13 KCAL/MOL
REMARK 923 INTER-LIGAND FREE ENERGY PREDICTED BY IDOCK:   -2.79 KCAL/MOL
REMARK 924 INTRA-LIGAND FREE ENERGY PREDICTED BY IDOCK:   -0.35 KCAL/MOL
REMARK 927      BINDING AFFINITY PREDICTED BY RF-SCORE:    0.00 PKD
ROOT
HETATM    1  C   UNL     1      -8.628   9.967  67.765  1.00  0.00    -0.121 C  
HETATM    2  C   UNL     1      -8.275   9.090  68.968  1.00  0.00    -0.119 A  
HETATM    3  C   UNL     1      -7.614  11.061  67.419  1.00  0.00    -0.110 C  
HETATM    4  C   UNL     1      -9.988  10.651  67.892  1.00  0.00    -0.166 C  
HETATM    5  O   UNL     1     -10.268  11.144  69.123  1.00  0.00    -0.208 OA 
HETATM    6  O   UNL     1     -10.755  10.802  66.951  1.00  0.00    -0.256 OA 
HETATM    7  C   UNL     1      -9.206   8.131  69.414  1.00  0.00    -0.155 A  
HETATM    8  C   UNL     1      -8.975   7.388  70.581  1.00  0.00    -0.155 A  
HETATM    9  C   UNL     1      -7.755   7.508  71.246  1.00  0.00    -0.085 A  
HETATM   10  C   UNL     1      -7.060   9.201  69.662  1.00  0.00    -0.059 A  
HETATM   11  C   UNL     1      -6.796   8.406  70.782  1.00  0.00    -0.041 A  
ENDROOT
BRANCH   8  12
HETATM   12  C   UNL     1     -10.004   6.477  71.151  1.00  0.00    -0.182 C  
HETATM   13  O   UNL     1     -11.177   6.637  70.823  1.00  0.00    -0.274 OA 
BRANCH  12  14
HETATM   14  C   UNL     1      -9.637   5.364  72.076  1.00  0.00    -0.186 A  
HETATM   15  C   UNL     1     -10.135   5.282  73.384  1.00  0.00    -0.202 A  
HETATM   16  C   UNL     1      -9.788   4.209  74.207  1.00  0.00    -0.166 A  
HETATM   17  C   UNL     1      -8.912   3.230  73.744  1.00  0.00    -0.083 A  
HETATM   18  C   UNL     1      -8.374   3.327  72.460  1.00  0.00    -0.080 A  
HETATM   19  C   UNL     1      -8.734   4.390  71.629  1.00  0.00    -0.138 A  
ENDBRANCH  12  14
ENDBRANCH   8  12
TORSDOF 2
ENDMDL
MODEL      210
REMARK 921   NORMALIZED FREE ENERGY PREDICTED BY IDOCK:   -2.24 KCAL/MOL
REMARK 922        TOTAL FREE ENERGY PREDICTED BY IDOCK:   -3.05 KCAL/MOL
REMARK 923 INTER-LIGAND FREE ENERGY PREDICTED BY IDOCK:   -2.63 KCAL/MOL
REMARK 924 INTRA-LIGAND FREE ENERGY PREDICTED BY IDOCK:   -0.41 KCAL/MOL
REMARK 927      BINDING AFFINITY PREDICTED BY RF-SCORE:    0.00 PKD
ROOT
HETATM    1  C   UNL     1      -7.982   9.027  69.841  1.00  0.00    -0.103 C  
HETATM    2  C   UNL     1      -7.157   8.387  70.959  1.00  0.00    -0.061 A  
HETATM    3  C   UNL     1      -7.627  10.477  69.500  1.00  0.00    -0.148 C  
HETATM    4  C   UNL     1      -9.487   8.992  70.102  1.00  0.00    -0.195 C  
HETATM    5  O   UNL     1      -9.853   9.264  71.378  1.00  0.00    -0.295 OA 
HETATM    6  O   UNL     1     -10.316   8.791  69.225  1.00  0.00    -0.207 OA 
HETATM    7  C   UNL     1      -7.493   7.092  71.403  1.00  0.00    -0.080 A  
HETATM    8  C   UNL     1      -6.841   6.513  72.501  1.00  0.00    -0.069 A  
HETATM    9  C   UNL     1      -5.762   7.173  73.091  1.00  0.00    -0.045 A  
HETATM   10  C   UNL     1      -6.076   9.035  71.576  1.00  0.00    -0.070 A  
HETATM   11  C   UNL     1      -5.375   8.427  72.622  1.00  0.00    -0.043 A  
ENDROOT
BRANCH   8  12
HETATM   12  C   UNL     1      -7.274   5.212  73.079  1.00  0.00    -0.090 C  
HETATM   13  O   UNL     1      -6.414   4.438  73.492  1.00  0.00    -0.046 OA 
BRANCH  12  14
HETATM   14  C   UNL     1      -8.717   4.851  73.196  1.00  0.00    -0.109 A  
HETATM   15  C   UNL     1      -9.710   5.806  73.456  1.00  0.00    -0.159 A  
HETATM   16  C   UNL     1     -11.052   5.429  73.531  1.00  0.00    -0.273 A  
HETATM   17  C   UNL     1     -11.409   4.091  73.385  1.00  0.00    -0.272 A  
HETATM   18  C   UNL     1     -10.425   3.125  73.173  1.00  0.00    -0.255 A  
HETATM   19  C   UNL     1      -9.083   3.503  73.080  1.00  0.00    -0.113 A  
ENDBRANCH  12  14
ENDBRANCH   8  12
TORSDOF 2
ENDMDL
MODEL      211
REMARK 921   NORMALIZED FREE ENERGY PREDICTED BY IDOCK:   -1.98 KCAL/MOL
REMARK 922        TOTAL FREE ENERGY PREDICTED BY IDOCK:   -2.76 KCAL/MOL
REMARK 923 INTER-LIGAND FREE ENERGY PREDICTED BY IDOCK:   -2.86 KCAL/MOL
REMARK 924 INTRA-LIGAND FREE ENERGY PREDICTED BY IDOCK:    0.10 KCAL/MOL
REMARK 927      BINDING AFFINITY PREDICTED BY RF-SCORE:    0.00 PKD
ROOT
HETATM    1  C   UNL     1      -8.835   8.799  69.360  1.00  0.00    -0.143 C  
HETATM    2  C   UNL     1      -9.230   7.353  69.056  1.00  0.00    -0.146 A  
HETATM    3  C   UNL     1      -9.178   9.302  70.765  1.00  0.00    -0.316 C  
HETATM    4  C   UNL     1      -9.424   9.808  68.375  1.00  0.00    -0.140 C  
HETATM    5  O   UNL     1     -10.711   9.577  68.021  1.00  0.00    -0.239 OA 
HETATM    6  O   UNL     1      -8.813  10.788  67.970  1.00  0.00    -0.127 OA 
HETATM    7  C   UNL     1      -9.043   6.851  67.753  1.00  0.00    -0.118 A  
HETATM    8  C   UNL     1      -9.497   5.572  67.399  1.00  0.00    -0.121 A  
HETATM    9  C   UNL     1     -10.033   4.734  68.378  1.00  0.00    -0.156 A  
HETATM   10  C   UNL     1      -9.782   6.495  70.020  1.00  0.00    -0.178 A  
HETATM   11  C   UNL     1     -10.166   5.193  69.687  1.00  0.00    -0.337 A  
ENDROOT
BRANCH   8  12
HETATM   12  C   UNL     1      -9.444   5.076  65.998  1.00  0.00    -0.161 C  
HETATM   13  O   UNL     1     -10.404   4.446  65.561  1.00  0.00    -0.254 OA 
BRANCH  12  14
HETATM   14  C   UNL     1      -8.275   5.357  65.113  1.00  0.00    -0.138 A  
HETATM   15  C   UNL     1      -8.055   4.658  63.918  1.00  0.00    -0.101 A  
HETATM   16  C   UNL     1      -6.963   4.972  63.106  1.00  0.00    -0.042 A  
HETATM   17  C   UNL     1      -6.063   5.960  63.499  1.00  0.00    -0.025 A  
HETATM   18  C   UNL     1      -6.248   6.630  64.708  1.00  0.00    -0.038 A  
HETATM   19  C   UNL     1      -7.349   6.330  65.514  1.00  0.00    -0.080 A  
ENDBRANCH  12  14
ENDBRANCH   8  12
TORSDOF 2
ENDMDL
MODEL      212
REMARK 921   NORMALIZED FREE ENERGY PREDICTED BY IDOCK:   -1.81 KCAL/MOL
REMARK 922        TOTAL FREE ENERGY PREDICTED BY IDOCK:   -2.56 KCAL/MOL
REMARK 923 INTER-LIGAND FREE ENERGY PREDICTED BY IDOCK:   -2.01 KCAL/MOL
REMARK 924 INTRA-LIGAND FREE ENERGY PREDICTED BY IDOCK:   -0.55 KCAL/MOL
REMARK 927      BINDING AFFINITY PREDICTED BY RF-SCORE:    0.00 PKD
ROOT
HETATM    1  C   UNL     1     -10.827  17.534  69.635  1.00  0.00     0.612 C  
HETATM    2  C   UNL     1     -10.638  17.778  68.137  1.00  0.00    -0.350 A  
HETATM    3  C   UNL     1     -10.160  18.552  70.564  1.00  0.00     1.975 C  
HETATM    4  C   UNL     1     -10.359  16.152  70.088  1.00  0.00    -0.041 C  
HETATM    5  O   UNL     1      -9.198  15.731  69.532  1.00  0.00    -0.260 OA 
HETATM    6  O   UNL     1     -10.946  15.486  70.930  1.00  0.00    -0.329 OA 
HETATM    7  C   UNL     1     -11.131  16.828  67.220  1.00  0.00     0.076 A  
HETATM    8  C   UNL     1     -10.878  16.951  65.846  1.00  0.00    -0.037 A  
HETATM    9  C   UNL     1     -10.235  18.091  65.361  1.00  0.00     0.448 A  
HETATM   10  C   UNL     1      -9.984  18.910  67.625  1.00  0.00    -0.404 A  
HETATM   11  C   UNL     1      -9.797  19.071  66.249  1.00  0.00    -0.417 A  
ENDROOT
BRANCH   8  12
HETATM   12  C   UNL     1     -11.261  15.890  64.876  1.00  0.00    -0.337 C  
HETATM   13  O   UNL     1     -11.617  16.225  63.749  1.00  0.00    -0.952 OA 
BRANCH  12  14
HETATM   14  C   UNL     1     -11.187  14.442  65.232  1.00  0.00    -0.345 A  
HETATM   15  C   UNL     1     -12.309  13.602  65.188  1.00  0.00    -0.486 A  
HETATM   16  C   UNL     1     -12.190  12.247  65.502  1.00  0.00    -0.242 A  
HETATM   17  C   UNL     1     -10.960  11.729  65.899  1.00  0.00    -0.354 A  
HETATM   18  C   UNL     1      -9.847  12.566  65.991  1.00  0.00    -0.266 A  
HETATM   19  C   UNL     1      -9.960  13.918  65.659  1.00  0.00    -0.298 A  
ENDBRANCH  12  14
ENDBRANCH   8  12
TORSDOF 2
ENDMDL
MODEL      213
REMARK 921   NORMALIZED FREE ENERGY PREDICTED BY IDOCK:   -1.80 KCAL/MOL
REMARK 922        TOTAL FREE ENERGY PREDICTED BY IDOCK:   -2.56 KCAL/MOL
REMARK 923 INTER-LIGAND FREE ENERGY PREDICTED BY IDOCK:   -2.58 KCAL/MOL
REMARK 924 INTRA-LIGAND FREE ENERGY PREDICTED BY IDOCK:    0.02 KCAL/MOL
REMARK 927      BINDING AFFINITY PREDICTED BY RF-SCORE:    0.00 PKD
ROOT
HETATM    1  C   UNL     1     -11.069  12.251  65.320  1.00  0.00    -0.359 C  
HETATM    2  C   UNL     1     -11.445  11.932  66.768  1.00  0.00    -0.384 A  
HETATM    3  C   UNL     1     -10.416  11.109  64.536  1.00  0.00    -0.415 C  
HETATM    4  C   UNL     1     -10.147  13.461  65.186  1.00  0.00    -0.246 C  
HETATM    5  O   UNL     1      -9.163  13.536  66.114  1.00  0.00    -0.128 OA 
HETATM    6  O   UNL     1     -10.240  14.280  64.282  1.00  0.00    -0.090 OA 
HETATM    7  C   UNL     1     -11.953  12.961  67.586  1.00  0.00    -0.344 A  
HETATM    8  C   UNL     1     -12.201  12.744  68.950  1.00  0.00    -0.019 A  
HETATM    9  C   UNL     1     -12.060  11.462  69.482  1.00  0.00    -0.370 A  
HETATM   10  C   UNL     1     -11.301  10.654  67.330  1.00  0.00    -0.185 A  
HETATM   11  C   UNL     1     -11.620  10.418  68.671  1.00  0.00    -0.172 A  
ENDROOT
BRANCH   8  12
HETATM   12  C   UNL     1     -12.598  13.848  69.864  1.00  0.00    -0.118 C  
HETATM   13  O   UNL     1     -13.457  13.626  70.715  1.00  0.00     0.005 OA 
BRANCH  12  14
HETATM   14  C   UNL     1     -11.954  15.193  69.791  1.00  0.00    -0.367 A  
HETATM   15  C   UNL     1     -11.903  16.059  70.892  1.00  0.00    -0.409 A  
HETATM   16  C   UNL     1     -11.267  17.298  70.789  1.00  0.00     1.281 A  
HETATM   17  C   UNL     1     -10.711  17.696  69.575  1.00  0.00     0.455 A  
HETATM   18  C   UNL     1     -10.797  16.861  68.461  1.00  0.00    -0.335 A  
HETATM   19  C   UNL     1     -11.417  15.614  68.568  1.00  0.00    -0.380 A  
ENDBRANCH  12  14
ENDBRANCH   8  12
TORSDOF 2
ENDMDL
MODEL      214
REMARK 921   NORMALIZED FREE ENERGY PREDICTED BY IDOCK:   -1.16 KCAL/MOL
REMARK 922        TOTAL FREE ENERGY PREDICTED BY IDOCK:   -1.84 KCAL/MOL
REMARK 923 INTER-LIGAND FREE ENERGY PREDICTED BY IDOCK:   -2.17 KCAL/MOL
REMARK 924 INTRA-LIGAND FREE ENERGY PREDICTED BY IDOCK:    0.33 KCAL/MOL
REMARK 927      BINDING AFFINITY PREDICTED BY RF-SCORE:    0.00 PKD
ROOT
HETATM    1  C   UNL     1      -8.014  17.293  68.890  1.00  0.00    -0.196 C  
HETATM    2  C   UNL     1      -8.772  16.228  68.096  1.00  0.00    -0.182 A  
HETATM    3  C   UNL     1      -8.732  18.635  69.056  1.00  0.00    -0.102 C  
HETATM    4  C   UNL     1      -6.630  17.602  68.321  1.00  0.00    -0.190 C  
HETATM    5  O   UNL     1      -6.569  17.675  66.970  1.00  0.00    -0.151 OA 
HETATM    6  O   UNL     1      -5.651  17.826  69.021  1.00  0.00    -0.174 OA 
HETATM    7  C   UNL     1      -8.134  15.004  67.809  1.00  0.00    -0.160 A  
HETATM    8  C   UNL     1      -8.745  14.046  66.986  1.00  0.00    -0.220 A  
HETATM    9  C   UNL     1     -10.052  14.250  66.542  1.00  0.00    -0.283 A  
HETATM   10  C   UNL     1     -10.081  16.414  67.627  1.00  0.00    -0.263 A  
HETATM   11  C   UNL     1     -10.721  15.428  66.870  1.00  0.00    -0.314 A  
ENDROOT
BRANCH   8  12
HETATM   12  C   UNL     1      -8.036  12.813  66.551  1.00  0.00     0.502 C  
HETATM   13  O   UNL     1      -7.014  12.482  67.149  1.00  0.00    -0.141 OA 
BRANCH  12  14
HETATM   14  C   UNL     1      -8.554  11.963  65.439  1.00  0.00     0.574 A  
HETATM   15  C   UNL     1      -9.567  12.399  64.573  1.00  0.00     0.138 A  
HETATM   16  C   UNL     1     -10.004  11.583  63.528  1.00  0.00    -0.429 A  
HETATM   17  C   UNL     1      -9.461  10.311  63.364  1.00  0.00    -0.340 A  
HETATM   18  C   UNL     1      -8.485   9.849  64.248  1.00  0.00    -0.178 A  
HETATM   19  C   UNL     1      -8.034  10.672  65.283  1.00  0.00    -0.060 A  
ENDBRANCH  12  14
ENDBRANCH   8  12
TORSDOF 2
ENDMDL
MODEL      215
REMARK 921   NORMALIZED FREE ENERGY PREDICTED BY IDOCK:   -0.97 KCAL/MOL
REMARK 922        TOTAL FREE ENERGY PREDICTED BY IDOCK:   -1.62 KCAL/MOL
REMARK 923 INTER-LIGAND FREE ENERGY PREDICTED BY IDOCK:   -1.16 KCAL/MOL
REMARK 924 INTRA-LIGAND FREE ENERGY PREDICTED BY IDOCK:   -0.46 KCAL/MOL
REMARK 927      BINDING AFFINITY PREDICTED BY RF-SCORE:    0.00 PKD
ROOT
HETATM    1  C   UNL     1      -9.229   7.788  68.952  1.00  0.00    -0.140 C  
HETATM    2  C   UNL     1      -8.475   6.457  68.958  1.00  0.00    -0.124 A  
HETATM    3  C   UNL     1      -8.922   8.732  70.119  1.00  0.00    -0.173 C  
HETATM    4  C   UNL     1     -10.747   7.625  68.905  1.00  0.00    -0.095 C  
HETATM    5  O   UNL     1     -11.241   6.636  69.688  1.00  0.00    -0.315 OA 
HETATM    6  O   UNL     1     -11.482   8.360  68.259  1.00  0.00     0.717 OA 
HETATM    7  C   UNL     1      -8.780   5.493  67.977  1.00  0.00    -0.106 A  
HETATM    8  C   UNL     1      -8.200   4.216  68.014  1.00  0.00    -0.094 A  
HETATM    9  C   UNL     1      -7.216   3.932  68.961  1.00  0.00    -0.054 A  
HETATM   10  C   UNL     1      -7.490   6.143  69.907  1.00  0.00    -0.080 A  
HETATM   11  C   UNL     1      -6.856   4.897  69.899  1.00  0.00    -0.048 A  
ENDROOT
BRANCH   8  12
HETATM   12  C   UNL     1      -8.614   3.135  67.079  1.00  0.00    -0.113 C  
HETATM   13  O   UNL     1      -9.453   2.321  67.457  1.00  0.00    -0.144 OA 
BRANCH  12  14
HETATM   14  C   UNL     1      -8.061   3.044  65.695  1.00  0.00    -0.086 A  
HETATM   15  C   UNL     1      -7.282   1.959  65.270  1.00  0.00    -0.053 A  
HETATM   16  C   UNL     1      -6.807   1.900  63.958  1.00  0.00    -0.031 A  
HETATM   17  C   UNL     1      -7.075   2.942  63.073  1.00  0.00    -0.040 A  
HETATM   18  C   UNL     1      -7.811   4.048  63.499  1.00  0.00    -0.078 A  
HETATM   19  C   UNL     1      -8.302   4.100  64.806  1.00  0.00    -0.103 A  
ENDBRANCH  12  14
ENDBRANCH   8  12
TORSDOF 2
ENDMDL
MODEL      216
REMARK 921   NORMALIZED FREE ENERGY PREDICTED BY IDOCK:   -0.03 KCAL/MOL
REMARK 922        TOTAL FREE ENERGY PREDICTED BY IDOCK:   -0.58 KCAL/MOL
REMARK 923 INTER-LIGAND FREE ENERGY PREDICTED BY IDOCK:   -0.07 KCAL/MOL
REMARK 924 INTRA-LIGAND FREE ENERGY PREDICTED BY IDOCK:   -0.51 KCAL/MOL
REMARK 927      BINDING AFFINITY PREDICTED BY RF-SCORE:    0.00 PKD
ROOT
HETATM    1  C   UNL     1      -6.198  18.840  69.718  1.00  0.00    -0.237 C  
HETATM    2  C   UNL     1      -6.179  17.655  68.751  1.00  0.00    -0.197 A  
HETATM    3  C   UNL     1      -5.139  19.918  69.470  1.00  0.00    -0.211 C  
HETATM    4  C   UNL     1      -6.073  18.429  71.184  1.00  0.00     0.885 C  
HETATM    5  O   UNL     1      -5.176  17.444  71.427  1.00  0.00    -0.358 OA 
HETATM    6  O   UNL     1      -6.688  18.975  72.090  1.00  0.00     1.812 OA 
HETATM    7  C   UNL     1      -7.052  16.573  68.977  1.00  0.00    -0.213 A  
HETATM    8  C   UNL     1      -6.988  15.415  68.186  1.00  0.00    -0.131 A  
HETATM    9  C   UNL     1      -6.133  15.378  67.085  1.00  0.00     0.332 A  
HETATM   10  C   UNL     1      -5.320  17.588  67.643  1.00  0.00    -0.134 A  
HETATM   11  C   UNL     1      -5.308  16.466  66.809  1.00  0.00     0.205 A  
ENDROOT
BRANCH   8  12
HETATM   12  C   UNL     1      -7.797  14.205  68.494  1.00  0.00    -0.140 C  
HETATM   13  O   UNL     1      -7.342  13.380  69.283  1.00  0.00     0.022 OA 
BRANCH  12  14
HETATM   14  C   UNL     1      -9.149  13.995  67.898  1.00  0.00    -0.188 A  
HETATM   15  C   UNL     1      -9.436  12.911  67.057  1.00  0.00    -0.235 A  
HETATM   16  C   UNL     1     -10.723  12.737  66.542  1.00  0.00    -0.277 A  
HETATM   17  C   UNL     1     -11.721  13.664  66.832  1.00  0.00    -0.423 A  
HETATM   18  C   UNL     1     -11.434  14.772  67.630  1.00  0.00    -0.363 A  
HETATM   19  C   UNL     1     -10.152  14.938  68.161  1.00  0.00    -0.222 A  
ENDBRANCH  12  14
ENDBRANCH   8  12
TORSDOF 2
ENDMDL
MODEL      217
REMARK 921   NORMALIZED FREE ENERGY PREDICTED BY IDOCK:    0.09 KCAL/MOL
REMARK 922        TOTAL FREE ENERGY PREDICTED BY IDOCK:   -0.44 KCAL/MOL
REMARK 923 INTER-LIGAND FREE ENERGY PREDICTED BY IDOCK:   -0.55 KCAL/MOL
REMARK 924 INTRA-LIGAND FREE ENERGY PREDICTED BY IDOCK:    0.11 KCAL/MOL
REMARK 927      BINDING AFFINITY PREDICTED BY RF-SCORE:    0.00 PKD
ROOT
HETATM    1  C   UNL     1     -10.099   9.916  66.466  1.00  0.00    -0.298 C  
HETATM    2  C   UNL     1      -9.392   9.432  67.733  1.00  0.00    -0.144 A  
HETATM    3  C   UNL     1     -10.905   8.857  65.708  1.00  0.00     2.209 C  
HETATM    4  C   UNL     1      -9.154  10.559  65.453  1.00  0.00    -0.187 C  
HETATM    5  O   UNL     1      -7.966   9.927  65.297  1.00  0.00    -0.125 OA 
HETATM    6  O   UNL     1      -9.453  11.538  64.781  1.00  0.00    -0.199 OA 
HETATM    7  C   UNL     1      -8.546  10.319  68.427  1.00  0.00    -0.125 A  
HETATM    8  C   UNL     1      -7.787   9.886  69.525  1.00  0.00    -0.140 A  
HETATM    9  C   UNL     1      -7.961   8.591  70.015  1.00  0.00    -0.109 A  
HETATM   10  C   UNL     1      -9.540   8.131  68.239  1.00  0.00    -0.154 A  
HETATM   11  C   UNL     1      -8.842   7.720  69.379  1.00  0.00    -0.139 A  
ENDROOT
BRANCH   8  12
HETATM   12  C   UNL     1      -6.780  10.761  70.182  1.00  0.00    -0.112 C  
HETATM   13  O   UNL     1      -6.270  10.382  71.234  1.00  0.00    -0.333 OA 
BRANCH  12  14
HETATM   14  C   UNL     1      -6.358  12.059  69.577  1.00  0.00    -0.123 A  
HETATM   15  C   UNL     1      -6.613  12.378  68.236  1.00  0.00    -0.063 A  
HETATM   16  C   UNL     1      -6.225  13.615  67.717  1.00  0.00    -0.159 A  
HETATM   17  C   UNL     1      -5.547  14.526  68.522  1.00  0.00    -0.098 A  
HETATM   18  C   UNL     1      -5.247  14.200  69.845  1.00  0.00    -0.093 A  
HETATM   19  C   UNL     1      -5.650  12.970  70.371  1.00  0.00    -0.159 A  
ENDBRANCH  12  14
ENDBRANCH   8  12
TORSDOF 2
ENDMDL
MODEL      218
REMARK 921   NORMALIZED FREE ENERGY PREDICTED BY IDOCK:    1.39 KCAL/MOL
REMARK 922        TOTAL FREE ENERGY PREDICTED BY IDOCK:    1.01 KCAL/MOL
REMARK 923 INTER-LIGAND FREE ENERGY PREDICTED BY IDOCK:    1.39 KCAL/MOL
REMARK 924 INTRA-LIGAND FREE ENERGY PREDICTED BY IDOCK:   -0.38 KCAL/MOL
REMARK 927      BINDING AFFINITY PREDICTED BY RF-SCORE:    0.00 PKD
ROOT
HETATM    1  C   UNL     1      -6.287  18.775  69.782  1.00  0.00    -0.196 C  
HETATM    2  C   UNL     1      -6.420  17.449  69.032  1.00  0.00    -0.226 A  
HETATM    3  C   UNL     1      -5.131  19.677  69.339  1.00  0.00    -0.197 C  
HETATM    4  C   UNL     1      -6.159  18.606  71.295  1.00  0.00     0.806 C  
HETATM    5  O   UNL     1      -5.360  17.586  71.691  1.00  0.00    -0.266 OA 
HETATM    6  O   UNL     1      -6.685  19.360  72.102  1.00  0.00     1.031 OA 
HETATM    7  C   UNL     1      -7.393  16.519  69.451  1.00  0.00    -0.123 A  
HETATM    8  C   UNL     1      -7.473  15.245  68.869  1.00  0.00    -0.147 A  
HETATM    9  C   UNL     1      -6.661  14.932  67.779  1.00  0.00    -0.191 A  
HETATM   10  C   UNL     1      -5.607  17.105  67.941  1.00  0.00    -0.124 A  
HETATM   11  C   UNL     1      -5.737  15.863  67.311  1.00  0.00     0.003 A  
ENDROOT
BRANCH   8  12
HETATM   12  C   UNL     1      -8.391  14.198  69.391  1.00  0.00     0.425 C  
HETATM   13  O   UNL     1      -9.201  14.507  70.262  1.00  0.00     0.892 OA 
BRANCH  12  14
HETATM   14  C   UNL     1      -8.372  12.804  68.856  1.00  0.00     0.276 A  
HETATM   15  C   UNL     1      -9.426  12.279  68.095  1.00  0.00    -0.213 A  
HETATM   16  C   UNL     1      -9.355  10.979  67.591  1.00  0.00    -0.162 A  
HETATM   17  C   UNL     1      -8.249  10.181  67.875  1.00  0.00    -0.109 A  
HETATM   18  C   UNL     1      -7.216  10.677  68.670  1.00  0.00    -0.090 A  
HETATM   19  C   UNL     1      -7.277  11.985  69.160  1.00  0.00     0.002 A  
ENDBRANCH  12  14
ENDBRANCH   8  12
TORSDOF 2
ENDMDL
MODEL      219
REMARK 921   NORMALIZED FREE ENERGY PREDICTED BY IDOCK:    2.67 KCAL/MOL
REMARK 922        TOTAL FREE ENERGY PREDICTED BY IDOCK:    2.43 KCAL/MOL
REMARK 923 INTER-LIGAND FREE ENERGY PREDICTED BY IDOCK:    2.22 KCAL/MOL
REMARK 924 INTRA-LIGAND FREE ENERGY PREDICTED BY IDOCK:    0.21 KCAL/MOL
REMARK 927      BINDING AFFINITY PREDICTED BY RF-SCORE:    0.00 PKD
ROOT
HETATM    1  C   UNL     1      -6.323  19.241  64.489  1.00  0.00    -0.048 C  
HETATM    2  C   UNL     1      -6.851  18.128  65.395  1.00  0.00    -0.008 A  
HETATM    3  C   UNL     1      -5.126  20.027  65.030  1.00  0.00    -0.186 C  
HETATM    4  C   UNL     1      -7.388  20.267  64.106  1.00  0.00     1.283 C  
HETATM    5  O   UNL     1      -8.222  20.628  65.111  1.00  0.00     0.523 OA 
HETATM    6  O   UNL     1      -7.461  20.778  62.997  1.00  0.00     0.791 OA 
HETATM    7  C   UNL     1      -8.014  17.429  65.016  1.00  0.00     3.371 A  
HETATM    8  C   UNL     1      -8.600  16.483  65.870  1.00  0.00    -0.075 A  
HETATM    9  C   UNL     1      -7.959  16.137  67.060  1.00  0.00    -0.254 A  
HETATM   10  C   UNL     1      -6.232  17.769  66.603  1.00  0.00    -0.211 A  
HETATM   11  C   UNL     1      -6.773  16.773  67.420  1.00  0.00    -0.190 A  
ENDROOT
BRANCH   8  12
HETATM   12  C   UNL     1      -9.905  15.840  65.557  1.00  0.00    -0.264 C  
HETATM   13  O   UNL     1     -10.767  16.506  64.989  1.00  0.00    -0.662 OA 
BRANCH  12  14
HETATM   14  C   UNL     1     -10.169  14.407  65.884  1.00  0.00    -0.341 A  
HETATM   15  C   UNL     1      -9.441  13.716  66.862  1.00  0.00    -0.263 A  
HETATM   16  C   UNL     1      -9.739  12.384  67.156  1.00  0.00    -0.207 A  
HETATM   17  C   UNL     1     -10.740  11.722  66.450  1.00  0.00    -0.306 A  
HETATM   18  C   UNL     1     -11.440  12.387  65.443  1.00  0.00    -0.402 A  
HETATM   19  C   UNL     1     -11.155  13.725  65.160  1.00  0.00    -0.330 A  
ENDBRANCH  12  14
ENDBRANCH   8  12
TORSDOF 2
ENDMDL
MODEL      220
REMARK 921   NORMALIZED FREE ENERGY PREDICTED BY IDOCK:    6.14 KCAL/MOL
REMARK 922        TOTAL FREE ENERGY PREDICTED BY IDOCK:    6.31 KCAL/MOL
REMARK 923 INTER-LIGAND FREE ENERGY PREDICTED BY IDOCK:    6.62 KCAL/MOL
REMARK 924 INTRA-LIGAND FREE ENERGY PREDICTED BY IDOCK:   -0.31 KCAL/MOL
REMARK 927      BINDING AFFINITY PREDICTED BY RF-SCORE:    0.00 PKD
ROOT
HETATM    1  C   UNL     1      -9.513  15.481  71.027  1.00  0.00     2.052 C  
HETATM    2  C   UNL     1      -9.059  15.181  69.598  1.00  0.00    -0.068 A  
HETATM    3  C   UNL     1      -9.165  14.417  72.073  1.00  0.00     6.949 C  
HETATM    4  C   UNL     1     -11.015  15.739  71.145  1.00  0.00    -0.127 C  
HETATM    5  O   UNL     1     -11.796  14.916  70.404  1.00  0.00    -0.264 OA 
HETATM    6  O   UNL     1     -11.496  16.582  71.889  1.00  0.00    -0.333 OA 
HETATM    7  C   UNL     1      -9.434  16.060  68.562  1.00  0.00    -0.216 A  
HETATM    8  C   UNL     1      -9.140  15.765  67.222  1.00  0.00    -0.219 A  
HETATM    9  C   UNL     1      -8.361  14.648  66.916  1.00  0.00    -0.159 A  
HETATM   10  C   UNL     1      -8.286  14.059  69.262  1.00  0.00     0.372 A  
HETATM   11  C   UNL     1      -7.928  13.803  67.935  1.00  0.00    -0.157 A  
ENDROOT
BRANCH   8  12
HETATM   12  C   UNL     1      -9.649  16.599  66.101  1.00  0.00    -0.294 C  
HETATM   13  O   UNL     1     -10.123  16.036  65.117  1.00  0.00    -0.485 OA 
BRANCH  12  14
HETATM   14  C   UNL     1      -9.629  18.091  66.165  1.00  0.00    -0.184 A  
HETATM   15  C   UNL     1     -10.506  18.884  65.413  1.00  0.00     0.252 A  
HETATM   16  C   UNL     1     -10.472  20.276  65.523  1.00  0.00    -0.129 A  
HETATM   17  C   UNL     1      -9.536  20.886  66.355  1.00  0.00     0.324 A  
HETATM   18  C   UNL     1      -8.628  20.108  67.072  1.00  0.00    -0.408 A  
HETATM   19  C   UNL     1      -8.673  18.714  66.977  1.00  0.00    -0.285 A  
ENDBRANCH  12  14
ENDBRANCH   8  12
TORSDOF 2
ENDMDL
