MODEL        1
REMARK 921   NORMALIZED FREE ENERGY PREDICTED BY IDOCK:   -7.53 KCAL/MOL
REMARK 922        TOTAL FREE ENERGY PREDICTED BY IDOCK:  -10.56 KCAL/MOL
REMARK 923 INTER-LIGAND FREE ENERGY PREDICTED BY IDOCK:   -9.73 KCAL/MOL
REMARK 924 INTRA-LIGAND FREE ENERGY PREDICTED BY IDOCK:   -0.83 KCAL/MOL
REMARK 927      BINDING AFFINITY PREDICTED BY RF-SCORE:    0.00 PKD
ROOT
HETATM    1  C   UNL     1      -8.184  14.805  67.145  1.00  0.00    -0.239 C  
HETATM    2  C   UNL     1      -9.494  14.879  66.418  1.00  0.00    -0.327 A  
HETATM    3  C   UNL     1      -9.874  16.022  65.683  1.00  0.00    -0.274 A  
HETATM    4  C   UNL     1     -11.002  15.970  64.866  1.00  0.00    -0.399 A  
HETATM    5  N   UNL     1     -11.500  13.753  65.649  1.00  0.00    -0.306 NA 
HETATM    6  C   UNL     1     -11.764  14.824  64.868  1.00  0.00    -0.390 A  
HETATM    7  C   UNL     1     -10.388  13.792  66.432  1.00  0.00    -0.290 A  
ENDROOT
BRANCH   3   8
HETATM    8  O   UNL     1      -9.202  17.219  65.611  1.00  0.00    -0.501 OA 
BRANCH   8   9
HETATM    9  C   UNL     1      -9.400  18.133  66.702  1.00  0.00    -0.297 C  
HETATM   10  C   UNL     1     -10.297  19.317  66.344  1.00  0.00    -0.471 C  
HETATM   11  F   UNL     1      -9.584  20.468  66.302  1.00  0.00    -0.438 F  
HETATM   12  F   UNL     1     -11.258  19.484  67.286  1.00  0.00    -0.580 F  
HETATM   13  F   UNL     1     -10.919  19.177  65.155  1.00  0.00    -0.454 F  
ENDBRANCH   8   9
ENDBRANCH   3   8
BRANCH   7  14
HETATM   14  C   UNL     1     -10.218  12.579  67.332  1.00  0.00    -0.213 C  
BRANCH  14  15
HETATM   15  S   UNL     1     -11.781  12.037  68.046  1.00  0.00    -0.289 S  
HETATM   16  O   UNL     1     -11.749  10.602  68.490  1.00  0.00    -0.364 OA 
BRANCH  15  17
HETATM   17  C   UNL     1     -11.821  12.982  69.503  1.00  0.00    -0.323 A  
HETATM   18  N   UNL     1     -11.193  14.120  69.705  1.00  0.00    -0.383 NA 
HETATM   19  C   UNL     1     -11.714  14.613  70.881  1.00  0.00    -0.280 A  
HETATM   20  H   UNL     1     -10.476  14.547  69.118  1.00  0.00     0.000 HD 
HETATM   21  C   UNL     1     -11.461  15.829  71.538  1.00  0.00    -0.504 A  
HETATM   22  C   UNL     1     -12.209  16.147  72.679  1.00  0.00    -0.625 A  
HETATM   23  C   UNL     1     -13.178  15.269  73.167  1.00  0.00    -0.612 A  
HETATM   24  C   UNL     1     -13.416  14.031  72.553  1.00  0.00    -0.661 A  
HETATM   25  C   UNL     1     -12.660  13.741  71.413  1.00  0.00    -0.348 A  
HETATM   26  N   UNL     1     -12.632  12.665  70.564  1.00  0.00    -0.165 NA 
ENDBRANCH  15  17
ENDBRANCH  14  15
ENDBRANCH   7  14
TORSDOF 5
ENDMDL
MODEL        2
REMARK 921   NORMALIZED FREE ENERGY PREDICTED BY IDOCK:   -7.47 KCAL/MOL
REMARK 922        TOTAL FREE ENERGY PREDICTED BY IDOCK:  -10.48 KCAL/MOL
REMARK 923 INTER-LIGAND FREE ENERGY PREDICTED BY IDOCK:   -9.68 KCAL/MOL
REMARK 924 INTRA-LIGAND FREE ENERGY PREDICTED BY IDOCK:   -0.80 KCAL/MOL
REMARK 927      BINDING AFFINITY PREDICTED BY RF-SCORE:    0.00 PKD
ROOT
HETATM    1  C   UNL     1     -12.207  13.092  70.108  1.00  0.00    -0.360 C  
HETATM    2  C   UNL     1     -11.722  12.178  69.022  1.00  0.00    -0.377 A  
HETATM    3  C   UNL     1     -11.233  10.884  69.302  1.00  0.00    -0.265 A  
HETATM    4  C   UNL     1     -10.982  10.002  68.251  1.00  0.00    -0.278 A  
HETATM    5  N   UNL     1     -11.487  11.724  66.651  1.00  0.00    -0.468 NA 
HETATM    6  C   UNL     1     -11.138  10.455  66.961  1.00  0.00    -0.067 A  
HETATM    7  C   UNL     1     -11.754  12.580  67.673  1.00  0.00    -0.361 A  
ENDROOT
BRANCH   3   8
HETATM    8  O   UNL     1     -11.030  10.328  70.542  1.00  0.00    -0.307 OA 
BRANCH   8   9
HETATM    9  C   UNL     1     -11.771   9.133  70.839  1.00  0.00    -0.284 C  
HETATM   10  C   UNL     1     -12.898   9.355  71.846  1.00  0.00    -0.412 C  
HETATM   11  F   UNL     1     -12.618   8.751  73.026  1.00  0.00    -0.395 F  
HETATM   12  F   UNL     1     -14.054   8.811  71.391  1.00  0.00    -0.420 F  
HETATM   13  F   UNL     1     -13.140  10.658  72.102  1.00  0.00    -0.539 F  
ENDBRANCH   8   9
ENDBRANCH   3   8
BRANCH   7  14
HETATM   14  C   UNL     1     -12.060  14.002  67.230  1.00  0.00    -0.370 C  
BRANCH  14  15
HETATM   15  S   UNL     1     -11.183  14.447  65.721  1.00  0.00    -0.333 S  
HETATM   16  O   UNL     1     -12.103  14.615  64.545  1.00  0.00    -0.461 OA 
BRANCH  15  17
HETATM   17  C   UNL     1     -10.631  16.045  66.120  1.00  0.00    -0.297 A  
HETATM   18  N   UNL     1     -10.655  17.093  65.326  1.00  0.00    -0.662 NA 
HETATM   19  C   UNL     1     -10.362  18.166  66.140  1.00  0.00    -0.385 A  
HETATM   20  H   UNL     1     -10.849  17.110  64.325  1.00  0.00     0.000 HD 
HETATM   21  C   UNL     1     -10.320  19.538  65.839  1.00  0.00    -0.562 A  
HETATM   22  C   UNL     1     -10.100  20.449  66.881  1.00  0.00    -0.503 A  
HETATM   23  C   UNL     1      -9.911  20.006  68.191  1.00  0.00    -0.533 A  
HETATM   24  C   UNL     1      -9.906  18.640  68.505  1.00  0.00    -0.427 A  
HETATM   25  C   UNL     1     -10.133  17.752  67.448  1.00  0.00    -0.338 A  
HETATM   26  N   UNL     1     -10.214  16.386  67.383  1.00  0.00    -0.275 NA 
ENDBRANCH  15  17
ENDBRANCH  14  15
ENDBRANCH   7  14
TORSDOF 5
ENDMDL
MODEL        3
REMARK 921   NORMALIZED FREE ENERGY PREDICTED BY IDOCK:   -7.35 KCAL/MOL
REMARK 922        TOTAL FREE ENERGY PREDICTED BY IDOCK:  -10.33 KCAL/MOL
REMARK 923 INTER-LIGAND FREE ENERGY PREDICTED BY IDOCK:   -9.42 KCAL/MOL
REMARK 924 INTRA-LIGAND FREE ENERGY PREDICTED BY IDOCK:   -0.90 KCAL/MOL
REMARK 927      BINDING AFFINITY PREDICTED BY RF-SCORE:    0.00 PKD
ROOT
HETATM    1  C   UNL     1     -11.791  13.374  69.127  1.00  0.00    -0.383 C  
HETATM    2  C   UNL     1     -11.312  12.517  67.992  1.00  0.00    -0.339 A  
HETATM    3  C   UNL     1     -10.512  11.375  68.209  1.00  0.00    -0.198 A  
HETATM    4  C   UNL     1     -10.259  10.502  67.151  1.00  0.00    -0.270 A  
HETATM    5  N   UNL     1     -11.397  11.974  65.630  1.00  0.00    -0.340 NA 
HETATM    6  C   UNL     1     -10.730  10.830  65.901  1.00  0.00    -0.073 A  
HETATM    7  C   UNL     1     -11.665  12.817  66.663  1.00  0.00    -0.393 A  
ENDROOT
BRANCH   3   8
HETATM    8  O   UNL     1      -9.980  10.954  69.404  1.00  0.00    -0.172 OA 
BRANCH   8   9
HETATM    9  C   UNL     1     -10.381   9.651  69.862  1.00  0.00    -0.249 C  
HETATM   10  C   UNL     1     -11.390   9.697  71.007  1.00  0.00    -0.374 C  
HETATM   11  F   UNL     1     -10.830   9.265  72.163  1.00  0.00    -0.414 F  
HETATM   12  F   UNL     1     -12.437   8.875  70.748  1.00  0.00    -0.245 F  
HETATM   13  F   UNL     1     -11.892  10.929  71.231  1.00  0.00    -0.392 F  
ENDBRANCH   8   9
ENDBRANCH   3   8
BRANCH   7  14
HETATM   14  C   UNL     1     -12.346  14.112  66.249  1.00  0.00    -0.422 C  
BRANCH  14  15
HETATM   15  S   UNL     1     -11.525  14.895  64.850  1.00  0.00    -0.391 S  
HETATM   16  O   UNL     1     -12.493  15.375  63.805  1.00  0.00    -0.663 OA 
BRANCH  15  17
HETATM   17  C   UNL     1     -10.892  16.328  65.601  1.00  0.00    -0.208 A  
HETATM   18  N   UNL     1     -10.808  17.519  65.048  1.00  0.00    -0.754 NA 
HETATM   19  C   UNL     1     -10.488  18.372  66.081  1.00  0.00    -0.395 A  
HETATM   20  H   UNL     1     -10.949  17.759  64.066  1.00  0.00     0.000 HD 
HETATM   21  C   UNL     1     -10.341  19.769  66.082  1.00  0.00    -0.627 A  
HETATM   22  C   UNL     1     -10.116  20.422  67.301  1.00  0.00    -0.504 A  
HETATM   23  C   UNL     1     -10.024  19.701  68.493  1.00  0.00    -0.542 A  
HETATM   24  C   UNL     1     -10.123  18.304  68.509  1.00  0.00    -0.419 A  
HETATM   25  C   UNL     1     -10.353  17.677  67.279  1.00  0.00    -0.354 A  
HETATM   26  N   UNL     1     -10.518  16.364  66.921  1.00  0.00    -0.303 NA 
ENDBRANCH  15  17
ENDBRANCH  14  15
ENDBRANCH   7  14
TORSDOF 5
ENDMDL
MODEL        4
REMARK 921   NORMALIZED FREE ENERGY PREDICTED BY IDOCK:   -7.31 KCAL/MOL
REMARK 922        TOTAL FREE ENERGY PREDICTED BY IDOCK:  -10.28 KCAL/MOL
REMARK 923 INTER-LIGAND FREE ENERGY PREDICTED BY IDOCK:   -9.26 KCAL/MOL
REMARK 924 INTRA-LIGAND FREE ENERGY PREDICTED BY IDOCK:   -1.02 KCAL/MOL
REMARK 927      BINDING AFFINITY PREDICTED BY RF-SCORE:    0.00 PKD
ROOT
HETATM    1  C   UNL     1     -12.243  15.434  68.664  1.00  0.00     0.012 C  
HETATM    2  C   UNL     1     -12.034  13.956  68.813  1.00  0.00    -0.393 A  
HETATM    3  C   UNL     1     -11.867  13.351  70.077  1.00  0.00    -0.294 A  
HETATM    4  C   UNL     1     -11.875  11.961  70.181  1.00  0.00    -0.390 A  
HETATM    5  N   UNL     1     -11.999  11.757  67.789  1.00  0.00    -0.600 NA 
HETATM    6  C   UNL     1     -11.960  11.216  69.027  1.00  0.00    -0.320 A  
HETATM    7  C   UNL     1     -12.014  13.114  67.686  1.00  0.00    -0.315 A  
ENDROOT
BRANCH   3   8
HETATM    8  O   UNL     1     -11.763  13.989  71.290  1.00  0.00    -0.132 OA 
BRANCH   8   9
HETATM    9  C   UNL     1     -12.971  14.106  72.060  1.00  0.00    -0.360 C  
HETATM   10  C   UNL     1     -13.114  15.456  72.761  1.00  0.00    -0.466 C  
HETATM   11  F   UNL     1     -12.989  15.319  74.103  1.00  0.00    -0.573 F  
HETATM   12  F   UNL     1     -14.343  15.980  72.533  1.00  0.00    -0.584 F  
HETATM   13  F   UNL     1     -12.206  16.369  72.356  1.00  0.00    -0.503 F  
ENDBRANCH   8   9
ENDBRANCH   3   8
BRANCH   7  14
HETATM   14  C   UNL     1     -11.978  13.629  66.256  1.00  0.00    -0.423 C  
BRANCH  14  15
HETATM   15  S   UNL     1     -10.299  13.714  65.606  1.00  0.00    -0.307 S  
HETATM   16  O   UNL     1     -10.230  13.402  64.138  1.00  0.00    -0.363 OA 
BRANCH  15  17
HETATM   17  C   UNL     1      -9.981  15.417  65.741  1.00  0.00    -0.362 A  
HETATM   18  N   UNL     1     -10.752  16.386  65.297  1.00  0.00    -0.555 NA 
HETATM   19  C   UNL     1     -10.231  17.538  65.845  1.00  0.00    -0.242 A  
HETATM   20  H   UNL     1     -11.561  16.303  64.681  1.00  0.00     0.000 HD 
HETATM   21  C   UNL     1     -10.695  18.861  65.765  1.00  0.00    -0.310 A  
HETATM   22  C   UNL     1     -10.040  19.851  66.511  1.00  0.00    -0.607 A  
HETATM   23  C   UNL     1      -8.938  19.534  67.307  1.00  0.00    -0.367 A  
HETATM   24  C   UNL     1      -8.432  18.229  67.366  1.00  0.00    -0.249 A  
HETATM   25  C   UNL     1      -9.107  17.260  66.617  1.00  0.00    -0.265 A  
HETATM   26  N   UNL     1      -8.916  15.913  66.450  1.00  0.00    -0.296 NA 
ENDBRANCH  15  17
ENDBRANCH  14  15
ENDBRANCH   7  14
TORSDOF 5
ENDMDL
MODEL        5
REMARK 921   NORMALIZED FREE ENERGY PREDICTED BY IDOCK:   -7.22 KCAL/MOL
REMARK 922        TOTAL FREE ENERGY PREDICTED BY IDOCK:  -10.15 KCAL/MOL
REMARK 923 INTER-LIGAND FREE ENERGY PREDICTED BY IDOCK:   -9.30 KCAL/MOL
REMARK 924 INTRA-LIGAND FREE ENERGY PREDICTED BY IDOCK:   -0.85 KCAL/MOL
REMARK 927      BINDING AFFINITY PREDICTED BY RF-SCORE:    0.00 PKD
ROOT
HETATM    1  C   UNL     1     -10.035  15.169  65.090  1.00  0.00    -0.267 C  
HETATM    2  C   UNL     1      -9.302  15.392  66.380  1.00  0.00    -0.331 A  
HETATM    3  C   UNL     1      -8.676  16.621  66.677  1.00  0.00    -0.246 A  
HETATM    4  C   UNL     1      -8.182  16.848  67.961  1.00  0.00    -0.203 A  
HETATM    5  N   UNL     1      -8.726  14.595  68.598  1.00  0.00    -0.172 NA 
HETATM    6  C   UNL     1      -8.244  15.826  68.880  1.00  0.00    -0.210 A  
HETATM    7  C   UNL     1      -9.229  14.377  67.353  1.00  0.00    -0.198 A  
ENDROOT
BRANCH   3   8
HETATM    8  O   UNL     1      -8.547  17.705  65.842  1.00  0.00    -0.526 OA 
BRANCH   8   9
HETATM    9  C   UNL     1      -8.787  18.997  66.426  1.00  0.00    -0.321 C  
HETATM   10  C   UNL     1     -10.200  19.521  66.174  1.00  0.00    -0.496 C  
HETATM   11  F   UNL     1     -10.179  20.578  65.326  1.00  0.00    -0.403 F  
HETATM   12  F   UNL     1     -10.755  19.957  67.331  1.00  0.00    -0.527 F  
HETATM   13  F   UNL     1     -11.030  18.594  65.653  1.00  0.00    -0.421 F  
ENDBRANCH   8   9
ENDBRANCH   3   8
BRANCH   7  14
HETATM   14  C   UNL     1      -9.674  12.945  67.104  1.00  0.00    -0.221 C  
BRANCH  14  15
HETATM   15  S   UNL     1     -11.468  12.777  67.118  1.00  0.00    -0.357 S  
HETATM   16  O   UNL     1     -11.916  11.343  67.126  1.00  0.00    -0.532 OA 
BRANCH  15  17
HETATM   17  C   UNL     1     -11.843  13.398  68.697  1.00  0.00    -0.362 A  
HETATM   18  N   UNL     1     -12.058  14.660  69.001  1.00  0.00    -0.516 NA 
HETATM   19  C   UNL     1     -12.557  14.639  70.285  1.00  0.00    -0.318 A  
HETATM   20  H   UNL     1     -11.892  15.477  68.413  1.00  0.00     0.000 HD 
HETATM   21  C   UNL     1     -13.023  15.694  71.086  1.00  0.00    -0.539 A  
HETATM   22  C   UNL     1     -13.588  15.395  72.333  1.00  0.00    -0.618 A  
HETATM   23  C   UNL     1     -13.675  14.076  72.781  1.00  0.00    -0.435 A  
HETATM   24  C   UNL     1     -13.176  13.012  72.017  1.00  0.00    -0.543 A  
HETATM   25  C   UNL     1     -12.622  13.338  70.774  1.00  0.00    -0.280 A  
HETATM   26  N   UNL     1     -12.067  12.580  69.776  1.00  0.00    -0.264 NA 
ENDBRANCH  15  17
ENDBRANCH  14  15
ENDBRANCH   7  14
TORSDOF 5
ENDMDL
MODEL        6
REMARK 921   NORMALIZED FREE ENERGY PREDICTED BY IDOCK:   -7.19 KCAL/MOL
REMARK 922        TOTAL FREE ENERGY PREDICTED BY IDOCK:  -10.13 KCAL/MOL
REMARK 923 INTER-LIGAND FREE ENERGY PREDICTED BY IDOCK:   -9.23 KCAL/MOL
REMARK 924 INTRA-LIGAND FREE ENERGY PREDICTED BY IDOCK:   -0.89 KCAL/MOL
REMARK 927      BINDING AFFINITY PREDICTED BY RF-SCORE:    0.00 PKD
ROOT
HETATM    1  C   UNL     1     -11.022  14.908  65.031  1.00  0.00    -0.432 C  
HETATM    2  C   UNL     1     -11.177  15.013  66.520  1.00  0.00    -0.312 A  
HETATM    3  C   UNL     1     -10.839  16.190  67.221  1.00  0.00    -0.235 A  
HETATM    4  C   UNL     1     -11.185  16.311  68.567  1.00  0.00    -0.359 A  
HETATM    5  N   UNL     1     -12.000  14.050  68.588  1.00  0.00    -0.362 NA 
HETATM    6  C   UNL     1     -11.771  15.236  69.195  1.00  0.00    -0.335 A  
HETATM    7  C   UNL     1     -11.685  13.936  67.270  1.00  0.00    -0.386 A  
ENDROOT
BRANCH   3   8
HETATM    8  O   UNL     1     -10.247  17.318  66.706  1.00  0.00    -0.301 OA 
BRANCH   8   9
HETATM    9  C   UNL     1      -9.670  18.231  67.654  1.00  0.00    -0.300 C  
HETATM   10  C   UNL     1     -10.173  19.665  67.497  1.00  0.00    -0.432 C  
HETATM   11  F   UNL     1      -9.191  20.474  67.033  1.00  0.00    -0.452 F  
HETATM   12  F   UNL     1     -10.560  20.165  68.697  1.00  0.00    -0.537 F  
HETATM   13  F   UNL     1     -11.225  19.775  66.658  1.00  0.00    -0.518 F  
ENDBRANCH   8   9
ENDBRANCH   3   8
BRANCH   7  14
HETATM   14  C   UNL     1     -11.902  12.545  66.696  1.00  0.00    -0.352 C  
BRANCH  14  15
HETATM   15  S   UNL     1     -10.563  11.417  67.120  1.00  0.00    -0.256 S  
HETATM   16  O   UNL     1      -9.252  12.123  67.319  1.00  0.00    -0.175 OA 
BRANCH  15  17
HETATM   17  C   UNL     1     -11.062  10.894  68.700  1.00  0.00    -0.252 A  
HETATM   18  N   UNL     1     -12.287  10.936  69.178  1.00  0.00    -0.693 NA 
HETATM   19  C   UNL     1     -12.244  10.198  70.341  1.00  0.00    -0.218 A  
HETATM   20  H   UNL     1     -13.095  11.413  68.776  1.00  0.00     0.000 HD 
HETATM   21  C   UNL     1     -13.279   9.852  71.225  1.00  0.00    -0.465 A  
HETATM   22  C   UNL     1     -12.992   8.991  72.293  1.00  0.00    -0.490 A  
HETATM   23  C   UNL     1     -11.702   8.496  72.486  1.00  0.00    -0.390 A  
HETATM   24  C   UNL     1     -10.646   8.864  71.642  1.00  0.00    -0.422 A  
HETATM   25  C   UNL     1     -10.959   9.720  70.581  1.00  0.00    -0.331 A  
HETATM   26  N   UNL     1     -10.209  10.263  69.571  1.00  0.00    -0.228 NA 
ENDBRANCH  15  17
ENDBRANCH  14  15
ENDBRANCH   7  14
TORSDOF 5
ENDMDL
MODEL        7
REMARK 921   NORMALIZED FREE ENERGY PREDICTED BY IDOCK:   -7.18 KCAL/MOL
REMARK 922        TOTAL FREE ENERGY PREDICTED BY IDOCK:  -10.11 KCAL/MOL
REMARK 923 INTER-LIGAND FREE ENERGY PREDICTED BY IDOCK:   -9.28 KCAL/MOL
REMARK 924 INTRA-LIGAND FREE ENERGY PREDICTED BY IDOCK:   -0.83 KCAL/MOL
REMARK 927      BINDING AFFINITY PREDICTED BY RF-SCORE:    0.00 PKD
ROOT
HETATM    1  C   UNL     1     -11.123  10.626  67.131  1.00  0.00    -0.267 C  
HETATM    2  C   UNL     1     -11.634  11.586  68.164  1.00  0.00    -0.378 A  
HETATM    3  C   UNL     1     -11.845  11.195  69.503  1.00  0.00    -0.353 A  
HETATM    4  C   UNL     1     -12.129  12.164  70.465  1.00  0.00    -0.383 A  
HETATM    5  N   UNL     1     -12.206  13.865  68.769  1.00  0.00    -0.300 NA 
HETATM    6  C   UNL     1     -12.281  13.470  70.059  1.00  0.00    -0.312 A  
HETATM    7  C   UNL     1     -11.908  12.926  67.830  1.00  0.00    -0.339 A  
ENDROOT
BRANCH   3   8
HETATM    8  O   UNL     1     -11.732   9.927  70.021  1.00  0.00    -0.215 OA 
BRANCH   8   9
HETATM    9  C   UNL     1     -11.678   9.821  71.454  1.00  0.00    -0.398 C  
HETATM   10  C   UNL     1     -12.552   8.699  72.010  1.00  0.00    -0.378 C  
HETATM   11  F   UNL     1     -13.610   9.201  72.691  1.00  0.00    -0.454 F  
HETATM   12  F   UNL     1     -11.847   7.940  72.885  1.00  0.00    -0.390 F  
HETATM   13  F   UNL     1     -13.033   7.872  71.058  1.00  0.00    -0.271 F  
ENDBRANCH   8   9
ENDBRANCH   3   8
BRANCH   7  14
HETATM   14  C   UNL     1     -11.924  13.447  66.402  1.00  0.00    -0.406 C  
BRANCH  14  15
HETATM   15  S   UNL     1     -10.333  14.135  65.911  1.00  0.00    -0.329 S  
HETATM   16  O   UNL     1     -10.192  14.261  64.420  1.00  0.00    -0.227 OA 
BRANCH  15  17
HETATM   17  C   UNL     1     -10.478  15.759  66.511  1.00  0.00    -0.303 A  
HETATM   18  N   UNL     1     -10.395  16.128  67.771  1.00  0.00    -0.275 NA 
HETATM   19  C   UNL     1     -10.317  17.504  67.736  1.00  0.00    -0.367 A  
HETATM   20  H   UNL     1     -10.390  15.528  68.595  1.00  0.00     0.000 HD 
HETATM   21  C   UNL     1     -10.144  18.422  68.785  1.00  0.00    -0.393 A  
HETATM   22  C   UNL     1      -9.985  19.778  68.474  1.00  0.00    -0.538 A  
HETATM   23  C   UNL     1     -10.012  20.217  67.149  1.00  0.00    -0.595 A  
HETATM   24  C   UNL     1     -10.227  19.324  66.091  1.00  0.00    -0.549 A  
HETATM   25  C   UNL     1     -10.377  17.975  66.428  1.00  0.00    -0.379 A  
HETATM   26  N   UNL     1     -10.580  16.845  65.678  1.00  0.00    -0.481 NA 
ENDBRANCH  15  17
ENDBRANCH  14  15
ENDBRANCH   7  14
TORSDOF 5
ENDMDL
MODEL        8
REMARK 921   NORMALIZED FREE ENERGY PREDICTED BY IDOCK:   -7.08 KCAL/MOL
REMARK 922        TOTAL FREE ENERGY PREDICTED BY IDOCK:   -9.98 KCAL/MOL
REMARK 923 INTER-LIGAND FREE ENERGY PREDICTED BY IDOCK:   -9.39 KCAL/MOL
REMARK 924 INTRA-LIGAND FREE ENERGY PREDICTED BY IDOCK:   -0.60 KCAL/MOL
REMARK 927      BINDING AFFINITY PREDICTED BY RF-SCORE:    0.00 PKD
ROOT
HETATM    1  C   UNL     1     -11.910  11.703  68.731  1.00  0.00    -0.387 C  
HETATM    2  C   UNL     1     -11.229  11.307  67.455  1.00  0.00    -0.370 A  
HETATM    3  C   UNL     1     -10.504  10.101  67.342  1.00  0.00    -0.256 A  
HETATM    4  C   UNL     1     -10.059   9.682  66.088  1.00  0.00    -0.328 A  
HETATM    5  N   UNL     1     -10.850  11.723  65.095  1.00  0.00    -0.292 NA 
HETATM    6  C   UNL     1     -10.268  10.507  65.006  1.00  0.00    -0.295 A  
HETATM    7  C   UNL     1     -11.306  12.126  66.313  1.00  0.00    -0.357 A  
ENDROOT
BRANCH   3   8
HETATM    8  O   UNL     1     -10.227   9.207  68.347  1.00  0.00    -0.187 OA 
BRANCH   8   9
HETATM    9  C   UNL     1     -10.410   7.815  68.037  1.00  0.00    -0.209 C  
HETATM   10  C   UNL     1     -10.638   6.945  69.271  1.00  0.00    -0.226 C  
HETATM   11  F   UNL     1      -9.576   6.133  69.493  1.00  0.00    -0.140 F  
HETATM   12  F   UNL     1     -11.715   6.141  69.091  1.00  0.00    -0.456 F  
HETATM   13  F   UNL     1     -10.852   7.657  70.397  1.00  0.00    -0.225 F  
ENDBRANCH   8   9
ENDBRANCH   3   8
BRANCH   7  14
HETATM   14  C   UNL     1     -11.872  13.536  66.330  1.00  0.00    -0.392 C  
BRANCH  14  15
HETATM   15  S   UNL     1     -11.442  14.460  64.843  1.00  0.00    -0.404 S  
HETATM   16  O   UNL     1     -12.646  14.840  64.029  1.00  0.00    -0.822 OA 
BRANCH  15  17
HETATM   17  C   UNL     1     -10.854  15.940  65.535  1.00  0.00    -0.315 A  
HETATM   18  N   UNL     1     -10.843  17.118  64.948  1.00  0.00    -0.794 NA 
HETATM   19  C   UNL     1     -10.531  18.013  65.949  1.00  0.00    -0.264 A  
HETATM   20  H   UNL     1     -11.025  17.324  63.966  1.00  0.00     0.000 HD 
HETATM   21  C   UNL     1     -10.450  19.415  65.908  1.00  0.00    -0.561 A  
HETATM   22  C   UNL     1     -10.217  20.111  67.101  1.00  0.00    -0.554 A  
HETATM   23  C   UNL     1     -10.054  19.429  68.308  1.00  0.00    -0.531 A  
HETATM   24  C   UNL     1     -10.087  18.029  68.364  1.00  0.00    -0.392 A  
HETATM   25  C   UNL     1     -10.326  17.358  67.159  1.00  0.00    -0.325 A  
HETATM   26  N   UNL     1     -10.441  16.030  66.841  1.00  0.00    -0.304 NA 
ENDBRANCH  15  17
ENDBRANCH  14  15
ENDBRANCH   7  14
TORSDOF 5
ENDMDL
MODEL        9
REMARK 921   NORMALIZED FREE ENERGY PREDICTED BY IDOCK:   -6.99 KCAL/MOL
REMARK 922        TOTAL FREE ENERGY PREDICTED BY IDOCK:   -9.86 KCAL/MOL
REMARK 923 INTER-LIGAND FREE ENERGY PREDICTED BY IDOCK:   -9.11 KCAL/MOL
REMARK 924 INTRA-LIGAND FREE ENERGY PREDICTED BY IDOCK:   -0.75 KCAL/MOL
REMARK 927      BINDING AFFINITY PREDICTED BY RF-SCORE:    0.00 PKD
ROOT
HETATM    1  C   UNL     1     -12.146  12.750  69.749  1.00  0.00    -0.305 C  
HETATM    2  C   UNL     1     -11.489  11.790  68.801  1.00  0.00    -0.350 A  
HETATM    3  C   UNL     1     -10.950  10.562  69.240  1.00  0.00    -0.244 A  
HETATM    4  C   UNL     1     -10.532   9.620  68.301  1.00  0.00    -0.259 A  
HETATM    5  N   UNL     1     -10.973  11.166  66.514  1.00  0.00    -0.249 NA 
HETATM    6  C   UNL     1     -10.577   9.956  66.967  1.00  0.00    -0.203 A  
HETATM    7  C   UNL     1     -11.403  12.080  67.426  1.00  0.00    -0.327 A  
ENDROOT
BRANCH   3   8
HETATM    8  O   UNL     1     -10.845  10.123  70.538  1.00  0.00    -0.298 OA 
BRANCH   8   9
HETATM    9  C   UNL     1     -11.604   8.953  70.884  1.00  0.00    -0.283 C  
HETATM   10  C   UNL     1     -12.754   9.240  71.848  1.00  0.00    -0.394 C  
HETATM   11  F   UNL     1     -12.509   8.701  73.067  1.00  0.00    -0.394 F  
HETATM   12  F   UNL     1     -13.902   8.679  71.395  1.00  0.00    -0.381 F  
HETATM   13  F   UNL     1     -12.991  10.557  72.022  1.00  0.00    -0.502 F  
ENDBRANCH   8   9
ENDBRANCH   3   8
BRANCH   7  14
HETATM   14  C   UNL     1     -11.751  13.435  66.832  1.00  0.00    -0.389 C  
BRANCH  14  15
HETATM   15  S   UNL     1     -10.348  14.189  65.990  1.00  0.00    -0.320 S  
HETATM   16  O   UNL     1     -10.510  14.206  64.496  1.00  0.00    -0.408 OA 
BRANCH  15  17
HETATM   17  C   UNL     1     -10.508  15.842  66.502  1.00  0.00    -0.303 A  
HETATM   18  N   UNL     1     -10.427  16.279  67.740  1.00  0.00    -0.288 NA 
HETATM   19  C   UNL     1     -10.362  17.652  67.630  1.00  0.00    -0.368 A  
HETATM   20  H   UNL     1     -10.415  15.724  68.595  1.00  0.00     0.000 HD 
HETATM   21  C   UNL     1     -10.197  18.626  68.629  1.00  0.00    -0.359 A  
HETATM   22  C   UNL     1     -10.051  19.966  68.244  1.00  0.00    -0.571 A  
HETATM   23  C   UNL     1     -10.084  20.331  66.898  1.00  0.00    -0.565 A  
HETATM   24  C   UNL     1     -10.292  19.381  65.889  1.00  0.00    -0.536 A  
HETATM   25  C   UNL     1     -10.429  18.051  66.299  1.00  0.00    -0.335 A  
HETATM   26  N   UNL     1     -10.621  16.880  65.612  1.00  0.00    -0.481 NA 
ENDBRANCH  15  17
ENDBRANCH  14  15
ENDBRANCH   7  14
TORSDOF 5
ENDMDL
MODEL       10
REMARK 921   NORMALIZED FREE ENERGY PREDICTED BY IDOCK:   -6.95 KCAL/MOL
REMARK 922        TOTAL FREE ENERGY PREDICTED BY IDOCK:   -9.82 KCAL/MOL
REMARK 923 INTER-LIGAND FREE ENERGY PREDICTED BY IDOCK:   -9.23 KCAL/MOL
REMARK 924 INTRA-LIGAND FREE ENERGY PREDICTED BY IDOCK:   -0.59 KCAL/MOL
REMARK 927      BINDING AFFINITY PREDICTED BY RF-SCORE:    0.00 PKD
ROOT
HETATM    1  C   UNL     1     -11.967  15.710  70.323  1.00  0.00    -0.398 C  
HETATM    2  C   UNL     1     -11.730  14.814  69.144  1.00  0.00    -0.344 A  
HETATM    3  C   UNL     1     -11.909  13.417  69.224  1.00  0.00    -0.334 A  
HETATM    4  C   UNL     1     -11.871  12.651  68.059  1.00  0.00    -0.376 A  
HETATM    5  N   UNL     1     -11.275  14.592  66.772  1.00  0.00    -0.325 NA 
HETATM    6  C   UNL     1     -11.572  13.277  66.870  1.00  0.00    -0.364 A  
HETATM    7  C   UNL     1     -11.333  15.346  67.903  1.00  0.00    -0.325 A  
ENDROOT
BRANCH   3   8
HETATM    8  O   UNL     1     -12.201  12.684  70.350  1.00  0.00    -0.349 OA 
BRANCH   8   9
HETATM    9  C   UNL     1     -12.249  11.256  70.191  1.00  0.00    -0.330 C  
HETATM   10  C   UNL     1     -12.840  10.533  71.401  1.00  0.00    -0.447 C  
HETATM   11  F   UNL     1     -11.888   9.823  72.052  1.00  0.00    -0.443 F  
HETATM   12  F   UNL     1     -13.789   9.649  71.006  1.00  0.00    -0.406 F  
HETATM   13  F   UNL     1     -13.414  11.366  72.295  1.00  0.00    -0.572 F  
ENDBRANCH   8   9
ENDBRANCH   3   8
BRANCH   7  14
HETATM   14  C   UNL     1     -10.907  16.792  67.709  1.00  0.00    -0.285 C  
BRANCH  14  15
HETATM   15  S   UNL     1     -10.059  17.047  66.139  1.00  0.00    -0.298 S  
HETATM   16  O   UNL     1     -10.845  17.905  65.189  1.00  0.00    -0.672 OA 
BRANCH  15  17
HETATM   17  C   UNL     1      -8.711  18.017  66.648  1.00  0.00    -0.259 A  
HETATM   18  N   UNL     1      -8.123  18.956  65.939  1.00  0.00    -0.469 NA 
HETATM   19  C   UNL     1      -7.293  19.607  66.826  1.00  0.00    -0.228 A  
HETATM   20  H   UNL     1      -8.252  19.159  64.948  1.00  0.00     0.000 HD 
HETATM   21  C   UNL     1      -6.478  20.735  66.633  1.00  0.00    -0.330 A  
HETATM   22  C   UNL     1      -5.805  21.276  67.736  1.00  0.00    -0.410 A  
HETATM   23  C   UNL     1      -5.928  20.701  69.002  1.00  0.00    -0.380 A  
HETATM   24  C   UNL     1      -6.700  19.550  69.208  1.00  0.00    -0.376 A  
HETATM   25  C   UNL     1      -7.366  19.033  68.091  1.00  0.00    -0.268 A  
HETATM   26  N   UNL     1      -8.202  17.960  67.921  1.00  0.00    -0.240 NA 
ENDBRANCH  15  17
ENDBRANCH  14  15
ENDBRANCH   7  14
TORSDOF 5
ENDMDL
MODEL       11
REMARK 921   NORMALIZED FREE ENERGY PREDICTED BY IDOCK:   -6.90 KCAL/MOL
REMARK 922        TOTAL FREE ENERGY PREDICTED BY IDOCK:   -9.75 KCAL/MOL
REMARK 923 INTER-LIGAND FREE ENERGY PREDICTED BY IDOCK:   -8.98 KCAL/MOL
REMARK 924 INTRA-LIGAND FREE ENERGY PREDICTED BY IDOCK:   -0.76 KCAL/MOL
REMARK 927      BINDING AFFINITY PREDICTED BY RF-SCORE:    0.00 PKD
ROOT
HETATM    1  C   UNL     1     -12.503  15.068  69.671  1.00  0.00    -0.168 C  
HETATM    2  C   UNL     1     -12.271  13.610  69.938  1.00  0.00    -0.367 A  
HETATM    3  C   UNL     1     -12.755  12.981  71.105  1.00  0.00    -0.283 A  
HETATM    4  C   UNL     1     -12.689  11.593  71.215  1.00  0.00    -0.444 A  
HETATM    5  N   UNL     1     -11.489  11.458  69.137  1.00  0.00    -0.269 NA 
HETATM    6  C   UNL     1     -12.072  10.882  70.212  1.00  0.00    -0.355 A  
HETATM    7  C   UNL     1     -11.571  12.811  69.015  1.00  0.00    -0.316 A  
ENDROOT
BRANCH   3   8
HETATM    8  O   UNL     1     -13.379  13.585  72.171  1.00  0.00    -0.424 OA 
BRANCH   8   9
HETATM    9  C   UNL     1     -12.548  14.380  73.034  1.00  0.00    -0.273 C  
HETATM   10  C   UNL     1     -13.042  15.817  73.194  1.00  0.00    -0.564 C  
HETATM   11  F   UNL     1     -12.201  16.687  72.586  1.00  0.00    -0.511 F  
HETATM   12  F   UNL     1     -13.081  16.160  74.505  1.00  0.00    -0.368 F  
HETATM   13  F   UNL     1     -14.277  16.018  72.688  1.00  0.00    -0.622 F  
ENDBRANCH   8   9
ENDBRANCH   3   8
BRANCH   7  14
HETATM   14  C   UNL     1     -10.820  13.375  67.820  1.00  0.00    -0.252 C  
BRANCH  14  15
HETATM   15  S   UNL     1      -9.249  14.119  68.292  1.00  0.00    -0.200 S  
HETATM   16  O   UNL     1      -8.149  13.822  67.313  1.00  0.00    -0.175 OA 
BRANCH  15  17
HETATM   17  C   UNL     1      -9.613  15.807  68.096  1.00  0.00    -0.199 A  
HETATM   18  N   UNL     1      -9.271  16.773  68.920  1.00  0.00    -0.253 NA 
HETATM   19  C   UNL     1      -9.547  17.939  68.239  1.00  0.00    -0.312 A  
HETATM   20  H   UNL     1      -8.884  16.681  69.860  1.00  0.00     0.000 HD 
HETATM   21  C   UNL     1      -9.316  19.274  68.611  1.00  0.00    -0.446 A  
HETATM   22  C   UNL     1      -9.591  20.288  67.684  1.00  0.00    -0.530 A  
HETATM   23  C   UNL     1     -10.100  19.984  66.421  1.00  0.00    -0.609 A  
HETATM   24  C   UNL     1     -10.379  18.663  66.046  1.00  0.00    -0.436 A  
HETATM   25  C   UNL     1     -10.090  17.669  66.987  1.00  0.00    -0.330 A  
HETATM   26  N   UNL     1     -10.212  16.304  66.966  1.00  0.00    -0.275 NA 
ENDBRANCH  15  17
ENDBRANCH  14  15
ENDBRANCH   7  14
TORSDOF 5
ENDMDL
MODEL       12
REMARK 921   NORMALIZED FREE ENERGY PREDICTED BY IDOCK:   -6.90 KCAL/MOL
REMARK 922        TOTAL FREE ENERGY PREDICTED BY IDOCK:   -9.74 KCAL/MOL
REMARK 923 INTER-LIGAND FREE ENERGY PREDICTED BY IDOCK:   -8.62 KCAL/MOL
REMARK 924 INTRA-LIGAND FREE ENERGY PREDICTED BY IDOCK:   -1.12 KCAL/MOL
REMARK 927      BINDING AFFINITY PREDICTED BY RF-SCORE:    0.00 PKD
ROOT
HETATM    1  C   UNL     1      -9.069  12.829  67.764  1.00  0.00    -0.197 C  
HETATM    2  C   UNL     1      -9.484  11.511  67.182  1.00  0.00    -0.186 A  
HETATM    3  C   UNL     1      -9.707  11.346  65.798  1.00  0.00    -0.233 A  
HETATM    4  C   UNL     1      -9.895  10.065  65.280  1.00  0.00    -0.388 A  
HETATM    5  N   UNL     1      -9.855   9.134  67.496  1.00  0.00    -0.167 NA 
HETATM    6  C   UNL     1      -9.943   9.003  66.154  1.00  0.00    -0.241 A  
HETATM    7  C   UNL     1      -9.650  10.380  68.003  1.00  0.00    -0.143 A  
ENDROOT
BRANCH   3   8
HETATM    8  O   UNL     1      -9.691  12.327  64.836  1.00  0.00    -0.164 OA 
BRANCH   8   9
HETATM    9  C   UNL     1     -10.816  12.367  63.941  1.00  0.00    -0.420 C  
HETATM   10  C   UNL     1     -11.966  13.232  64.453  1.00  0.00    -0.406 C  
HETATM   11  F   UNL     1     -13.032  12.467  64.792  1.00  0.00    -0.563 F  
HETATM   12  F   UNL     1     -12.385  14.083  63.485  1.00  0.00    -0.518 F  
HETATM   13  F   UNL     1     -11.639  13.977  65.530  1.00  0.00    -0.312 F  
ENDBRANCH   8   9
ENDBRANCH   3   8
BRANCH   7  14
HETATM   14  C   UNL     1      -9.644  10.440  69.522  1.00  0.00    -0.157 C  
BRANCH  14  15
HETATM   15  S   UNL     1     -11.144   9.742  70.236  1.00  0.00    -0.312 S  
HETATM   16  O   UNL     1     -10.903   9.093  71.569  1.00  0.00    -0.316 OA 
BRANCH  15  17
HETATM   17  C   UNL     1     -12.051  11.185  70.570  1.00  0.00    -0.381 A  
HETATM   18  N   UNL     1     -12.837  11.382  71.606  1.00  0.00    -0.416 NA 
HETATM   19  C   UNL     1     -13.131  12.728  71.581  1.00  0.00    -0.331 A  
HETATM   20  H   UNL     1     -13.160  10.690  72.282  1.00  0.00     0.000 HD 
HETATM   21  C   UNL     1     -13.873  13.504  72.488  1.00  0.00    -0.624 A  
HETATM   22  C   UNL     1     -13.937  14.890  72.294  1.00  0.00    -0.602 A  
HETATM   23  C   UNL     1     -13.289  15.492  71.214  1.00  0.00    -0.588 A  
HETATM   24  C   UNL     1     -12.581  14.732  70.273  1.00  0.00    -0.365 A  
HETATM   25  C   UNL     1     -12.528  13.351  70.493  1.00  0.00    -0.279 A  
HETATM   26  N   UNL     1     -11.929  12.323  69.813  1.00  0.00    -0.313 NA 
ENDBRANCH  15  17
ENDBRANCH  14  15
ENDBRANCH   7  14
TORSDOF 5
ENDMDL
MODEL       13
REMARK 921   NORMALIZED FREE ENERGY PREDICTED BY IDOCK:   -6.87 KCAL/MOL
REMARK 922        TOTAL FREE ENERGY PREDICTED BY IDOCK:   -9.71 KCAL/MOL
REMARK 923 INTER-LIGAND FREE ENERGY PREDICTED BY IDOCK:   -8.83 KCAL/MOL
REMARK 924 INTRA-LIGAND FREE ENERGY PREDICTED BY IDOCK:   -0.89 KCAL/MOL
REMARK 927      BINDING AFFINITY PREDICTED BY RF-SCORE:    0.00 PKD
ROOT
HETATM    1  C   UNL     1     -11.921  11.483  68.596  1.00  0.00    -0.312 C  
HETATM    2  C   UNL     1     -11.193  11.121  67.336  1.00  0.00    -0.363 A  
HETATM    3  C   UNL     1     -10.469   9.916  67.214  1.00  0.00    -0.258 A  
HETATM    4  C   UNL     1      -9.979   9.531  65.967  1.00  0.00    -0.348 A  
HETATM    5  N   UNL     1     -10.724  11.604  65.005  1.00  0.00    -0.288 NA 
HETATM    6  C   UNL     1     -10.143  10.388  64.903  1.00  0.00    -0.312 A  
HETATM    7  C   UNL     1     -11.223  11.973  66.216  1.00  0.00    -0.342 A  
ENDROOT
BRANCH   3   8
HETATM    8  O   UNL     1     -10.234   8.991  68.203  1.00  0.00    -0.187 OA 
BRANCH   8   9
HETATM    9  C   UNL     1      -8.887   8.909  68.698  1.00  0.00    -0.137 C  
HETATM   10  C   UNL     1      -8.713   9.524  70.085  1.00  0.00    -0.230 C  
HETATM   11  F   UNL     1      -7.978  10.661  70.021  1.00  0.00    -0.115 F  
HETATM   12  F   UNL     1      -8.047   8.671  70.901  1.00  0.00    -0.088 F  
HETATM   13  F   UNL     1      -9.883   9.826  70.688  1.00  0.00    -0.301 F  
ENDBRANCH   8   9
ENDBRANCH   3   8
BRANCH   7  14
HETATM   14  C   UNL     1     -11.784  13.386  66.253  1.00  0.00    -0.366 C  
BRANCH  14  15
HETATM   15  S   UNL     1     -11.287  14.353  64.816  1.00  0.00    -0.383 S  
HETATM   16  O   UNL     1     -12.447  14.723  63.937  1.00  0.00    -0.811 OA 
BRANCH  15  17
HETATM   17  C   UNL     1     -10.779  15.831  65.575  1.00  0.00    -0.383 A  
HETATM   18  N   UNL     1     -10.714  17.013  65.001  1.00  0.00    -0.693 NA 
HETATM   19  C   UNL     1     -10.510  17.901  66.034  1.00  0.00    -0.293 A  
HETATM   20  H   UNL     1     -10.796  17.226  64.007  1.00  0.00     0.000 HD 
HETATM   21  C   UNL     1     -10.432  19.304  66.012  1.00  0.00    -0.573 A  
HETATM   22  C   UNL     1     -10.326  19.992  67.228  1.00  0.00    -0.550 A  
HETATM   23  C   UNL     1     -10.283  19.301  68.440  1.00  0.00    -0.503 A  
HETATM   24  C   UNL     1     -10.315  17.901  68.482  1.00  0.00    -0.365 A  
HETATM   25  C   UNL     1     -10.427  17.238  67.255  1.00  0.00    -0.319 A  
HETATM   26  N   UNL     1     -10.502  15.912  66.917  1.00  0.00    -0.306 NA 
ENDBRANCH  15  17
ENDBRANCH  14  15
ENDBRANCH   7  14
TORSDOF 5
ENDMDL
MODEL       14
REMARK 921   NORMALIZED FREE ENERGY PREDICTED BY IDOCK:   -6.84 KCAL/MOL
REMARK 922        TOTAL FREE ENERGY PREDICTED BY IDOCK:   -9.66 KCAL/MOL
REMARK 923 INTER-LIGAND FREE ENERGY PREDICTED BY IDOCK:   -9.01 KCAL/MOL
REMARK 924 INTRA-LIGAND FREE ENERGY PREDICTED BY IDOCK:   -0.65 KCAL/MOL
REMARK 927      BINDING AFFINITY PREDICTED BY RF-SCORE:    0.00 PKD
ROOT
HETATM    1  C   UNL     1     -12.471  12.851  70.760  1.00  0.00    -0.370 C  
HETATM    2  C   UNL     1     -12.060  13.809  69.681  1.00  0.00    -0.392 A  
HETATM    3  C   UNL     1     -12.090  15.206  69.876  1.00  0.00    -0.336 A  
HETATM    4  C   UNL     1     -11.514  16.045  68.922  1.00  0.00    -0.362 A  
HETATM    5  N   UNL     1     -11.072  14.163  67.494  1.00  0.00    -0.283 NA 
HETATM    6  C   UNL     1     -11.010  15.485  67.771  1.00  0.00    -0.317 A  
HETATM    7  C   UNL     1     -11.613  13.339  68.432  1.00  0.00    -0.337 A  
ENDROOT
BRANCH   3   8
HETATM    8  O   UNL     1     -12.573  15.877  70.973  1.00  0.00    -0.443 OA 
BRANCH   8   9
HETATM    9  C   UNL     1     -11.765  15.832  72.161  1.00  0.00    -0.475 C  
HETATM   10  C   UNL     1     -12.584  15.771  73.449  1.00  0.00    -0.545 C  
HETATM   11  F   UNL     1     -12.475  16.927  74.147  1.00  0.00    -0.485 F  
HETATM   12  F   UNL     1     -12.127  14.781  74.254  1.00  0.00    -0.648 F  
HETATM   13  F   UNL     1     -13.898  15.543  73.238  1.00  0.00    -0.522 F  
ENDBRANCH   8   9
ENDBRANCH   3   8
BRANCH   7  14
HETATM   14  C   UNL     1     -11.713  11.885  67.999  1.00  0.00    -0.312 C  
BRANCH  14  15
HETATM   15  S   UNL     1     -10.095  11.105  67.858  1.00  0.00    -0.181 S  
HETATM   16  O   UNL     1      -8.975  12.010  68.287  1.00  0.00    -0.184 OA 
BRANCH  15  17
HETATM   17  C   UNL     1     -10.211   9.883  69.088  1.00  0.00    -0.205 A  
HETATM   18  N   UNL     1     -10.208  10.091  70.388  1.00  0.00    -0.395 NA 
HETATM   19  C   UNL     1     -10.570   8.883  70.944  1.00  0.00    -0.233 A  
HETATM   20  H   UNL     1      -9.985  10.957  70.878  1.00  0.00     0.000 HD 
HETATM   21  C   UNL     1     -10.793   8.543  72.288  1.00  0.00    -0.418 A  
HETATM   22  C   UNL     1     -11.265   7.259  72.589  1.00  0.00    -0.355 A  
HETATM   23  C   UNL     1     -11.496   6.326  71.576  1.00  0.00    -0.351 A  
HETATM   24  C   UNL     1     -11.238   6.630  70.233  1.00  0.00    -0.408 A  
HETATM   25  C   UNL     1     -10.773   7.921  69.959  1.00  0.00    -0.244 A  
HETATM   26  N   UNL     1     -10.440   8.562  68.795  1.00  0.00    -0.210 NA 
ENDBRANCH  15  17
ENDBRANCH  14  15
ENDBRANCH   7  14
TORSDOF 5
ENDMDL
MODEL       15
REMARK 921   NORMALIZED FREE ENERGY PREDICTED BY IDOCK:   -6.82 KCAL/MOL
REMARK 922        TOTAL FREE ENERGY PREDICTED BY IDOCK:   -9.65 KCAL/MOL
REMARK 923 INTER-LIGAND FREE ENERGY PREDICTED BY IDOCK:   -9.18 KCAL/MOL
REMARK 924 INTRA-LIGAND FREE ENERGY PREDICTED BY IDOCK:   -0.47 KCAL/MOL
REMARK 927      BINDING AFFINITY PREDICTED BY RF-SCORE:    0.00 PKD
ROOT
HETATM    1  C   UNL     1     -11.227  10.768  69.715  1.00  0.00    -0.365 C  
HETATM    2  C   UNL     1     -12.027  11.879  70.327  1.00  0.00    -0.416 A  
HETATM    3  C   UNL     1     -12.764  11.697  71.517  1.00  0.00    -0.318 A  
HETATM    4  C   UNL     1     -13.327  12.804  72.153  1.00  0.00    -0.593 A  
HETATM    5  N   UNL     1     -12.624  14.230  70.350  1.00  0.00    -0.351 NA 
HETATM    6  C   UNL     1     -13.217  14.036  71.549  1.00  0.00    -0.359 A  
HETATM    7  C   UNL     1     -12.055  13.157  69.738  1.00  0.00    -0.270 A  
ENDROOT
BRANCH   3   8
HETATM    8  O   UNL     1     -12.949  10.521  72.202  1.00  0.00    -0.435 OA 
BRANCH   8   9
HETATM    9  C   UNL     1     -13.559   9.442  71.473  1.00  0.00    -0.336 C  
HETATM   10  C   UNL     1     -12.914   8.085  71.748  1.00  0.00    -0.331 C  
HETATM   11  F   UNL     1     -12.243   7.639  70.660  1.00  0.00    -0.264 F  
HETATM   12  F   UNL     1     -13.864   7.159  72.031  1.00  0.00    -0.365 F  
HETATM   13  F   UNL     1     -12.049   8.103  72.784  1.00  0.00    -0.414 F  
ENDBRANCH   8   9
ENDBRANCH   3   8
BRANCH   7  14
HETATM   14  C   UNL     1     -11.483  13.457  68.361  1.00  0.00    -0.316 C  
BRANCH  14  15
HETATM   15  S   UNL     1      -9.800  14.095  68.448  1.00  0.00    -0.231 S  
HETATM   16  O   UNL     1      -8.956  13.660  67.284  1.00  0.00    -0.204 OA 
BRANCH  15  17
HETATM   17  C   UNL     1     -10.081  15.794  68.219  1.00  0.00    -0.222 A  
HETATM   18  N   UNL     1      -9.797  16.748  69.079  1.00  0.00    -0.267 NA 
HETATM   19  C   UNL     1      -9.956  17.922  68.377  1.00  0.00    -0.367 A  
HETATM   20  H   UNL     1      -9.518  16.642  70.055  1.00  0.00     0.000 HD 
HETATM   21  C   UNL     1      -9.719  19.248  68.776  1.00  0.00    -0.510 A  
HETATM   22  C   UNL     1      -9.856  20.272  67.829  1.00  0.00    -0.534 A  
HETATM   23  C   UNL     1     -10.234  19.986  66.516  1.00  0.00    -0.598 A  
HETATM   24  C   UNL     1     -10.517  18.676  66.108  1.00  0.00    -0.473 A  
HETATM   25  C   UNL     1     -10.368  17.672  67.072  1.00  0.00    -0.330 A  
HETATM   26  N   UNL     1     -10.535  16.312  67.032  1.00  0.00    -0.310 NA 
ENDBRANCH  15  17
ENDBRANCH  14  15
ENDBRANCH   7  14
TORSDOF 5
ENDMDL
MODEL       16
REMARK 921   NORMALIZED FREE ENERGY PREDICTED BY IDOCK:   -6.81 KCAL/MOL
REMARK 922        TOTAL FREE ENERGY PREDICTED BY IDOCK:   -9.63 KCAL/MOL
REMARK 923 INTER-LIGAND FREE ENERGY PREDICTED BY IDOCK:   -8.76 KCAL/MOL
REMARK 924 INTRA-LIGAND FREE ENERGY PREDICTED BY IDOCK:   -0.87 KCAL/MOL
REMARK 927      BINDING AFFINITY PREDICTED BY RF-SCORE:    0.00 PKD
ROOT
HETATM    1  C   UNL     1      -9.053  15.940  67.972  1.00  0.00    -0.184 C  
HETATM    2  C   UNL     1     -10.055  15.626  66.901  1.00  0.00    -0.265 A  
HETATM    3  C   UNL     1     -10.275  16.494  65.810  1.00  0.00    -0.329 A  
HETATM    4  C   UNL     1     -11.066  16.069  64.743  1.00  0.00    -0.378 A  
HETATM    5  N   UNL     1     -11.592  14.034  65.907  1.00  0.00    -0.337 NA 
HETATM    6  C   UNL     1     -11.681  14.841  64.827  1.00  0.00    -0.422 A  
HETATM    7  C   UNL     1     -10.804  14.435  66.941  1.00  0.00    -0.301 A  
ENDROOT
BRANCH   3   8
HETATM    8  O   UNL     1      -9.726  17.740  65.622  1.00  0.00    -0.510 OA 
BRANCH   8   9
HETATM    9  C   UNL     1     -10.495  18.858  66.097  1.00  0.00    -0.457 C  
HETATM   10  C   UNL     1      -9.865  19.559  67.299  1.00  0.00    -0.357 C  
HETATM   11  F   UNL     1     -10.600  19.352  68.418  1.00  0.00    -0.454 F  
HETATM   12  F   UNL     1      -9.824  20.899  67.098  1.00  0.00    -0.608 F  
HETATM   13  F   UNL     1      -8.604  19.151  67.557  1.00  0.00    -0.291 F  
ENDBRANCH   8   9
ENDBRANCH   3   8
BRANCH   7  14
HETATM   14  C   UNL     1     -10.830  13.501  68.141  1.00  0.00    -0.254 C  
BRANCH  14  15
HETATM   15  S   UNL     1      -9.724  12.094  67.932  1.00  0.00    -0.206 S  
HETATM   16  O   UNL     1      -8.341  12.361  68.454  1.00  0.00    -0.167 OA 
BRANCH  15  17
HETATM   17  C   UNL     1     -10.433  10.953  69.033  1.00  0.00    -0.219 A  
HETATM   18  N   UNL     1      -9.777  10.128  69.821  1.00  0.00    -0.340 NA 
HETATM   19  C   UNL     1     -10.730   9.614  70.673  1.00  0.00    -0.322 A  
HETATM   20  H   UNL     1      -8.780   9.915  69.804  1.00  0.00     0.000 HD 
HETATM   21  C   UNL     1     -10.584   8.737  71.761  1.00  0.00    -0.417 A  
HETATM   22  C   UNL     1     -11.707   8.446  72.547  1.00  0.00    -0.429 A  
HETATM   23  C   UNL     1     -12.952   9.002  72.249  1.00  0.00    -0.490 A  
HETATM   24  C   UNL     1     -13.129   9.843  71.142  1.00  0.00    -0.453 A  
HETATM   25  C   UNL     1     -11.991  10.122  70.378  1.00  0.00    -0.267 A  
HETATM   26  N   UNL     1     -11.784  10.895  69.265  1.00  0.00    -0.306 NA 
ENDBRANCH  15  17
ENDBRANCH  14  15
ENDBRANCH   7  14
TORSDOF 5
ENDMDL
MODEL       17
REMARK 921   NORMALIZED FREE ENERGY PREDICTED BY IDOCK:   -6.79 KCAL/MOL
REMARK 922        TOTAL FREE ENERGY PREDICTED BY IDOCK:   -9.60 KCAL/MOL
REMARK 923 INTER-LIGAND FREE ENERGY PREDICTED BY IDOCK:   -8.74 KCAL/MOL
REMARK 924 INTRA-LIGAND FREE ENERGY PREDICTED BY IDOCK:   -0.86 KCAL/MOL
REMARK 927      BINDING AFFINITY PREDICTED BY RF-SCORE:    0.00 PKD
ROOT
HETATM    1  C   UNL     1      -9.396  10.310  67.562  1.00  0.00    -0.164 C  
HETATM    2  C   UNL     1     -10.402  10.378  68.672  1.00  0.00    -0.202 A  
HETATM    3  C   UNL     1     -10.458   9.399  69.687  1.00  0.00    -0.223 A  
HETATM    4  C   UNL     1     -11.271   9.608  70.800  1.00  0.00    -0.403 A  
HETATM    5  N   UNL     1     -12.129  11.631  69.826  1.00  0.00    -0.303 NA 
HETATM    6  C   UNL     1     -12.065  10.732  70.833  1.00  0.00    -0.370 A  
HETATM    7  C   UNL     1     -11.321  11.442  68.748  1.00  0.00    -0.271 A  
ENDROOT
BRANCH   3   8
HETATM    8  O   UNL     1      -9.724   8.239  69.757  1.00  0.00    -0.177 OA 
BRANCH   8   9
HETATM    9  C   UNL     1     -10.253   7.194  70.591  1.00  0.00    -0.195 C  
HETATM   10  C   UNL     1     -11.250   6.290  69.869  1.00  0.00    -0.429 C  
HETATM   11  F   UNL     1     -12.505   6.476  70.345  1.00  0.00    -0.405 F  
HETATM   12  F   UNL     1     -10.942   4.986  70.076  1.00  0.00    -0.256 F  
HETATM   13  F   UNL     1     -11.285   6.488  68.535  1.00  0.00    -0.313 F  
ENDBRANCH   8   9
ENDBRANCH   3   8
BRANCH   7  14
HETATM   14  C   UNL     1     -11.520  12.458  67.635  1.00  0.00    -0.337 C  
BRANCH  14  15
HETATM   15  S   UNL     1     -10.562  13.960  67.905  1.00  0.00    -0.248 S  
HETATM   16  O   UNL     1     -10.703  14.946  66.781  1.00  0.00    -0.299 OA 
BRANCH  15  17
HETATM   17  C   UNL     1     -11.411  14.654  69.252  1.00  0.00    -0.291 A  
HETATM   18  N   UNL     1     -12.717  14.686  69.410  1.00  0.00    -0.518 NA 
HETATM   19  C   UNL     1     -12.910  15.094  70.712  1.00  0.00    -0.416 A  
HETATM   20  H   UNL     1     -13.432  14.459  68.719  1.00  0.00     0.000 HD 
HETATM   21  C   UNL     1     -14.102  15.238  71.442  1.00  0.00    -0.595 A  
HETATM   22  C   UNL     1     -14.023  15.568  72.801  1.00  0.00    -0.545 A  
HETATM   23  C   UNL     1     -12.787  15.766  73.419  1.00  0.00    -0.680 A  
HETATM   24  C   UNL     1     -11.588  15.672  72.699  1.00  0.00    -0.484 A  
HETATM   25  C   UNL     1     -11.695  15.336  71.345  1.00  0.00    -0.389 A  
HETATM   26  N   UNL     1     -10.763  15.142  70.359  1.00  0.00    -0.227 NA 
ENDBRANCH  15  17
ENDBRANCH  14  15
ENDBRANCH   7  14
TORSDOF 5
ENDMDL
MODEL       18
REMARK 921   NORMALIZED FREE ENERGY PREDICTED BY IDOCK:   -6.76 KCAL/MOL
REMARK 922        TOTAL FREE ENERGY PREDICTED BY IDOCK:   -9.56 KCAL/MOL
REMARK 923 INTER-LIGAND FREE ENERGY PREDICTED BY IDOCK:   -8.64 KCAL/MOL
REMARK 924 INTRA-LIGAND FREE ENERGY PREDICTED BY IDOCK:   -0.92 KCAL/MOL
REMARK 927      BINDING AFFINITY PREDICTED BY RF-SCORE:    0.00 PKD
ROOT
HETATM    1  C   UNL     1      -9.488  12.955  68.202  1.00  0.00    -0.218 C  
HETATM    2  C   UNL     1     -10.525  13.855  68.807  1.00  0.00    -0.229 A  
HETATM    3  C   UNL     1     -11.685  13.343  69.427  1.00  0.00    -0.325 A  
HETATM    4  C   UNL     1     -12.516  14.202  70.145  1.00  0.00    -0.391 A  
HETATM    5  N   UNL     1     -11.190  16.091  69.473  1.00  0.00    -0.328 NA 
HETATM    6  C   UNL     1     -12.223  15.546  70.154  1.00  0.00    -0.376 A  
HETATM    7  C   UNL     1     -10.364  15.253  68.789  1.00  0.00    -0.232 A  
ENDROOT
BRANCH   3   8
HETATM    8  O   UNL     1     -12.083  12.029  69.475  1.00  0.00    -0.276 OA 
BRANCH   8   9
HETATM    9  C   UNL     1     -12.138  11.422  70.778  1.00  0.00    -0.332 C  
HETATM   10  C   UNL     1     -11.863   9.920  70.757  1.00  0.00    -0.330 C  
HETATM   11  F   UNL     1     -12.986   9.219  71.049  1.00  0.00    -0.328 F  
HETATM   12  F   UNL     1     -10.942   9.595  71.698  1.00  0.00    -0.420 F  
HETATM   13  F   UNL     1     -11.400   9.475  69.570  1.00  0.00    -0.223 F  
ENDBRANCH   8   9
ENDBRANCH   3   8
BRANCH   7  14
HETATM   14  C   UNL     1      -9.282  15.962  67.991  1.00  0.00    -0.192 C  
BRANCH  14  15
HETATM   15  S   UNL     1      -9.949  16.825  66.557  1.00  0.00    -0.312 S  
HETATM   16  O   UNL     1      -8.911  17.636  65.834  1.00  0.00    -0.519 OA 
BRANCH  15  17
HETATM   17  C   UNL     1     -10.317  15.488  65.511  1.00  0.00    -0.394 A  
HETATM   18  N   UNL     1      -9.548  14.444  65.290  1.00  0.00    -0.501 NA 
HETATM   19  C   UNL     1     -10.346  13.549  64.610  1.00  0.00    -0.385 A  
HETATM   20  H   UNL     1      -8.572  14.323  65.562  1.00  0.00     0.000 HD 
HETATM   21  C   UNL     1     -10.066  12.241  64.181  1.00  0.00    -0.329 A  
HETATM   22  C   UNL     1     -11.095  11.489  63.599  1.00  0.00    -0.469 A  
HETATM   23  C   UNL     1     -12.371  12.030  63.433  1.00  0.00    -0.635 A  
HETATM   24  C   UNL     1     -12.659  13.347  63.813  1.00  0.00    -0.179 A  
HETATM   25  C   UNL     1     -11.616  14.075  64.397  1.00  0.00    -0.369 A  
HETATM   26  N   UNL     1     -11.536  15.349  64.894  1.00  0.00    -0.346 NA 
ENDBRANCH  15  17
ENDBRANCH  14  15
ENDBRANCH   7  14
TORSDOF 5
ENDMDL
MODEL       19
REMARK 921   NORMALIZED FREE ENERGY PREDICTED BY IDOCK:   -6.68 KCAL/MOL
REMARK 922        TOTAL FREE ENERGY PREDICTED BY IDOCK:   -9.46 KCAL/MOL
REMARK 923 INTER-LIGAND FREE ENERGY PREDICTED BY IDOCK:   -8.35 KCAL/MOL
REMARK 924 INTRA-LIGAND FREE ENERGY PREDICTED BY IDOCK:   -1.11 KCAL/MOL
REMARK 927      BINDING AFFINITY PREDICTED BY RF-SCORE:    0.00 PKD
ROOT
HETATM    1  C   UNL     1     -12.015  11.257  69.110  1.00  0.00    -0.405 C  
HETATM    2  C   UNL     1     -11.275  10.982  67.834  1.00  0.00    -0.375 A  
HETATM    3  C   UNL     1     -10.579   9.773  67.623  1.00  0.00    -0.276 A  
HETATM    4  C   UNL     1     -10.077   9.481  66.355  1.00  0.00    -0.328 A  
HETATM    5  N   UNL     1     -10.756  11.644  65.559  1.00  0.00    -0.276 NA 
HETATM    6  C   UNL     1     -10.203  10.427  65.364  1.00  0.00    -0.259 A  
HETATM    7  C   UNL     1     -11.267  11.925  66.788  1.00  0.00    -0.327 A  
ENDROOT
BRANCH   3   8
HETATM    8  O   UNL     1     -10.382   8.764  68.535  1.00  0.00    -0.199 OA 
BRANCH   8   9
HETATM    9  C   UNL     1      -9.022   8.509  68.927  1.00  0.00    -0.146 C  
HETATM   10  C   UNL     1      -8.652   9.139  70.269  1.00  0.00    -0.198 C  
HETATM   11  F   UNL     1      -7.776  10.159  70.099  1.00  0.00    -0.151 F  
HETATM   12  F   UNL     1      -8.044   8.228  71.068  1.00  0.00    -0.086 F  
HETATM   13  F   UNL     1      -9.715   9.622  70.946  1.00  0.00    -0.314 F  
ENDBRANCH   8   9
ENDBRANCH   3   8
BRANCH   7  14
HETATM   14  C   UNL     1     -11.794  13.343  66.934  1.00  0.00    -0.403 C  
BRANCH  14  15
HETATM   15  S   UNL     1     -10.552  14.466  67.599  1.00  0.00    -0.262 S  
HETATM   16  O   UNL     1     -10.342  15.675  66.734  1.00  0.00    -0.274 OA 
BRANCH  15  17
HETATM   17  C   UNL     1     -11.359  15.040  69.027  1.00  0.00    -0.290 A  
HETATM   18  N   UNL     1     -12.658  15.044  69.232  1.00  0.00    -0.551 NA 
HETATM   19  C   UNL     1     -12.808  15.345  70.568  1.00  0.00    -0.376 A  
HETATM   20  H   UNL     1     -13.395  14.864  68.550  1.00  0.00     0.000 HD 
HETATM   21  C   UNL     1     -13.974  15.416  71.349  1.00  0.00    -0.565 A  
HETATM   22  C   UNL     1     -13.850  15.637  72.727  1.00  0.00    -0.628 A  
HETATM   23  C   UNL     1     -12.595  15.801  73.315  1.00  0.00    -0.627 A  
HETATM   24  C   UNL     1     -11.422  15.779  72.548  1.00  0.00    -0.341 A  
HETATM   25  C   UNL     1     -11.574  15.550  71.176  1.00  0.00    -0.397 A  
HETATM   26  N   UNL     1     -10.676  15.446  70.145  1.00  0.00    -0.303 NA 
ENDBRANCH  15  17
ENDBRANCH  14  15
ENDBRANCH   7  14
TORSDOF 5
ENDMDL
MODEL       20
REMARK 921   NORMALIZED FREE ENERGY PREDICTED BY IDOCK:   -6.67 KCAL/MOL
REMARK 922        TOTAL FREE ENERGY PREDICTED BY IDOCK:   -9.45 KCAL/MOL
REMARK 923 INTER-LIGAND FREE ENERGY PREDICTED BY IDOCK:   -8.11 KCAL/MOL
REMARK 924 INTRA-LIGAND FREE ENERGY PREDICTED BY IDOCK:   -1.34 KCAL/MOL
REMARK 927      BINDING AFFINITY PREDICTED BY RF-SCORE:    0.00 PKD
ROOT
HETATM    1  C   UNL     1     -11.961  12.688  66.619  1.00  0.00    -0.382 C  
HETATM    2  C   UNL     1     -10.586  12.820  67.204  1.00  0.00    -0.249 A  
HETATM    3  C   UNL     1      -9.926  11.728  67.806  1.00  0.00    -0.190 A  
HETATM    4  C   UNL     1      -8.581  11.846  68.156  1.00  0.00    -0.165 A  
HETATM    5  N   UNL     1      -8.591  14.164  67.519  1.00  0.00    -0.178 NA 
HETATM    6  C   UNL     1      -7.960  13.062  67.979  1.00  0.00    -0.155 A  
HETATM    7  C   UNL     1      -9.898  14.047  67.156  1.00  0.00    -0.240 A  
ENDROOT
BRANCH   3   8
HETATM    8  O   UNL     1     -10.443  10.477  68.041  1.00  0.00    -0.174 OA 
BRANCH   8   9
HETATM    9  C   UNL     1     -10.500  10.052  69.413  1.00  0.00    -0.232 C  
HETATM   10  C   UNL     1     -11.787  10.471  70.122  1.00  0.00    -0.320 C  
HETATM   11  F   UNL     1     -11.537  11.419  71.057  1.00  0.00    -0.278 F  
HETATM   12  F   UNL     1     -12.334   9.414  70.772  1.00  0.00    -0.311 F  
HETATM   13  F   UNL     1     -12.727  10.958  69.285  1.00  0.00    -0.311 F  
ENDBRANCH   8   9
ENDBRANCH   3   8
BRANCH   7  14
HETATM   14  C   UNL     1     -10.544  15.354  66.727  1.00  0.00    -0.309 C  
BRANCH  14  15
HETATM   15  S   UNL     1     -10.252  16.679  67.913  1.00  0.00    -0.295 S  
HETATM   16  O   UNL     1     -10.781  18.004  67.443  1.00  0.00    -0.390 OA 
BRANCH  15  17
HETATM   17  C   UNL     1     -11.292  16.189  69.215  1.00  0.00    -0.328 A  
HETATM   18  N   UNL     1     -12.185  15.224  69.171  1.00  0.00    -0.585 NA 
HETATM   19  C   UNL     1     -12.575  15.038  70.479  1.00  0.00    -0.369 A  
HETATM   20  H   UNL     1     -12.516  14.722  68.347  1.00  0.00     0.000 HD 
HETATM   21  C   UNL     1     -13.456  14.091  71.029  1.00  0.00    -0.178 A  
HETATM   22  C   UNL     1     -13.605  14.039  72.421  1.00  0.00    -0.658 A  
HETATM   23  C   UNL     1     -12.905  14.918  73.249  1.00  0.00    -0.646 A  
HETATM   24  C   UNL     1     -12.057  15.899  72.719  1.00  0.00    -0.611 A  
HETATM   25  C   UNL     1     -11.921  15.926  71.327  1.00  0.00    -0.442 A  
HETATM   26  N   UNL     1     -11.186  16.713  70.479  1.00  0.00    -0.112 NA 
ENDBRANCH  15  17
ENDBRANCH  14  15
ENDBRANCH   7  14
TORSDOF 5
ENDMDL
MODEL       21
REMARK 921   NORMALIZED FREE ENERGY PREDICTED BY IDOCK:   -6.64 KCAL/MOL
REMARK 922        TOTAL FREE ENERGY PREDICTED BY IDOCK:   -9.42 KCAL/MOL
REMARK 923 INTER-LIGAND FREE ENERGY PREDICTED BY IDOCK:   -8.11 KCAL/MOL
REMARK 924 INTRA-LIGAND FREE ENERGY PREDICTED BY IDOCK:   -1.31 KCAL/MOL
REMARK 927      BINDING AFFINITY PREDICTED BY RF-SCORE:    0.00 PKD
ROOT
HETATM    1  C   UNL     1      -9.698  17.279  68.831  1.00  0.00    -0.251 C  
HETATM    2  C   UNL     1      -8.254  17.645  68.654  1.00  0.00    -0.264 A  
HETATM    3  C   UNL     1      -7.862  18.893  68.124  1.00  0.00    -0.297 A  
HETATM    4  C   UNL     1      -6.519  19.265  68.164  1.00  0.00    -0.249 A  
HETATM    5  N   UNL     1      -5.920  17.111  69.046  1.00  0.00    -0.166 NA 
HETATM    6  C   UNL     1      -5.599  18.360  68.643  1.00  0.00    -0.182 A  
HETATM    7  C   UNL     1      -7.233  16.752  69.030  1.00  0.00    -0.225 A  
ENDROOT
BRANCH   3   8
HETATM    8  O   UNL     1      -8.685  19.868  67.613  1.00  0.00    -0.320 OA 
BRANCH   8   9
HETATM    9  C   UNL     1      -9.039  19.746  66.225  1.00  0.00    -0.379 C  
HETATM   10  C   UNL     1     -10.518  19.432  66.004  1.00  0.00    -0.505 C  
HETATM   11  F   UNL     1     -10.680  18.172  65.533  1.00  0.00    -0.436 F  
HETATM   12  F   UNL     1     -11.045  20.269  65.076  1.00  0.00    -0.457 F  
HETATM   13  F   UNL     1     -11.264  19.550  67.123  1.00  0.00    -0.572 F  
ENDBRANCH   8   9
ENDBRANCH   3   8
BRANCH   7  14
HETATM   14  C   UNL     1      -7.487  15.306  69.424  1.00  0.00    -0.212 C  
BRANCH  14  15
HETATM   15  S   UNL     1      -7.176  14.166  68.065  1.00  0.00    -0.164 S  
HETATM   16  O   UNL     1      -7.016  12.745  68.525  1.00  0.00    -0.082 OA 
BRANCH  15  17
HETATM   17  C   UNL     1      -8.700  14.223  67.232  1.00  0.00    -0.218 A  
HETATM   18  N   UNL     1      -8.978  14.958  66.177  1.00  0.00    -0.489 NA 
HETATM   19  C   UNL     1     -10.194  14.492  65.727  1.00  0.00    -0.335 A  
HETATM   20  H   UNL     1      -8.416  15.710  65.778  1.00  0.00     0.000 HD 
HETATM   21  C   UNL     1     -10.936  14.865  64.593  1.00  0.00    -0.323 A  
HETATM   22  C   UNL     1     -12.106  14.156  64.292  1.00  0.00    -0.471 A  
HETATM   23  C   UNL     1     -12.539  13.109  65.108  1.00  0.00    -0.525 A  
HETATM   24  C   UNL     1     -11.838  12.751  66.267  1.00  0.00    -0.485 A  
HETATM   25  C   UNL     1     -10.671  13.470  66.542  1.00  0.00    -0.287 A  
HETATM   26  N   UNL     1      -9.744  13.391  67.549  1.00  0.00    -0.219 NA 
ENDBRANCH  15  17
ENDBRANCH  14  15
ENDBRANCH   7  14
TORSDOF 5
ENDMDL
MODEL       22
REMARK 921   NORMALIZED FREE ENERGY PREDICTED BY IDOCK:   -6.64 KCAL/MOL
REMARK 922        TOTAL FREE ENERGY PREDICTED BY IDOCK:   -9.41 KCAL/MOL
REMARK 923 INTER-LIGAND FREE ENERGY PREDICTED BY IDOCK:   -8.73 KCAL/MOL
REMARK 924 INTRA-LIGAND FREE ENERGY PREDICTED BY IDOCK:   -0.68 KCAL/MOL
REMARK 927      BINDING AFFINITY PREDICTED BY RF-SCORE:    0.00 PKD
ROOT
HETATM    1  C   UNL     1      -8.330  14.778  68.085  1.00  0.00    -0.144 C  
HETATM    2  C   UNL     1      -9.313  14.771  66.953  1.00  0.00    -0.256 A  
HETATM    3  C   UNL     1      -9.995  15.940  66.552  1.00  0.00    -0.272 A  
HETATM    4  C   UNL     1     -10.744  15.930  65.376  1.00  0.00    -0.415 A  
HETATM    5  N   UNL     1     -10.328  13.579  65.100  1.00  0.00    -0.347 NA 
HETATM    6  C   UNL     1     -10.866  14.747  64.683  1.00  0.00    -0.292 A  
HETATM    7  C   UNL     1      -9.578  13.590  66.235  1.00  0.00    -0.232 A  
ENDROOT
BRANCH   3   8
HETATM    8  O   UNL     1      -9.957  17.169  67.165  1.00  0.00    -0.267 OA 
BRANCH   8   9
HETATM    9  C   UNL     1      -9.486  18.269  66.369  1.00  0.00    -0.286 C  
HETATM   10  C   UNL     1     -10.362  19.516  66.480  1.00  0.00    -0.482 C  
HETATM   11  F   UNL     1     -11.023  19.747  65.320  1.00  0.00    -0.581 F  
HETATM   12  F   UNL     1      -9.599  20.610  66.721  1.00  0.00    -0.509 F  
HETATM   13  F   UNL     1     -11.280  19.440  67.466  1.00  0.00    -0.545 F  
ENDBRANCH   8   9
ENDBRANCH   3   8
BRANCH   7  14
HETATM   14  C   UNL     1      -9.082  12.219  66.666  1.00  0.00    -0.203 C  
BRANCH  14  15
HETATM   15  S   UNL     1     -10.320  10.935  66.406  1.00  0.00    -0.247 S  
HETATM   16  O   UNL     1      -9.745   9.550  66.491  1.00  0.00    -0.189 OA 
BRANCH  15  17
HETATM   17  C   UNL     1     -11.298  11.129  67.829  1.00  0.00    -0.293 A  
HETATM   18  N   UNL     1     -11.706  10.164  68.625  1.00  0.00    -0.607 NA 
HETATM   19  C   UNL     1     -12.222  10.805  69.729  1.00  0.00    -0.288 A  
HETATM   20  H   UNL     1     -11.652   9.159  68.460  1.00  0.00     0.000 HD 
HETATM   21  C   UNL     1     -12.735  10.269  70.922  1.00  0.00    -0.462 A  
HETATM   22  C   UNL     1     -13.104  11.146  71.951  1.00  0.00    -0.513 A  
HETATM   23  C   UNL     1     -12.979  12.528  71.793  1.00  0.00    -0.419 A  
HETATM   24  C   UNL     1     -12.512  13.085  70.595  1.00  0.00    -0.347 A  
HETATM   25  C   UNL     1     -12.146  12.187  69.586  1.00  0.00    -0.218 A  
HETATM   26  N   UNL     1     -11.643  12.362  68.323  1.00  0.00    -0.312 NA 
ENDBRANCH  15  17
ENDBRANCH  14  15
ENDBRANCH   7  14
TORSDOF 5
ENDMDL
MODEL       23
REMARK 921   NORMALIZED FREE ENERGY PREDICTED BY IDOCK:   -6.62 KCAL/MOL
REMARK 922        TOTAL FREE ENERGY PREDICTED BY IDOCK:   -9.38 KCAL/MOL
REMARK 923 INTER-LIGAND FREE ENERGY PREDICTED BY IDOCK:   -8.46 KCAL/MOL
REMARK 924 INTRA-LIGAND FREE ENERGY PREDICTED BY IDOCK:   -0.92 KCAL/MOL
REMARK 927      BINDING AFFINITY PREDICTED BY RF-SCORE:    0.00 PKD
ROOT
HETATM    1  C   UNL     1     -11.827  15.081  68.901  1.00  0.00    -0.337 C  
HETATM    2  C   UNL     1     -12.164  14.000  69.886  1.00  0.00    -0.399 A  
HETATM    3  C   UNL     1     -13.010  14.237  70.990  1.00  0.00    -0.342 A  
HETATM    4  C   UNL     1     -13.452  13.162  71.761  1.00  0.00    -0.420 A  
HETATM    5  N   UNL     1     -12.072  11.654  70.497  1.00  0.00    -0.377 NA 
HETATM    6  C   UNL     1     -12.976  11.905  71.469  1.00  0.00    -0.323 A  
HETATM    7  C   UNL     1     -11.655  12.697  69.729  1.00  0.00    -0.214 A  
ENDROOT
BRANCH   3   8
HETATM    8  O   UNL     1     -13.539  15.444  71.382  1.00  0.00    -0.479 OA 
BRANCH   8   9
HETATM    9  C   UNL     1     -13.569  15.703  72.795  1.00  0.00    -0.593 C  
HETATM   10  C   UNL     1     -12.184  15.931  73.398  1.00  0.00    -0.520 C  
HETATM   11  F   UNL     1     -11.833  14.901  74.206  1.00  0.00    -0.618 F  
HETATM   12  F   UNL     1     -12.179  17.050  74.164  1.00  0.00    -0.512 F  
HETATM   13  F   UNL     1     -11.213  16.073  72.472  1.00  0.00    -0.381 F  
ENDBRANCH   8   9
ENDBRANCH   3   8
BRANCH   7  14
HETATM   14  C   UNL     1     -10.581  12.334  68.717  1.00  0.00    -0.194 C  
BRANCH  14  15
HETATM   15  S   UNL     1     -11.252  11.442  67.303  1.00  0.00    -0.280 S  
HETATM   16  O   UNL     1     -10.551  11.782  66.018  1.00  0.00    -0.244 OA 
BRANCH  15  17
HETATM   17  C   UNL     1     -10.776   9.816  67.684  1.00  0.00    -0.274 A  
HETATM   18  N   UNL     1     -10.561   9.335  68.890  1.00  0.00    -0.268 NA 
HETATM   19  C   UNL     1     -10.459   7.972  68.719  1.00  0.00    -0.173 A  
HETATM   20  H   UNL     1     -10.486   9.858  69.763  1.00  0.00     0.000 HD 
HETATM   21  C   UNL     1     -10.299   6.955  69.675  1.00  0.00    -0.224 A  
HETATM   22  C   UNL     1     -10.332   5.620  69.251  1.00  0.00    -0.340 A  
HETATM   23  C   UNL     1     -10.505   5.302  67.903  1.00  0.00    -0.154 A  
HETATM   24  C   UNL     1     -10.622   6.301  66.927  1.00  0.00    -0.374 A  
HETATM   25  C   UNL     1     -10.592   7.625  67.378  1.00  0.00    -0.286 A  
HETATM   26  N   UNL     1     -10.693   8.830  66.733  1.00  0.00    -0.139 NA 
ENDBRANCH  15  17
ENDBRANCH  14  15
ENDBRANCH   7  14
TORSDOF 5
ENDMDL
MODEL       24
REMARK 921   NORMALIZED FREE ENERGY PREDICTED BY IDOCK:   -6.61 KCAL/MOL
REMARK 922        TOTAL FREE ENERGY PREDICTED BY IDOCK:   -9.37 KCAL/MOL
REMARK 923 INTER-LIGAND FREE ENERGY PREDICTED BY IDOCK:   -8.38 KCAL/MOL
REMARK 924 INTRA-LIGAND FREE ENERGY PREDICTED BY IDOCK:   -0.99 KCAL/MOL
REMARK 927      BINDING AFFINITY PREDICTED BY RF-SCORE:    0.00 PKD
ROOT
HETATM    1  C   UNL     1     -11.043  16.500  64.624  1.00  0.00    -0.135 C  
HETATM    2  C   UNL     1      -9.978  15.821  65.433  1.00  0.00    -0.273 A  
HETATM    3  C   UNL     1      -9.005  16.554  66.147  1.00  0.00    -0.309 A  
HETATM    4  C   UNL     1      -8.163  15.890  67.039  1.00  0.00    -0.255 A  
HETATM    5  N   UNL     1      -9.084  13.772  66.376  1.00  0.00    -0.130 NA 
HETATM    6  C   UNL     1      -8.250  14.520  67.131  1.00  0.00    -0.188 A  
HETATM    7  C   UNL     1      -9.923  14.417  65.521  1.00  0.00    -0.329 A  
ENDROOT
BRANCH   3   8
HETATM    8  O   UNL     1      -8.819  17.915  66.129  1.00  0.00    -0.452 OA 
BRANCH   8   9
HETATM    9  C   UNL     1      -9.417  18.660  67.203  1.00  0.00    -0.295 C  
HETATM   10  C   UNL     1     -10.277  19.828  66.724  1.00  0.00    -0.462 C  
HETATM   11  F   UNL     1      -9.697  21.013  67.031  1.00  0.00    -0.567 F  
HETATM   12  F   UNL     1     -11.484  19.811  67.340  1.00  0.00    -0.399 F  
HETATM   13  F   UNL     1     -10.503  19.816  65.393  1.00  0.00    -0.484 F  
ENDBRANCH   8   9
ENDBRANCH   3   8
BRANCH   7  14
HETATM   14  C   UNL     1     -10.765  13.491  64.658  1.00  0.00    -0.416 C  
BRANCH  14  15
HETATM   15  S   UNL     1     -12.309  13.027  65.464  1.00  0.00    -0.434 S  
HETATM   16  O   UNL     1     -13.242  12.288  64.547  1.00  0.00    -0.799 OA 
BRANCH  15  17
HETATM   17  C   UNL     1     -11.741  11.851  66.609  1.00  0.00    -0.186 A  
HETATM   18  N   UNL     1     -10.742  11.013  66.427  1.00  0.00    -0.252 NA 
HETATM   19  C   UNL     1     -10.503  10.467  67.669  1.00  0.00    -0.233 A  
HETATM   20  H   UNL     1     -10.252  10.812  65.556  1.00  0.00     0.000 HD 
HETATM   21  C   UNL     1      -9.506   9.565  68.078  1.00  0.00    -0.147 A  
HETATM   22  C   UNL     1      -9.407   9.242  69.437  1.00  0.00    -0.164 A  
HETATM   23  C   UNL     1     -10.289   9.791  70.370  1.00  0.00    -0.354 A  
HETATM   24  C   UNL     1     -11.318  10.657  69.977  1.00  0.00    -0.400 A  
HETATM   25  C   UNL     1     -11.391  10.968  68.615  1.00  0.00    -0.281 A  
HETATM   26  N   UNL     1     -12.230  11.772  67.888  1.00  0.00    -0.437 NA 
ENDBRANCH  15  17
ENDBRANCH  14  15
ENDBRANCH   7  14
TORSDOF 5
ENDMDL
MODEL       25
REMARK 921   NORMALIZED FREE ENERGY PREDICTED BY IDOCK:   -6.50 KCAL/MOL
REMARK 922        TOTAL FREE ENERGY PREDICTED BY IDOCK:   -9.23 KCAL/MOL
REMARK 923 INTER-LIGAND FREE ENERGY PREDICTED BY IDOCK:   -8.52 KCAL/MOL
REMARK 924 INTRA-LIGAND FREE ENERGY PREDICTED BY IDOCK:   -0.70 KCAL/MOL
REMARK 927      BINDING AFFINITY PREDICTED BY RF-SCORE:    0.00 PKD
ROOT
HETATM    1  C   UNL     1     -10.872  10.511  67.022  1.00  0.00    -0.288 C  
HETATM    2  C   UNL     1     -11.214  11.632  67.959  1.00  0.00    -0.327 A  
HETATM    3  C   UNL     1     -11.429  12.948  67.497  1.00  0.00    -0.335 A  
HETATM    4  C   UNL     1     -11.937  13.908  68.371  1.00  0.00    -0.391 A  
HETATM    5  N   UNL     1     -11.824  12.347  70.195  1.00  0.00    -0.305 NA 
HETATM    6  C   UNL     1     -12.132  13.561  69.689  1.00  0.00    -0.306 A  
HETATM    7  C   UNL     1     -11.349  11.400  69.340  1.00  0.00    -0.297 A  
ENDROOT
BRANCH   3   8
HETATM    8  O   UNL     1     -11.261  13.411  66.214  1.00  0.00    -0.298 OA 
BRANCH   8   9
HETATM    9  C   UNL     1     -12.417  13.369  65.360  1.00  0.00    -0.494 C  
HETATM   10  C   UNL     1     -12.207  12.535  64.098  1.00  0.00    -0.467 C  
HETATM   11  F   UNL     1     -12.170  13.324  62.997  1.00  0.00    -0.619 F  
HETATM   12  F   UNL     1     -13.235  11.669  63.926  1.00  0.00    -0.478 F  
HETATM   13  F   UNL     1     -11.069  11.809  64.119  1.00  0.00    -0.343 F  
ENDBRANCH   8   9
ENDBRANCH   3   8
BRANCH   7  14
HETATM   14  C   UNL     1     -10.956  10.095  70.014  1.00  0.00    -0.307 C  
BRANCH  14  15
HETATM   15  S   UNL     1     -11.943   9.764  71.484  1.00  0.00    -0.388 S  
HETATM   16  O   UNL     1     -13.399   9.565  71.171  1.00  0.00    -0.337 OA 
BRANCH  15  17
HETATM   17  C   UNL     1     -11.339   8.200  71.939  1.00  0.00    -0.296 A  
HETATM   18  N   UNL     1     -11.852   7.410  72.858  1.00  0.00    -0.574 NA 
HETATM   19  C   UNL     1     -11.208   6.204  72.693  1.00  0.00    -0.274 A  
HETATM   20  H   UNL     1     -12.570   7.641  73.545  1.00  0.00     0.000 HD 
HETATM   21  C   UNL     1     -11.405   4.981  73.355  1.00  0.00    -0.345 A  
HETATM   22  C   UNL     1     -10.688   3.857  72.924  1.00  0.00    -0.208 A  
HETATM   23  C   UNL     1      -9.781   3.950  71.866  1.00  0.00    -0.239 A  
HETATM   24  C   UNL     1      -9.536   5.170  71.221  1.00  0.00    -0.218 A  
HETATM   25  C   UNL     1     -10.270   6.274  71.668  1.00  0.00    -0.194 A  
HETATM   26  N   UNL     1     -10.308   7.587  71.274  1.00  0.00    -0.193 NA 
ENDBRANCH  15  17
ENDBRANCH  14  15
ENDBRANCH   7  14
TORSDOF 5
ENDMDL
MODEL       26
REMARK 921   NORMALIZED FREE ENERGY PREDICTED BY IDOCK:   -6.48 KCAL/MOL
REMARK 922        TOTAL FREE ENERGY PREDICTED BY IDOCK:   -9.21 KCAL/MOL
REMARK 923 INTER-LIGAND FREE ENERGY PREDICTED BY IDOCK:   -8.16 KCAL/MOL
REMARK 924 INTRA-LIGAND FREE ENERGY PREDICTED BY IDOCK:   -1.05 KCAL/MOL
REMARK 927      BINDING AFFINITY PREDICTED BY RF-SCORE:    0.00 PKD
ROOT
HETATM    1  C   UNL     1     -11.370  11.213  67.083  1.00  0.00    -0.257 C  
HETATM    2  C   UNL     1     -11.584  12.380  66.165  1.00  0.00    -0.452 A  
HETATM    3  C   UNL     1     -11.534  12.242  64.762  1.00  0.00    -0.329 A  
HETATM    4  C   UNL     1     -11.933  13.305  63.952  1.00  0.00    -0.541 A  
HETATM    5  N   UNL     1     -12.227  14.702  65.886  1.00  0.00    -0.226 NA 
HETATM    6  C   UNL     1     -12.283  14.493  64.552  1.00  0.00    -0.465 A  
HETATM    7  C   UNL     1     -11.860  13.661  66.680  1.00  0.00    -0.409 A  
ENDROOT
BRANCH   3   8
HETATM    8  O   UNL     1     -11.194  11.114  64.054  1.00  0.00    -0.272 OA 
BRANCH   8   9
HETATM    9  C   UNL     1      -9.836  11.035  63.587  1.00  0.00    -0.351 C  
HETATM   10  C   UNL     1      -8.969  10.082  64.407  1.00  0.00    -0.231 C  
HETATM   11  F   UNL     1      -8.045  10.766  65.124  1.00  0.00    -0.161 F  
HETATM   12  F   UNL     1      -8.288   9.241  63.590  1.00  0.00    -0.144 F  
HETATM   13  F   UNL     1      -9.676   9.322  65.269  1.00  0.00    -0.333 F  
ENDBRANCH   8   9
ENDBRANCH   3   8
BRANCH   7  14
HETATM   14  C   UNL     1     -11.749  14.012  68.155  1.00  0.00    -0.352 C  
BRANCH  14  15
HETATM   15  S   UNL     1     -10.057  14.408  68.634  1.00  0.00    -0.236 S  
HETATM   16  O   UNL     1      -9.041  13.561  67.924  1.00  0.00    -0.186 OA 
BRANCH  15  17
HETATM   17  C   UNL     1      -9.892  16.004  67.968  1.00  0.00    -0.222 A  
HETATM   18  N   UNL     1     -10.859  16.883  67.817  1.00  0.00    -0.323 NA 
HETATM   19  C   UNL     1     -10.222  18.063  67.496  1.00  0.00    -0.369 A  
HETATM   20  H   UNL     1     -11.862  16.727  67.916  1.00  0.00     0.000 HD 
HETATM   21  C   UNL     1     -10.756  19.346  67.292  1.00  0.00    -0.603 A  
HETATM   22  C   UNL     1      -9.876  20.416  67.080  1.00  0.00    -0.601 A  
HETATM   23  C   UNL     1      -8.496  20.212  67.056  1.00  0.00    -0.397 A  
HETATM   24  C   UNL     1      -7.944  18.934  67.213  1.00  0.00    -0.261 A  
HETATM   25  C   UNL     1      -8.844  17.884  67.429  1.00  0.00    -0.245 A  
HETATM   26  N   UNL     1      -8.673  16.540  67.636  1.00  0.00    -0.189 NA 
ENDBRANCH  15  17
ENDBRANCH  14  15
ENDBRANCH   7  14
TORSDOF 5
ENDMDL
MODEL       27
REMARK 921   NORMALIZED FREE ENERGY PREDICTED BY IDOCK:   -6.48 KCAL/MOL
REMARK 922        TOTAL FREE ENERGY PREDICTED BY IDOCK:   -9.21 KCAL/MOL
REMARK 923 INTER-LIGAND FREE ENERGY PREDICTED BY IDOCK:   -8.23 KCAL/MOL
REMARK 924 INTRA-LIGAND FREE ENERGY PREDICTED BY IDOCK:   -0.98 KCAL/MOL
REMARK 927      BINDING AFFINITY PREDICTED BY RF-SCORE:    0.00 PKD
ROOT
HETATM    1  C   UNL     1     -11.455  13.635  68.232  1.00  0.00    -0.348 C  
HETATM    2  C   UNL     1     -11.857  12.770  69.390  1.00  0.00    -0.359 A  
HETATM    3  C   UNL     1     -12.295  13.320  70.613  1.00  0.00    -0.339 A  
HETATM    4  C   UNL     1     -12.843  12.485  71.585  1.00  0.00    -0.368 A  
HETATM    5  N   UNL     1     -12.340  10.553  70.247  1.00  0.00    -0.308 NA 
HETATM    6  C   UNL     1     -12.860  11.128  71.354  1.00  0.00    -0.439 A  
HETATM    7  C   UNL     1     -11.824  11.367  69.287  1.00  0.00    -0.349 A  
ENDROOT
BRANCH   3   8
HETATM    8  O   UNL     1     -12.317  14.650  70.960  1.00  0.00    -0.290 OA 
BRANCH   8   9
HETATM    9  C   UNL     1     -11.556  15.024  72.121  1.00  0.00    -0.312 C  
HETATM   10  C   UNL     1     -12.299  15.985  73.047  1.00  0.00    -0.520 C  
HETATM   11  F   UNL     1     -11.730  17.215  73.023  1.00  0.00    -0.508 F  
HETATM   12  F   UNL     1     -12.238  15.549  74.329  1.00  0.00    -0.586 F  
HETATM   13  F   UNL     1     -13.603  16.132  72.733  1.00  0.00    -0.558 F  
ENDBRANCH   8   9
ENDBRANCH   3   8
BRANCH   7  14
HETATM   14  C   UNL     1     -11.192  10.627  68.119  1.00  0.00    -0.302 C  
BRANCH  14  15
HETATM   15  S   UNL     1      -9.459  10.233  68.420  1.00  0.00    -0.151 S  
HETATM   16  O   UNL     1      -8.675  11.415  68.916  1.00  0.00    -0.116 OA 
BRANCH  15  17
HETATM   17  C   UNL     1      -9.599   9.157  69.776  1.00  0.00    -0.181 A  
HETATM   18  N   UNL     1      -9.400   9.472  71.038  1.00  0.00    -0.310 NA 
HETATM   19  C   UNL     1      -9.863   8.390  71.755  1.00  0.00    -0.243 A  
HETATM   20  H   UNL     1      -8.991  10.330  71.407  1.00  0.00     0.000 HD 
HETATM   21  C   UNL     1      -9.961   8.206  73.144  1.00  0.00    -0.233 A  
HETATM   22  C   UNL     1     -10.577   7.044  73.628  1.00  0.00    -0.383 A  
HETATM   23  C   UNL     1     -11.071   6.078  72.751  1.00  0.00    -0.305 A  
HETATM   24  C   UNL     1     -10.943   6.220  71.363  1.00  0.00    -0.327 A  
HETATM   25  C   UNL     1     -10.330   7.391  70.905  1.00  0.00    -0.200 A  
HETATM   26  N   UNL     1     -10.056   7.869  69.650  1.00  0.00    -0.193 NA 
ENDBRANCH  15  17
ENDBRANCH  14  15
ENDBRANCH   7  14
TORSDOF 5
ENDMDL
MODEL       28
REMARK 921   NORMALIZED FREE ENERGY PREDICTED BY IDOCK:   -6.48 KCAL/MOL
REMARK 922        TOTAL FREE ENERGY PREDICTED BY IDOCK:   -9.20 KCAL/MOL
REMARK 923 INTER-LIGAND FREE ENERGY PREDICTED BY IDOCK:   -8.37 KCAL/MOL
REMARK 924 INTRA-LIGAND FREE ENERGY PREDICTED BY IDOCK:   -0.84 KCAL/MOL
REMARK 927      BINDING AFFINITY PREDICTED BY RF-SCORE:    0.00 PKD
ROOT
HETATM    1  C   UNL     1     -10.024  15.304  65.233  1.00  0.00    -0.322 C  
HETATM    2  C   UNL     1      -9.316  15.538  66.534  1.00  0.00    -0.311 A  
HETATM    3  C   UNL     1      -8.659  16.755  66.815  1.00  0.00    -0.232 A  
HETATM    4  C   UNL     1      -8.188  17.000  68.105  1.00  0.00    -0.217 A  
HETATM    5  N   UNL     1      -8.816  14.782  68.785  1.00  0.00    -0.179 NA 
HETATM    6  C   UNL     1      -8.303  16.005  69.048  1.00  0.00    -0.243 A  
HETATM    7  C   UNL     1      -9.297  14.547  67.534  1.00  0.00    -0.193 A  
ENDROOT
BRANCH   3   8
HETATM    8  O   UNL     1      -8.477  17.813  65.957  1.00  0.00    -0.496 OA 
BRANCH   8   9
HETATM    9  C   UNL     1      -8.804  19.117  66.466  1.00  0.00    -0.334 C  
HETATM   10  C   UNL     1     -10.224  19.562  66.120  1.00  0.00    -0.496 C  
HETATM   11  F   UNL     1     -10.207  20.579  65.225  1.00  0.00    -0.403 F  
HETATM   12  F   UNL     1     -10.858  20.023  67.226  1.00  0.00    -0.508 F  
HETATM   13  F   UNL     1     -10.985  18.574  65.602  1.00  0.00    -0.398 F  
ENDBRANCH   8   9
ENDBRANCH   3   8
BRANCH   7  14
HETATM   14  C   UNL     1      -9.779  13.123  67.310  1.00  0.00    -0.230 C  
BRANCH  14  15
HETATM   15  S   UNL     1     -11.537  12.937  67.661  1.00  0.00    -0.369 S  
HETATM   16  O   UNL     1     -12.264  12.175  66.590  1.00  0.00    -0.566 OA 
BRANCH  15  17
HETATM   17  C   UNL     1     -11.487  11.882  69.040  1.00  0.00    -0.297 A  
HETATM   18  N   UNL     1     -12.493  11.610  69.843  1.00  0.00    -0.121 NA 
HETATM   19  C   UNL     1     -12.058  10.556  70.617  1.00  0.00    -0.356 A  
HETATM   20  H   UNL     1     -13.398  12.078  69.885  1.00  0.00     0.000 HD 
HETATM   21  C   UNL     1     -12.743   9.815  71.594  1.00  0.00    -0.517 A  
HETATM   22  C   UNL     1     -12.107   8.707  72.169  1.00  0.00    -0.451 A  
HETATM   23  C   UNL     1     -10.811   8.351  71.792  1.00  0.00    -0.353 A  
HETATM   24  C   UNL     1     -10.093   9.102  70.851  1.00  0.00    -0.356 A  
HETATM   25  C   UNL     1     -10.753  10.200  70.289  1.00  0.00    -0.293 A  
HETATM   26  N   UNL     1     -10.383  11.128  69.351  1.00  0.00    -0.124 NA 
ENDBRANCH  15  17
ENDBRANCH  14  15
ENDBRANCH   7  14
TORSDOF 5
ENDMDL
MODEL       29
REMARK 921   NORMALIZED FREE ENERGY PREDICTED BY IDOCK:   -6.42 KCAL/MOL
REMARK 922        TOTAL FREE ENERGY PREDICTED BY IDOCK:   -9.13 KCAL/MOL
REMARK 923 INTER-LIGAND FREE ENERGY PREDICTED BY IDOCK:   -8.17 KCAL/MOL
REMARK 924 INTRA-LIGAND FREE ENERGY PREDICTED BY IDOCK:   -0.96 KCAL/MOL
REMARK 927      BINDING AFFINITY PREDICTED BY RF-SCORE:    0.00 PKD
ROOT
HETATM    1  C   UNL     1     -11.733  11.623  67.985  1.00  0.00    -0.351 C  
HETATM    2  C   UNL     1     -11.163  11.903  66.626  1.00  0.00    -0.384 A  
HETATM    3  C   UNL     1     -10.374  10.955  65.940  1.00  0.00    -0.250 A  
HETATM    4  C   UNL     1     -10.035  11.180  64.606  1.00  0.00    -0.345 A  
HETATM    5  N   UNL     1     -11.059  13.353  64.684  1.00  0.00    -0.348 NA 
HETATM    6  C   UNL     1     -10.409  12.369  64.023  1.00  0.00    -0.409 A  
HETATM    7  C   UNL     1     -11.412  13.128  65.978  1.00  0.00    -0.335 A  
ENDROOT
BRANCH   3   8
HETATM    8  O   UNL     1      -9.935   9.744  66.419  1.00  0.00    -0.217 OA 
BRANCH   8   9
HETATM    9  C   UNL     1      -8.586   9.374  66.087  1.00  0.00    -0.136 C  
HETATM   10  C   UNL     1      -7.550   9.925  67.065  1.00  0.00    -0.092 C  
HETATM   11  F   UNL     1      -6.791  10.880  66.476  1.00  0.00    -0.099 F  
HETATM   12  F   UNL     1      -6.705   8.942  67.463  1.00  0.00    -0.062 F  
HETATM   13  F   UNL     1      -8.095  10.462  68.177  1.00  0.00    -0.104 F  
ENDBRANCH   8   9
ENDBRANCH   3   8
BRANCH   7  14
HETATM   14  C   UNL     1     -12.067  14.318  66.660  1.00  0.00    -0.420 C  
BRANCH  14  15
HETATM   15  S   UNL     1     -10.871  15.340  67.540  1.00  0.00    -0.309 S  
HETATM   16  O   UNL     1     -10.740  16.716  66.950  1.00  0.00    -0.266 OA 
BRANCH  15  17
HETATM   17  C   UNL     1     -11.680  15.555  69.062  1.00  0.00    -0.377 A  
HETATM   18  N   UNL     1     -12.800  14.972  69.432  1.00  0.00    -0.351 NA 
HETATM   19  C   UNL     1     -12.915  15.241  70.779  1.00  0.00    -0.436 A  
HETATM   20  H   UNL     1     -13.444  14.437  68.850  1.00  0.00     0.000 HD 
HETATM   21  C   UNL     1     -13.881  14.809  71.703  1.00  0.00    -0.535 A  
HETATM   22  C   UNL     1     -13.714  15.136  73.055  1.00  0.00    -0.390 A  
HETATM   23  C   UNL     1     -12.618  15.889  73.479  1.00  0.00    -0.695 A  
HETATM   24  C   UNL     1     -11.666  16.367  72.568  1.00  0.00    -0.447 A  
HETATM   25  C   UNL     1     -11.854  16.022  71.225  1.00  0.00    -0.449 A  
HETATM   26  N   UNL     1     -11.137  16.288  70.087  1.00  0.00    -0.361 NA 
ENDBRANCH  15  17
ENDBRANCH  14  15
ENDBRANCH   7  14
TORSDOF 5
ENDMDL
MODEL       30
REMARK 921   NORMALIZED FREE ENERGY PREDICTED BY IDOCK:   -6.38 KCAL/MOL
REMARK 922        TOTAL FREE ENERGY PREDICTED BY IDOCK:   -9.07 KCAL/MOL
REMARK 923 INTER-LIGAND FREE ENERGY PREDICTED BY IDOCK:   -8.28 KCAL/MOL
REMARK 924 INTRA-LIGAND FREE ENERGY PREDICTED BY IDOCK:   -0.79 KCAL/MOL
REMARK 927      BINDING AFFINITY PREDICTED BY RF-SCORE:    0.00 PKD
ROOT
HETATM    1  C   UNL     1     -12.953  10.205  71.136  1.00  0.00    -0.488 C  
HETATM    2  C   UNL     1     -11.524  10.103  70.692  1.00  0.00    -0.432 A  
HETATM    3  C   UNL     1     -10.609   9.233  71.323  1.00  0.00    -0.347 A  
HETATM    4  C   UNL     1      -9.353   9.026  70.754  1.00  0.00    -0.305 A  
HETATM    5  N   UNL     1      -9.814  10.677  69.070  1.00  0.00    -0.201 NA 
HETATM    6  C   UNL     1      -9.011   9.747  69.633  1.00  0.00    -0.215 A  
HETATM    7  C   UNL     1     -11.048  10.867  69.609  1.00  0.00    -0.266 A  
ENDROOT
BRANCH   3   8
HETATM    8  O   UNL     1     -10.833   8.472  72.445  1.00  0.00    -0.346 OA 
BRANCH   8   9
HETATM    9  C   UNL     1     -10.427   7.095  72.378  1.00  0.00    -0.218 C  
HETATM   10  C   UNL     1     -11.521   6.166  71.856  1.00  0.00    -0.300 C  
HETATM   11  F   UNL     1     -11.978   5.355  72.840  1.00  0.00    -0.352 F  
HETATM   12  F   UNL     1     -11.033   5.362  70.880  1.00  0.00    -0.315 F  
HETATM   13  F   UNL     1     -12.582   6.824  71.342  1.00  0.00    -0.370 F  
ENDBRANCH   8   9
ENDBRANCH   3   8
BRANCH   7  14
HETATM   14  C   UNL     1     -11.846  11.986  68.960  1.00  0.00    -0.315 C  
BRANCH  14  15
HETATM   15  S   UNL     1     -11.215  12.412  67.327  1.00  0.00    -0.323 S  
HETATM   16  O   UNL     1     -12.204  12.131  66.232  1.00  0.00    -0.604 OA 
BRANCH  15  17
HETATM   17  C   UNL     1     -11.126  14.143  67.451  1.00  0.00    -0.306 A  
HETATM   18  N   UNL     1     -11.052  14.836  68.567  1.00  0.00    -0.253 NA 
HETATM   19  C   UNL     1     -10.750  16.121  68.170  1.00  0.00    -0.315 A  
HETATM   20  H   UNL     1     -11.188  14.497  69.519  1.00  0.00     0.000 HD 
HETATM   21  C   UNL     1     -10.487  17.263  68.945  1.00  0.00    -0.327 A  
HETATM   22  C   UNL     1     -10.094  18.441  68.297  1.00  0.00    -0.410 A  
HETATM   23  C   UNL     1      -9.979  18.488  66.907  1.00  0.00    -0.370 A  
HETATM   24  C   UNL     1     -10.279  17.374  66.112  1.00  0.00    -0.334 A  
HETATM   25  C   UNL     1     -10.664  16.209  66.784  1.00  0.00    -0.235 A  
HETATM   26  N   UNL     1     -11.007  14.955  66.351  1.00  0.00    -0.332 NA 
ENDBRANCH  15  17
ENDBRANCH  14  15
ENDBRANCH   7  14
TORSDOF 5
ENDMDL
MODEL       31
REMARK 921   NORMALIZED FREE ENERGY PREDICTED BY IDOCK:   -6.36 KCAL/MOL
REMARK 922        TOTAL FREE ENERGY PREDICTED BY IDOCK:   -9.04 KCAL/MOL
REMARK 923 INTER-LIGAND FREE ENERGY PREDICTED BY IDOCK:   -8.26 KCAL/MOL
REMARK 924 INTRA-LIGAND FREE ENERGY PREDICTED BY IDOCK:   -0.78 KCAL/MOL
REMARK 927      BINDING AFFINITY PREDICTED BY RF-SCORE:    0.00 PKD
ROOT
HETATM    1  C   UNL     1     -11.731  15.147  69.406  1.00  0.00    -0.355 C  
HETATM    2  C   UNL     1     -10.887  14.008  68.916  1.00  0.00    -0.278 A  
HETATM    3  C   UNL     1     -11.240  12.663  69.155  1.00  0.00    -0.243 A  
HETATM    4  C   UNL     1     -10.537  11.643  68.514  1.00  0.00    -0.241 A  
HETATM    5  N   UNL     1      -9.015  13.247  67.573  1.00  0.00    -0.196 NA 
HETATM    6  C   UNL     1      -9.458  11.980  67.730  1.00  0.00    -0.190 A  
HETATM    7  C   UNL     1      -9.711  14.247  68.179  1.00  0.00    -0.226 A  
ENDROOT
BRANCH   3   8
HETATM    8  O   UNL     1     -12.285  12.207  69.922  1.00  0.00    -0.251 OA 
BRANCH   8   9
HETATM    9  C   UNL     1     -12.424  10.781  70.037  1.00  0.00    -0.248 C  
HETATM   10  C   UNL     1     -12.862  10.325  71.428  1.00  0.00    -0.441 C  
HETATM   11  F   UNL     1     -11.858   9.673  72.061  1.00  0.00    -0.437 F  
HETATM   12  F   UNL     1     -13.899   9.457  71.336  1.00  0.00    -0.412 F  
HETATM   13  F   UNL     1     -13.257  11.341  72.224  1.00  0.00    -0.590 F  
ENDBRANCH   8   9
ENDBRANCH   3   8
BRANCH   7  14
HETATM   14  C   UNL     1      -9.093  15.626  68.013  1.00  0.00    -0.183 C  
BRANCH  14  15
HETATM   15  S   UNL     1      -9.931  16.598  66.748  1.00  0.00    -0.291 S  
HETATM   16  O   UNL     1      -8.983  17.440  65.942  1.00  0.00    -0.521 OA 
BRANCH  15  17
HETATM   17  C   UNL     1     -10.476  15.344  65.677  1.00  0.00    -0.372 A  
HETATM   18  N   UNL     1      -9.711  14.574  64.934  1.00  0.00    -0.381 NA 
HETATM   19  C   UNL     1     -10.548  13.587  64.461  1.00  0.00    -0.424 A  
HETATM   20  H   UNL     1      -8.714  14.683  64.748  1.00  0.00     0.000 HD 
HETATM   21  C   UNL     1     -10.255  12.459  63.677  1.00  0.00    -0.383 A  
HETATM   22  C   UNL     1     -11.276  11.536  63.417  1.00  0.00    -0.342 A  
HETATM   23  C   UNL     1     -12.566  11.736  63.913  1.00  0.00    -0.356 A  
HETATM   24  C   UNL     1     -12.890  12.877  64.660  1.00  0.00    -0.323 A  
HETATM   25  C   UNL     1     -11.851  13.780  64.910  1.00  0.00    -0.375 A  
HETATM   26  N   UNL     1     -11.792  14.962  65.600  1.00  0.00    -0.205 NA 
ENDBRANCH  15  17
ENDBRANCH  14  15
ENDBRANCH   7  14
TORSDOF 5
ENDMDL
MODEL       32
REMARK 921   NORMALIZED FREE ENERGY PREDICTED BY IDOCK:   -6.35 KCAL/MOL
REMARK 922        TOTAL FREE ENERGY PREDICTED BY IDOCK:   -9.03 KCAL/MOL
REMARK 923 INTER-LIGAND FREE ENERGY PREDICTED BY IDOCK:   -8.24 KCAL/MOL
REMARK 924 INTRA-LIGAND FREE ENERGY PREDICTED BY IDOCK:   -0.79 KCAL/MOL
REMARK 927      BINDING AFFINITY PREDICTED BY RF-SCORE:    0.00 PKD
ROOT
HETATM    1  C   UNL     1     -11.532  12.494  68.723  1.00  0.00    -0.353 C  
HETATM    2  C   UNL     1     -12.194  12.857  70.019  1.00  0.00    -0.292 A  
HETATM    3  C   UNL     1     -12.498  14.195  70.349  1.00  0.00    -0.357 A  
HETATM    4  C   UNL     1     -13.288  14.465  71.466  1.00  0.00    -0.430 A  
HETATM    5  N   UNL     1     -13.306  12.133  72.049  1.00  0.00    -0.467 NA 
HETATM    6  C   UNL     1     -13.678  13.414  72.266  1.00  0.00    -0.607 A  
HETATM    7  C   UNL     1     -12.554  11.863  70.948  1.00  0.00    -0.266 A  
ENDROOT
BRANCH   3   8
HETATM    8  O   UNL     1     -12.156  15.320  69.637  1.00  0.00    -0.323 OA 
BRANCH   8   9
HETATM    9  C   UNL     1     -10.977  16.020  70.069  1.00  0.00    -0.365 C  
HETATM   10  C   UNL     1      -9.843  15.983  69.046  1.00  0.00    -0.239 C  
HETATM   11  F   UNL     1      -8.817  15.217  69.489  1.00  0.00    -0.212 F  
HETATM   12  F   UNL     1      -9.346  17.228  68.846  1.00  0.00    -0.257 F  
HETATM   13  F   UNL     1     -10.222  15.502  67.843  1.00  0.00    -0.228 F  
ENDBRANCH   8   9
ENDBRANCH   3   8
BRANCH   7  14
HETATM   14  C   UNL     1     -12.119  10.411  70.832  1.00  0.00    -0.374 C  
BRANCH  14  15
HETATM   15  S   UNL     1     -13.003   9.343  71.983  1.00  0.00    -0.436 S  
HETATM   16  O   UNL     1     -14.222   8.714  71.369  1.00  0.00    -0.386 OA 
BRANCH  15  17
HETATM   17  C   UNL     1     -11.856   8.054  72.182  1.00  0.00    -0.349 A  
HETATM   18  N   UNL     1     -11.466   7.535  73.326  1.00  0.00    -0.632 NA 
HETATM   19  C   UNL     1     -10.762   6.401  72.984  1.00  0.00    -0.259 A  
HETATM   20  H   UNL     1     -11.645   7.894  74.264  1.00  0.00     0.000 HD 
HETATM   21  C   UNL     1     -10.177   5.423  73.805  1.00  0.00    -0.246 A  
HETATM   22  C   UNL     1      -9.603   4.295  73.205  1.00  0.00    -0.139 A  
HETATM   23  C   UNL     1      -9.596   4.148  71.817  1.00  0.00    -0.223 A  
HETATM   24  C   UNL     1     -10.134   5.132  70.977  1.00  0.00    -0.297 A  
HETATM   25  C   UNL     1     -10.706   6.246  71.602  1.00  0.00    -0.239 A  
HETATM   26  N   UNL     1     -11.327   7.368  71.117  1.00  0.00    -0.262 NA 
ENDBRANCH  15  17
ENDBRANCH  14  15
ENDBRANCH   7  14
TORSDOF 5
ENDMDL
MODEL       33
REMARK 921   NORMALIZED FREE ENERGY PREDICTED BY IDOCK:   -6.34 KCAL/MOL
REMARK 922        TOTAL FREE ENERGY PREDICTED BY IDOCK:   -9.03 KCAL/MOL
REMARK 923 INTER-LIGAND FREE ENERGY PREDICTED BY IDOCK:   -8.16 KCAL/MOL
REMARK 924 INTRA-LIGAND FREE ENERGY PREDICTED BY IDOCK:   -0.87 KCAL/MOL
REMARK 927      BINDING AFFINITY PREDICTED BY RF-SCORE:    0.00 PKD
ROOT
HETATM    1  C   UNL     1      -8.987  10.420  68.641  1.00  0.00    -0.146 C  
HETATM    2  C   UNL     1     -10.256  10.444  69.440  1.00  0.00    -0.257 A  
HETATM    3  C   UNL     1     -10.449   9.601  70.555  1.00  0.00    -0.303 A  
HETATM    4  C   UNL     1     -11.555   9.796  71.381  1.00  0.00    -0.452 A  
HETATM    5  N   UNL     1     -12.389  11.500  69.906  1.00  0.00    -0.221 NA 
HETATM    6  C   UNL     1     -12.476  10.756  71.031  1.00  0.00    -0.420 A  
HETATM    7  C   UNL     1     -11.300  11.328  69.109  1.00  0.00    -0.282 A  
ENDROOT
BRANCH   3   8
HETATM    8  O   UNL     1      -9.607   8.607  70.995  1.00  0.00    -0.176 OA 
BRANCH   8   9
HETATM    9  C   UNL     1      -9.995   7.257  70.690  1.00  0.00    -0.186 C  
HETATM   10  C   UNL     1     -10.294   6.419  71.932  1.00  0.00    -0.202 C  
HETATM   11  F   UNL     1      -9.348   5.466  72.112  1.00  0.00    -0.144 F  
HETATM   12  F   UNL     1     -11.479   5.774  71.793  1.00  0.00    -0.324 F  
HETATM   13  F   UNL     1     -10.363   7.147  73.066  1.00  0.00    -0.208 F  
ENDBRANCH   8   9
ENDBRANCH   3   8
BRANCH   7  14
HETATM   14  C   UNL     1     -11.328  12.149  67.830  1.00  0.00    -0.300 C  
BRANCH  14  15
HETATM   15  S   UNL     1     -10.423  13.698  67.996  1.00  0.00    -0.254 S  
HETATM   16  O   UNL     1     -10.562  14.582  66.789  1.00  0.00    -0.271 OA 
BRANCH  15  17
HETATM   17  C   UNL     1     -11.330  14.476  69.257  1.00  0.00    -0.285 A  
HETATM   18  N   UNL     1     -12.641  14.566  69.325  1.00  0.00    -0.547 NA 
HETATM   19  C   UNL     1     -12.902  15.030  70.595  1.00  0.00    -0.363 A  
HETATM   20  H   UNL     1     -13.317  14.341  68.595  1.00  0.00     0.000 HD 
HETATM   21  C   UNL     1     -14.132  15.248  71.238  1.00  0.00    -0.527 A  
HETATM   22  C   UNL     1     -14.130  15.626  72.587  1.00  0.00    -0.527 A  
HETATM   23  C   UNL     1     -12.931  15.798  73.280  1.00  0.00    -0.675 A  
HETATM   24  C   UNL     1     -11.692  15.629  72.646  1.00  0.00    -0.555 A  
HETATM   25  C   UNL     1     -11.722  15.246  71.301  1.00  0.00    -0.372 A  
HETATM   26  N   UNL     1     -10.736  14.979  70.388  1.00  0.00    -0.160 NA 
ENDBRANCH  15  17
ENDBRANCH  14  15
ENDBRANCH   7  14
TORSDOF 5
ENDMDL
MODEL       34
REMARK 921   NORMALIZED FREE ENERGY PREDICTED BY IDOCK:   -6.34 KCAL/MOL
REMARK 922        TOTAL FREE ENERGY PREDICTED BY IDOCK:   -9.03 KCAL/MOL
REMARK 923 INTER-LIGAND FREE ENERGY PREDICTED BY IDOCK:   -8.24 KCAL/MOL
REMARK 924 INTRA-LIGAND FREE ENERGY PREDICTED BY IDOCK:   -0.79 KCAL/MOL
REMARK 927      BINDING AFFINITY PREDICTED BY RF-SCORE:    0.00 PKD
ROOT
HETATM    1  C   UNL     1     -10.491   7.185  73.606  1.00  0.00    -0.412 C  
HETATM    2  C   UNL     1     -10.445   6.889  72.136  1.00  0.00    -0.230 A  
HETATM    3  C   UNL     1      -9.974   5.655  71.639  1.00  0.00    -0.174 A  
HETATM    4  C   UNL     1     -10.135   5.351  70.288  1.00  0.00    -0.318 A  
HETATM    5  N   UNL     1     -11.026   7.545  69.873  1.00  0.00    -0.240 NA 
HETATM    6  C   UNL     1     -10.674   6.307  69.458  1.00  0.00    -0.303 A  
HETATM    7  C   UNL     1     -10.891   7.837  71.195  1.00  0.00    -0.235 A  
ENDROOT
BRANCH   3   8
HETATM    8  O   UNL     1      -9.412   4.633  72.366  1.00  0.00    -0.130 OA 
BRANCH   8   9
HETATM    9  C   UNL     1     -10.115   3.379  72.360  1.00  0.00    -0.158 C  
HETATM   10  C   UNL     1     -10.779   3.051  73.696  1.00  0.00    -0.204 C  
HETATM   11  F   UNL     1     -10.158   2.010  74.301  1.00  0.00    -0.114 F  
HETATM   12  F   UNL     1     -12.069   2.681  73.505  1.00  0.00    -0.293 F  
HETATM   13  F   UNL     1     -10.781   4.086  74.562  1.00  0.00    -0.253 F  
ENDBRANCH   8   9
ENDBRANCH   3   8
BRANCH   7  14
HETATM   14  C   UNL     1     -11.235   9.274  71.553  1.00  0.00    -0.386 C  
BRANCH  14  15
HETATM   15  S   UNL     1     -13.001   9.605  71.415  1.00  0.00    -0.394 S  
HETATM   16  O   UNL     1     -13.770   9.163  72.628  1.00  0.00    -0.470 OA 
BRANCH  15  17
HETATM   17  C   UNL     1     -13.014  11.341  71.454  1.00  0.00    -0.379 A  
HETATM   18  N   UNL     1     -13.484  12.090  72.429  1.00  0.00    -0.525 NA 
HETATM   19  C   UNL     1     -13.056  13.367  72.137  1.00  0.00    -0.388 A  
HETATM   20  H   UNL     1     -14.044  11.790  73.227  1.00  0.00     0.000 HD 
HETATM   21  C   UNL     1     -13.209  14.556  72.870  1.00  0.00    -0.612 A  
HETATM   22  C   UNL     1     -12.580  15.719  72.406  1.00  0.00    -0.539 A  
HETATM   23  C   UNL     1     -11.828  15.705  71.230  1.00  0.00    -0.473 A  
HETATM   24  C   UNL     1     -11.700  14.541  70.461  1.00  0.00    -0.338 A  
HETATM   25  C   UNL     1     -12.332  13.393  70.949  1.00  0.00    -0.353 A  
HETATM   26  N   UNL     1     -12.408  12.104  70.487  1.00  0.00    -0.312 NA 
ENDBRANCH  15  17
ENDBRANCH  14  15
ENDBRANCH   7  14
TORSDOF 5
ENDMDL
MODEL       35
REMARK 921   NORMALIZED FREE ENERGY PREDICTED BY IDOCK:   -6.31 KCAL/MOL
REMARK 922        TOTAL FREE ENERGY PREDICTED BY IDOCK:   -8.98 KCAL/MOL
REMARK 923 INTER-LIGAND FREE ENERGY PREDICTED BY IDOCK:   -8.24 KCAL/MOL
REMARK 924 INTRA-LIGAND FREE ENERGY PREDICTED BY IDOCK:   -0.74 KCAL/MOL
REMARK 927      BINDING AFFINITY PREDICTED BY RF-SCORE:    0.00 PKD
ROOT
HETATM    1  C   UNL     1     -11.778  11.325  68.529  1.00  0.00    -0.378 C  
HETATM    2  C   UNL     1     -11.132  11.257  67.177  1.00  0.00    -0.364 A  
HETATM    3  C   UNL     1     -10.391  10.129  66.762  1.00  0.00    -0.222 A  
HETATM    4  C   UNL     1      -9.980  10.028  65.433  1.00  0.00    -0.364 A  
HETATM    5  N   UNL     1     -10.837  12.226  64.973  1.00  0.00    -0.287 NA 
HETATM    6  C   UNL     1     -10.238  11.079  64.583  1.00  0.00    -0.330 A  
HETATM    7  C   UNL     1     -11.260  12.319  66.263  1.00  0.00    -0.323 A  
ENDROOT
BRANCH   3   8
HETATM    8  O   UNL     1     -10.067   9.030  67.520  1.00  0.00    -0.196 OA 
BRANCH   8   9
HETATM    9  C   UNL     1     -10.643   7.777  67.113  1.00  0.00    -0.331 C  
HETATM   10  C   UNL     1      -9.610   6.666  66.935  1.00  0.00    -0.157 C  
HETATM   11  F   UNL     1      -9.473   6.337  65.628  1.00  0.00    -0.092 F  
HETATM   12  F   UNL     1     -10.007   5.543  67.583  1.00  0.00    -0.129 F  
HETATM   13  F   UNL     1      -8.387   6.990  67.406  1.00  0.00    -0.117 F  
ENDBRANCH   8   9
ENDBRANCH   3   8
BRANCH   7  14
HETATM   14  C   UNL     1     -11.849  13.672  66.628  1.00  0.00    -0.409 C  
BRANCH  14  15
HETATM   15  S   UNL     1     -10.665  14.718  67.496  1.00  0.00    -0.274 S  
HETATM   16  O   UNL     1     -10.396  16.009  66.776  1.00  0.00    -0.288 OA 
BRANCH  15  17
HETATM   17  C   UNL     1     -11.579  15.146  68.909  1.00  0.00    -0.341 A  
HETATM   18  N   UNL     1     -12.747  14.647  69.256  1.00  0.00    -0.447 NA 
HETATM   19  C   UNL     1     -12.955  15.087  70.545  1.00  0.00    -0.299 A  
HETATM   20  H   UNL     1     -13.364  14.063  68.693  1.00  0.00     0.000 HD 
HETATM   21  C   UNL     1     -14.006  14.804  71.433  1.00  0.00    -0.512 A  
HETATM   22  C   UNL     1     -13.931  15.293  72.744  1.00  0.00    -0.471 A  
HETATM   23  C   UNL     1     -12.842  16.061  73.159  1.00  0.00    -0.620 A  
HETATM   24  C   UNL     1     -11.805  16.393  72.277  1.00  0.00    -0.531 A  
HETATM   25  C   UNL     1     -11.901  15.887  70.977  1.00  0.00    -0.428 A  
HETATM   26  N   UNL     1     -11.089  15.986  69.877  1.00  0.00    -0.327 NA 
ENDBRANCH  15  17
ENDBRANCH  14  15
ENDBRANCH   7  14
TORSDOF 5
ENDMDL
MODEL       36
REMARK 921   NORMALIZED FREE ENERGY PREDICTED BY IDOCK:   -6.31 KCAL/MOL
REMARK 922        TOTAL FREE ENERGY PREDICTED BY IDOCK:   -8.98 KCAL/MOL
REMARK 923 INTER-LIGAND FREE ENERGY PREDICTED BY IDOCK:   -8.23 KCAL/MOL
REMARK 924 INTRA-LIGAND FREE ENERGY PREDICTED BY IDOCK:   -0.75 KCAL/MOL
REMARK 927      BINDING AFFINITY PREDICTED BY RF-SCORE:    0.00 PKD
ROOT
HETATM    1  C   UNL     1     -11.598  15.605  69.586  1.00  0.00    -0.364 C  
HETATM    2  C   UNL     1     -10.917  15.706  68.253  1.00  0.00    -0.315 A  
HETATM    3  C   UNL     1     -10.063  16.783  67.933  1.00  0.00    -0.284 A  
HETATM    4  C   UNL     1      -9.301  16.733  66.766  1.00  0.00    -0.263 A  
HETATM    5  N   UNL     1     -10.368  14.676  66.126  1.00  0.00    -0.289 NA 
HETATM    6  C   UNL     1      -9.473  15.666  65.914  1.00  0.00    -0.341 A  
HETATM    7  C   UNL     1     -11.097  14.710  67.274  1.00  0.00    -0.328 A  
ENDROOT
BRANCH   3   8
HETATM    8  O   UNL     1      -9.820  17.899  68.697  1.00  0.00    -0.340 OA 
BRANCH   8   9
HETATM    9  C   UNL     1      -9.065  18.951  68.073  1.00  0.00    -0.304 C  
HETATM   10  C   UNL     1      -9.932  19.942  67.298  1.00  0.00    -0.421 C  
HETATM   11  F   UNL     1      -9.725  19.825  65.964  1.00  0.00    -0.411 F  
HETATM   12  F   UNL     1      -9.612  21.215  67.635  1.00  0.00    -0.511 F  
HETATM   13  F   UNL     1     -11.254  19.786  67.522  1.00  0.00    -0.508 F  
ENDBRANCH   8   9
ENDBRANCH   3   8
BRANCH   7  14
HETATM   14  C   UNL     1     -12.132  13.602  67.387  1.00  0.00    -0.337 C  
BRANCH  14  15
HETATM   15  S   UNL     1     -11.416  12.062  67.990  1.00  0.00    -0.344 S  
HETATM   16  O   UNL     1     -12.445  11.131  68.565  1.00  0.00    -0.452 OA 
BRANCH  15  17
HETATM   17  C   UNL     1     -10.901  11.334  66.499  1.00  0.00    -0.265 A  
HETATM   18  N   UNL     1     -11.176  11.772  65.289  1.00  0.00    -0.288 NA 
HETATM   19  C   UNL     1     -10.364  11.039  64.451  1.00  0.00    -0.358 A  
HETATM   20  H   UNL     1     -11.844  12.496  65.027  1.00  0.00     0.000 HD 
HETATM   21  C   UNL     1     -10.188  11.133  63.060  1.00  0.00    -0.265 A  
HETATM   22  C   UNL     1      -9.210  10.337  62.449  1.00  0.00    -0.311 A  
HETATM   23  C   UNL     1      -8.434   9.454  63.201  1.00  0.00    -0.205 A  
HETATM   24  C   UNL     1      -8.623   9.312  64.583  1.00  0.00    -0.209 A  
HETATM   25  C   UNL     1      -9.601  10.123  65.169  1.00  0.00    -0.292 A  
HETATM   26  N   UNL     1     -10.039  10.267  66.459  1.00  0.00    -0.222 NA 
ENDBRANCH  15  17
ENDBRANCH  14  15
ENDBRANCH   7  14
TORSDOF 5
ENDMDL
MODEL       37
REMARK 921   NORMALIZED FREE ENERGY PREDICTED BY IDOCK:   -6.27 KCAL/MOL
REMARK 922        TOTAL FREE ENERGY PREDICTED BY IDOCK:   -8.93 KCAL/MOL
REMARK 923 INTER-LIGAND FREE ENERGY PREDICTED BY IDOCK:   -8.12 KCAL/MOL
REMARK 924 INTRA-LIGAND FREE ENERGY PREDICTED BY IDOCK:   -0.81 KCAL/MOL
REMARK 927      BINDING AFFINITY PREDICTED BY RF-SCORE:    0.00 PKD
ROOT
HETATM    1  C   UNL     1     -11.712  10.969  68.658  1.00  0.00    -0.367 C  
HETATM    2  C   UNL     1     -12.097  11.718  69.900  1.00  0.00    -0.359 A  
HETATM    3  C   UNL     1     -11.873  13.105  70.032  1.00  0.00    -0.290 A  
HETATM    4  C   UNL     1     -12.424  13.790  71.114  1.00  0.00    -0.450 A  
HETATM    5  N   UNL     1     -13.233  11.726  72.043  1.00  0.00    -0.464 NA 
HETATM    6  C   UNL     1     -13.102  13.071  72.072  1.00  0.00    -0.379 A  
HETATM    7  C   UNL     1     -12.716  11.057  70.977  1.00  0.00    -0.386 A  
ENDROOT
BRANCH   3   8
HETATM    8  O   UNL     1     -11.207  13.922  69.150  1.00  0.00    -0.253 OA 
BRANCH   8   9
HETATM    9  C   UNL     1     -12.018  14.649  68.211  1.00  0.00    -0.247 C  
HETATM   10  C   UNL     1     -11.729  14.288  66.755  1.00  0.00    -0.405 C  
HETATM   11  F   UNL     1     -11.128  15.318  66.112  1.00  0.00    -0.332 F  
HETATM   12  F   UNL     1     -12.884  14.032  66.093  1.00  0.00    -0.482 F  
HETATM   13  F   UNL     1     -10.938  13.203  66.619  1.00  0.00    -0.272 F  
ENDBRANCH   8   9
ENDBRANCH   3   8
BRANCH   7  14
HETATM   14  C   UNL     1     -12.843   9.545  71.072  1.00  0.00    -0.221 C  
BRANCH  14  15
HETATM   15  S   UNL     1     -11.355   8.779  71.740  1.00  0.00    -0.362 S  
HETATM   16  O   UNL     1     -11.577   8.165  73.093  1.00  0.00    -0.256 OA 
BRANCH  15  17
HETATM   17  C   UNL     1     -11.152   7.446  70.645  1.00  0.00    -0.266 A  
HETATM   18  N   UNL     1     -11.317   7.484  69.340  1.00  0.00    -0.441 NA 
HETATM   19  C   UNL     1     -10.810   6.288  68.880  1.00  0.00    -0.333 A  
HETATM   20  H   UNL     1     -11.731   8.236  68.788  1.00  0.00     0.000 HD 
HETATM   21  C   UNL     1     -10.665   5.821  67.563  1.00  0.00    -0.320 A  
HETATM   22  C   UNL     1     -10.012   4.599  67.350  1.00  0.00    -0.190 A  
HETATM   23  C   UNL     1      -9.528   3.850  68.424  1.00  0.00    -0.210 A  
HETATM   24  C   UNL     1      -9.702   4.277  69.747  1.00  0.00    -0.290 A  
HETATM   25  C   UNL     1     -10.351   5.502  69.932  1.00  0.00    -0.298 A  
HETATM   26  N   UNL     1     -10.674   6.225  71.051  1.00  0.00    -0.247 NA 
ENDBRANCH  15  17
ENDBRANCH  14  15
ENDBRANCH   7  14
TORSDOF 5
ENDMDL
MODEL       38
REMARK 921   NORMALIZED FREE ENERGY PREDICTED BY IDOCK:   -6.27 KCAL/MOL
REMARK 922        TOTAL FREE ENERGY PREDICTED BY IDOCK:   -8.93 KCAL/MOL
REMARK 923 INTER-LIGAND FREE ENERGY PREDICTED BY IDOCK:   -8.20 KCAL/MOL
REMARK 924 INTRA-LIGAND FREE ENERGY PREDICTED BY IDOCK:   -0.72 KCAL/MOL
REMARK 927      BINDING AFFINITY PREDICTED BY RF-SCORE:    0.00 PKD
ROOT
HETATM    1  C   UNL     1     -12.115  12.025  69.843  1.00  0.00    -0.334 C  
HETATM    2  C   UNL     1     -11.946  13.374  69.209  1.00  0.00    -0.367 A  
HETATM    3  C   UNL     1     -12.205  14.567  69.918  1.00  0.00    -0.328 A  
HETATM    4  C   UNL     1     -11.845  15.792  69.356  1.00  0.00    -0.361 A  
HETATM    5  N   UNL     1     -11.172  14.694  67.327  1.00  0.00    -0.325 NA 
HETATM    6  C   UNL     1     -11.323  15.804  68.083  1.00  0.00    -0.337 A  
HETATM    7  C   UNL     1     -11.501  13.495  67.879  1.00  0.00    -0.318 A  
ENDROOT
BRANCH   3   8
HETATM    8  O   UNL     1     -12.729  14.679  71.183  1.00  0.00    -0.300 OA 
BRANCH   8   9
HETATM    9  C   UNL     1     -11.799  14.969  72.240  1.00  0.00    -0.350 C  
HETATM   10  C   UNL     1     -12.385  15.860  73.334  1.00  0.00    -0.538 C  
HETATM   11  F   UNL     1     -11.814  17.089  73.313  1.00  0.00    -0.533 F  
HETATM   12  F   UNL     1     -12.136  15.333  74.557  1.00  0.00    -0.674 F  
HETATM   13  F   UNL     1     -13.720  16.027  73.231  1.00  0.00    -0.634 F  
ENDBRANCH   8   9
ENDBRANCH   3   8
BRANCH   7  14
HETATM   14  C   UNL     1     -11.373  12.316  66.928  1.00  0.00    -0.333 C  
BRANCH  14  15
HETATM   15  S   UNL     1      -9.654  11.885  66.607  1.00  0.00    -0.214 S  
HETATM   16  O   UNL     1      -8.721  12.392  67.669  1.00  0.00    -0.159 OA 
BRANCH  15  17
HETATM   17  C   UNL     1      -9.705  10.160  66.806  1.00  0.00    -0.187 A  
HETATM   18  N   UNL     1     -10.707   9.468  67.304  1.00  0.00    -0.274 NA 
HETATM   19  C   UNL     1     -10.402   8.152  67.034  1.00  0.00    -0.333 A  
HETATM   20  H   UNL     1     -11.532   9.827  67.785  1.00  0.00     0.000 HD 
HETATM   21  C   UNL     1     -11.150   6.987  67.276  1.00  0.00    -0.302 A  
HETATM   22  C   UNL     1     -10.661   5.762  66.803  1.00  0.00    -0.373 A  
HETATM   23  C   UNL     1      -9.447   5.693  66.117  1.00  0.00    -0.157 A  
HETATM   24  C   UNL     1      -8.664   6.836  65.903  1.00  0.00    -0.147 A  
HETATM   25  C   UNL     1      -9.178   8.046  66.380  1.00  0.00    -0.194 A  
HETATM   26  N   UNL     1      -8.713   9.335  66.339  1.00  0.00    -0.129 NA 
ENDBRANCH  15  17
ENDBRANCH  14  15
ENDBRANCH   7  14
TORSDOF 5
ENDMDL
MODEL       39
REMARK 921   NORMALIZED FREE ENERGY PREDICTED BY IDOCK:   -6.25 KCAL/MOL
REMARK 922        TOTAL FREE ENERGY PREDICTED BY IDOCK:   -8.91 KCAL/MOL
REMARK 923 INTER-LIGAND FREE ENERGY PREDICTED BY IDOCK:   -8.00 KCAL/MOL
REMARK 924 INTRA-LIGAND FREE ENERGY PREDICTED BY IDOCK:   -0.91 KCAL/MOL
REMARK 927      BINDING AFFINITY PREDICTED BY RF-SCORE:    0.00 PKD
ROOT
HETATM    1  C   UNL     1     -12.842  10.649  71.208  1.00  0.00    -0.535 C  
HETATM    2  C   UNL     1     -11.687  10.127  70.405  1.00  0.00    -0.390 A  
HETATM    3  C   UNL     1     -11.431  10.574  69.091  1.00  0.00    -0.247 A  
HETATM    4  C   UNL     1     -10.241  10.212  68.462  1.00  0.00    -0.194 A  
HETATM    5  N   UNL     1      -9.652   8.809  70.322  1.00  0.00    -0.170 NA 
HETATM    6  C   UNL     1      -9.386   9.354  69.114  1.00  0.00    -0.159 A  
HETATM    7  C   UNL     1     -10.802   9.177  70.949  1.00  0.00    -0.278 A  
ENDROOT
BRANCH   3   8
HETATM    8  O   UNL     1     -12.212  11.420  68.340  1.00  0.00    -0.571 OA 
BRANCH   8   9
HETATM    9  C   UNL     1     -11.701  12.746  68.128  1.00  0.00    -0.345 C  
HETATM   10  C   UNL     1     -11.629  13.139  66.654  1.00  0.00    -0.356 C  
HETATM   11  F   UNL     1     -10.342  13.229  66.240  1.00  0.00    -0.268 F  
HETATM   12  F   UNL     1     -12.190  14.358  66.461  1.00  0.00    -0.425 F  
HETATM   13  F   UNL     1     -12.262  12.271  65.837  1.00  0.00    -0.464 F  
ENDBRANCH   8   9
ENDBRANCH   3   8
BRANCH   7  14
HETATM   14  C   UNL     1     -11.053   8.454  72.262  1.00  0.00    -0.368 C  
BRANCH  14  15
HETATM   15  S   UNL     1     -12.100   7.003  72.051  1.00  0.00    -0.268 S  
HETATM   16  O   UNL     1     -13.529   7.359  71.754  1.00  0.00    -0.353 OA 
BRANCH  15  17
HETATM   17  C   UNL     1     -11.460   6.349  70.574  1.00  0.00    -0.379 A  
HETATM   18  N   UNL     1     -11.856   6.653  69.357  1.00  0.00    -0.602 NA 
HETATM   19  C   UNL     1     -10.912   6.095  68.523  1.00  0.00    -0.320 A  
HETATM   20  H   UNL     1     -12.683   7.187  69.088  1.00  0.00     0.000 HD 
HETATM   21  C   UNL     1     -10.795   6.163  67.125  1.00  0.00    -0.442 A  
HETATM   22  C   UNL     1      -9.669   5.593  66.515  1.00  0.00    -0.181 A  
HETATM   23  C   UNL     1      -8.689   4.955  67.276  1.00  0.00    -0.103 A  
HETATM   24  C   UNL     1      -8.809   4.836  68.668  1.00  0.00    -0.121 A  
HETATM   25  C   UNL     1      -9.939   5.419  69.252  1.00  0.00    -0.207 A  
HETATM   26  N   UNL     1     -10.371   5.515  70.549  1.00  0.00    -0.253 NA 
ENDBRANCH  15  17
ENDBRANCH  14  15
ENDBRANCH   7  14
TORSDOF 5
ENDMDL
MODEL       40
REMARK 921   NORMALIZED FREE ENERGY PREDICTED BY IDOCK:   -6.25 KCAL/MOL
REMARK 922        TOTAL FREE ENERGY PREDICTED BY IDOCK:   -8.91 KCAL/MOL
REMARK 923 INTER-LIGAND FREE ENERGY PREDICTED BY IDOCK:   -8.13 KCAL/MOL
REMARK 924 INTRA-LIGAND FREE ENERGY PREDICTED BY IDOCK:   -0.78 KCAL/MOL
REMARK 927      BINDING AFFINITY PREDICTED BY RF-SCORE:    0.00 PKD
ROOT
HETATM    1  C   UNL     1     -12.512  10.808  71.237  1.00  0.00    -0.504 C  
HETATM    2  C   UNL     1     -12.021  11.815  70.240  1.00  0.00    -0.429 A  
HETATM    3  C   UNL     1     -12.247  13.198  70.407  1.00  0.00    -0.316 A  
HETATM    4  C   UNL     1     -11.605  14.106  69.565  1.00  0.00    -0.349 A  
HETATM    5  N   UNL     1     -10.691  12.299  68.270  1.00  0.00    -0.213 NA 
HETATM    6  C   UNL     1     -10.834  13.616  68.536  1.00  0.00    -0.257 A  
HETATM    7  C   UNL     1     -11.298  11.410  69.103  1.00  0.00    -0.288 A  
ENDROOT
BRANCH   3   8
HETATM    8  O   UNL     1     -13.001  13.800  71.386  1.00  0.00    -0.338 OA 
BRANCH   8   9
HETATM    9  C   UNL     1     -12.950  15.235  71.445  1.00  0.00    -0.431 C  
HETATM   10  C   UNL     1     -12.650  15.774  72.842  1.00  0.00    -0.466 C  
HETATM   11  F   UNL     1     -13.736  16.394  73.364  1.00  0.00    -0.633 F  
HETATM   12  F   UNL     1     -11.658  16.696  72.792  1.00  0.00    -0.566 F  
HETATM   13  F   UNL     1     -12.267  14.817  73.714  1.00  0.00    -0.517 F  
ENDBRANCH   8   9
ENDBRANCH   3   8
BRANCH   7  14
HETATM   14  C   UNL     1     -11.147   9.958  68.679  1.00  0.00    -0.134 C  
BRANCH  14  15
HETATM   15  S   UNL     1      -9.556   9.268  69.168  1.00  0.00    -0.166 S  
HETATM   16  O   UNL     1      -8.621  10.305  69.722  1.00  0.00    -0.162 OA 
BRANCH  15  17
HETATM   17  C   UNL     1     -10.026   8.285  70.521  1.00  0.00    -0.184 A  
HETATM   18  N   UNL     1     -10.608   7.107  70.456  1.00  0.00    -0.220 NA 
HETATM   19  C   UNL     1     -10.557   6.612  71.741  1.00  0.00    -0.215 A  
HETATM   20  H   UNL     1     -11.011   6.658  69.634  1.00  0.00     0.000 HD 
HETATM   21  C   UNL     1     -10.967   5.365  72.241  1.00  0.00    -0.277 A  
HETATM   22  C   UNL     1     -10.704   5.057  73.583  1.00  0.00    -0.350 A  
HETATM   23  C   UNL     1     -10.060   5.975  74.414  1.00  0.00    -0.316 A  
HETATM   24  C   UNL     1      -9.682   7.241  73.947  1.00  0.00    -0.323 A  
HETATM   25  C   UNL     1      -9.951   7.521  72.603  1.00  0.00    -0.207 A  
HETATM   26  N   UNL     1      -9.715   8.617  71.816  1.00  0.00    -0.265 NA 
ENDBRANCH  15  17
ENDBRANCH  14  15
ENDBRANCH   7  14
TORSDOF 5
ENDMDL
MODEL       41
REMARK 921   NORMALIZED FREE ENERGY PREDICTED BY IDOCK:   -6.24 KCAL/MOL
REMARK 922        TOTAL FREE ENERGY PREDICTED BY IDOCK:   -8.90 KCAL/MOL
REMARK 923 INTER-LIGAND FREE ENERGY PREDICTED BY IDOCK:   -8.37 KCAL/MOL
REMARK 924 INTRA-LIGAND FREE ENERGY PREDICTED BY IDOCK:   -0.52 KCAL/MOL
REMARK 927      BINDING AFFINITY PREDICTED BY RF-SCORE:    0.00 PKD
ROOT
HETATM    1  C   UNL     1     -12.412  14.453  70.844  1.00  0.00    -0.424 C  
HETATM    2  C   UNL     1     -12.034  13.445  69.799  1.00  0.00    -0.396 A  
HETATM    3  C   UNL     1     -12.019  12.061  70.072  1.00  0.00    -0.324 A  
HETATM    4  C   UNL     1     -11.856  11.156  69.023  1.00  0.00    -0.418 A  
HETATM    5  N   UNL     1     -11.514  12.965  67.479  1.00  0.00    -0.314 NA 
HETATM    6  C   UNL     1     -11.627  11.648  67.759  1.00  0.00    -0.289 A  
HETATM    7  C   UNL     1     -11.695  13.852  68.495  1.00  0.00    -0.355 A  
ENDROOT
BRANCH   3   8
HETATM    8  O   UNL     1     -12.225  11.456  71.289  1.00  0.00    -0.270 OA 
BRANCH   8   9
HETATM    9  C   UNL     1     -12.964  10.223  71.276  1.00  0.00    -0.420 C  
HETATM   10  C   UNL     1     -12.110   9.003  71.619  1.00  0.00    -0.352 C  
HETATM   11  F   UNL     1     -11.941   8.211  70.533  1.00  0.00    -0.236 F  
HETATM   12  F   UNL     1     -12.723   8.248  72.564  1.00  0.00    -0.344 F  
HETATM   13  F   UNL     1     -10.886   9.321  72.089  1.00  0.00    -0.414 F  
ENDBRANCH   8   9
ENDBRANCH   3   8
BRANCH   7  14
HETATM   14  C   UNL     1     -11.470  15.303  68.102  1.00  0.00    -0.346 C  
BRANCH  14  15
HETATM   15  S   UNL     1     -10.251  15.470  66.786  1.00  0.00    -0.288 S  
HETATM   16  O   UNL     1     -10.879  15.605  65.428  1.00  0.00    -0.358 OA 
BRANCH  15  17
HETATM   17  C   UNL     1      -9.582  17.031  67.154  1.00  0.00    -0.253 A  
HETATM   18  N   UNL     1      -9.152  17.430  68.331  1.00  0.00    -0.268 NA 
HETATM   19  C   UNL     1      -8.492  18.615  68.088  1.00  0.00    -0.312 A  
HETATM   20  H   UNL     1      -9.279  16.964  69.230  1.00  0.00     0.000 HD 
HETATM   21  C   UNL     1      -7.778  19.444  68.969  1.00  0.00    -0.350 A  
HETATM   22  C   UNL     1      -7.097  20.552  68.449  1.00  0.00    -0.118 A  
HETATM   23  C   UNL     1      -7.138  20.841  67.084  1.00  0.00    -0.404 A  
HETATM   24  C   UNL     1      -7.881  20.053  66.194  1.00  0.00    -0.316 A  
HETATM   25  C   UNL     1      -8.546  18.949  66.738  1.00  0.00    -0.299 A  
HETATM   26  N   UNL     1      -9.332  17.971  66.186  1.00  0.00    -0.503 NA 
ENDBRANCH  15  17
ENDBRANCH  14  15
ENDBRANCH   7  14
TORSDOF 5
ENDMDL
MODEL       42
REMARK 921   NORMALIZED FREE ENERGY PREDICTED BY IDOCK:   -6.23 KCAL/MOL
REMARK 922        TOTAL FREE ENERGY PREDICTED BY IDOCK:   -8.88 KCAL/MOL
REMARK 923 INTER-LIGAND FREE ENERGY PREDICTED BY IDOCK:   -7.77 KCAL/MOL
REMARK 924 INTRA-LIGAND FREE ENERGY PREDICTED BY IDOCK:   -1.11 KCAL/MOL
REMARK 927      BINDING AFFINITY PREDICTED BY RF-SCORE:    0.00 PKD
ROOT
HETATM    1  C   UNL     1      -9.277  15.224  65.855  1.00  0.00    -0.236 C  
HETATM    2  C   UNL     1      -9.572  14.020  66.699  1.00  0.00    -0.299 A  
HETATM    3  C   UNL     1     -10.809  13.344  66.625  1.00  0.00    -0.282 A  
HETATM    4  C   UNL     1     -10.964  12.121  67.277  1.00  0.00    -0.308 A  
HETATM    5  N   UNL     1      -8.772  12.327  68.242  1.00  0.00    -0.186 NA 
HETATM    6  C   UNL     1      -9.926  11.651  68.049  1.00  0.00    -0.188 A  
HETATM    7  C   UNL     1      -8.608  13.510  67.589  1.00  0.00    -0.185 A  
ENDROOT
BRANCH   3   8
HETATM    8  O   UNL     1     -11.913  13.721  65.899  1.00  0.00    -0.363 OA 
BRANCH   8   9
HETATM    9  C   UNL     1     -12.522  12.705  65.084  1.00  0.00    -0.463 C  
HETATM   10  C   UNL     1     -11.846  12.534  63.725  1.00  0.00    -0.496 C  
HETATM   11  F   UNL     1     -12.652  12.967  62.726  1.00  0.00    -0.339 F  
HETATM   12  F   UNL     1     -11.592  11.224  63.485  1.00  0.00    -0.460 F  
HETATM   13  F   UNL     1     -10.674  13.196  63.622  1.00  0.00    -0.364 F  
ENDBRANCH   8   9
ENDBRANCH   3   8
BRANCH   7  14
HETATM   14  C   UNL     1      -7.316  14.234  67.930  1.00  0.00    -0.156 C  
BRANCH  14  15
HETATM   15  S   UNL     1      -7.396  15.052  69.533  1.00  0.00    -0.181 S  
HETATM   16  O   UNL     1      -6.038  15.355  70.097  1.00  0.00    -0.150 OA 
BRANCH  15  17
HETATM   17  C   UNL     1      -8.076  16.586  69.085  1.00  0.00    -0.170 A  
HETATM   18  N   UNL     1      -7.401  17.652  68.713  1.00  0.00    -0.260 NA 
HETATM   19  C   UNL     1      -8.349  18.524  68.223  1.00  0.00    -0.322 A  
HETATM   20  H   UNL     1      -6.394  17.802  68.773  1.00  0.00     0.000 HD 
HETATM   21  C   UNL     1      -8.189  19.786  67.628  1.00  0.00    -0.340 A  
HETATM   22  C   UNL     1      -9.317  20.434  67.107  1.00  0.00    -0.537 A  
HETATM   23  C   UNL     1     -10.580  19.846  67.189  1.00  0.00    -0.527 A  
HETATM   24  C   UNL     1     -10.769  18.608  67.817  1.00  0.00    -0.394 A  
HETATM   25  C   UNL     1      -9.626  17.980  68.324  1.00  0.00    -0.318 A  
HETATM   26  N   UNL     1      -9.428  16.787  68.968  1.00  0.00    -0.247 NA 
ENDBRANCH  15  17
ENDBRANCH  14  15
ENDBRANCH   7  14
TORSDOF 5
ENDMDL
MODEL       43
REMARK 921   NORMALIZED FREE ENERGY PREDICTED BY IDOCK:   -6.23 KCAL/MOL
REMARK 922        TOTAL FREE ENERGY PREDICTED BY IDOCK:   -8.87 KCAL/MOL
REMARK 923 INTER-LIGAND FREE ENERGY PREDICTED BY IDOCK:   -7.69 KCAL/MOL
REMARK 924 INTRA-LIGAND FREE ENERGY PREDICTED BY IDOCK:   -1.18 KCAL/MOL
REMARK 927      BINDING AFFINITY PREDICTED BY RF-SCORE:    0.00 PKD
ROOT
HETATM    1  C   UNL     1      -8.944   8.591  71.277  1.00  0.00    -0.244 C  
HETATM    2  C   UNL     1     -10.293   9.214  71.071  1.00  0.00    -0.363 A  
HETATM    3  C   UNL     1     -11.414   8.832  71.837  1.00  0.00    -0.358 A  
HETATM    4  C   UNL     1     -12.592   9.572  71.749  1.00  0.00    -0.490 A  
HETATM    5  N   UNL     1     -11.640  10.929  70.008  1.00  0.00    -0.312 NA 
HETATM    6  C   UNL     1     -12.652  10.609  70.845  1.00  0.00    -0.407 A  
HETATM    7  C   UNL     1     -10.481  10.223  70.107  1.00  0.00    -0.203 A  
ENDROOT
BRANCH   3   8
HETATM    8  O   UNL     1     -11.476   7.814  72.759  1.00  0.00    -0.374 OA 
BRANCH   8   9
HETATM    9  C   UNL     1     -11.878   6.525  72.266  1.00  0.00    -0.258 C  
HETATM   10  C   UNL     1     -10.771   5.475  72.346  1.00  0.00    -0.235 C  
HETATM   11  F   UNL     1     -10.332   5.141  71.109  1.00  0.00    -0.261 F  
HETATM   12  F   UNL     1     -11.237   4.338  72.918  1.00  0.00    -0.252 F  
HETATM   13  F   UNL     1      -9.701   5.878  73.065  1.00  0.00    -0.153 F  
ENDBRANCH   8   9
ENDBRANCH   3   8
BRANCH   7  14
HETATM   14  C   UNL     1      -9.433  10.600  69.073  1.00  0.00    -0.191 C  
BRANCH  14  15
HETATM   15  S   UNL     1      -9.618   9.667  67.543  1.00  0.00    -0.154 S  
HETATM   16  O   UNL     1     -10.446   8.425  67.719  1.00  0.00    -0.236 OA 
BRANCH  15  17
HETATM   17  C   UNL     1     -10.596  10.758  66.610  1.00  0.00    -0.232 A  
HETATM   18  N   UNL     1     -11.327  11.743  67.086  1.00  0.00    -0.366 NA 
HETATM   19  C   UNL     1     -11.710  12.471  65.981  1.00  0.00    -0.417 A  
HETATM   20  H   UNL     1     -11.560  11.927  68.062  1.00  0.00     0.000 HD 
HETATM   21  C   UNL     1     -12.444  13.667  65.903  1.00  0.00    -0.502 A  
HETATM   22  C   UNL     1     -12.610  14.274  64.651  1.00  0.00    -0.277 A  
HETATM   23  C   UNL     1     -12.073  13.697  63.499  1.00  0.00    -0.341 A  
HETATM   24  C   UNL     1     -11.377  12.482  63.549  1.00  0.00    -0.556 A  
HETATM   25  C   UNL     1     -11.219  11.900  64.811  1.00  0.00    -0.297 A  
HETATM   26  N   UNL     1     -10.598  10.755  65.237  1.00  0.00    -0.212 NA 
ENDBRANCH  15  17
ENDBRANCH  14  15
ENDBRANCH   7  14
TORSDOF 5
ENDMDL
MODEL       44
REMARK 921   NORMALIZED FREE ENERGY PREDICTED BY IDOCK:   -6.19 KCAL/MOL
REMARK 922        TOTAL FREE ENERGY PREDICTED BY IDOCK:   -8.83 KCAL/MOL
REMARK 923 INTER-LIGAND FREE ENERGY PREDICTED BY IDOCK:   -7.83 KCAL/MOL
REMARK 924 INTRA-LIGAND FREE ENERGY PREDICTED BY IDOCK:   -1.00 KCAL/MOL
REMARK 927      BINDING AFFINITY PREDICTED BY RF-SCORE:    0.00 PKD
ROOT
HETATM    1  C   UNL     1     -12.058  13.432  70.668  1.00  0.00    -0.374 C  
HETATM    2  C   UNL     1     -11.980  12.935  69.255  1.00  0.00    -0.313 A  
HETATM    3  C   UNL     1     -11.907  13.819  68.157  1.00  0.00    -0.376 A  
HETATM    4  C   UNL     1     -11.637  13.315  66.885  1.00  0.00    -0.408 A  
HETATM    5  N   UNL     1     -11.719  11.066  67.729  1.00  0.00    -0.600 NA 
HETATM    6  C   UNL     1     -11.535  11.952  66.725  1.00  0.00    -0.316 A  
HETATM    7  C   UNL     1     -11.961  11.555  68.976  1.00  0.00    -0.311 A  
ENDROOT
BRANCH   3   8
HETATM    8  O   UNL     1     -12.003  15.190  68.194  1.00  0.00    -0.290 OA 
BRANCH   8   9
HETATM    9  C   UNL     1     -10.813  15.925  67.862  1.00  0.00    -0.327 C  
HETATM   10  C   UNL     1     -10.421  16.951  68.924  1.00  0.00    -0.346 C  
HETATM   11  F   UNL     1     -10.601  18.213  68.466  1.00  0.00    -0.349 F  
HETATM   12  F   UNL     1      -9.107  16.831  69.235  1.00  0.00    -0.247 F  
HETATM   13  F   UNL     1     -11.119  16.829  70.072  1.00  0.00    -0.344 F  
ENDBRANCH   8   9
ENDBRANCH   3   8
BRANCH   7  14
HETATM   14  C   UNL     1     -12.232  10.485  70.021  1.00  0.00    -0.250 C  
BRANCH  14  15
HETATM   15  S   UNL     1     -10.718   9.700  70.601  1.00  0.00    -0.337 S  
HETATM   16  O   UNL     1     -10.794   9.288  72.043  1.00  0.00    -0.309 OA 
BRANCH  15  17
HETATM   17  C   UNL     1     -10.742   8.224  69.686  1.00  0.00    -0.194 A  
HETATM   18  N   UNL     1     -11.015   8.112  68.403  1.00  0.00    -0.426 NA 
HETATM   19  C   UNL     1     -10.670   6.820  68.075  1.00  0.00    -0.241 A  
HETATM   20  H   UNL     1     -11.399   8.828  67.786  1.00  0.00     0.000 HD 
HETATM   21  C   UNL     1     -10.686   6.174  66.827  1.00  0.00    -0.371 A  
HETATM   22  C   UNL     1     -10.177   4.871  66.736  1.00  0.00    -0.274 A  
HETATM   23  C   UNL     1      -9.678   4.218  67.864  1.00  0.00    -0.172 A  
HETATM   24  C   UNL     1      -9.694   4.827  69.126  1.00  0.00    -0.258 A  
HETATM   25  C   UNL     1     -10.201   6.129  69.188  1.00  0.00    -0.194 A  
HETATM   26  N   UNL     1     -10.353   7.020  70.219  1.00  0.00    -0.200 NA 
ENDBRANCH  15  17
ENDBRANCH  14  15
ENDBRANCH   7  14
TORSDOF 5
ENDMDL
MODEL       45
REMARK 921   NORMALIZED FREE ENERGY PREDICTED BY IDOCK:   -6.15 KCAL/MOL
REMARK 922        TOTAL FREE ENERGY PREDICTED BY IDOCK:   -8.77 KCAL/MOL
REMARK 923 INTER-LIGAND FREE ENERGY PREDICTED BY IDOCK:   -7.42 KCAL/MOL
REMARK 924 INTRA-LIGAND FREE ENERGY PREDICTED BY IDOCK:   -1.35 KCAL/MOL
REMARK 927      BINDING AFFINITY PREDICTED BY RF-SCORE:    0.00 PKD
ROOT
HETATM    1  C   UNL     1      -8.168  12.947  67.763  1.00  0.00    -0.174 C  
HETATM    2  C   UNL     1      -9.564  13.169  68.264  1.00  0.00    -0.218 A  
HETATM    3  C   UNL     1     -10.412  12.094  68.604  1.00  0.00    -0.216 A  
HETATM    4  C   UNL     1     -11.622  12.351  69.250  1.00  0.00    -0.379 A  
HETATM    5  N   UNL     1     -11.263  14.718  69.038  1.00  0.00    -0.255 NA 
HETATM    6  C   UNL     1     -11.991  13.660  69.458  1.00  0.00    -0.341 A  
HETATM    7  C   UNL     1     -10.072  14.471  68.428  1.00  0.00    -0.241 A  
ENDROOT
BRANCH   3   8
HETATM    8  O   UNL     1     -10.156  10.754  68.437  1.00  0.00    -0.158 OA 
BRANCH   8   9
HETATM    9  C   UNL     1     -10.830  10.103  67.347  1.00  0.00    -0.261 C  
HETATM   10  C   UNL     1     -10.049   8.924  66.771  1.00  0.00    -0.280 C  
HETATM   11  F   UNL     1      -9.595   9.207  65.526  1.00  0.00    -0.306 F  
HETATM   12  F   UNL     1     -10.850   7.836  66.658  1.00  0.00    -0.400 F  
HETATM   13  F   UNL     1      -8.987   8.565  67.522  1.00  0.00    -0.131 F  
ENDBRANCH   8   9
ENDBRANCH   3   8
BRANCH   7  14
HETATM   14  C   UNL     1      -9.363  15.717  67.921  1.00  0.00    -0.200 C  
BRANCH  14  15
HETATM   15  S   UNL     1     -10.319  16.576  66.658  1.00  0.00    -0.280 S  
HETATM   16  O   UNL     1      -9.486  17.533  65.852  1.00  0.00    -0.515 OA 
BRANCH  15  17
HETATM   17  C   UNL     1     -10.701  15.264  65.586  1.00  0.00    -0.365 A  
HETATM   18  N   UNL     1      -9.833  14.497  64.961  1.00  0.00    -0.487 NA 
HETATM   19  C   UNL     1     -10.579  13.462  64.441  1.00  0.00    -0.407 A  
HETATM   20  H   UNL     1      -8.826  14.638  64.879  1.00  0.00     0.000 HD 
HETATM   21  C   UNL     1     -10.164  12.318  63.739  1.00  0.00    -0.427 A  
HETATM   22  C   UNL     1     -11.118  11.347  63.408  1.00  0.00    -0.308 A  
HETATM   23  C   UNL     1     -12.460  11.516  63.754  1.00  0.00    -0.066 A  
HETATM   24  C   UNL     1     -12.903  12.669  64.415  1.00  0.00    -0.344 A  
HETATM   25  C   UNL     1     -11.929  13.620  64.739  1.00  0.00    -0.396 A  
HETATM   26  N   UNL     1     -11.986  14.829  65.383  1.00  0.00    -0.265 NA 
ENDBRANCH  15  17
ENDBRANCH  14  15
ENDBRANCH   7  14
TORSDOF 5
ENDMDL
MODEL       46
REMARK 921   NORMALIZED FREE ENERGY PREDICTED BY IDOCK:   -6.14 KCAL/MOL
REMARK 922        TOTAL FREE ENERGY PREDICTED BY IDOCK:   -8.76 KCAL/MOL
REMARK 923 INTER-LIGAND FREE ENERGY PREDICTED BY IDOCK:   -7.95 KCAL/MOL
REMARK 924 INTRA-LIGAND FREE ENERGY PREDICTED BY IDOCK:   -0.81 KCAL/MOL
REMARK 927      BINDING AFFINITY PREDICTED BY RF-SCORE:    0.00 PKD
ROOT
HETATM    1  C   UNL     1     -12.014   8.756  72.302  1.00  0.00    -0.415 C  
HETATM    2  C   UNL     1     -11.370   8.008  71.172  1.00  0.00    -0.292 A  
HETATM    3  C   UNL     1     -11.340   6.598  71.135  1.00  0.00    -0.306 A  
HETATM    4  C   UNL     1     -10.911   5.950  69.977  1.00  0.00    -0.430 A  
HETATM    5  N   UNL     1     -10.346   8.059  68.974  1.00  0.00    -0.217 NA 
HETATM    6  C   UNL     1     -10.446   6.712  68.930  1.00  0.00    -0.212 A  
HETATM    7  C   UNL     1     -10.784   8.696  70.093  1.00  0.00    -0.234 A  
ENDROOT
BRANCH   3   8
HETATM    8  O   UNL     1     -11.767   5.736  72.118  1.00  0.00    -0.263 OA 
BRANCH   8   9
HETATM    9  C   UNL     1     -10.870   5.528  73.222  1.00  0.00    -0.293 C  
HETATM   10  C   UNL     1     -10.316   4.106  73.290  1.00  0.00    -0.164 C  
HETATM   11  F   UNL     1     -10.820   3.442  74.358  1.00  0.00    -0.241 F  
HETATM   12  F   UNL     1      -8.969   4.129  73.443  1.00  0.00    -0.102 F  
HETATM   13  F   UNL     1     -10.583   3.372  72.189  1.00  0.00    -0.190 F  
ENDBRANCH   8   9
ENDBRANCH   3   8
BRANCH   7  14
HETATM   14  C   UNL     1     -10.559  10.200  70.082  1.00  0.00    -0.281 C  
BRANCH  14  15
HETATM   15  S   UNL     1     -12.020  11.103  69.536  1.00  0.00    -0.353 S  
HETATM   16  O   UNL     1     -12.186  12.417  70.243  1.00  0.00    -0.327 OA 
BRANCH  15  17
HETATM   17  C   UNL     1     -11.571  11.497  67.905  1.00  0.00    -0.282 A  
HETATM   18  N   UNL     1     -10.804  10.775  67.117  1.00  0.00    -0.280 NA 
HETATM   19  C   UNL     1     -10.936  11.343  65.869  1.00  0.00    -0.207 A  
HETATM   20  H   UNL     1     -10.234   9.969  67.374  1.00  0.00     0.000 HD 
HETATM   21  C   UNL     1     -10.397  10.941  64.636  1.00  0.00    -0.407 A  
HETATM   22  C   UNL     1     -10.774  11.634  63.478  1.00  0.00    -0.495 A  
HETATM   23  C   UNL     1     -11.656  12.714  63.545  1.00  0.00    -0.584 A  
HETATM   24  C   UNL     1     -12.171  13.159  64.770  1.00  0.00    -0.477 A  
HETATM   25  C   UNL     1     -11.784  12.446  65.910  1.00  0.00    -0.419 A  
HETATM   26  N   UNL     1     -12.092  12.578  67.238  1.00  0.00    -0.480 NA 
ENDBRANCH  15  17
ENDBRANCH  14  15
ENDBRANCH   7  14
TORSDOF 5
ENDMDL
MODEL       47
REMARK 921   NORMALIZED FREE ENERGY PREDICTED BY IDOCK:   -6.12 KCAL/MOL
REMARK 922        TOTAL FREE ENERGY PREDICTED BY IDOCK:   -8.73 KCAL/MOL
REMARK 923 INTER-LIGAND FREE ENERGY PREDICTED BY IDOCK:   -7.50 KCAL/MOL
REMARK 924 INTRA-LIGAND FREE ENERGY PREDICTED BY IDOCK:   -1.24 KCAL/MOL
REMARK 927      BINDING AFFINITY PREDICTED BY RF-SCORE:    0.00 PKD
ROOT
HETATM    1  C   UNL     1     -10.618  15.928  65.453  1.00  0.00    -0.439 C  
HETATM    2  C   UNL     1     -10.693  16.066  66.945  1.00  0.00    -0.262 A  
HETATM    3  C   UNL     1     -10.207  17.210  67.612  1.00  0.00    -0.329 A  
HETATM    4  C   UNL     1     -10.476  17.381  68.970  1.00  0.00    -0.285 A  
HETATM    5  N   UNL     1     -11.515  15.216  69.064  1.00  0.00    -0.290 NA 
HETATM    6  C   UNL     1     -11.139  16.379  69.640  1.00  0.00    -0.306 A  
HETATM    7  C   UNL     1     -11.273  15.054  67.734  1.00  0.00    -0.321 A  
ENDROOT
BRANCH   3   8
HETATM    8  O   UNL     1      -9.527  18.265  67.053  1.00  0.00    -0.262 OA 
BRANCH   8   9
HETATM    9  C   UNL     1      -8.229  18.555  67.599  1.00  0.00    -0.255 C  
HETATM   10  C   UNL     1      -7.091  17.850  66.863  1.00  0.00    -0.183 C  
HETATM   11  F   UNL     1      -6.537  16.888  67.639  1.00  0.00    -0.129 F  
HETATM   12  F   UNL     1      -6.105  18.730  66.563  1.00  0.00    -0.166 F  
HETATM   13  F   UNL     1      -7.479  17.271  65.707  1.00  0.00    -0.326 F  
ENDBRANCH   8   9
ENDBRANCH   3   8
BRANCH   7  14
HETATM   14  C   UNL     1     -11.658  13.687  67.194  1.00  0.00    -0.361 C  
BRANCH  14  15
HETATM   15  S   UNL     1     -10.356  12.466  67.445  1.00  0.00    -0.208 S  
HETATM   16  O   UNL     1      -9.029  13.092  67.766  1.00  0.00    -0.171 OA 
BRANCH  15  17
HETATM   17  C   UNL     1     -10.892  11.713  68.916  1.00  0.00    -0.220 A  
HETATM   18  N   UNL     1     -11.889  12.117  69.673  1.00  0.00    -0.322 NA 
HETATM   19  C   UNL     1     -12.097  11.090  70.568  1.00  0.00    -0.377 A  
HETATM   20  H   UNL     1     -12.398  12.999  69.612  1.00  0.00     0.000 HD 
HETATM   21  C   UNL     1     -13.079  10.950  71.563  1.00  0.00    -0.503 A  
HETATM   22  C   UNL     1     -13.146   9.747  72.278  1.00  0.00    -0.445 A  
HETATM   23  C   UNL     1     -12.247   8.711  72.021  1.00  0.00    -0.439 A  
HETATM   24  C   UNL     1     -11.232   8.847  71.065  1.00  0.00    -0.342 A  
HETATM   25  C   UNL     1     -11.191  10.055  70.361  1.00  0.00    -0.323 A  
HETATM   26  N   UNL     1     -10.373  10.525  69.367  1.00  0.00    -0.231 NA 
ENDBRANCH  15  17
ENDBRANCH  14  15
ENDBRANCH   7  14
TORSDOF 5
ENDMDL
MODEL       48
REMARK 921   NORMALIZED FREE ENERGY PREDICTED BY IDOCK:   -6.10 KCAL/MOL
REMARK 922        TOTAL FREE ENERGY PREDICTED BY IDOCK:   -8.72 KCAL/MOL
REMARK 923 INTER-LIGAND FREE ENERGY PREDICTED BY IDOCK:   -7.97 KCAL/MOL
REMARK 924 INTRA-LIGAND FREE ENERGY PREDICTED BY IDOCK:   -0.75 KCAL/MOL
REMARK 927      BINDING AFFINITY PREDICTED BY RF-SCORE:    0.00 PKD
ROOT
HETATM    1  C   UNL     1     -12.015  11.239  70.195  1.00  0.00    -0.452 C  
HETATM    2  C   UNL     1     -11.301  10.675  69.002  1.00  0.00    -0.340 A  
HETATM    3  C   UNL     1     -10.577   9.465  69.072  1.00  0.00    -0.213 A  
HETATM    4  C   UNL     1     -10.100   8.882  67.898  1.00  0.00    -0.255 A  
HETATM    5  N   UNL     1     -10.856  10.772  66.620  1.00  0.00    -0.208 NA 
HETATM    6  C   UNL     1     -10.276   9.555  66.711  1.00  0.00    -0.243 A  
HETATM    7  C   UNL     1     -11.343  11.334  67.759  1.00  0.00    -0.285 A  
ENDROOT
BRANCH   3   8
HETATM    8  O   UNL     1     -10.331   8.713  70.195  1.00  0.00    -0.197 OA 
BRANCH   8   9
HETATM    9  C   UNL     1     -11.169   7.563  70.394  1.00  0.00    -0.253 C  
HETATM   10  C   UNL     1     -11.975   7.618  71.690  1.00  0.00    -0.299 C  
HETATM   11  F   UNL     1     -11.530   6.695  72.576  1.00  0.00    -0.273 F  
HETATM   12  F   UNL     1     -13.279   7.334  71.449  1.00  0.00    -0.379 F  
HETATM   13  F   UNL     1     -11.931   8.822  72.298  1.00  0.00    -0.389 F  
ENDBRANCH   8   9
ENDBRANCH   3   8
BRANCH   7  14
HETATM   14  C   UNL     1     -11.905  12.734  67.571  1.00  0.00    -0.343 C  
BRANCH  14  15
HETATM   15  S   UNL     1     -11.571  13.386  65.925  1.00  0.00    -0.358 S  
HETATM   16  O   UNL     1     -12.797  13.951  65.266  1.00  0.00    -0.689 OA 
BRANCH  15  17
HETATM   17  C   UNL     1     -10.569  14.752  66.310  1.00  0.00    -0.305 A  
HETATM   18  N   UNL     1      -9.275  14.848  66.093  1.00  0.00    -0.454 NA 
HETATM   19  C   UNL     1      -8.972  16.173  66.320  1.00  0.00    -0.344 A  
HETATM   20  H   UNL     1      -8.634  14.104  65.817  1.00  0.00     0.000 HD 
HETATM   21  C   UNL     1      -7.752  16.854  66.171  1.00  0.00    -0.259 A  
HETATM   22  C   UNL     1      -7.728  18.242  66.363  1.00  0.00    -0.289 A  
HETATM   23  C   UNL     1      -8.888  18.936  66.711  1.00  0.00    -0.315 A  
HETATM   24  C   UNL     1     -10.105  18.270  66.908  1.00  0.00    -0.377 A  
HETATM   25  C   UNL     1     -10.103  16.886  66.704  1.00  0.00    -0.304 A  
HETATM   26  N   UNL     1     -11.084  15.932  66.785  1.00  0.00    -0.148 NA 
ENDBRANCH  15  17
ENDBRANCH  14  15
ENDBRANCH   7  14
TORSDOF 5
ENDMDL
MODEL       49
REMARK 921   NORMALIZED FREE ENERGY PREDICTED BY IDOCK:   -6.10 KCAL/MOL
REMARK 922        TOTAL FREE ENERGY PREDICTED BY IDOCK:   -8.71 KCAL/MOL
REMARK 923 INTER-LIGAND FREE ENERGY PREDICTED BY IDOCK:   -8.52 KCAL/MOL
REMARK 924 INTRA-LIGAND FREE ENERGY PREDICTED BY IDOCK:   -0.19 KCAL/MOL
REMARK 927      BINDING AFFINITY PREDICTED BY RF-SCORE:    0.00 PKD
ROOT
HETATM    1  C   UNL     1     -10.807  14.704  65.246  1.00  0.00    -0.387 C  
HETATM    2  C   UNL     1      -9.860  13.905  66.091  1.00  0.00    -0.316 A  
HETATM    3  C   UNL     1      -9.864  12.494  66.082  1.00  0.00    -0.258 A  
HETATM    4  C   UNL     1      -8.840  11.800  66.727  1.00  0.00    -0.191 A  
HETATM    5  N   UNL     1      -7.931  13.863  67.562  1.00  0.00    -0.169 NA 
HETATM    6  C   UNL     1      -7.900  12.518  67.430  1.00  0.00    -0.175 A  
HETATM    7  C   UNL     1      -8.915  14.545  66.916  1.00  0.00    -0.246 A  
ENDROOT
BRANCH   3   8
HETATM    8  O   UNL     1     -10.752  11.675  65.428  1.00  0.00    -0.276 OA 
BRANCH   8   9
HETATM    9  C   UNL     1     -10.947  11.929  64.027  1.00  0.00    -0.381 C  
HETATM   10  C   UNL     1     -12.381  12.323  63.677  1.00  0.00    -0.562 C  
HETATM   11  F   UNL     1     -12.992  11.344  62.967  1.00  0.00    -0.521 F  
HETATM   12  F   UNL     1     -12.390  13.435  62.901  1.00  0.00    -0.575 F  
HETATM   13  F   UNL     1     -13.145  12.582  64.759  1.00  0.00    -0.542 F  
ENDBRANCH   8   9
ENDBRANCH   3   8
BRANCH   7  14
HETATM   14  C   UNL     1      -8.917  16.040  67.188  1.00  0.00    -0.202 C  
BRANCH  14  15
HETATM   15  S   UNL     1      -8.796  16.412  68.947  1.00  0.00    -0.241 S  
HETATM   16  O   UNL     1      -8.951  17.877  69.241  1.00  0.00     0.035 OA 
BRANCH  15  17
HETATM   17  C   UNL     1     -10.242  15.655  69.543  1.00  0.00    -0.277 A  
HETATM   18  N   UNL     1     -10.461  14.360  69.620  1.00  0.00    -0.445 NA 
HETATM   19  C   UNL     1     -11.609  14.236  70.373  1.00  0.00    -0.200 A  
HETATM   20  H   UNL     1      -9.903  13.610  69.212  1.00  0.00     0.000 HD 
HETATM   21  C   UNL     1     -12.265  13.081  70.828  1.00  0.00    -0.359 A  
HETATM   22  C   UNL     1     -13.368  13.224  71.680  1.00  0.00    -0.406 A  
HETATM   23  C   UNL     1     -13.820  14.490  72.059  1.00  0.00    -0.561 A  
HETATM   24  C   UNL     1     -13.207  15.656  71.581  1.00  0.00    -0.554 A  
HETATM   25  C   UNL     1     -12.104  15.485  70.737  1.00  0.00    -0.390 A  
HETATM   26  N   UNL     1     -11.267  16.370  70.109  1.00  0.00    -0.325 NA 
ENDBRANCH  15  17
ENDBRANCH  14  15
ENDBRANCH   7  14
TORSDOF 5
ENDMDL
MODEL       50
REMARK 921   NORMALIZED FREE ENERGY PREDICTED BY IDOCK:   -6.10 KCAL/MOL
REMARK 922        TOTAL FREE ENERGY PREDICTED BY IDOCK:   -8.71 KCAL/MOL
REMARK 923 INTER-LIGAND FREE ENERGY PREDICTED BY IDOCK:   -7.70 KCAL/MOL
REMARK 924 INTRA-LIGAND FREE ENERGY PREDICTED BY IDOCK:   -1.01 KCAL/MOL
REMARK 927      BINDING AFFINITY PREDICTED BY RF-SCORE:    0.00 PKD
ROOT
HETATM    1  C   UNL     1      -9.042  10.660  65.740  1.00  0.00    -0.208 C  
HETATM    2  C   UNL     1      -9.998  11.218  66.752  1.00  0.00    -0.238 A  
HETATM    3  C   UNL     1     -10.798  10.382  67.560  1.00  0.00    -0.301 A  
HETATM    4  C   UNL     1     -11.521  10.934  68.617  1.00  0.00    -0.380 A  
HETATM    5  N   UNL     1     -10.842  13.145  67.960  1.00  0.00    -0.235 NA 
HETATM    6  C   UNL     1     -11.498  12.300  68.786  1.00  0.00    -0.311 A  
HETATM    7  C   UNL     1     -10.118  12.607  66.941  1.00  0.00    -0.230 A  
ENDROOT
BRANCH   3   8
HETATM    8  O   UNL     1     -10.907   9.014  67.480  1.00  0.00    -0.232 OA 
BRANCH   8   9
HETATM    9  C   UNL     1     -10.574   8.273  68.665  1.00  0.00    -0.108 C  
HETATM   10  C   UNL     1      -9.238   7.539  68.565  1.00  0.00    -0.143 C  
HETATM   11  F   UNL     1      -9.425   6.199  68.509  1.00  0.00    -0.121 F  
HETATM   12  F   UNL     1      -8.480   7.784  69.662  1.00  0.00    -0.125 F  
HETATM   13  F   UNL     1      -8.511   7.896  67.486  1.00  0.00    -0.118 F  
ENDBRANCH   8   9
ENDBRANCH   3   8
BRANCH   7  14
HETATM   14  C   UNL     1      -9.481  13.636  66.021  1.00  0.00    -0.090 C  
BRANCH  14  15
HETATM   15  S   UNL     1     -10.707  14.529  65.048  1.00  0.00    -0.439 S  
HETATM   16  O   UNL     1     -12.088  13.956  65.190  1.00  0.00    -0.363 OA 
BRANCH  15  17
HETATM   17  C   UNL     1     -10.740  16.053  65.880  1.00  0.00    -0.280 A  
HETATM   18  N   UNL     1     -10.660  16.226  67.182  1.00  0.00    -0.310 NA 
HETATM   19  C   UNL     1     -10.474  17.581  67.353  1.00  0.00    -0.342 A  
HETATM   20  H   UNL     1     -10.723  15.512  67.908  1.00  0.00     0.000 HD 
HETATM   21  C   UNL     1     -10.258  18.317  68.529  1.00  0.00    -0.402 A  
HETATM   22  C   UNL     1      -9.985  19.688  68.425  1.00  0.00    -0.543 A  
HETATM   23  C   UNL     1      -9.944  20.317  67.179  1.00  0.00    -0.593 A  
HETATM   24  C   UNL     1     -10.201  19.610  65.997  1.00  0.00    -0.587 A  
HETATM   25  C   UNL     1     -10.465  18.242  66.128  1.00  0.00    -0.383 A  
HETATM   26  N   UNL     1     -10.736  17.255  65.217  1.00  0.00    -0.617 NA 
ENDBRANCH  15  17
ENDBRANCH  14  15
ENDBRANCH   7  14
TORSDOF 5
ENDMDL
MODEL       51
REMARK 921   NORMALIZED FREE ENERGY PREDICTED BY IDOCK:   -6.08 KCAL/MOL
REMARK 922        TOTAL FREE ENERGY PREDICTED BY IDOCK:   -8.69 KCAL/MOL
REMARK 923 INTER-LIGAND FREE ENERGY PREDICTED BY IDOCK:   -8.24 KCAL/MOL
REMARK 924 INTRA-LIGAND FREE ENERGY PREDICTED BY IDOCK:   -0.45 KCAL/MOL
REMARK 927      BINDING AFFINITY PREDICTED BY RF-SCORE:    0.00 PKD
ROOT
HETATM    1  C   UNL     1     -11.612  11.855  66.888  1.00  0.00    -0.358 C  
HETATM    2  C   UNL     1     -11.670  12.652  68.157  1.00  0.00    -0.396 A  
HETATM    3  C   UNL     1     -11.674  14.063  68.150  1.00  0.00    -0.352 A  
HETATM    4  C   UNL     1     -11.928  14.756  69.333  1.00  0.00    -0.339 A  
HETATM    5  N   UNL     1     -11.965  12.692  70.564  1.00  0.00    -0.279 NA 
HETATM    6  C   UNL     1     -12.082  14.037  70.496  1.00  0.00    -0.353 A  
HETATM    7  C   UNL     1     -11.739  12.011  69.408  1.00  0.00    -0.340 A  
ENDROOT
BRANCH   3   8
HETATM    8  O   UNL     1     -11.522  14.884  67.058  1.00  0.00    -0.353 OA 
BRANCH   8   9
HETATM    9  C   UNL     1     -10.636  16.005  67.216  1.00  0.00    -0.313 C  
HETATM   10  C   UNL     1     -10.141  16.577  65.888  1.00  0.00    -0.337 C  
HETATM   11  F   UNL     1      -8.820  16.329  65.717  1.00  0.00    -0.350 F  
HETATM   12  F   UNL     1     -10.293  17.924  65.868  1.00  0.00    -0.354 F  
HETATM   13  F   UNL     1     -10.793  16.082  64.815  1.00  0.00    -0.420 F  
ENDBRANCH   8   9
ENDBRANCH   3   8
BRANCH   7  14
HETATM   14  C   UNL     1     -11.543  10.516  69.595  1.00  0.00    -0.271 C  
BRANCH  14  15
HETATM   15  S   UNL     1     -12.078   9.958  71.223  1.00  0.00    -0.418 S  
HETATM   16  O   UNL     1     -13.568  10.029  71.399  1.00  0.00    -0.303 OA 
BRANCH  15  17
HETATM   17  C   UNL     1     -11.693   8.266  71.133  1.00  0.00    -0.280 A  
HETATM   18  N   UNL     1     -11.356   7.606  70.046  1.00  0.00    -0.452 NA 
HETATM   19  C   UNL     1     -10.906   6.383  70.495  1.00  0.00    -0.279 A  
HETATM   20  H   UNL     1     -11.415   7.928  69.080  1.00  0.00     0.000 HD 
HETATM   21  C   UNL     1     -10.358   5.307  69.777  1.00  0.00    -0.369 A  
HETATM   22  C   UNL     1      -9.871   4.202  70.487  1.00  0.00    -0.252 A  
HETATM   23  C   UNL     1      -9.940   4.160  71.880  1.00  0.00    -0.253 A  
HETATM   24  C   UNL     1     -10.522   5.202  72.613  1.00  0.00    -0.262 A  
HETATM   25  C   UNL     1     -10.996   6.296  71.881  1.00  0.00    -0.256 A  
HETATM   26  N   UNL     1     -11.594   7.473  72.249  1.00  0.00    -0.297 NA 
ENDBRANCH  15  17
ENDBRANCH  14  15
ENDBRANCH   7  14
TORSDOF 5
ENDMDL
MODEL       52
REMARK 921   NORMALIZED FREE ENERGY PREDICTED BY IDOCK:   -6.08 KCAL/MOL
REMARK 922        TOTAL FREE ENERGY PREDICTED BY IDOCK:   -8.68 KCAL/MOL
REMARK 923 INTER-LIGAND FREE ENERGY PREDICTED BY IDOCK:   -7.97 KCAL/MOL
REMARK 924 INTRA-LIGAND FREE ENERGY PREDICTED BY IDOCK:   -0.71 KCAL/MOL
REMARK 927      BINDING AFFINITY PREDICTED BY RF-SCORE:    0.00 PKD
ROOT
HETATM    1  C   UNL     1     -12.052  12.380  65.283  1.00  0.00    -0.451 C  
HETATM    2  C   UNL     1     -10.747  12.449  66.019  1.00  0.00    -0.294 A  
HETATM    3  C   UNL     1      -9.950  11.303  66.229  1.00  0.00    -0.221 A  
HETATM    4  C   UNL     1      -8.660  11.447  66.739  1.00  0.00    -0.166 A  
HETATM    5  N   UNL     1      -9.011  13.807  67.032  1.00  0.00    -0.237 NA 
HETATM    6  C   UNL     1      -8.234  12.703  67.105  1.00  0.00    -0.159 A  
HETATM    7  C   UNL     1     -10.262  13.674  66.514  1.00  0.00    -0.284 A  
ENDROOT
BRANCH   3   8
HETATM    8  O   UNL     1     -10.271  10.005  65.914  1.00  0.00    -0.259 OA 
BRANCH   8   9
HETATM    9  C   UNL     1     -10.740   9.179  66.993  1.00  0.00    -0.118 C  
HETATM   10  C   UNL     1     -10.248   7.735  66.909  1.00  0.00    -0.303 C  
HETATM   11  F   UNL     1     -11.270   6.893  66.622  1.00  0.00    -0.418 F  
HETATM   12  F   UNL     1      -9.736   7.340  68.100  1.00  0.00    -0.140 F  
HETATM   13  F   UNL     1      -9.291   7.549  65.976  1.00  0.00    -0.204 F  
ENDBRANCH   8   9
ENDBRANCH   3   8
BRANCH   7  14
HETATM   14  C   UNL     1     -11.088  14.950  66.547  1.00  0.00    -0.341 C  
BRANCH  14  15
HETATM   15  S   UNL     1     -10.356  16.206  67.611  1.00  0.00    -0.294 S  
HETATM   16  O   UNL     1     -10.837  17.592  67.286  1.00  0.00    -0.275 OA 
BRANCH  15  17
HETATM   17  C   UNL     1     -11.076  15.802  69.139  1.00  0.00    -0.283 A  
HETATM   18  N   UNL     1     -10.862  16.417  70.282  1.00  0.00    -0.273 NA 
HETATM   19  C   UNL     1     -11.820  15.922  71.140  1.00  0.00    -0.438 A  
HETATM   20  H   UNL     1     -10.144  17.111  70.489  1.00  0.00     0.000 HD 
HETATM   21  C   UNL     1     -12.105  16.274  72.470  1.00  0.00    -0.615 A  
HETATM   22  C   UNL     1     -13.214  15.692  73.098  1.00  0.00    -0.674 A  
HETATM   23  C   UNL     1     -14.015  14.768  72.424  1.00  0.00    -0.575 A  
HETATM   24  C   UNL     1     -13.723  14.370  71.113  1.00  0.00    -0.297 A  
HETATM   25  C   UNL     1     -12.613  14.970  70.507  1.00  0.00    -0.369 A  
HETATM   26  N   UNL     1     -12.051  14.844  69.264  1.00  0.00    -0.281 NA 
ENDBRANCH  15  17
ENDBRANCH  14  15
ENDBRANCH   7  14
TORSDOF 5
ENDMDL
MODEL       53
REMARK 921   NORMALIZED FREE ENERGY PREDICTED BY IDOCK:   -6.08 KCAL/MOL
REMARK 922        TOTAL FREE ENERGY PREDICTED BY IDOCK:   -8.68 KCAL/MOL
REMARK 923 INTER-LIGAND FREE ENERGY PREDICTED BY IDOCK:   -7.83 KCAL/MOL
REMARK 924 INTRA-LIGAND FREE ENERGY PREDICTED BY IDOCK:   -0.86 KCAL/MOL
REMARK 927      BINDING AFFINITY PREDICTED BY RF-SCORE:    0.00 PKD
ROOT
HETATM    1  C   UNL     1      -9.423   8.993  71.531  1.00  0.00    -0.316 C  
HETATM    2  C   UNL     1     -10.922   8.994  71.589  1.00  0.00    -0.435 A  
HETATM    3  C   UNL     1     -11.640   8.000  72.287  1.00  0.00    -0.366 A  
HETATM    4  C   UNL     1     -13.013   8.152  72.480  1.00  0.00    -0.072 A  
HETATM    5  N   UNL     1     -13.010  10.141  71.130  1.00  0.00    -0.375 NA 
HETATM    6  C   UNL     1     -13.643   9.233  71.906  1.00  0.00    -0.427 A  
HETATM    7  C   UNL     1     -11.667  10.008  70.957  1.00  0.00    -0.392 A  
ENDROOT
BRANCH   3   8
HETATM    8  O   UNL     1     -11.124   6.879  72.891  1.00  0.00    -0.275 OA 
BRANCH   8   9
HETATM    9  C   UNL     1     -11.533   5.612  72.350  1.00  0.00    -0.251 C  
HETATM   10  C   UNL     1     -10.512   5.007  71.388  1.00  0.00    -0.143 C  
HETATM   11  F   UNL     1     -10.979   5.018  70.117  1.00  0.00    -0.254 F  
HETATM   12  F   UNL     1     -10.272   3.711  71.707  1.00  0.00    -0.246 F  
HETATM   13  F   UNL     1      -9.325   5.649  71.394  1.00  0.00    -0.149 F  
ENDBRANCH   8   9
ENDBRANCH   3   8
BRANCH   7  14
HETATM   14  C   UNL     1     -11.058  11.027  70.007  1.00  0.00    -0.161 C  
BRANCH  14  15
HETATM   15  S   UNL     1     -12.211  12.349  69.598  1.00  0.00    -0.027 S  
HETATM   16  O   UNL     1     -11.852  13.654  70.249  1.00  0.00    -0.306 OA 
BRANCH  15  17
HETATM   17  C   UNL     1     -11.882  12.559  67.905  1.00  0.00    -0.323 A  
HETATM   18  N   UNL     1     -11.492  11.620  67.070  1.00  0.00    -0.490 NA 
HETATM   19  C   UNL     1     -11.603  12.186  65.818  1.00  0.00    -0.355 A  
HETATM   20  H   UNL     1     -11.176  10.678  67.299  1.00  0.00     0.000 HD 
HETATM   21  C   UNL     1     -11.385  11.617  64.552  1.00  0.00    -0.310 A  
HETATM   22  C   UNL     1     -11.675  12.379  63.413  1.00  0.00    -0.554 A  
HETATM   23  C   UNL     1     -12.157  13.684  63.528  1.00  0.00    -0.341 A  
HETATM   24  C   UNL     1     -12.339  14.286  64.781  1.00  0.00    -0.440 A  
HETATM   25  C   UNL     1     -12.047  13.501  65.902  1.00  0.00    -0.435 A  
HETATM   26  N   UNL     1     -12.121  13.741  67.250  1.00  0.00    -0.385 NA 
ENDBRANCH  15  17
ENDBRANCH  14  15
ENDBRANCH   7  14
TORSDOF 5
ENDMDL
MODEL       54
REMARK 921   NORMALIZED FREE ENERGY PREDICTED BY IDOCK:   -6.05 KCAL/MOL
REMARK 922        TOTAL FREE ENERGY PREDICTED BY IDOCK:   -8.65 KCAL/MOL
REMARK 923 INTER-LIGAND FREE ENERGY PREDICTED BY IDOCK:   -7.87 KCAL/MOL
REMARK 924 INTRA-LIGAND FREE ENERGY PREDICTED BY IDOCK:   -0.78 KCAL/MOL
REMARK 927      BINDING AFFINITY PREDICTED BY RF-SCORE:    0.00 PKD
ROOT
HETATM    1  C   UNL     1      -9.140  11.367  68.013  1.00  0.00    -0.171 C  
HETATM    2  C   UNL     1      -9.359  11.300  66.531  1.00  0.00    -0.201 A  
HETATM    3  C   UNL     1      -9.114  10.120  65.795  1.00  0.00    -0.171 A  
HETATM    4  C   UNL     1      -9.518  10.045  64.463  1.00  0.00    -0.359 A  
HETATM    5  N   UNL     1     -10.210  12.346  64.515  1.00  0.00    -0.307 NA 
HETATM    6  C   UNL     1     -10.070  11.162  63.879  1.00  0.00    -0.348 A  
HETATM    7  C   UNL     1      -9.837  12.417  65.821  1.00  0.00    -0.240 A  
ENDROOT
BRANCH   3   8
HETATM    8  O   UNL     1      -8.564   8.953  66.267  1.00  0.00    -0.123 OA 
BRANCH   8   9
HETATM    9  C   UNL     1      -9.280   7.741  65.973  1.00  0.00    -0.082 C  
HETATM   10  C   UNL     1     -10.029   7.175  67.178  1.00  0.00    -0.209 C  
HETATM   11  F   UNL     1      -9.460   6.021  67.602  1.00  0.00    -0.116 F  
HETATM   12  F   UNL     1     -11.310   6.881  66.843  1.00  0.00    -0.475 F  
HETATM   13  F   UNL     1     -10.072   8.021  68.229  1.00  0.00    -0.179 F  
ENDBRANCH   8   9
ENDBRANCH   3   8
BRANCH   7  14
HETATM   14  C   UNL     1      -9.957  13.806  66.428  1.00  0.00    -0.297 C  
BRANCH  14  15
HETATM   15  S   UNL     1     -11.667  14.368  66.508  1.00  0.00    -0.379 S  
HETATM   16  O   UNL     1     -12.634  13.363  65.951  1.00  0.00    -0.426 OA 
BRANCH  15  17
HETATM   17  C   UNL     1     -11.930  14.376  68.225  1.00  0.00    -0.288 A  
HETATM   18  N   UNL     1     -12.351  15.398  68.939  1.00  0.00    -0.608 NA 
HETATM   19  C   UNL     1     -12.645  14.872  70.178  1.00  0.00    -0.264 A  
HETATM   20  H   UNL     1     -12.441  16.369  68.640  1.00  0.00     0.000 HD 
HETATM   21  C   UNL     1     -13.197  15.493  71.311  1.00  0.00    -0.588 A  
HETATM   22  C   UNL     1     -13.504  14.706  72.428  1.00  0.00    -0.534 A  
HETATM   23  C   UNL     1     -13.255  13.332  72.426  1.00  0.00    -0.539 A  
HETATM   24  C   UNL     1     -12.665  12.700  71.323  1.00  0.00    -0.354 A  
HETATM   25  C   UNL     1     -12.373  13.508  70.219  1.00  0.00    -0.300 A  
HETATM   26  N   UNL     1     -11.825  13.242  68.991  1.00  0.00    -0.313 NA 
ENDBRANCH  15  17
ENDBRANCH  14  15
ENDBRANCH   7  14
TORSDOF 5
ENDMDL
MODEL       55
REMARK 921   NORMALIZED FREE ENERGY PREDICTED BY IDOCK:   -6.04 KCAL/MOL
REMARK 922        TOTAL FREE ENERGY PREDICTED BY IDOCK:   -8.63 KCAL/MOL
REMARK 923 INTER-LIGAND FREE ENERGY PREDICTED BY IDOCK:   -7.91 KCAL/MOL
REMARK 924 INTRA-LIGAND FREE ENERGY PREDICTED BY IDOCK:   -0.72 KCAL/MOL
REMARK 927      BINDING AFFINITY PREDICTED BY RF-SCORE:    0.00 PKD
ROOT
HETATM    1  C   UNL     1     -10.944  10.044  67.483  1.00  0.00    -0.276 C  
HETATM    2  C   UNL     1     -10.123   9.604  66.307  1.00  0.00    -0.322 A  
HETATM    3  C   UNL     1      -9.822  10.478  65.240  1.00  0.00    -0.284 A  
HETATM    4  C   UNL     1      -8.896  10.088  64.273  1.00  0.00    -0.245 A  
HETATM    5  N   UNL     1      -8.719   7.913  65.279  1.00  0.00    -0.065 NA 
HETATM    6  C   UNL     1      -8.366   8.821  64.343  1.00  0.00    -0.157 A  
HETATM    7  C   UNL     1      -9.606   8.297  66.238  1.00  0.00    -0.196 A  
ENDROOT
BRANCH   3   8
HETATM    8  O   UNL     1     -10.296  11.755  65.060  1.00  0.00    -0.257 OA 
BRANCH   8   9
HETATM    9  C   UNL     1     -10.774  12.084  63.745  1.00  0.00    -0.423 C  
HETATM   10  C   UNL     1     -12.260  12.434  63.711  1.00  0.00    -0.533 C  
HETATM   11  F   UNL     1     -12.969  11.473  63.071  1.00  0.00    -0.628 F  
HETATM   12  F   UNL     1     -12.459  13.589  63.029  1.00  0.00    -0.555 F  
HETATM   13  F   UNL     1     -12.801  12.593  64.937  1.00  0.00    -0.546 F  
ENDBRANCH   8   9
ENDBRANCH   3   8
BRANCH   7  14
HETATM   14  C   UNL     1     -10.003   7.187  67.198  1.00  0.00    -0.209 C  
BRANCH  14  15
HETATM   15  S   UNL     1      -9.026   7.216  68.712  1.00  0.00    -0.127 S  
HETATM   16  O   UNL     1      -8.086   8.386  68.773  1.00  0.00    -0.117 OA 
BRANCH  15  17
HETATM   17  C   UNL     1     -10.259   7.540  69.892  1.00  0.00    -0.210 A  
HETATM   18  N   UNL     1     -10.434   8.672  70.538  1.00  0.00    -0.200 NA 
HETATM   19  C   UNL     1     -11.657   8.544  71.161  1.00  0.00    -0.281 A  
HETATM   20  H   UNL     1      -9.802   9.473  70.571  1.00  0.00     0.000 HD 
HETATM   21  C   UNL     1     -12.376   9.474  71.929  1.00  0.00    -0.450 A  
HETATM   22  C   UNL     1     -13.663   9.134  72.367  1.00  0.00    -0.543 A  
HETATM   23  C   UNL     1     -14.217   7.890  72.062  1.00  0.00    -0.441 A  
HETATM   24  C   UNL     1     -13.500   6.931  71.334  1.00  0.00    -0.249 A  
HETATM   25  C   UNL     1     -12.220   7.298  70.904  1.00  0.00    -0.270 A  
HETATM   26  N   UNL     1     -11.260   6.645  70.175  1.00  0.00    -0.331 NA 
ENDBRANCH  15  17
ENDBRANCH  14  15
ENDBRANCH   7  14
TORSDOF 5
ENDMDL
MODEL       56
REMARK 921   NORMALIZED FREE ENERGY PREDICTED BY IDOCK:   -6.02 KCAL/MOL
REMARK 922        TOTAL FREE ENERGY PREDICTED BY IDOCK:   -8.61 KCAL/MOL
REMARK 923 INTER-LIGAND FREE ENERGY PREDICTED BY IDOCK:   -7.82 KCAL/MOL
REMARK 924 INTRA-LIGAND FREE ENERGY PREDICTED BY IDOCK:   -0.79 KCAL/MOL
REMARK 927      BINDING AFFINITY PREDICTED BY RF-SCORE:    0.00 PKD
ROOT
HETATM    1  C   UNL     1      -9.595   9.654  70.446  1.00  0.00    -0.292 C  
HETATM    2  C   UNL     1     -10.976   9.537  71.020  1.00  0.00    -0.424 A  
HETATM    3  C   UNL     1     -11.380   8.408  71.763  1.00  0.00    -0.300 A  
HETATM    4  C   UNL     1     -12.598   8.432  72.442  1.00  0.00    -0.372 A  
HETATM    5  N   UNL     1     -13.115  10.579  71.493  1.00  0.00    -0.423 NA 
HETATM    6  C   UNL     1     -13.413   9.531  72.292  1.00  0.00    -0.440 A  
HETATM    7  C   UNL     1     -11.917  10.569  70.847  1.00  0.00    -0.377 A  
ENDROOT
BRANCH   3   8
HETATM    8  O   UNL     1     -10.659   7.257  71.974  1.00  0.00    -0.204 OA 
BRANCH   8   9
HETATM    9  C   UNL     1     -11.194   6.051  71.401  1.00  0.00    -0.262 C  
HETATM   10  C   UNL     1     -10.627   5.734  70.019  1.00  0.00    -0.310 C  
HETATM   11  F   UNL     1     -11.571   5.891  69.061  1.00  0.00    -0.372 F  
HETATM   12  F   UNL     1     -10.218   4.443  69.961  1.00  0.00    -0.296 F  
HETATM   13  F   UNL     1      -9.571   6.505  69.683  1.00  0.00    -0.146 F  
ENDBRANCH   8   9
ENDBRANCH   3   8
BRANCH   7  14
HETATM   14  C   UNL     1     -11.706  11.749  69.912  1.00  0.00    -0.323 C  
BRANCH  14  15
HETATM   15  S   UNL     1     -12.659  13.193  70.412  1.00  0.00    -0.041 S  
HETATM   16  O   UNL     1     -12.217  13.749  71.736  1.00  0.00    -0.160 OA 
BRANCH  15  17
HETATM   17  C   UNL     1     -12.151  14.351  69.220  1.00  0.00    -0.299 A  
HETATM   18  N   UNL     1     -11.728  15.573  69.461  1.00  0.00    -0.343 NA 
HETATM   19  C   UNL     1     -11.208  16.014  68.263  1.00  0.00    -0.350 A  
HETATM   20  H   UNL     1     -11.774  16.085  70.342  1.00  0.00     0.000 HD 
HETATM   21  C   UNL     1     -10.559  17.221  67.954  1.00  0.00    -0.384 A  
HETATM   22  C   UNL     1     -10.019  17.386  66.671  1.00  0.00    -0.308 A  
HETATM   23  C   UNL     1     -10.135  16.380  65.711  1.00  0.00    -0.352 A  
HETATM   24  C   UNL     1     -10.817  15.187  65.984  1.00  0.00    -0.335 A  
HETATM   25  C   UNL     1     -11.342  15.044  67.273  1.00  0.00    -0.332 A  
HETATM   26  N   UNL     1     -12.036  14.036  67.890  1.00  0.00    -0.371 NA 
ENDBRANCH  15  17
ENDBRANCH  14  15
ENDBRANCH   7  14
TORSDOF 5
ENDMDL
MODEL       57
REMARK 921   NORMALIZED FREE ENERGY PREDICTED BY IDOCK:   -6.00 KCAL/MOL
REMARK 922        TOTAL FREE ENERGY PREDICTED BY IDOCK:   -8.58 KCAL/MOL
REMARK 923 INTER-LIGAND FREE ENERGY PREDICTED BY IDOCK:   -8.48 KCAL/MOL
REMARK 924 INTRA-LIGAND FREE ENERGY PREDICTED BY IDOCK:   -0.10 KCAL/MOL
REMARK 927      BINDING AFFINITY PREDICTED BY RF-SCORE:    0.00 PKD
ROOT
HETATM    1  C   UNL     1     -13.164  12.026  71.836  1.00  0.00    -0.469 C  
HETATM    2  C   UNL     1     -12.229  11.520  70.778  1.00  0.00    -0.463 A  
HETATM    3  C   UNL     1     -11.662  10.229  70.842  1.00  0.00    -0.379 A  
HETATM    4  C   UNL     1     -10.962   9.731  69.743  1.00  0.00    -0.287 A  
HETATM    5  N   UNL     1     -11.194  11.836  68.607  1.00  0.00    -0.234 NA 
HETATM    6  C   UNL     1     -10.772  10.554  68.656  1.00  0.00    -0.215 A  
HETATM    7  C   UNL     1     -11.897  12.319  69.668  1.00  0.00    -0.324 A  
ENDROOT
BRANCH   3   8
HETATM    8  O   UNL     1     -11.777   9.326  71.872  1.00  0.00    -0.370 OA 
BRANCH   8   9
HETATM    9  C   UNL     1     -12.657   8.211  71.653  1.00  0.00    -0.320 C  
HETATM   10  C   UNL     1     -11.919   6.894  71.420  1.00  0.00    -0.349 C  
HETATM   11  F   UNL     1     -12.061   6.482  70.137  1.00  0.00    -0.468 F  
HETATM   12  F   UNL     1     -12.435   5.918  72.206  1.00  0.00    -0.362 F  
HETATM   13  F   UNL     1     -10.597   6.967  71.683  1.00  0.00    -0.215 F  
ENDBRANCH   8   9
ENDBRANCH   3   8
BRANCH   7  14
HETATM   14  C   UNL     1     -12.261  13.790  69.556  1.00  0.00    -0.293 C  
BRANCH  14  15
HETATM   15  S   UNL     1     -10.977  14.747  68.730  1.00  0.00    -0.272 S  
HETATM   16  O   UNL     1      -9.593  14.369  69.178  1.00  0.00    -0.112 OA 
BRANCH  15  17
HETATM   17  C   UNL     1     -11.124  14.159  67.102  1.00  0.00    -0.307 A  
HETATM   18  N   UNL     1     -10.139  13.735  66.340  1.00  0.00    -0.287 NA 
HETATM   19  C   UNL     1     -10.753  13.144  65.258  1.00  0.00    -0.303 A  
HETATM   20  H   UNL     1      -9.138  13.824  66.513  1.00  0.00     0.000 HD 
HETATM   21  C   UNL     1     -10.189  12.464  64.165  1.00  0.00    -0.377 A  
HETATM   22  C   UNL     1     -11.045  11.851  63.240  1.00  0.00    -0.390 A  
HETATM   23  C   UNL     1     -12.431  11.927  63.387  1.00  0.00    -0.582 A  
HETATM   24  C   UNL     1     -13.014  12.638  64.444  1.00  0.00    -0.232 A  
HETATM   25  C   UNL     1     -12.138  13.235  65.357  1.00  0.00    -0.422 A  
HETATM   26  N   UNL     1     -12.340  13.974  66.494  1.00  0.00    -0.449 NA 
ENDBRANCH  15  17
ENDBRANCH  14  15
ENDBRANCH   7  14
TORSDOF 5
ENDMDL
MODEL       58
REMARK 921   NORMALIZED FREE ENERGY PREDICTED BY IDOCK:   -5.99 KCAL/MOL
REMARK 922        TOTAL FREE ENERGY PREDICTED BY IDOCK:   -8.56 KCAL/MOL
REMARK 923 INTER-LIGAND FREE ENERGY PREDICTED BY IDOCK:   -7.97 KCAL/MOL
REMARK 924 INTRA-LIGAND FREE ENERGY PREDICTED BY IDOCK:   -0.59 KCAL/MOL
REMARK 927      BINDING AFFINITY PREDICTED BY RF-SCORE:    0.00 PKD
ROOT
HETATM    1  C   UNL     1     -10.008  20.300  67.298  1.00  0.00    -0.580 C  
HETATM    2  C   UNL     1      -8.915  19.395  67.783  1.00  0.00    -0.365 A  
HETATM    3  C   UNL     1      -7.571  19.821  67.850  1.00  0.00    -0.296 A  
HETATM    4  C   UNL     1      -6.627  19.019  68.490  1.00  0.00    -0.276 A  
HETATM    5  N   UNL     1      -8.270  17.296  68.814  1.00  0.00    -0.256 NA 
HETATM    6  C   UNL     1      -7.022  17.790  68.966  1.00  0.00    -0.236 A  
HETATM    7  C   UNL     1      -9.200  18.084  68.209  1.00  0.00    -0.293 A  
ENDROOT
BRANCH   3   8
HETATM    8  O   UNL     1      -7.061  21.016  67.403  1.00  0.00    -0.365 OA 
BRANCH   8   9
HETATM    9  C   UNL     1      -5.808  20.957  66.701  1.00  0.00    -0.226 C  
HETATM   10  C   UNL     1      -5.934  20.402  65.284  1.00  0.00    -0.222 C  
HETATM   11  F   UNL     1      -5.355  19.181  65.189  1.00  0.00    -0.169 F  
HETATM   12  F   UNL     1      -5.296  21.209  64.401  1.00  0.00    -0.233 F  
HETATM   13  F   UNL     1      -7.212  20.282  64.867  1.00  0.00    -0.308 F  
ENDBRANCH   8   9
ENDBRANCH   3   8
BRANCH   7  14
HETATM   14  C   UNL     1     -10.550  17.414  68.013  1.00  0.00    -0.389 C  
BRANCH  14  15
HETATM   15  S   UNL     1     -10.485  16.099  66.784  1.00  0.00    -0.272 S  
HETATM   16  O   UNL     1      -9.080  15.665  66.473  1.00  0.00    -0.250 OA 
BRANCH  15  17
HETATM   17  C   UNL     1     -11.199  14.786  67.669  1.00  0.00    -0.323 A  
HETATM   18  N   UNL     1     -11.123  13.510  67.357  1.00  0.00    -0.275 NA 
HETATM   19  C   UNL     1     -11.611  12.842  68.459  1.00  0.00    -0.323 A  
HETATM   20  H   UNL     1     -10.778  13.103  66.488  1.00  0.00     0.000 HD 
HETATM   21  C   UNL     1     -11.700  11.463  68.709  1.00  0.00    -0.404 A  
HETATM   22  C   UNL     1     -12.140  11.033  69.967  1.00  0.00    -0.441 A  
HETATM   23  C   UNL     1     -12.499  11.954  70.953  1.00  0.00    -0.397 A  
HETATM   24  C   UNL     1     -12.461  13.333  70.710  1.00  0.00    -0.403 A  
HETATM   25  C   UNL     1     -12.012  13.736  69.448  1.00  0.00    -0.347 A  
HETATM   26  N   UNL     1     -11.830  14.968  68.874  1.00  0.00    -0.321 NA 
ENDBRANCH  15  17
ENDBRANCH  14  15
ENDBRANCH   7  14
TORSDOF 5
ENDMDL
MODEL       59
REMARK 921   NORMALIZED FREE ENERGY PREDICTED BY IDOCK:   -5.96 KCAL/MOL
REMARK 922        TOTAL FREE ENERGY PREDICTED BY IDOCK:   -8.53 KCAL/MOL
REMARK 923 INTER-LIGAND FREE ENERGY PREDICTED BY IDOCK:   -8.00 KCAL/MOL
REMARK 924 INTRA-LIGAND FREE ENERGY PREDICTED BY IDOCK:   -0.54 KCAL/MOL
REMARK 927      BINDING AFFINITY PREDICTED BY RF-SCORE:    0.00 PKD
ROOT
HETATM    1  C   UNL     1      -8.250  13.737  66.888  1.00  0.00     0.045 C  
HETATM    2  C   UNL     1      -9.656  13.535  66.404  1.00  0.00    -0.268 A  
HETATM    3  C   UNL     1     -10.092  12.299  65.880  1.00  0.00    -0.251 A  
HETATM    4  C   UNL     1     -11.449  12.099  65.630  1.00  0.00    -0.408 A  
HETATM    5  N   UNL     1     -11.919  14.385  66.206  1.00  0.00    -0.396 NA 
HETATM    6  C   UNL     1     -12.315  13.151  65.822  1.00  0.00    -0.435 A  
HETATM    7  C   UNL     1     -10.599  14.577  66.473  1.00  0.00    -0.297 A  
ENDROOT
BRANCH   3   8
HETATM    8  O   UNL     1      -9.322  11.186  65.639  1.00  0.00    -0.208 OA 
BRANCH   8   9
HETATM    9  C   UNL     1     -10.021   9.937  65.515  1.00  0.00    -0.292 C  
HETATM   10  C   UNL     1      -9.599   8.901  66.555  1.00  0.00    -0.232 C  
HETATM   11  F   UNL     1      -8.916   7.884  65.975  1.00  0.00    -0.166 F  
HETATM   12  F   UNL     1     -10.689   8.354  67.148  1.00  0.00    -0.355 F  
HETATM   13  F   UNL     1      -8.822   9.410  67.534  1.00  0.00    -0.118 F  
ENDBRANCH   8   9
ENDBRANCH   3   8
BRANCH   7  14
HETATM   14  C   UNL     1     -10.238  16.013  66.820  1.00  0.00    -0.274 C  
BRANCH  14  15
HETATM   15  S   UNL     1      -9.704  16.185  68.532  1.00  0.00    -0.224 S  
HETATM   16  O   UNL     1      -9.744  17.608  69.011  1.00  0.00    -0.269 OA 
BRANCH  15  17
HETATM   17  C   UNL     1     -10.995  15.370  69.362  1.00  0.00    -0.276 A  
HETATM   18  N   UNL     1     -11.031  14.092  69.672  1.00  0.00    -0.437 NA 
HETATM   19  C   UNL     1     -12.105  13.961  70.525  1.00  0.00    -0.356 A  
HETATM   20  H   UNL     1     -10.401  13.357  69.351  1.00  0.00     0.000 HD 
HETATM   21  C   UNL     1     -12.570  12.832  71.219  1.00  0.00    -0.347 A  
HETATM   22  C   UNL     1     -13.631  12.985  72.122  1.00  0.00    -0.618 A  
HETATM   23  C   UNL     1     -14.228  14.231  72.319  1.00  0.00    -0.587 A  
HETATM   24  C   UNL     1     -13.809  15.361  71.605  1.00  0.00    -0.606 A  
HETATM   25  C   UNL     1     -12.745  15.183  70.715  1.00  0.00    -0.405 A  
HETATM   26  N   UNL     1     -12.074  16.040  69.882  1.00  0.00    -0.215 NA 
ENDBRANCH  15  17
ENDBRANCH  14  15
ENDBRANCH   7  14
TORSDOF 5
ENDMDL
MODEL       60
REMARK 921   NORMALIZED FREE ENERGY PREDICTED BY IDOCK:   -5.96 KCAL/MOL
REMARK 922        TOTAL FREE ENERGY PREDICTED BY IDOCK:   -8.53 KCAL/MOL
REMARK 923 INTER-LIGAND FREE ENERGY PREDICTED BY IDOCK:   -8.04 KCAL/MOL
REMARK 924 INTRA-LIGAND FREE ENERGY PREDICTED BY IDOCK:   -0.50 KCAL/MOL
REMARK 927      BINDING AFFINITY PREDICTED BY RF-SCORE:    0.00 PKD
ROOT
HETATM    1  C   UNL     1     -10.329  16.268  65.387  1.00  0.00    -0.320 C  
HETATM    2  C   UNL     1      -9.301  15.484  66.149  1.00  0.00    -0.380 A  
HETATM    3  C   UNL     1      -8.233  16.115  66.821  1.00  0.00    -0.269 A  
HETATM    4  C   UNL     1      -7.422  15.368  67.676  1.00  0.00    -0.195 A  
HETATM    5  N   UNL     1      -8.574  13.353  67.050  1.00  0.00    -0.192 NA 
HETATM    6  C   UNL     1      -7.639  14.012  67.770  1.00  0.00    -0.170 A  
HETATM    7  C   UNL     1      -9.381  14.081  66.232  1.00  0.00    -0.175 A  
ENDROOT
BRANCH   3   8
HETATM    8  O   UNL     1      -7.915  17.452  66.796  1.00  0.00    -0.211 OA 
BRANCH   8   9
HETATM    9  C   UNL     1      -8.546  18.280  67.786  1.00  0.00    -0.256 C  
HETATM   10  C   UNL     1      -8.543  19.765  67.425  1.00  0.00    -0.322 C  
HETATM   11  F   UNL     1      -7.717  20.460  68.243  1.00  0.00    -0.285 F  
HETATM   12  F   UNL     1      -9.782  20.292  67.578  1.00  0.00    -0.466 F  
HETATM   13  F   UNL     1      -8.158  20.006  66.154  1.00  0.00    -0.306 F  
ENDBRANCH   8   9
ENDBRANCH   3   8
BRANCH   7  14
HETATM   14  C   UNL     1     -10.346  13.246  65.406  1.00  0.00    -0.306 C  
BRANCH  14  15
HETATM   15  S   UNL     1     -12.062  13.527  65.875  1.00  0.00    -0.454 S  
HETATM   16  O   UNL     1     -13.000  12.522  65.268  1.00  0.00    -0.588 OA 
BRANCH  15  17
HETATM   17  C   UNL     1     -12.004  13.154  67.571  1.00  0.00    -0.317 A  
HETATM   18  N   UNL     1     -12.132  14.016  68.557  1.00  0.00    -0.505 NA 
HETATM   19  C   UNL     1     -12.271  13.244  69.690  1.00  0.00    -0.199 A  
HETATM   20  H   UNL     1     -12.129  15.034  68.497  1.00  0.00     0.000 HD 
HETATM   21  C   UNL     1     -12.508  13.632  71.019  1.00  0.00    -0.456 A  
HETATM   22  C   UNL     1     -12.721  12.639  71.984  1.00  0.00    -0.124 A  
HETATM   23  C   UNL     1     -12.683  11.287  71.639  1.00  0.00    -0.448 A  
HETATM   24  C   UNL     1     -12.404  10.877  70.328  1.00  0.00    -0.412 A  
HETATM   25  C   UNL     1     -12.202  11.888  69.383  1.00  0.00    -0.125 A  
HETATM   26  N   UNL     1     -11.932  11.866  68.040  1.00  0.00    -0.553 NA 
ENDBRANCH  15  17
ENDBRANCH  14  15
ENDBRANCH   7  14
TORSDOF 5
ENDMDL
MODEL       61
REMARK 921   NORMALIZED FREE ENERGY PREDICTED BY IDOCK:   -5.95 KCAL/MOL
REMARK 922        TOTAL FREE ENERGY PREDICTED BY IDOCK:   -8.51 KCAL/MOL
REMARK 923 INTER-LIGAND FREE ENERGY PREDICTED BY IDOCK:   -7.66 KCAL/MOL
REMARK 924 INTRA-LIGAND FREE ENERGY PREDICTED BY IDOCK:   -0.85 KCAL/MOL
REMARK 927      BINDING AFFINITY PREDICTED BY RF-SCORE:    0.00 PKD
ROOT
HETATM    1  C   UNL     1     -11.028  16.703  69.444  1.00  0.00    -0.235 C  
HETATM    2  C   UNL     1     -10.037  16.146  68.466  1.00  0.00    -0.241 A  
HETATM    3  C   UNL     1      -8.903  16.879  68.057  1.00  0.00    -0.216 A  
HETATM    4  C   UNL     1      -7.911  16.249  67.306  1.00  0.00    -0.203 A  
HETATM    5  N   UNL     1      -9.238  14.250  67.181  1.00  0.00    -0.213 NA 
HETATM    6  C   UNL     1      -8.112  14.946  66.912  1.00  0.00    -0.084 A  
HETATM    7  C   UNL     1     -10.198  14.853  67.933  1.00  0.00    -0.228 A  
ENDROOT
BRANCH   3   8
HETATM    8  O   UNL     1      -8.601  18.181  68.378  1.00  0.00    -0.287 OA 
BRANCH   8   9
HETATM    9  C   UNL     1      -8.799  19.160  67.345  1.00  0.00    -0.293 C  
HETATM   10  C   UNL     1     -10.040  20.024  67.559  1.00  0.00    -0.425 C  
HETATM   11  F   UNL     1     -10.991  19.741  66.637  1.00  0.00    -0.563 F  
HETATM   12  F   UNL     1      -9.733  21.337  67.417  1.00  0.00    -0.611 F  
HETATM   13  F   UNL     1     -10.595  19.871  68.780  1.00  0.00    -0.506 F  
ENDBRANCH   8   9
ENDBRANCH   3   8
BRANCH   7  14
HETATM   14  C   UNL     1     -11.459  14.023  68.116  1.00  0.00    -0.309 C  
BRANCH  14  15
HETATM   15  S   UNL     1     -12.251  13.633  66.545  1.00  0.00    -0.370 S  
HETATM   16  O   UNL     1     -11.902  14.614  65.462  1.00  0.00    -0.349 OA 
BRANCH  15  17
HETATM   17  C   UNL     1     -11.437  12.157  66.125  1.00  0.00    -0.371 A  
HETATM   18  N   UNL     1     -10.781  11.926  65.008  1.00  0.00    -0.282 NA 
HETATM   19  C   UNL     1     -10.108  10.744  65.227  1.00  0.00    -0.290 A  
HETATM   20  H   UNL     1     -10.772  12.498  64.163  1.00  0.00     0.000 HD 
HETATM   21  C   UNL     1      -9.201  10.059  64.401  1.00  0.00    -0.316 A  
HETATM   22  C   UNL     1      -8.561   8.918  64.904  1.00  0.00    -0.198 A  
HETATM   23  C   UNL     1      -8.829   8.458  66.194  1.00  0.00    -0.198 A  
HETATM   24  C   UNL     1      -9.763   9.099  67.017  1.00  0.00    -0.245 A  
HETATM   25  C   UNL     1     -10.383  10.239  66.494  1.00  0.00    -0.211 A  
HETATM   26  N   UNL     1     -11.311  11.110  67.003  1.00  0.00    -0.417 NA 
ENDBRANCH  15  17
ENDBRANCH  14  15
ENDBRANCH   7  14
TORSDOF 5
ENDMDL
MODEL       62
REMARK 921   NORMALIZED FREE ENERGY PREDICTED BY IDOCK:   -5.94 KCAL/MOL
REMARK 922        TOTAL FREE ENERGY PREDICTED BY IDOCK:   -8.51 KCAL/MOL
REMARK 923 INTER-LIGAND FREE ENERGY PREDICTED BY IDOCK:   -7.96 KCAL/MOL
REMARK 924 INTRA-LIGAND FREE ENERGY PREDICTED BY IDOCK:   -0.55 KCAL/MOL
REMARK 927      BINDING AFFINITY PREDICTED BY RF-SCORE:    0.00 PKD
ROOT
HETATM    1  C   UNL     1      -8.444  12.634  66.759  1.00  0.00    -0.054 C  
HETATM    2  C   UNL     1      -9.821  13.079  66.364  1.00  0.00    -0.270 A  
HETATM    3  C   UNL     1     -10.723  12.215  65.708  1.00  0.00    -0.267 A  
HETATM    4  C   UNL     1     -12.051  12.606  65.539  1.00  0.00    -0.515 A  
HETATM    5  N   UNL     1     -11.560  14.768  66.467  1.00  0.00    -0.337 NA 
HETATM    6  C   UNL     1     -12.422  13.867  65.945  1.00  0.00    -0.481 A  
HETATM    7  C   UNL     1     -10.268  14.382  66.653  1.00  0.00    -0.277 A  
ENDROOT
BRANCH   3   8
HETATM    8  O   UNL     1     -10.465  10.944  65.252  1.00  0.00    -0.271 OA 
BRANCH   8   9
HETATM    9  C   UNL     1     -10.573  10.736  63.834  1.00  0.00    -0.079 C  
HETATM   10  C   UNL     1      -9.241  10.391  63.170  1.00  0.00    -0.294 C  
HETATM   11  F   UNL     1      -8.818  11.406  62.379  1.00  0.00    -0.339 F  
HETATM   12  F   UNL     1      -9.379   9.303  62.372  1.00  0.00    -0.270 F  
HETATM   13  F   UNL     1      -8.257  10.121  64.053  1.00  0.00    -0.143 F  
ENDBRANCH   8   9
ENDBRANCH   3   8
BRANCH   7  14
HETATM   14  C   UNL     1      -9.358  15.485  67.170  1.00  0.00    -0.216 C  
BRANCH  14  15
HETATM   15  S   UNL     1      -8.746  15.141  68.829  1.00  0.00    -0.205 S  
HETATM   16  O   UNL     1      -8.011  16.306  69.428  1.00  0.00    -0.216 OA 
BRANCH  15  17
HETATM   17  C   UNL     1     -10.238  15.020  69.711  1.00  0.00    -0.125 A  
HETATM   18  N   UNL     1     -11.018  13.962  69.772  1.00  0.00    -0.462 NA 
HETATM   19  C   UNL     1     -11.927  14.245  70.767  1.00  0.00    -0.320 A  
HETATM   20  H   UNL     1     -10.961  13.116  69.205  1.00  0.00     0.000 HD 
HETATM   21  C   UNL     1     -12.949  13.444  71.305  1.00  0.00    -0.368 A  
HETATM   22  C   UNL     1     -13.678  13.928  72.400  1.00  0.00    -0.678 A  
HETATM   23  C   UNL     1     -13.407  15.187  72.939  1.00  0.00    -0.603 A  
HETATM   24  C   UNL     1     -12.423  16.019  72.390  1.00  0.00    -0.549 A  
HETATM   25  C   UNL     1     -11.706  15.510  71.302  1.00  0.00    -0.401 A  
HETATM   26  N   UNL     1     -10.687  16.018  70.539  1.00  0.00    -0.218 NA 
ENDBRANCH  15  17
ENDBRANCH  14  15
ENDBRANCH   7  14
TORSDOF 5
ENDMDL
MODEL       63
REMARK 921   NORMALIZED FREE ENERGY PREDICTED BY IDOCK:   -5.94 KCAL/MOL
REMARK 922        TOTAL FREE ENERGY PREDICTED BY IDOCK:   -8.51 KCAL/MOL
REMARK 923 INTER-LIGAND FREE ENERGY PREDICTED BY IDOCK:   -7.69 KCAL/MOL
REMARK 924 INTRA-LIGAND FREE ENERGY PREDICTED BY IDOCK:   -0.82 KCAL/MOL
REMARK 927      BINDING AFFINITY PREDICTED BY RF-SCORE:    0.00 PKD
ROOT
HETATM    1  C   UNL     1     -12.711   6.953  71.701  1.00  0.00    -0.396 C  
HETATM    2  C   UNL     1     -11.420   7.693  71.886  1.00  0.00    -0.313 A  
HETATM    3  C   UNL     1     -10.487   7.325  72.879  1.00  0.00    -0.282 A  
HETATM    4  C   UNL     1      -9.222   7.911  72.884  1.00  0.00    -0.297 A  
HETATM    5  N   UNL     1      -9.857   9.363  71.078  1.00  0.00    -0.277 NA 
HETATM    6  C   UNL     1      -8.950   8.899  71.966  1.00  0.00    -0.037 A  
HETATM    7  C   UNL     1     -11.086   8.779  71.055  1.00  0.00    -0.270 A  
ENDROOT
BRANCH   3   8
HETATM    8  O   UNL     1     -10.649   6.365  73.849  1.00  0.00    -0.295 OA 
BRANCH   8   9
HETATM    9  C   UNL     1      -9.939   5.130  73.654  1.00  0.00    -0.171 C  
HETATM   10  C   UNL     1     -10.859   3.931  73.435  1.00  0.00    -0.225 C  
HETATM   11  F   UNL     1     -10.815   3.088  74.495  1.00  0.00    -0.225 F  
HETATM   12  F   UNL     1     -10.460   3.220  72.352  1.00  0.00    -0.235 F  
HETATM   13  F   UNL     1     -12.149   4.274  73.239  1.00  0.00    -0.291 F  
ENDBRANCH   8   9
ENDBRANCH   3   8
BRANCH   7  14
HETATM   14  C   UNL     1     -12.061   9.419  70.080  1.00  0.00     0.241 C  
BRANCH  14  15
HETATM   15  S   UNL     1     -11.316  10.785  69.171  1.00  0.00    -0.303 S  
HETATM   16  O   UNL     1     -11.817  10.882  67.758  1.00  0.00    -0.579 OA 
BRANCH  15  17
HETATM   17  C   UNL     1     -11.998  12.146  70.009  1.00  0.00    -0.315 A  
HETATM   18  N   UNL     1     -12.740  12.095  71.094  1.00  0.00    -0.322 NA 
HETATM   19  C   UNL     1     -12.831  13.400  71.527  1.00  0.00    -0.337 A  
HETATM   20  H   UNL     1     -13.157  11.269  71.522  1.00  0.00     0.000 HD 
HETATM   21  C   UNL     1     -13.445  13.925  72.677  1.00  0.00    -0.652 A  
HETATM   22  C   UNL     1     -13.303  15.292  72.951  1.00  0.00    -0.616 A  
HETATM   23  C   UNL     1     -12.580  16.123  72.093  1.00  0.00    -0.394 A  
HETATM   24  C   UNL     1     -11.998  15.628  70.918  1.00  0.00    -0.440 A  
HETATM   25  C   UNL     1     -12.149  14.259  70.671  1.00  0.00    -0.346 A  
HETATM   26  N   UNL     1     -11.713  13.443  69.660  1.00  0.00    -0.309 NA 
ENDBRANCH  15  17
ENDBRANCH  14  15
ENDBRANCH   7  14
TORSDOF 5
ENDMDL
MODEL       64
REMARK 921   NORMALIZED FREE ENERGY PREDICTED BY IDOCK:   -5.94 KCAL/MOL
REMARK 922        TOTAL FREE ENERGY PREDICTED BY IDOCK:   -8.51 KCAL/MOL
REMARK 923 INTER-LIGAND FREE ENERGY PREDICTED BY IDOCK:   -7.57 KCAL/MOL
REMARK 924 INTRA-LIGAND FREE ENERGY PREDICTED BY IDOCK:   -0.94 KCAL/MOL
REMARK 927      BINDING AFFINITY PREDICTED BY RF-SCORE:    0.00 PKD
ROOT
HETATM    1  C   UNL     1     -11.053   9.691  70.484  1.00  0.00    -0.369 C  
HETATM    2  C   UNL     1     -10.626   9.108  69.170  1.00  0.00    -0.224 A  
HETATM    3  C   UNL     1     -10.783   7.736  68.878  1.00  0.00    -0.085 A  
HETATM    4  C   UNL     1     -10.558   7.280  67.580  1.00  0.00    -0.344 A  
HETATM    5  N   UNL     1      -9.823   9.468  66.909  1.00  0.00    -0.190 NA 
HETATM    6  C   UNL     1     -10.102   8.173  66.638  1.00  0.00    -0.273 A  
HETATM    7  C   UNL     1     -10.063   9.922  68.169  1.00  0.00    -0.165 A  
ENDROOT
BRANCH   3   8
HETATM    8  O   UNL     1     -11.221   6.754  69.735  1.00  0.00    -0.301 OA 
BRANCH   8   9
HETATM    9  C   UNL     1     -10.420   5.563  69.807  1.00  0.00    -0.319 C  
HETATM   10  C   UNL     1      -9.147   5.739  70.633  1.00  0.00    -0.151 C  
HETATM   11  F   UNL     1      -8.048   5.703  69.841  1.00  0.00    -0.088 F  
HETATM   12  F   UNL     1      -9.019   4.728  71.527  1.00  0.00    -0.130 F  
HETATM   13  F   UNL     1      -9.114   6.897  71.327  1.00  0.00    -0.146 F  
ENDBRANCH   8   9
ENDBRANCH   3   8
BRANCH   7  14
HETATM   14  C   UNL     1      -9.646  11.366  68.400  1.00  0.00    -0.197 C  
BRANCH  14  15
HETATM   15  S   UNL     1     -10.896  12.534  67.834  1.00  0.00    -0.233 S  
HETATM   16  O   UNL     1     -12.143  11.855  67.342  1.00  0.00    -0.577 OA 
BRANCH  15  17
HETATM   17  C   UNL     1     -11.334  13.297  69.332  1.00  0.00    -0.219 A  
HETATM   18  N   UNL     1     -10.828  14.415  69.807  1.00  0.00    -0.444 NA 
HETATM   19  C   UNL     1     -11.642  14.754  70.866  1.00  0.00    -0.266 A  
HETATM   20  H   UNL     1     -10.011  14.922  69.466  1.00  0.00     0.000 HD 
HETATM   21  C   UNL     1     -11.613  15.888  71.696  1.00  0.00    -0.541 A  
HETATM   22  C   UNL     1     -12.631  16.053  72.645  1.00  0.00    -0.551 A  
HETATM   23  C   UNL     1     -13.647  15.106  72.778  1.00  0.00    -0.588 A  
HETATM   24  C   UNL     1     -13.669  13.946  71.991  1.00  0.00    -0.577 A  
HETATM   25  C   UNL     1     -12.646  13.808  71.048  1.00  0.00    -0.371 A  
HETATM   26  N   UNL     1     -12.362  12.841  70.118  1.00  0.00    -0.220 NA 
ENDBRANCH  15  17
ENDBRANCH  14  15
ENDBRANCH   7  14
TORSDOF 5
ENDMDL
MODEL       65
REMARK 921   NORMALIZED FREE ENERGY PREDICTED BY IDOCK:   -5.94 KCAL/MOL
REMARK 922        TOTAL FREE ENERGY PREDICTED BY IDOCK:   -8.50 KCAL/MOL
REMARK 923 INTER-LIGAND FREE ENERGY PREDICTED BY IDOCK:   -7.47 KCAL/MOL
REMARK 924 INTRA-LIGAND FREE ENERGY PREDICTED BY IDOCK:   -1.03 KCAL/MOL
REMARK 927      BINDING AFFINITY PREDICTED BY RF-SCORE:    0.00 PKD
ROOT
HETATM    1  C   UNL     1      -8.854  13.537  68.224  1.00  0.00    -0.179 C  
HETATM    2  C   UNL     1     -10.074  13.282  67.390  1.00  0.00    -0.233 A  
HETATM    3  C   UNL     1     -11.141  14.204  67.330  1.00  0.00    -0.306 A  
HETATM    4  C   UNL     1     -12.158  14.019  66.394  1.00  0.00    -0.483 A  
HETATM    5  N   UNL     1     -11.194  11.923  65.721  1.00  0.00    -0.325 NA 
HETATM    6  C   UNL     1     -12.133  12.889  65.610  1.00  0.00    -0.458 A  
HETATM    7  C   UNL     1     -10.188  12.110  66.619  1.00  0.00    -0.201 A  
ENDROOT
BRANCH   3   8
HETATM    8  O   UNL     1     -11.278  15.357  68.066  1.00  0.00    -0.303 OA 
BRANCH   8   9
HETATM    9  C   UNL     1     -12.284  15.347  69.093  1.00  0.00    -0.160 C  
HETATM   10  C   UNL     1     -11.705  15.315  70.506  1.00  0.00    -0.318 C  
HETATM   11  F   UNL     1     -11.947  14.122  71.101  1.00  0.00    -0.376 F  
HETATM   12  F   UNL     1     -12.289  16.264  71.278  1.00  0.00    -0.452 F  
HETATM   13  F   UNL     1     -10.373  15.529  70.545  1.00  0.00    -0.318 F  
ENDBRANCH   8   9
ENDBRANCH   3   8
BRANCH   7  14
HETATM   14  C   UNL     1      -9.227  10.938  66.729  1.00  0.00    -0.158 C  
BRANCH  14  15
HETATM   15  S   UNL     1     -10.059   9.354  66.514  1.00  0.00    -0.245 S  
HETATM   16  O   UNL     1      -9.155   8.298  65.942  1.00  0.00    -0.182 OA 
BRANCH  15  17
HETATM   17  C   UNL     1     -10.330   8.898  68.168  1.00  0.00    -0.212 A  
HETATM   18  N   UNL     1     -10.541   9.720  69.173  1.00  0.00    -0.211 NA 
HETATM   19  C   UNL     1     -10.948   8.915  70.215  1.00  0.00    -0.241 A  
HETATM   20  H   UNL     1     -10.429  10.734  69.180  1.00  0.00     0.000 HD 
HETATM   21  C   UNL     1     -11.371   9.264  71.508  1.00  0.00    -0.455 A  
HETATM   22  C   UNL     1     -11.843   8.254  72.357  1.00  0.00    -0.461 A  
HETATM   23  C   UNL     1     -11.878   6.924  71.937  1.00  0.00    -0.351 A  
HETATM   24  C   UNL     1     -11.419   6.549  70.667  1.00  0.00    -0.433 A  
HETATM   25  C   UNL     1     -10.959   7.576  69.837  1.00  0.00    -0.211 A  
HETATM   26  N   UNL     1     -10.465   7.589  68.558  1.00  0.00    -0.197 NA 
ENDBRANCH  15  17
ENDBRANCH  14  15
ENDBRANCH   7  14
TORSDOF 5
ENDMDL
MODEL       66
REMARK 921   NORMALIZED FREE ENERGY PREDICTED BY IDOCK:   -5.93 KCAL/MOL
REMARK 922        TOTAL FREE ENERGY PREDICTED BY IDOCK:   -8.50 KCAL/MOL
REMARK 923 INTER-LIGAND FREE ENERGY PREDICTED BY IDOCK:   -7.33 KCAL/MOL
REMARK 924 INTRA-LIGAND FREE ENERGY PREDICTED BY IDOCK:   -1.17 KCAL/MOL
REMARK 927      BINDING AFFINITY PREDICTED BY RF-SCORE:    0.00 PKD
ROOT
HETATM    1  C   UNL     1     -11.228  13.472  68.727  1.00  0.00    -0.311 C  
HETATM    2  C   UNL     1     -10.681  14.384  67.669  1.00  0.00    -0.263 A  
HETATM    3  C   UNL     1     -11.291  14.506  66.403  1.00  0.00    -0.349 A  
HETATM    4  C   UNL     1     -10.867  15.506  65.529  1.00  0.00    -0.372 A  
HETATM    5  N   UNL     1      -9.113  16.129  67.050  1.00  0.00    -0.201 NA 
HETATM    6  C   UNL     1      -9.801  16.294  65.898  1.00  0.00    -0.334 A  
HETATM    7  C   UNL     1      -9.538  15.169  67.915  1.00  0.00    -0.203 A  
ENDROOT
BRANCH   3   8
HETATM    8  O   UNL     1     -12.350  13.773  65.923  1.00  0.00    -0.434 OA 
BRANCH   8   9
HETATM    9  C   UNL     1     -12.029  12.536  65.266  1.00  0.00    -0.438 C  
HETATM   10  C   UNL     1     -12.216  12.589  63.750  1.00  0.00    -0.525 C  
HETATM   11  F   UNL     1     -13.264  11.823  63.365  1.00  0.00    -0.608 F  
HETATM   12  F   UNL     1     -11.119  12.099  63.121  1.00  0.00    -0.438 F  
HETATM   13  F   UNL     1     -12.426  13.837  63.280  1.00  0.00    -0.532 F  
ENDBRANCH   8   9
ENDBRANCH   3   8
BRANCH   7  14
HETATM   14  C   UNL     1      -8.657  15.004  69.143  1.00  0.00    -0.188 C  
BRANCH  14  15
HETATM   15  S   UNL     1      -7.117  14.148  68.767  1.00  0.00    -0.111 S  
HETATM   16  O   UNL     1      -6.309  13.843  69.995  1.00  0.00    -0.138 OA 
BRANCH  15  17
HETATM   17  C   UNL     1      -7.720  12.619  68.205  1.00  0.00    -0.135 A  
HETATM   18  N   UNL     1      -8.472  11.785  68.891  1.00  0.00    -0.368 NA 
HETATM   19  C   UNL     1      -8.903  10.853  67.972  1.00  0.00    -0.135 A  
HETATM   20  H   UNL     1      -8.690  11.820  69.887  1.00  0.00     0.000 HD 
HETATM   21  C   UNL     1      -9.785   9.771  68.134  1.00  0.00    -0.163 A  
HETATM   22  C   UNL     1     -10.151   9.027  67.005  1.00  0.00    -0.318 A  
HETATM   23  C   UNL     1      -9.640   9.340  65.744  1.00  0.00    -0.341 A  
HETATM   24  C   UNL     1      -8.724  10.386  65.568  1.00  0.00    -0.190 A  
HETATM   25  C   UNL     1      -8.380  11.117  66.710  1.00  0.00    -0.152 A  
HETATM   26  N   UNL     1      -7.551  12.190  66.913  1.00  0.00    -0.084 NA 
ENDBRANCH  15  17
ENDBRANCH  14  15
ENDBRANCH   7  14
TORSDOF 5
ENDMDL
MODEL       67
REMARK 921   NORMALIZED FREE ENERGY PREDICTED BY IDOCK:   -5.93 KCAL/MOL
REMARK 922        TOTAL FREE ENERGY PREDICTED BY IDOCK:   -8.49 KCAL/MOL
REMARK 923 INTER-LIGAND FREE ENERGY PREDICTED BY IDOCK:   -7.42 KCAL/MOL
REMARK 924 INTRA-LIGAND FREE ENERGY PREDICTED BY IDOCK:   -1.07 KCAL/MOL
REMARK 927      BINDING AFFINITY PREDICTED BY RF-SCORE:    0.00 PKD
ROOT
HETATM    1  C   UNL     1      -9.412   8.239  67.865  1.00  0.00    -0.163 C  
HETATM    2  C   UNL     1     -10.247   8.328  69.108  1.00  0.00    -0.223 A  
HETATM    3  C   UNL     1     -10.968   7.219  69.600  1.00  0.00    -0.186 A  
HETATM    4  C   UNL     1     -11.566   7.292  70.858  1.00  0.00    -0.331 A  
HETATM    5  N   UNL     1     -10.930   9.601  71.056  1.00  0.00    -0.341 NA 
HETATM    6  C   UNL     1     -11.507   8.481  71.547  1.00  0.00    -0.287 A  
HETATM    7  C   UNL     1     -10.326   9.528  69.839  1.00  0.00    -0.236 A  
ENDROOT
BRANCH   3   8
HETATM    8  O   UNL     1     -11.105   5.990  69.000  1.00  0.00    -0.351 OA 
BRANCH   8   9
HETATM    9  C   UNL     1     -10.069   5.029  69.262  1.00  0.00    -0.200 C  
HETATM   10  C   UNL     1      -9.491   4.401  67.995  1.00  0.00    -0.156 C  
HETATM   11  F   UNL     1      -9.842   3.096  67.899  1.00  0.00    -0.232 F  
HETATM   12  F   UNL     1      -8.136   4.443  68.021  1.00  0.00    -0.088 F  
HETATM   13  F   UNL     1      -9.890   5.017  66.862  1.00  0.00    -0.136 F  
ENDBRANCH   8   9
ENDBRANCH   3   8
BRANCH   7  14
HETATM   14  C   UNL     1      -9.777  10.853  69.337  1.00  0.00     0.009 C  
BRANCH  14  15
HETATM   15  S   UNL     1     -10.963  11.733  68.304  1.00  0.00    -0.249 S  
HETATM   16  O   UNL     1     -12.072  10.847  67.812  1.00  0.00    -0.433 OA 
BRANCH  15  17
HETATM   17  C   UNL     1     -11.688  12.796  69.470  1.00  0.00    -0.318 A  
HETATM   18  N   UNL     1     -12.471  12.435  70.465  1.00  0.00    -0.241 NA 
HETATM   19  C   UNL     1     -12.591  13.560  71.251  1.00  0.00    -0.341 A  
HETATM   20  H   UNL     1     -12.896  11.522  70.620  1.00  0.00     0.000 HD 
HETATM   21  C   UNL     1     -13.253  13.733  72.478  1.00  0.00    -0.599 A  
HETATM   22  C   UNL     1     -13.135  14.962  73.140  1.00  0.00    -0.615 A  
HETATM   23  C   UNL     1     -12.388  16.004  72.587  1.00  0.00    -0.594 A  
HETATM   24  C   UNL     1     -11.756  15.868  71.344  1.00  0.00    -0.530 A  
HETATM   25  C   UNL     1     -11.885  14.629  70.707  1.00  0.00    -0.311 A  
HETATM   26  N   UNL     1     -11.403  14.138  69.522  1.00  0.00    -0.263 NA 
ENDBRANCH  15  17
ENDBRANCH  14  15
ENDBRANCH   7  14
TORSDOF 5
ENDMDL
MODEL       68
REMARK 921   NORMALIZED FREE ENERGY PREDICTED BY IDOCK:   -5.92 KCAL/MOL
REMARK 922        TOTAL FREE ENERGY PREDICTED BY IDOCK:   -8.48 KCAL/MOL
REMARK 923 INTER-LIGAND FREE ENERGY PREDICTED BY IDOCK:   -7.50 KCAL/MOL
REMARK 924 INTRA-LIGAND FREE ENERGY PREDICTED BY IDOCK:   -0.99 KCAL/MOL
REMARK 927      BINDING AFFINITY PREDICTED BY RF-SCORE:    0.00 PKD
ROOT
HETATM    1  C   UNL     1     -10.713  18.835  67.687  1.00  0.00    -0.449 C  
HETATM    2  C   UNL     1      -9.544  17.972  68.059  1.00  0.00    -0.295 A  
HETATM    3  C   UNL     1      -8.280  18.521  68.361  1.00  0.00    -0.328 A  
HETATM    4  C   UNL     1      -7.283  17.702  68.891  1.00  0.00    -0.256 A  
HETATM    5  N   UNL     1      -8.694  15.774  68.633  1.00  0.00    -0.184 NA 
HETATM    6  C   UNL     1      -7.539  16.357  69.023  1.00  0.00    -0.232 A  
HETATM    7  C   UNL     1      -9.677  16.573  68.136  1.00  0.00    -0.234 A  
ENDROOT
BRANCH   3   8
HETATM    8  O   UNL     1      -7.907  19.840  68.260  1.00  0.00    -0.316 OA 
BRANCH   8   9
HETATM    9  C   UNL     1      -6.774  20.125  67.422  1.00  0.00    -0.222 C  
HETATM   10  C   UNL     1      -7.110  20.131  65.932  1.00  0.00    -0.289 C  
HETATM   11  F   UNL     1      -6.545  19.072  65.304  1.00  0.00    -0.274 F  
HETATM   12  F   UNL     1      -6.617  21.247  65.341  1.00  0.00    -0.212 F  
HETATM   13  F   UNL     1      -8.436  20.095  65.681  1.00  0.00    -0.326 F  
ENDBRANCH   8   9
ENDBRANCH   3   8
BRANCH   7  14
HETATM   14  C   UNL     1     -10.905  15.820  67.651  1.00  0.00    -0.310 C  
BRANCH  14  15
HETATM   15  S   UNL     1     -10.850  15.498  65.879  1.00  0.00    -0.284 S  
HETATM   16  O   UNL     1      -9.566  15.954  65.247  1.00  0.00    -0.354 OA 
BRANCH  15  17
HETATM   17  C   UNL     1     -10.794  13.762  65.862  1.00  0.00    -0.283 A  
HETATM   18  N   UNL     1     -10.225  13.015  64.941  1.00  0.00    -0.451 NA 
HETATM   19  C   UNL     1     -10.212  11.743  65.469  1.00  0.00    -0.252 A  
HETATM   20  H   UNL     1      -9.870  13.313  64.032  1.00  0.00     0.000 HD 
HETATM   21  C   UNL     1      -9.663  10.559  64.949  1.00  0.00    -0.360 A  
HETATM   22  C   UNL     1      -9.687   9.402  65.740  1.00  0.00    -0.354 A  
HETATM   23  C   UNL     1     -10.257   9.417  67.013  1.00  0.00    -0.322 A  
HETATM   24  C   UNL     1     -10.850  10.575  67.533  1.00  0.00    -0.357 A  
HETATM   25  C   UNL     1     -10.808  11.718  66.726  1.00  0.00    -0.270 A  
HETATM   26  N   UNL     1     -11.258  13.000  66.905  1.00  0.00    -0.284 NA 
ENDBRANCH  15  17
ENDBRANCH  14  15
ENDBRANCH   7  14
TORSDOF 5
ENDMDL
MODEL       69
REMARK 921   NORMALIZED FREE ENERGY PREDICTED BY IDOCK:   -5.88 KCAL/MOL
REMARK 922        TOTAL FREE ENERGY PREDICTED BY IDOCK:   -8.43 KCAL/MOL
REMARK 923 INTER-LIGAND FREE ENERGY PREDICTED BY IDOCK:   -7.35 KCAL/MOL
REMARK 924 INTRA-LIGAND FREE ENERGY PREDICTED BY IDOCK:   -1.07 KCAL/MOL
REMARK 927      BINDING AFFINITY PREDICTED BY RF-SCORE:    0.00 PKD
ROOT
HETATM    1  C   UNL     1     -10.516   6.215  68.788  1.00  0.00    -0.295 C  
HETATM    2  C   UNL     1      -9.746   7.472  69.069  1.00  0.00    -0.162 A  
HETATM    3  C   UNL     1      -9.568   7.957  70.382  1.00  0.00    -0.171 A  
HETATM    4  C   UNL     1      -8.684   9.011  70.611  1.00  0.00    -0.251 A  
HETATM    5  N   UNL     1      -8.312   9.248  68.248  1.00  0.00    -0.119 NA 
HETATM    6  C   UNL     1      -8.074   9.605  69.530  1.00  0.00    -0.129 A  
HETATM    7  C   UNL     1      -9.157   8.205  68.022  1.00  0.00    -0.133 A  
ENDROOT
BRANCH   3   8
HETATM    8  O   UNL     1     -10.128   7.454  71.532  1.00  0.00    -0.185 OA 
BRANCH   8   9
HETATM    9  C   UNL     1     -10.756   8.404  72.409  1.00  0.00    -0.335 C  
HETATM   10  C   UNL     1     -12.135   8.853  71.927  1.00  0.00    -0.373 C  
HETATM   11  F   UNL     1     -12.110  10.148  71.529  1.00  0.00    -0.412 F  
HETATM   12  F   UNL     1     -13.038   8.769  72.935  1.00  0.00    -0.441 F  
HETATM   13  F   UNL     1     -12.609   8.117  70.900  1.00  0.00    -0.252 F  
ENDBRANCH   8   9
ENDBRANCH   3   8
BRANCH   7  14
HETATM   14  C   UNL     1      -9.424   7.929  66.552  1.00  0.00    -0.214 C  
BRANCH  14  15
HETATM   15  S   UNL     1      -8.652   9.153  65.478  1.00  0.00    -0.181 S  
HETATM   16  O   UNL     1      -8.444   8.647  64.079  1.00  0.00    -0.153 OA 
BRANCH  15  17
HETATM   17  C   UNL     1      -9.917  10.338  65.369  1.00  0.00    -0.302 A  
HETATM   18  N   UNL     1     -10.518  10.924  66.382  1.00  0.00    -0.255 NA 
HETATM   19  C   UNL     1     -11.251  11.947  65.820  1.00  0.00    -0.312 A  
HETATM   20  H   UNL     1     -10.456  10.676  67.369  1.00  0.00     0.000 HD 
HETATM   21  C   UNL     1     -12.031  12.939  66.438  1.00  0.00    -0.462 A  
HETATM   22  C   UNL     1     -12.596  13.944  65.642  1.00  0.00    -0.553 A  
HETATM   23  C   UNL     1     -12.402  13.956  64.260  1.00  0.00    -0.390 A  
HETATM   24  C   UNL     1     -11.664  12.952  63.618  1.00  0.00    -0.572 A  
HETATM   25  C   UNL     1     -11.107  11.964  64.436  1.00  0.00    -0.336 A  
HETATM   26  N   UNL     1     -10.331  10.865  64.171  1.00  0.00    -0.366 NA 
ENDBRANCH  15  17
ENDBRANCH  14  15
ENDBRANCH   7  14
TORSDOF 5
ENDMDL
MODEL       70
REMARK 921   NORMALIZED FREE ENERGY PREDICTED BY IDOCK:   -5.87 KCAL/MOL
REMARK 922        TOTAL FREE ENERGY PREDICTED BY IDOCK:   -8.42 KCAL/MOL
REMARK 923 INTER-LIGAND FREE ENERGY PREDICTED BY IDOCK:   -7.88 KCAL/MOL
REMARK 924 INTRA-LIGAND FREE ENERGY PREDICTED BY IDOCK:   -0.53 KCAL/MOL
REMARK 927      BINDING AFFINITY PREDICTED BY RF-SCORE:    0.00 PKD
ROOT
HETATM    1  C   UNL     1     -12.013  10.973  69.106  1.00  0.00    -0.394 C  
HETATM    2  C   UNL     1     -11.238  10.927  67.823  1.00  0.00    -0.384 A  
HETATM    3  C   UNL     1     -10.667   9.730  67.340  1.00  0.00    -0.249 A  
HETATM    4  C   UNL     1     -10.131   9.694  66.054  1.00  0.00    -0.318 A  
HETATM    5  N   UNL     1     -10.524  12.050  65.795  1.00  0.00    -0.245 NA 
HETATM    6  C   UNL     1     -10.098  10.858  65.322  1.00  0.00    -0.280 A  
HETATM    7  C   UNL     1     -11.068  12.085  67.041  1.00  0.00    -0.298 A  
ENDROOT
BRANCH   3   8
HETATM    8  O   UNL     1     -10.633   8.514  67.981  1.00  0.00    -0.207 OA 
BRANCH   8   9
HETATM    9  C   UNL     1      -9.845   8.444  69.182  1.00  0.00    -0.183 C  
HETATM   10  C   UNL     1     -10.487   7.593  70.276  1.00  0.00    -0.224 C  
HETATM   11  F   UNL     1     -10.896   8.366  71.311  1.00  0.00    -0.244 F  
HETATM   12  F   UNL     1      -9.587   6.710  70.777  1.00  0.00    -0.171 F  
HETATM   13  F   UNL     1     -11.552   6.883  69.849  1.00  0.00    -0.323 F  
ENDBRANCH   8   9
ENDBRANCH   3   8
BRANCH   7  14
HETATM   14  C   UNL     1     -11.445  13.479  67.517  1.00  0.00    -0.329 C  
BRANCH  14  15
HETATM   15  S   UNL     1     -10.233  14.156  68.666  1.00  0.00    -0.221 S  
HETATM   16  O   UNL     1      -8.822  13.800  68.296  1.00  0.00    -0.178 OA 
BRANCH  15  17
HETATM   17  C   UNL     1     -10.391  15.856  68.346  1.00  0.00    -0.240 A  
HETATM   18  N   UNL     1     -10.140  16.830  69.195  1.00  0.00    -0.285 NA 
HETATM   19  C   UNL     1     -10.159  17.980  68.436  1.00  0.00    -0.387 A  
HETATM   20  H   UNL     1      -9.968  16.751  70.197  1.00  0.00     0.000 HD 
HETATM   21  C   UNL     1      -9.889  19.307  68.808  1.00  0.00    -0.514 A  
HETATM   22  C   UNL     1      -9.870  20.294  67.814  1.00  0.00    -0.534 A  
HETATM   23  C   UNL     1     -10.129  19.972  66.481  1.00  0.00    -0.606 A  
HETATM   24  C   UNL     1     -10.446  18.663  66.095  1.00  0.00    -0.473 A  
HETATM   25  C   UNL     1     -10.452  17.695  67.106  1.00  0.00    -0.319 A  
HETATM   26  N   UNL     1     -10.693  16.346  67.100  1.00  0.00    -0.279 NA 
ENDBRANCH  15  17
ENDBRANCH  14  15
ENDBRANCH   7  14
TORSDOF 5
ENDMDL
MODEL       71
REMARK 921   NORMALIZED FREE ENERGY PREDICTED BY IDOCK:   -5.87 KCAL/MOL
REMARK 922        TOTAL FREE ENERGY PREDICTED BY IDOCK:   -8.42 KCAL/MOL
REMARK 923 INTER-LIGAND FREE ENERGY PREDICTED BY IDOCK:   -8.26 KCAL/MOL
REMARK 924 INTRA-LIGAND FREE ENERGY PREDICTED BY IDOCK:   -0.16 KCAL/MOL
REMARK 927      BINDING AFFINITY PREDICTED BY RF-SCORE:    0.00 PKD
ROOT
HETATM    1  C   UNL     1      -8.774  14.843  66.718  1.00  0.00    -0.278 C  
HETATM    2  C   UNL     1     -10.034  14.521  65.971  1.00  0.00    -0.343 A  
HETATM    3  C   UNL     1     -10.784  15.517  65.311  1.00  0.00    -0.422 A  
HETATM    4  C   UNL     1     -11.831  15.145  64.469  1.00  0.00    -0.335 A  
HETATM    5  N   UNL     1     -11.542  12.840  65.084  1.00  0.00    -0.323 NA 
HETATM    6  C   UNL     1     -12.157  13.812  64.375  1.00  0.00    -0.436 A  
HETATM    7  C   UNL     1     -10.505  13.196  65.890  1.00  0.00    -0.280 A  
ENDROOT
BRANCH   3   8
HETATM    8  O   UNL     1     -10.559  16.873  65.338  1.00  0.00    -0.579 OA 
BRANCH   8   9
HETATM    9  C   UNL     1     -10.477  17.485  66.636  1.00  0.00    -0.270 C  
HETATM   10  C   UNL     1     -10.430  19.011  66.584  1.00  0.00    -0.437 C  
HETATM   11  F   UNL     1      -9.211  19.470  66.957  1.00  0.00    -0.323 F  
HETATM   12  F   UNL     1     -11.331  19.542  67.447  1.00  0.00    -0.534 F  
HETATM   13  F   UNL     1     -10.700  19.514  65.361  1.00  0.00    -0.547 F  
ENDBRANCH   8   9
ENDBRANCH   3   8
BRANCH   7  14
HETATM   14  C   UNL     1      -9.928  12.051  66.706  1.00  0.00    -0.201 C  
BRANCH  14  15
HETATM   15  S   UNL     1      -9.711  10.557  65.722  1.00  0.00    -0.239 S  
HETATM   16  O   UNL     1      -8.267  10.243  65.456  1.00  0.00    -0.146 OA 
BRANCH  15  17
HETATM   17  C   UNL     1     -10.260   9.345  66.839  1.00  0.00    -0.248 A  
HETATM   18  N   UNL     1     -10.357   8.056  66.597  1.00  0.00    -0.445 NA 
HETATM   19  C   UNL     1     -10.585   7.476  67.826  1.00  0.00    -0.206 A  
HETATM   20  H   UNL     1     -10.279   7.586  65.694  1.00  0.00     0.000 HD 
HETATM   21  C   UNL     1     -10.702   6.120  68.173  1.00  0.00    -0.367 A  
HETATM   22  C   UNL     1     -10.827   5.780  69.526  1.00  0.00    -0.410 A  
HETATM   23  C   UNL     1     -10.851   6.767  70.513  1.00  0.00    -0.301 A  
HETATM   24  C   UNL     1     -10.781   8.127  70.185  1.00  0.00    -0.243 A  
HETATM   25  C   UNL     1     -10.651   8.440  68.828  1.00  0.00    -0.125 A  
HETATM   26  N   UNL     1     -10.539   9.627  68.153  1.00  0.00    -0.223 NA 
ENDBRANCH  15  17
ENDBRANCH  14  15
ENDBRANCH   7  14
TORSDOF 5
ENDMDL
MODEL       72
REMARK 921   NORMALIZED FREE ENERGY PREDICTED BY IDOCK:   -5.86 KCAL/MOL
REMARK 922        TOTAL FREE ENERGY PREDICTED BY IDOCK:   -8.40 KCAL/MOL
REMARK 923 INTER-LIGAND FREE ENERGY PREDICTED BY IDOCK:   -7.42 KCAL/MOL
REMARK 924 INTRA-LIGAND FREE ENERGY PREDICTED BY IDOCK:   -0.99 KCAL/MOL
REMARK 927      BINDING AFFINITY PREDICTED BY RF-SCORE:    0.00 PKD
ROOT
HETATM    1  C   UNL     1      -7.626  15.322  68.017  1.00  0.00    -0.133 C  
HETATM    2  C   UNL     1      -8.723  16.334  67.866  1.00  0.00    -0.175 A  
HETATM    3  C   UNL     1      -8.671  17.346  66.884  1.00  0.00    -0.246 A  
HETATM    4  C   UNL     1      -9.797  18.136  66.652  1.00  0.00    -0.350 A  
HETATM    5  N   UNL     1     -10.946  17.084  68.481  1.00  0.00    -0.302 NA 
HETATM    6  C   UNL     1     -10.902  17.959  67.453  1.00  0.00    -0.204 A  
HETATM    7  C   UNL     1      -9.858  16.296  68.697  1.00  0.00    -0.230 A  
ENDROOT
BRANCH   3   8
HETATM    8  O   UNL     1      -7.625  17.622  66.036  1.00  0.00    -0.414 OA 
BRANCH   8   9
HETATM    9  C   UNL     1      -7.250  19.004  65.908  1.00  0.00    -0.258 C  
HETATM   10  C   UNL     1      -6.352  19.495  67.042  1.00  0.00    -0.185 C  
HETATM   11  F   UNL     1      -7.012  20.373  67.835  1.00  0.00    -0.298 F  
HETATM   12  F   UNL     1      -5.274  20.148  66.544  1.00  0.00    -0.163 F  
HETATM   13  F   UNL     1      -5.891  18.500  67.830  1.00  0.00    -0.161 F  
ENDBRANCH   8   9
ENDBRANCH   3   8
BRANCH   7  14
HETATM   14  C   UNL     1      -9.970  15.401  69.921  1.00  0.00    -0.216 C  
BRANCH  14  15
HETATM   15  S   UNL     1     -11.545  14.528  69.983  1.00  0.00    -0.279 S  
HETATM   16  O   UNL     1     -12.710  15.448  70.215  1.00  0.00    -0.375 OA 
BRANCH  15  17
HETATM   17  C   UNL     1     -11.687  13.990  68.337  1.00  0.00    -0.354 A  
HETATM   18  N   UNL     1     -12.488  14.497  67.424  1.00  0.00    -0.492 NA 
HETATM   19  C   UNL     1     -12.079  13.932  66.236  1.00  0.00    -0.451 A  
HETATM   20  H   UNL     1     -13.248  15.163  67.565  1.00  0.00     0.000 HD 
HETATM   21  C   UNL     1     -12.533  14.163  64.927  1.00  0.00    -0.419 A  
HETATM   22  C   UNL     1     -11.872  13.535  63.864  1.00  0.00    -0.460 A  
HETATM   23  C   UNL     1     -10.792  12.682  64.097  1.00  0.00    -0.431 A  
HETATM   24  C   UNL     1     -10.351  12.403  65.397  1.00  0.00    -0.303 A  
HETATM   25  C   UNL     1     -11.024  13.048  66.440  1.00  0.00    -0.281 A  
HETATM   26  N   UNL     1     -10.864  13.032  67.801  1.00  0.00    -0.235 NA 
ENDBRANCH  15  17
ENDBRANCH  14  15
ENDBRANCH   7  14
TORSDOF 5
ENDMDL
MODEL       73
REMARK 921   NORMALIZED FREE ENERGY PREDICTED BY IDOCK:   -5.85 KCAL/MOL
REMARK 922        TOTAL FREE ENERGY PREDICTED BY IDOCK:   -8.38 KCAL/MOL
REMARK 923 INTER-LIGAND FREE ENERGY PREDICTED BY IDOCK:   -7.65 KCAL/MOL
REMARK 924 INTRA-LIGAND FREE ENERGY PREDICTED BY IDOCK:   -0.73 KCAL/MOL
REMARK 927      BINDING AFFINITY PREDICTED BY RF-SCORE:    0.00 PKD
ROOT
HETATM    1  C   UNL     1      -8.705   9.092  71.011  1.00  0.00    -0.280 C  
HETATM    2  C   UNL     1      -9.873   9.817  70.412  1.00  0.00    -0.269 A  
HETATM    3  C   UNL     1     -11.131   9.856  71.049  1.00  0.00    -0.331 A  
HETATM    4  C   UNL     1     -12.125  10.703  70.558  1.00  0.00    -0.448 A  
HETATM    5  N   UNL     1     -10.725  11.313  68.702  1.00  0.00    -0.194 NA 
HETATM    6  C   UNL     1     -11.873  11.415  69.408  1.00  0.00    -0.351 A  
HETATM    7  C   UNL     1      -9.745  10.505  69.190  1.00  0.00    -0.211 A  
ENDROOT
BRANCH   3   8
HETATM    8  O   UNL     1     -11.500   9.185  72.191  1.00  0.00    -0.334 OA 
BRANCH   8   9
HETATM    9  C   UNL     1     -12.532   8.195  72.049  1.00  0.00    -0.336 C  
HETATM   10  C   UNL     1     -12.001   6.823  71.636  1.00  0.00    -0.347 C  
HETATM   11  F   UNL     1     -12.374   6.521  70.370  1.00  0.00    -0.433 F  
HETATM   12  F   UNL     1     -12.513   5.857  72.438  1.00  0.00    -0.352 F  
HETATM   13  F   UNL     1     -10.656   6.727  71.700  1.00  0.00    -0.221 F  
ENDBRANCH   8   9
ENDBRANCH   3   8
BRANCH   7  14
HETATM   14  C   UNL     1      -8.526  10.392  68.289  1.00  0.00    -0.123 C  
BRANCH  14  15
HETATM   15  S   UNL     1      -7.871  12.005  67.826  1.00  0.00    -0.158 S  
HETATM   16  O   UNL     1      -6.497  11.922  67.225  1.00  0.00    -0.111 OA 
BRANCH  15  17
HETATM   17  C   UNL     1      -8.934  12.429  66.519  1.00  0.00    -0.145 A  
HETATM   18  N   UNL     1      -9.338  11.625  65.559  1.00  0.00    -0.349 NA 
HETATM   19  C   UNL     1     -10.344  12.314  64.917  1.00  0.00    -0.290 A  
HETATM   20  H   UNL     1      -8.985  10.694  65.339  1.00  0.00     0.000 HD 
HETATM   21  C   UNL     1     -11.178  11.910  63.860  1.00  0.00    -0.497 A  
HETATM   22  C   UNL     1     -12.209  12.765  63.451  1.00  0.00    -0.594 A  
HETATM   23  C   UNL     1     -12.399  14.003  64.068  1.00  0.00    -0.341 A  
HETATM   24  C   UNL     1     -11.551  14.445  65.093  1.00  0.00    -0.361 A  
HETATM   25  C   UNL     1     -10.533  13.569  65.486  1.00  0.00    -0.299 A  
HETATM   26  N   UNL     1      -9.553  13.651  66.440  1.00  0.00    -0.281 NA 
ENDBRANCH  15  17
ENDBRANCH  14  15
ENDBRANCH   7  14
TORSDOF 5
ENDMDL
MODEL       74
REMARK 921   NORMALIZED FREE ENERGY PREDICTED BY IDOCK:   -5.84 KCAL/MOL
REMARK 922        TOTAL FREE ENERGY PREDICTED BY IDOCK:   -8.37 KCAL/MOL
REMARK 923 INTER-LIGAND FREE ENERGY PREDICTED BY IDOCK:   -7.63 KCAL/MOL
REMARK 924 INTRA-LIGAND FREE ENERGY PREDICTED BY IDOCK:   -0.75 KCAL/MOL
REMARK 927      BINDING AFFINITY PREDICTED BY RF-SCORE:    0.00 PKD
ROOT
HETATM    1  C   UNL     1      -8.381  12.497  67.027  1.00  0.00    -0.144 C  
HETATM    2  C   UNL     1      -9.575  11.837  67.650  1.00  0.00    -0.184 A  
HETATM    3  C   UNL     1      -9.511  10.532  68.184  1.00  0.00    -0.151 A  
HETATM    4  C   UNL     1     -10.584  10.039  68.926  1.00  0.00    -0.239 A  
HETATM    5  N   UNL     1     -11.860  12.018  68.445  1.00  0.00    -0.384 NA 
HETATM    6  C   UNL     1     -11.715  10.815  69.042  1.00  0.00    -0.286 A  
HETATM    7  C   UNL     1     -10.808  12.512  67.738  1.00  0.00    -0.225 A  
ENDROOT
BRANCH   3   8
HETATM    8  O   UNL     1      -8.445   9.667  68.123  1.00  0.00    -0.117 OA 
BRANCH   8   9
HETATM    9  C   UNL     1      -8.659   8.347  68.650  1.00  0.00    -0.132 C  
HETATM   10  C   UNL     1      -8.767   7.274  67.568  1.00  0.00    -0.121 C  
HETATM   11  F   UNL     1     -10.030   6.792  67.489  1.00  0.00    -0.135 F  
HETATM   12  F   UNL     1      -7.963   6.223  67.863  1.00  0.00    -0.104 F  
HETATM   13  F   UNL     1      -8.419   7.714  66.340  1.00  0.00    -0.114 F  
ENDBRANCH   8   9
ENDBRANCH   3   8
BRANCH   7  14
HETATM   14  C   UNL     1     -11.093  13.831  67.038  1.00  0.00    -0.302 C  
BRANCH  14  15
HETATM   15  S   UNL     1     -10.272  15.219  67.842  1.00  0.00    -0.237 S  
HETATM   16  O   UNL     1     -10.321  16.476  67.021  1.00  0.00    -0.295 OA 
BRANCH  15  17
HETATM   17  C   UNL     1     -11.335  15.493  69.189  1.00  0.00    -0.328 A  
HETATM   18  N   UNL     1     -12.558  15.026  69.317  1.00  0.00    -0.551 NA 
HETATM   19  C   UNL     1     -12.905  15.284  70.625  1.00  0.00    -0.409 A  
HETATM   20  H   UNL     1     -13.127  14.571  68.603  1.00  0.00     0.000 HD 
HETATM   21  C   UNL     1     -14.071  14.941  71.331  1.00  0.00    -0.552 A  
HETATM   22  C   UNL     1     -14.137  15.227  72.701  1.00  0.00    -0.476 A  
HETATM   23  C   UNL     1     -13.074  15.854  73.353  1.00  0.00    -0.694 A  
HETATM   24  C   UNL     1     -11.920  16.244  72.659  1.00  0.00    -0.644 A  
HETATM   25  C   UNL     1     -11.877  15.942  71.294  1.00  0.00    -0.449 A  
HETATM   26  N   UNL     1     -10.931  16.149  70.325  1.00  0.00    -0.353 NA 
ENDBRANCH  15  17
ENDBRANCH  14  15
ENDBRANCH   7  14
TORSDOF 5
ENDMDL
MODEL       75
REMARK 921   NORMALIZED FREE ENERGY PREDICTED BY IDOCK:   -5.83 KCAL/MOL
REMARK 922        TOTAL FREE ENERGY PREDICTED BY IDOCK:   -8.37 KCAL/MOL
REMARK 923 INTER-LIGAND FREE ENERGY PREDICTED BY IDOCK:   -7.42 KCAL/MOL
REMARK 924 INTRA-LIGAND FREE ENERGY PREDICTED BY IDOCK:   -0.95 KCAL/MOL
REMARK 927      BINDING AFFINITY PREDICTED BY RF-SCORE:    0.00 PKD
ROOT
HETATM    1  C   UNL     1      -9.585  15.955  68.784  1.00  0.00    -0.219 C  
HETATM    2  C   UNL     1     -10.384  15.568  67.576  1.00  0.00    -0.271 A  
HETATM    3  C   UNL     1     -10.223  16.221  66.335  1.00  0.00    -0.313 A  
HETATM    4  C   UNL     1     -10.838  15.699  65.198  1.00  0.00    -0.448 A  
HETATM    5  N   UNL     1     -11.935  14.024  66.528  1.00  0.00    -0.424 NA 
HETATM    6  C   UNL     1     -11.659  14.604  65.338  1.00  0.00    -0.345 A  
HETATM    7  C   UNL     1     -11.319  14.517  67.636  1.00  0.00    -0.337 A  
ENDROOT
BRANCH   3   8
HETATM    8  O   UNL     1      -9.440  17.321  66.077  1.00  0.00    -0.462 OA 
BRANCH   8   9
HETATM    9  C   UNL     1     -10.117  18.588  66.011  1.00  0.00    -0.288 C  
HETATM   10  C   UNL     1      -9.791  19.510  67.184  1.00  0.00    -0.355 C  
HETATM   11  F   UNL     1     -10.868  19.661  67.993  1.00  0.00    -0.508 F  
HETATM   12  F   UNL     1      -9.460  20.746  66.737  1.00  0.00    -0.463 F  
HETATM   13  F   UNL     1      -8.767  19.070  67.944  1.00  0.00    -0.297 F  
ENDBRANCH   8   9
ENDBRANCH   3   8
BRANCH   7  14
HETATM   14  C   UNL     1     -11.750  13.854  68.934  1.00  0.00    -0.337 C  
BRANCH  14  15
HETATM   15  S   UNL     1     -11.401  12.086  68.944  1.00  0.00    -0.302 S  
HETATM   16  O   UNL     1     -12.267  11.319  67.985  1.00  0.00    -0.621 OA 
BRANCH  15  17
HETATM   17  C   UNL     1      -9.804  12.063  68.260  1.00  0.00    -0.204 A  
HETATM   18  N   UNL     1      -8.715  12.540  68.823  1.00  0.00    -0.380 NA 
HETATM   19  C   UNL     1      -7.678  12.079  68.042  1.00  0.00    -0.132 A  
HETATM   20  H   UNL     1      -8.651  13.124  69.657  1.00  0.00     0.000 HD 
HETATM   21  C   UNL     1      -6.291  12.223  68.212  1.00  0.00    -0.055 A  
HETATM   22  C   UNL     1      -5.431  11.560  67.327  1.00  0.00    -0.079 A  
HETATM   23  C   UNL     1      -5.938  10.781  66.286  1.00  0.00    -0.126 A  
HETATM   24  C   UNL     1      -7.317  10.659  66.071  1.00  0.00    -0.132 A  
HETATM   25  C   UNL     1      -8.154  11.327  66.972  1.00  0.00    -0.149 A  
HETATM   26  N   UNL     1      -9.517  11.419  67.083  1.00  0.00    -0.174 NA 
ENDBRANCH  15  17
ENDBRANCH  14  15
ENDBRANCH   7  14
TORSDOF 5
ENDMDL
MODEL       76
REMARK 921   NORMALIZED FREE ENERGY PREDICTED BY IDOCK:   -5.83 KCAL/MOL
REMARK 922        TOTAL FREE ENERGY PREDICTED BY IDOCK:   -8.36 KCAL/MOL
REMARK 923 INTER-LIGAND FREE ENERGY PREDICTED BY IDOCK:   -7.34 KCAL/MOL
REMARK 924 INTRA-LIGAND FREE ENERGY PREDICTED BY IDOCK:   -1.02 KCAL/MOL
REMARK 927      BINDING AFFINITY PREDICTED BY RF-SCORE:    0.00 PKD
ROOT
HETATM    1  C   UNL     1      -8.789   6.512  69.602  1.00  0.00    -0.138 C  
HETATM    2  C   UNL     1      -9.716   7.631  69.973  1.00  0.00    -0.172 A  
HETATM    3  C   UNL     1      -9.984   7.960  71.319  1.00  0.00    -0.176 A  
HETATM    4  C   UNL     1     -10.690   9.125  71.615  1.00  0.00    -0.441 A  
HETATM    5  N   UNL     1     -11.050   9.533  69.274  1.00  0.00    -0.143 NA 
HETATM    6  C   UNL     1     -11.181   9.879  70.573  1.00  0.00    -0.330 A  
HETATM    7  C   UNL     1     -10.342   8.408  68.980  1.00  0.00    -0.218 A  
ENDROOT
BRANCH   3   8
HETATM    8  O   UNL     1      -9.557   7.282  72.436  1.00  0.00    -0.147 OA 
BRANCH   8   9
HETATM    9  C   UNL     1     -10.578   6.826  73.340  1.00  0.00    -0.325 C  
HETATM   10  C   UNL     1     -11.270   5.546  72.876  1.00  0.00    -0.305 C  
HETATM   11  F   UNL     1     -12.551   5.794  72.511  1.00  0.00    -0.295 F  
HETATM   12  F   UNL     1     -11.316   4.641  73.884  1.00  0.00    -0.339 F  
HETATM   13  F   UNL     1     -10.654   4.953  71.831  1.00  0.00    -0.261 F  
ENDBRANCH   8   9
ENDBRANCH   3   8
BRANCH   7  14
HETATM   14  C   UNL     1     -10.316   8.058  67.502  1.00  0.00    -0.261 C  
BRANCH  14  15
HETATM   15  S   UNL     1      -9.197   9.120  66.571  1.00  0.00    -0.190 S  
HETATM   16  O   UNL     1      -8.703   8.474  65.307  1.00  0.00    -0.179 OA 
BRANCH  15  17
HETATM   17  C   UNL     1     -10.282  10.378  66.066  1.00  0.00    -0.228 A  
HETATM   18  N   UNL     1     -10.913  11.219  66.857  1.00  0.00    -0.289 NA 
HETATM   19  C   UNL     1     -11.444  12.173  66.015  1.00  0.00    -0.370 A  
HETATM   20  H   UNL     1     -10.993  11.176  67.873  1.00  0.00     0.000 HD 
HETATM   21  C   UNL     1     -12.157  13.344  66.319  1.00  0.00    -0.475 A  
HETATM   22  C   UNL     1     -12.498  14.215  65.276  1.00  0.00    -0.474 A  
HETATM   23  C   UNL     1     -12.152  13.920  63.956  1.00  0.00    -0.437 A  
HETATM   24  C   UNL     1     -11.481  12.736  63.625  1.00  0.00    -0.544 A  
HETATM   25  C   UNL     1     -11.146  11.887  64.686  1.00  0.00    -0.317 A  
HETATM   26  N   UNL     1     -10.491  10.685  64.744  1.00  0.00    -0.287 NA 
ENDBRANCH  15  17
ENDBRANCH  14  15
ENDBRANCH   7  14
TORSDOF 5
ENDMDL
MODEL       77
REMARK 921   NORMALIZED FREE ENERGY PREDICTED BY IDOCK:   -5.82 KCAL/MOL
REMARK 922        TOTAL FREE ENERGY PREDICTED BY IDOCK:   -8.36 KCAL/MOL
REMARK 923 INTER-LIGAND FREE ENERGY PREDICTED BY IDOCK:   -7.51 KCAL/MOL
REMARK 924 INTRA-LIGAND FREE ENERGY PREDICTED BY IDOCK:   -0.84 KCAL/MOL
REMARK 927      BINDING AFFINITY PREDICTED BY RF-SCORE:    0.00 PKD
ROOT
HETATM    1  C   UNL     1     -11.696  12.618  67.879  1.00  0.00    -0.412 C  
HETATM    2  C   UNL     1     -10.650  13.482  67.239  1.00  0.00    -0.263 A  
HETATM    3  C   UNL     1     -10.954  14.348  66.167  1.00  0.00    -0.320 A  
HETATM    4  C   UNL     1     -10.002  15.272  65.738  1.00  0.00    -0.391 A  
HETATM    5  N   UNL     1      -8.387  14.357  67.266  1.00  0.00    -0.203 NA 
HETATM    6  C   UNL     1      -8.755  15.251  66.321  1.00  0.00    -0.153 A  
HETATM    7  C   UNL     1      -9.321  13.469  67.703  1.00  0.00    -0.216 A  
ENDROOT
BRANCH   3   8
HETATM    8  O   UNL     1     -12.154  14.452  65.504  1.00  0.00    -0.375 OA 
BRANCH   8   9
HETATM    9  C   UNL     1     -12.131  14.188  64.091  1.00  0.00    -0.406 C  
HETATM   10  C   UNL     1     -12.017  12.703  63.755  1.00  0.00    -0.510 C  
HETATM   11  F   UNL     1     -10.807  12.421  63.215  1.00  0.00    -0.458 F  
HETATM   12  F   UNL     1     -12.949  12.353  62.835  1.00  0.00    -0.351 F  
HETATM   13  F   UNL     1     -12.185  11.897  64.825  1.00  0.00    -0.372 F  
ENDBRANCH   8   9
ENDBRANCH   3   8
BRANCH   7  14
HETATM   14  C   UNL     1      -8.794  12.454  68.705  1.00  0.00     0.038 C  
BRANCH  14  15
HETATM   15  S   UNL     1      -8.635  10.809  67.988  1.00  0.00    -0.132 S  
HETATM   16  O   UNL     1      -7.221  10.303  68.006  1.00  0.00    -0.083 OA 
BRANCH  15  17
HETATM   17  C   UNL     1      -9.493   9.856  69.160  1.00  0.00    -0.196 A  
HETATM   18  N   UNL     1     -10.147  10.318  70.204  1.00  0.00    -0.425 NA 
HETATM   19  C   UNL     1     -10.861   9.242  70.684  1.00  0.00    -0.278 A  
HETATM   20  H   UNL     1     -10.131  11.267  70.577  1.00  0.00     0.000 HD 
HETATM   21  C   UNL     1     -11.784   9.174  71.741  1.00  0.00    -0.456 A  
HETATM   22  C   UNL     1     -12.464   7.970  71.965  1.00  0.00    -0.357 A  
HETATM   23  C   UNL     1     -12.222   6.852  71.165  1.00  0.00    -0.428 A  
HETATM   24  C   UNL     1     -11.274   6.885  70.134  1.00  0.00    -0.361 A  
HETATM   25  C   UNL     1     -10.613   8.100  69.928  1.00  0.00    -0.239 A  
HETATM   26  N   UNL     1      -9.661   8.501  69.026  1.00  0.00    -0.167 NA 
ENDBRANCH  15  17
ENDBRANCH  14  15
ENDBRANCH   7  14
TORSDOF 5
ENDMDL
MODEL       78
REMARK 921   NORMALIZED FREE ENERGY PREDICTED BY IDOCK:   -5.81 KCAL/MOL
REMARK 922        TOTAL FREE ENERGY PREDICTED BY IDOCK:   -8.34 KCAL/MOL
REMARK 923 INTER-LIGAND FREE ENERGY PREDICTED BY IDOCK:   -7.85 KCAL/MOL
REMARK 924 INTRA-LIGAND FREE ENERGY PREDICTED BY IDOCK:   -0.48 KCAL/MOL
REMARK 927      BINDING AFFINITY PREDICTED BY RF-SCORE:    0.00 PKD
ROOT
HETATM    1  C   UNL     1     -11.442   6.377  71.013  1.00  0.00    -0.394 C  
HETATM    2  C   UNL     1     -11.013   7.170  69.814  1.00  0.00    -0.256 A  
HETATM    3  C   UNL     1     -10.649   6.546  68.602  1.00  0.00    -0.245 A  
HETATM    4  C   UNL     1     -10.450   7.324  67.462  1.00  0.00    -0.337 A  
HETATM    5  N   UNL     1     -10.759   9.333  68.746  1.00  0.00    -0.194 NA 
HETATM    6  C   UNL     1     -10.532   8.693  67.577  1.00  0.00    -0.266 A  
HETATM    7  C   UNL     1     -10.975   8.576  69.856  1.00  0.00    -0.165 A  
ENDROOT
BRANCH   3   8
HETATM    8  O   UNL     1     -10.527   5.197  68.371  1.00  0.00    -0.118 OA 
BRANCH   8   9
HETATM    9  C   UNL     1      -9.396   4.779  67.588  1.00  0.00    -0.138 C  
HETATM   10  C   UNL     1      -9.772   4.321  66.179  1.00  0.00    -0.212 C  
HETATM   11  F   UNL     1      -9.595   2.985  66.043  1.00  0.00    -0.142 F  
HETATM   12  F   UNL     1      -8.975   4.919  65.259  1.00  0.00    -0.136 F  
HETATM   13  F   UNL     1     -11.050   4.601  65.848  1.00  0.00    -0.321 F  
ENDBRANCH   8   9
ENDBRANCH   3   8
BRANCH   7  14
HETATM   14  C   UNL     1     -11.142   9.381  71.134  1.00  0.00    -0.362 C  
BRANCH  14  15
HETATM   15  S   UNL     1     -12.872   9.574  71.596  1.00  0.00    -0.424 S  
HETATM   16  O   UNL     1     -13.139   9.182  73.022  1.00  0.00    -0.255 OA 
BRANCH  15  17
HETATM   17  C   UNL     1     -13.036  11.303  71.543  1.00  0.00    -0.415 A  
HETATM   18  N   UNL     1     -13.594  12.056  72.466  1.00  0.00    -0.482 NA 
HETATM   19  C   UNL     1     -13.270  13.349  72.116  1.00  0.00    -0.462 A  
HETATM   20  H   UNL     1     -14.147  11.750  73.267  1.00  0.00     0.000 HD 
HETATM   21  C   UNL     1     -13.544  14.556  72.782  1.00  0.00    -0.533 A  
HETATM   22  C   UNL     1     -13.006  15.744  72.270  1.00  0.00    -0.523 A  
HETATM   23  C   UNL     1     -12.225  15.736  71.113  1.00  0.00    -0.473 A  
HETATM   24  C   UNL     1     -11.977  14.550  70.409  1.00  0.00    -0.386 A  
HETATM   25  C   UNL     1     -12.521  13.378  70.944  1.00  0.00    -0.359 A  
HETATM   26  N   UNL     1     -12.473  12.066  70.550  1.00  0.00    -0.254 NA 
ENDBRANCH  15  17
ENDBRANCH  14  15
ENDBRANCH   7  14
TORSDOF 5
ENDMDL
MODEL       79
REMARK 921   NORMALIZED FREE ENERGY PREDICTED BY IDOCK:   -5.80 KCAL/MOL
REMARK 922        TOTAL FREE ENERGY PREDICTED BY IDOCK:   -8.32 KCAL/MOL
REMARK 923 INTER-LIGAND FREE ENERGY PREDICTED BY IDOCK:   -7.46 KCAL/MOL
REMARK 924 INTRA-LIGAND FREE ENERGY PREDICTED BY IDOCK:   -0.87 KCAL/MOL
REMARK 927      BINDING AFFINITY PREDICTED BY RF-SCORE:    0.00 PKD
ROOT
HETATM    1  C   UNL     1     -11.031  10.596  67.168  1.00  0.00    -0.312 C  
HETATM    2  C   UNL     1      -9.790  11.438  67.213  1.00  0.00    -0.209 A  
HETATM    3  C   UNL     1      -9.787  12.783  66.786  1.00  0.00    -0.242 A  
HETATM    4  C   UNL     1      -8.669  13.579  67.031  1.00  0.00    -0.197 A  
HETATM    5  N   UNL     1      -7.484  11.687  67.921  1.00  0.00    -0.099 NA 
HETATM    6  C   UNL     1      -7.563  13.000  67.609  1.00  0.00    -0.160 A  
HETATM    7  C   UNL     1      -8.581  10.912  67.704  1.00  0.00    -0.124 A  
ENDROOT
BRANCH   3   8
HETATM    8  O   UNL     1     -10.824  13.463  66.192  1.00  0.00    -0.279 OA 
BRANCH   8   9
HETATM    9  C   UNL     1     -10.710  13.699  64.779  1.00  0.00    -0.410 C  
HETATM   10  C   UNL     1     -11.634  12.817  63.942  1.00  0.00    -0.452 C  
HETATM   11  F   UNL     1     -10.923  11.906  63.235  1.00  0.00    -0.408 F  
HETATM   12  F   UNL     1     -12.317  13.566  63.042  1.00  0.00    -0.594 F  
HETATM   13  F   UNL     1     -12.544  12.144  64.678  1.00  0.00    -0.487 F  
ENDBRANCH   8   9
ENDBRANCH   3   8
BRANCH   7  14
HETATM   14  C   UNL     1      -8.371   9.438  68.010  1.00  0.00    -0.119 C  
BRANCH  14  15
HETATM   15  S   UNL     1      -8.233   9.124  69.779  1.00  0.00    -0.143 S  
HETATM   16  O   UNL     1      -7.769  10.329  70.547  1.00  0.00    -0.163 OA 
BRANCH  15  17
HETATM   17  C   UNL     1      -9.903   8.906  70.205  1.00  0.00    -0.183 A  
HETATM   18  N   UNL     1     -10.533   7.755  70.301  1.00  0.00    -0.220 NA 
HETATM   19  C   UNL     1     -11.738   8.055  70.898  1.00  0.00    -0.251 A  
HETATM   20  H   UNL     1     -10.203   6.838  69.998  1.00  0.00     0.000 HD 
HETATM   21  C   UNL     1     -12.778   7.202  71.304  1.00  0.00    -0.412 A  
HETATM   22  C   UNL     1     -13.867   7.749  71.996  1.00  0.00    -0.300 A  
HETATM   23  C   UNL     1     -13.929   9.118  72.265  1.00  0.00    -0.489 A  
HETATM   24  C   UNL     1     -12.925   9.992  71.829  1.00  0.00    -0.560 A  
HETATM   25  C   UNL     1     -11.846   9.420  71.147  1.00  0.00    -0.338 A  
HETATM   26  N   UNL     1     -10.704   9.947  70.603  1.00  0.00    -0.310 NA 
ENDBRANCH  15  17
ENDBRANCH  14  15
ENDBRANCH   7  14
TORSDOF 5
ENDMDL
MODEL       80
REMARK 921   NORMALIZED FREE ENERGY PREDICTED BY IDOCK:   -5.80 KCAL/MOL
REMARK 922        TOTAL FREE ENERGY PREDICTED BY IDOCK:   -8.32 KCAL/MOL
REMARK 923 INTER-LIGAND FREE ENERGY PREDICTED BY IDOCK:   -7.44 KCAL/MOL
REMARK 924 INTRA-LIGAND FREE ENERGY PREDICTED BY IDOCK:   -0.89 KCAL/MOL
REMARK 927      BINDING AFFINITY PREDICTED BY RF-SCORE:    0.00 PKD
ROOT
HETATM    1  C   UNL     1      -8.616  10.729  68.235  1.00  0.00    -0.135 C  
HETATM    2  C   UNL     1      -9.715  11.739  68.384  1.00  0.00    -0.197 A  
HETATM    3  C   UNL     1     -10.924  11.431  69.044  1.00  0.00    -0.236 A  
HETATM    4  C   UNL     1     -11.829  12.452  69.332  1.00  0.00    -0.365 A  
HETATM    5  N   UNL     1     -10.464  14.034  68.144  1.00  0.00    -0.237 NA 
HETATM    6  C   UNL     1     -11.551  13.723  68.884  1.00  0.00    -0.319 A  
HETATM    7  C   UNL     1      -9.567  13.045  67.880  1.00  0.00    -0.215 A  
ENDROOT
BRANCH   3   8
HETATM    8  O   UNL     1     -11.312  10.204  69.527  1.00  0.00    -0.237 OA 
BRANCH   8   9
HETATM    9  C   UNL     1     -11.230  10.019  70.950  1.00  0.00    -0.341 C  
HETATM   10  C   UNL     1     -12.595   9.891  71.623  1.00  0.00    -0.424 C  
HETATM   11  F   UNL     1     -12.861  10.977  72.387  1.00  0.00    -0.418 F  
HETATM   12  F   UNL     1     -12.617   8.815  72.448  1.00  0.00    -0.391 F  
HETATM   13  F   UNL     1     -13.613   9.747  70.748  1.00  0.00    -0.393 F  
ENDBRANCH   8   9
ENDBRANCH   3   8
BRANCH   7  14
HETATM   14  C   UNL     1      -8.420  13.470  66.977  1.00  0.00    -0.123 C  
BRANCH  14  15
HETATM   15  S   UNL     1      -7.283  14.594  67.806  1.00  0.00    -0.189 S  
HETATM   16  O   UNL     1      -5.882  14.501  67.271  1.00  0.00    -0.294 OA 
BRANCH  15  17
HETATM   17  C   UNL     1      -7.891  16.131  67.271  1.00  0.00    -0.177 A  
HETATM   18  N   UNL     1      -9.031  16.337  66.648  1.00  0.00    -0.227 NA 
HETATM   19  C   UNL     1      -9.200  17.704  66.654  1.00  0.00    -0.271 A  
HETATM   20  H   UNL     1      -9.655  15.637  66.246  1.00  0.00     0.000 HD 
HETATM   21  C   UNL     1     -10.275  18.480  66.187  1.00  0.00    -0.424 A  
HETATM   22  C   UNL     1     -10.254  19.863  66.409  1.00  0.00    -0.617 A  
HETATM   23  C   UNL     1      -9.182  20.466  67.069  1.00  0.00    -0.483 A  
HETATM   24  C   UNL     1      -8.080  19.717  67.503  1.00  0.00    -0.337 A  
HETATM   25  C   UNL     1      -8.128  18.338  67.273  1.00  0.00    -0.229 A  
HETATM   26  N   UNL     1      -7.264  17.315  67.567  1.00  0.00    -0.159 NA 
ENDBRANCH  15  17
ENDBRANCH  14  15
ENDBRANCH   7  14
TORSDOF 5
ENDMDL
MODEL       81
REMARK 921   NORMALIZED FREE ENERGY PREDICTED BY IDOCK:   -5.75 KCAL/MOL
REMARK 922        TOTAL FREE ENERGY PREDICTED BY IDOCK:   -8.26 KCAL/MOL
REMARK 923 INTER-LIGAND FREE ENERGY PREDICTED BY IDOCK:   -7.26 KCAL/MOL
REMARK 924 INTRA-LIGAND FREE ENERGY PREDICTED BY IDOCK:   -0.99 KCAL/MOL
REMARK 927      BINDING AFFINITY PREDICTED BY RF-SCORE:    0.00 PKD
ROOT
HETATM    1  C   UNL     1      -9.540  10.619  65.639  1.00  0.00    -0.268 C  
HETATM    2  C   UNL     1      -9.984  10.410  67.056  1.00  0.00    -0.252 A  
HETATM    3  C   UNL     1     -10.414   9.149  67.522  1.00  0.00    -0.270 A  
HETATM    4  C   UNL     1     -10.627   8.957  68.887  1.00  0.00    -0.188 A  
HETATM    5  N   UNL     1     -10.199  11.284  69.309  1.00  0.00    -0.101 NA 
HETATM    6  C   UNL     1     -10.491  10.035  69.732  1.00  0.00    -0.256 A  
HETATM    7  C   UNL     1      -9.969  11.471  67.981  1.00  0.00    -0.189 A  
ENDROOT
BRANCH   3   8
HETATM    8  O   UNL     1     -10.593   8.010  66.775  1.00  0.00    -0.320 OA 
BRANCH   8   9
HETATM    9  C   UNL     1      -9.449   7.151  66.632  1.00  0.00    -0.170 C  
HETATM   10  C   UNL     1      -9.607   5.809  67.345  1.00  0.00    -0.115 C  
HETATM   11  F   UNL     1      -8.777   5.728  68.413  1.00  0.00    -0.111 F  
HETATM   12  F   UNL     1      -9.278   4.790  66.514  1.00  0.00    -0.122 F  
HETATM   13  F   UNL     1     -10.863   5.580  67.784  1.00  0.00    -0.272 F  
ENDBRANCH   8   9
ENDBRANCH   3   8
BRANCH   7  14
HETATM   14  C   UNL     1      -9.727  12.920  67.589  1.00  0.00    -0.212 C  
BRANCH  14  15
HETATM   15  S   UNL     1     -11.252  13.768  67.141  1.00  0.00    -0.323 S  
HETATM   16  O   UNL     1     -12.289  12.837  66.578  1.00  0.00    -0.476 OA 
BRANCH  15  17
HETATM   17  C   UNL     1     -11.839  14.238  68.707  1.00  0.00    -0.341 A  
HETATM   18  N   UNL     1     -12.614  13.519  69.491  1.00  0.00    -0.084 NA 
HETATM   19  C   UNL     1     -12.606  14.176  70.702  1.00  0.00    -0.351 A  
HETATM   20  H   UNL     1     -13.112  12.661  69.254  1.00  0.00     0.000 HD 
HETATM   21  C   UNL     1     -13.205  13.820  71.922  1.00  0.00    -0.486 A  
HETATM   22  C   UNL     1     -12.956  14.612  73.050  1.00  0.00    -0.610 A  
HETATM   23  C   UNL     1     -12.141  15.742  72.966  1.00  0.00    -0.601 A  
HETATM   24  C   UNL     1     -11.570  16.140  71.750  1.00  0.00    -0.503 A  
HETATM   25  C   UNL     1     -11.829  15.329  70.640  1.00  0.00    -0.335 A  
HETATM   26  N   UNL     1     -11.436  15.393  69.328  1.00  0.00    -0.309 NA 
ENDBRANCH  15  17
ENDBRANCH  14  15
ENDBRANCH   7  14
TORSDOF 5
ENDMDL
MODEL       82
REMARK 921   NORMALIZED FREE ENERGY PREDICTED BY IDOCK:   -5.74 KCAL/MOL
REMARK 922        TOTAL FREE ENERGY PREDICTED BY IDOCK:   -8.25 KCAL/MOL
REMARK 923 INTER-LIGAND FREE ENERGY PREDICTED BY IDOCK:   -7.35 KCAL/MOL
REMARK 924 INTRA-LIGAND FREE ENERGY PREDICTED BY IDOCK:   -0.90 KCAL/MOL
REMARK 927      BINDING AFFINITY PREDICTED BY RF-SCORE:    0.00 PKD
ROOT
HETATM    1  C   UNL     1      -7.273  14.762  67.485  1.00  0.00    -0.222 C  
HETATM    2  C   UNL     1      -8.545  15.171  66.803  1.00  0.00    -0.297 A  
HETATM    3  C   UNL     1      -8.899  16.527  66.640  1.00  0.00    -0.256 A  
HETATM    4  C   UNL     1      -9.984  16.861  65.830  1.00  0.00    -0.274 A  
HETATM    5  N   UNL     1     -10.499  14.535  65.513  1.00  0.00    -0.333 NA 
HETATM    6  C   UNL     1     -10.733  15.846  65.281  1.00  0.00    -0.424 A  
HETATM    7  C   UNL     1      -9.428  14.204  66.284  1.00  0.00    -0.241 A  
ENDROOT
BRANCH   3   8
HETATM    8  O   UNL     1      -8.237  17.620  67.145  1.00  0.00    -0.205 OA 
BRANCH   8   9
HETATM    9  C   UNL     1      -7.844  18.626  66.197  1.00  0.00    -0.218 C  
HETATM   10  C   UNL     1      -6.381  18.516  65.769  1.00  0.00    -0.256 C  
HETATM   11  F   UNL     1      -5.656  19.552  66.257  1.00  0.00    -0.162 F  
HETATM   12  F   UNL     1      -6.279  18.567  64.418  1.00  0.00    -0.228 F  
HETATM   13  F   UNL     1      -5.789  17.374  66.176  1.00  0.00    -0.208 F  
ENDBRANCH   8   9
ENDBRANCH   3   8
BRANCH   7  14
HETATM   14  C   UNL     1      -9.291  12.715  66.553  1.00  0.00    -0.228 C  
BRANCH  14  15
HETATM   15  S   UNL     1     -10.783  11.805  66.117  1.00  0.00    -0.286 S  
HETATM   16  O   UNL     1     -10.503  10.377  65.743  1.00  0.00    -0.210 OA 
BRANCH  15  17
HETATM   17  C   UNL     1     -11.591  11.741  67.654  1.00  0.00    -0.294 A  
HETATM   18  N   UNL     1     -11.847  10.654  68.349  1.00  0.00    -0.769 NA 
HETATM   19  C   UNL     1     -12.259  11.107  69.583  1.00  0.00    -0.290 A  
HETATM   20  H   UNL     1     -11.759   9.685  68.041  1.00  0.00     0.000 HD 
HETATM   21  C   UNL     1     -12.595  10.384  70.740  1.00  0.00    -0.462 A  
HETATM   22  C   UNL     1     -12.882  11.091  71.916  1.00  0.00    -0.412 A  
HETATM   23  C   UNL     1     -12.852  12.486  71.937  1.00  0.00    -0.311 A  
HETATM   24  C   UNL     1     -12.563  13.227  70.783  1.00  0.00    -0.357 A  
HETATM   25  C   UNL     1     -12.275  12.498  69.625  1.00  0.00    -0.103 A  
HETATM   26  N   UNL     1     -11.939  12.871  68.350  1.00  0.00    -0.305 NA 
ENDBRANCH  15  17
ENDBRANCH  14  15
ENDBRANCH   7  14
TORSDOF 5
ENDMDL
MODEL       83
REMARK 921   NORMALIZED FREE ENERGY PREDICTED BY IDOCK:   -5.73 KCAL/MOL
REMARK 922        TOTAL FREE ENERGY PREDICTED BY IDOCK:   -8.24 KCAL/MOL
REMARK 923 INTER-LIGAND FREE ENERGY PREDICTED BY IDOCK:   -7.56 KCAL/MOL
REMARK 924 INTRA-LIGAND FREE ENERGY PREDICTED BY IDOCK:   -0.68 KCAL/MOL
REMARK 927      BINDING AFFINITY PREDICTED BY RF-SCORE:    0.00 PKD
ROOT
HETATM    1  C   UNL     1      -9.655  15.223  69.287  1.00  0.00    -0.249 C  
HETATM    2  C   UNL     1      -9.989  14.943  67.851  1.00  0.00    -0.219 A  
HETATM    3  C   UNL     1     -10.403  15.966  66.971  1.00  0.00    -0.297 A  
HETATM    4  C   UNL     1     -10.510  15.696  65.607  1.00  0.00    -0.402 A  
HETATM    5  N   UNL     1     -10.012  13.378  65.998  1.00  0.00    -0.296 NA 
HETATM    6  C   UNL     1     -10.291  14.409  65.171  1.00  0.00    -0.421 A  
HETATM    7  C   UNL     1      -9.885  13.641  67.327  1.00  0.00    -0.241 A  
ENDROOT
BRANCH   3   8
HETATM    8  O   UNL     1     -10.659  17.278  67.291  1.00  0.00    -0.338 OA 
BRANCH   8   9
HETATM    9  C   UNL     1     -10.331  18.257  66.291  1.00  0.00    -0.405 C  
HETATM   10  C   UNL     1      -9.309  19.288  66.766  1.00  0.00    -0.329 C  
HETATM   11  F   UNL     1      -9.883  20.508  66.907  1.00  0.00    -0.539 F  
HETATM   12  F   UNL     1      -8.316  19.425  65.853  1.00  0.00    -0.318 F  
HETATM   13  F   UNL     1      -8.732  18.968  67.943  1.00  0.00    -0.297 F  
ENDBRANCH   8   9
ENDBRANCH   3   8
BRANCH   7  14
HETATM   14  C   UNL     1      -9.650  12.409  68.186  1.00  0.00    -0.218 C  
BRANCH  14  15
HETATM   15  S   UNL     1     -11.174  11.794  68.925  1.00  0.00    -0.276 S  
HETATM   16  O   UNL     1     -12.283  11.641  67.923  1.00  0.00    -0.560 OA 
BRANCH  15  17
HETATM   17  C   UNL     1     -10.702  10.179  69.357  1.00  0.00    -0.238 A  
HETATM   18  N   UNL     1     -11.447   9.298  69.988  1.00  0.00    -0.437 NA 
HETATM   19  C   UNL     1     -10.760   8.108  69.884  1.00  0.00    -0.241 A  
HETATM   20  H   UNL     1     -12.340   9.460  70.454  1.00  0.00     0.000 HD 
HETATM   21  C   UNL     1     -11.120   6.821  70.315  1.00  0.00    -0.360 A  
HETATM   22  C   UNL     1     -10.286   5.743  69.989  1.00  0.00    -0.304 A  
HETATM   23  C   UNL     1      -9.110   5.942  69.264  1.00  0.00    -0.128 A  
HETATM   24  C   UNL     1      -8.709   7.224  68.863  1.00  0.00    -0.128 A  
HETATM   25  C   UNL     1      -9.563   8.281  69.195  1.00  0.00    -0.160 A  
HETATM   26  N   UNL     1      -9.508   9.630  68.960  1.00  0.00    -0.162 NA 
ENDBRANCH  15  17
ENDBRANCH  14  15
ENDBRANCH   7  14
TORSDOF 5
ENDMDL
MODEL       84
REMARK 921   NORMALIZED FREE ENERGY PREDICTED BY IDOCK:   -5.73 KCAL/MOL
REMARK 922        TOTAL FREE ENERGY PREDICTED BY IDOCK:   -8.23 KCAL/MOL
REMARK 923 INTER-LIGAND FREE ENERGY PREDICTED BY IDOCK:   -7.39 KCAL/MOL
REMARK 924 INTRA-LIGAND FREE ENERGY PREDICTED BY IDOCK:   -0.85 KCAL/MOL
REMARK 927      BINDING AFFINITY PREDICTED BY RF-SCORE:    0.00 PKD
ROOT
HETATM    1  C   UNL     1     -10.848   6.777  73.546  1.00  0.00    -0.242 C  
HETATM    2  C   UNL     1     -10.631   6.454  72.098  1.00  0.00    -0.249 A  
HETATM    3  C   UNL     1     -10.243   5.165  71.673  1.00  0.00    -0.212 A  
HETATM    4  C   UNL     1     -10.248   4.859  70.313  1.00  0.00    -0.299 A  
HETATM    5  N   UNL     1     -10.806   7.135  69.776  1.00  0.00    -0.239 NA 
HETATM    6  C   UNL     1     -10.548   5.858  69.415  1.00  0.00    -0.309 A  
HETATM    7  C   UNL     1     -10.825   7.431  71.104  1.00  0.00    -0.242 A  
ENDROOT
BRANCH   3   8
HETATM    8  O   UNL     1      -9.914   4.096  72.472  1.00  0.00    -0.148 OA 
BRANCH   8   9
HETATM    9  C   UNL     1      -8.613   3.519  72.268  1.00  0.00    -0.084 C  
HETATM   10  C   UNL     1      -7.498   4.265  72.999  1.00  0.00    -0.080 C  
HETATM   11  F   UNL     1      -6.688   4.904  72.122  1.00  0.00    -0.042 F  
HETATM   12  F   UNL     1      -6.721   3.395  73.690  1.00  0.00    -0.029 F  
HETATM   13  F   UNL     1      -7.954   5.182  73.878  1.00  0.00    -0.098 F  
ENDBRANCH   8   9
ENDBRANCH   3   8
BRANCH   7  14
HETATM   14  C   UNL     1     -11.044   8.904  71.409  1.00  0.00    -0.306 C  
BRANCH  14  15
HETATM   15  S   UNL     1     -12.787   9.356  71.364  1.00  0.00    -0.340 S  
HETATM   16  O   UNL     1     -13.528   8.934  72.601  1.00  0.00    -0.435 OA 
BRANCH  15  17
HETATM   17  C   UNL     1     -12.680  11.088  71.446  1.00  0.00    -0.429 A  
HETATM   18  N   UNL     1     -11.958  11.857  70.659  1.00  0.00    -0.478 NA 
HETATM   19  C   UNL     1     -12.378  13.141  70.930  1.00  0.00    -0.307 A  
HETATM   20  H   UNL     1     -11.243  11.566  69.992  1.00  0.00     0.000 HD 
HETATM   21  C   UNL     1     -11.999  14.356  70.333  1.00  0.00    -0.395 A  
HETATM   22  C   UNL     1     -12.661  15.530  70.718  1.00  0.00    -0.505 A  
HETATM   23  C   UNL     1     -13.666  15.500  71.686  1.00  0.00    -0.562 A  
HETATM   24  C   UNL     1     -14.028  14.307  72.325  1.00  0.00    -0.629 A  
HETATM   25  C   UNL     1     -13.357  13.149  71.918  1.00  0.00    -0.455 A  
HETATM   26  N   UNL     1     -13.455  11.835  72.297  1.00  0.00    -0.275 NA 
ENDBRANCH  15  17
ENDBRANCH  14  15
ENDBRANCH   7  14
TORSDOF 5
ENDMDL
MODEL       85
REMARK 921   NORMALIZED FREE ENERGY PREDICTED BY IDOCK:   -5.72 KCAL/MOL
REMARK 922        TOTAL FREE ENERGY PREDICTED BY IDOCK:   -8.23 KCAL/MOL
REMARK 923 INTER-LIGAND FREE ENERGY PREDICTED BY IDOCK:   -8.10 KCAL/MOL
REMARK 924 INTRA-LIGAND FREE ENERGY PREDICTED BY IDOCK:   -0.12 KCAL/MOL
REMARK 927      BINDING AFFINITY PREDICTED BY RF-SCORE:    0.00 PKD
ROOT
HETATM    1  C   UNL     1     -11.103  11.765  66.156  1.00  0.00    -0.358 C  
HETATM    2  C   UNL     1     -11.326  12.809  67.211  1.00  0.00    -0.364 A  
HETATM    3  C   UNL     1     -10.921  12.613  68.548  1.00  0.00    -0.261 A  
HETATM    4  C   UNL     1     -10.968  13.681  69.444  1.00  0.00    -0.117 A  
HETATM    5  N   UNL     1     -12.002  15.069  67.776  1.00  0.00    -0.207 NA 
HETATM    6  C   UNL     1     -11.493  14.878  69.013  1.00  0.00    -0.301 A  
HETATM    7  C   UNL     1     -11.938  14.036  66.893  1.00  0.00    -0.447 A  
ENDROOT
BRANCH   3   8
HETATM    8  O   UNL     1     -10.393  11.467  69.092  1.00  0.00    -0.186 OA 
BRANCH   8   9
HETATM    9  C   UNL     1     -11.298  10.363  69.264  1.00  0.00    -0.235 C  
HETATM   10  C   UNL     1     -11.992  10.356  70.625  1.00  0.00    -0.351 C  
HETATM   11  F   UNL     1     -11.550   9.328  71.389  1.00  0.00    -0.328 F  
HETATM   12  F   UNL     1     -13.329  10.185  70.473  1.00  0.00    -0.399 F  
HETATM   13  F   UNL     1     -11.810  11.495  71.326  1.00  0.00    -0.273 F  
ENDBRANCH   8   9
ENDBRANCH   3   8
BRANCH   7  14
HETATM   14  C   UNL     1     -12.606  14.318  65.556  1.00  0.00    -0.413 C  
BRANCH  14  15
HETATM   15  S   UNL     1     -11.464  15.039  64.364  1.00  0.00    -0.162 S  
HETATM   16  O   UNL     1     -12.074  16.173  63.590  1.00  0.00    -0.800 OA 
BRANCH  15  17
HETATM   17  C   UNL     1     -10.297  15.767  65.426  1.00  0.00    -0.389 A  
HETATM   18  N   UNL     1      -9.230  15.178  65.923  1.00  0.00    -0.464 NA 
HETATM   19  C   UNL     1      -8.490  16.195  66.486  1.00  0.00    -0.311 A  
HETATM   20  H   UNL     1      -9.000  14.185  65.897  1.00  0.00     0.000 HD 
HETATM   21  C   UNL     1      -7.226  16.155  67.097  1.00  0.00    -0.255 A  
HETATM   22  C   UNL     1      -6.633  17.359  67.499  1.00  0.00    -0.162 A  
HETATM   23  C   UNL     1      -7.289  18.577  67.311  1.00  0.00    -0.222 A  
HETATM   24  C   UNL     1      -8.570  18.635  66.744  1.00  0.00    -0.291 A  
HETATM   25  C   UNL     1      -9.136  17.419  66.347  1.00  0.00    -0.248 A  
HETATM   26  N   UNL     1     -10.330  17.098  65.756  1.00  0.00    -0.559 NA 
ENDBRANCH  15  17
ENDBRANCH  14  15
ENDBRANCH   7  14
TORSDOF 5
ENDMDL
MODEL       86
REMARK 921   NORMALIZED FREE ENERGY PREDICTED BY IDOCK:   -5.72 KCAL/MOL
REMARK 922        TOTAL FREE ENERGY PREDICTED BY IDOCK:   -8.23 KCAL/MOL
REMARK 923 INTER-LIGAND FREE ENERGY PREDICTED BY IDOCK:   -7.62 KCAL/MOL
REMARK 924 INTRA-LIGAND FREE ENERGY PREDICTED BY IDOCK:   -0.60 KCAL/MOL
REMARK 927      BINDING AFFINITY PREDICTED BY RF-SCORE:    0.00 PKD
ROOT
HETATM    1  C   UNL     1      -9.261   9.243  70.776  1.00  0.00    -0.316 C  
HETATM    2  C   UNL     1     -10.702   9.590  71.009  1.00  0.00    -0.411 A  
HETATM    3  C   UNL     1     -11.511   8.849  71.897  1.00  0.00    -0.372 A  
HETATM    4  C   UNL     1     -12.779   9.325  72.231  1.00  0.00    -0.435 A  
HETATM    5  N   UNL     1     -12.541  11.134  70.667  1.00  0.00    -0.332 NA 
HETATM    6  C   UNL     1     -13.237  10.465  71.612  1.00  0.00    -0.400 A  
HETATM    7  C   UNL     1     -11.295  10.686  70.355  1.00  0.00    -0.304 A  
ENDROOT
BRANCH   3   8
HETATM    8  O   UNL     1     -11.166   7.698  72.564  1.00  0.00    -0.293 OA 
BRANCH   8   9
HETATM    9  C   UNL     1     -11.728   6.473  72.063  1.00  0.00    -0.323 C  
HETATM   10  C   UNL     1     -11.317   5.244  72.871  1.00  0.00    -0.301 C  
HETATM   11  F   UNL     1     -10.486   4.450  72.154  1.00  0.00    -0.245 F  
HETATM   12  F   UNL     1     -12.405   4.496  73.180  1.00  0.00    -0.264 F  
HETATM   13  F   UNL     1     -10.695   5.548  74.030  1.00  0.00    -0.263 F  
ENDBRANCH   8   9
ENDBRANCH   3   8
BRANCH   7  14
HETATM   14  C   UNL     1     -10.622  11.453  69.227  1.00  0.00    -0.108 C  
BRANCH  14  15
HETATM   15  S   UNL     1     -11.817  12.186  68.095  1.00  0.00    -0.204 S  
HETATM   16  O   UNL     1     -11.689  13.680  68.006  1.00  0.00    -0.312 OA 
BRANCH  15  17
HETATM   17  C   UNL     1     -11.247  11.571  66.574  1.00  0.00    -0.259 A  
HETATM   18  N   UNL     1     -11.333  12.182  65.412  1.00  0.00    -0.335 NA 
HETATM   19  C   UNL     1     -10.539  11.445  64.560  1.00  0.00    -0.328 A  
HETATM   20  H   UNL     1     -11.870  13.020  65.189  1.00  0.00     0.000 HD 
HETATM   21  C   UNL     1     -10.207  11.675  63.215  1.00  0.00    -0.445 A  
HETATM   22  C   UNL     1      -9.283  10.825  62.594  1.00  0.00    -0.349 A  
HETATM   23  C   UNL     1      -8.711   9.759  63.291  1.00  0.00    -0.232 A  
HETATM   24  C   UNL     1      -9.061   9.485  64.619  1.00  0.00    -0.263 A  
HETATM   25  C   UNL     1      -9.982  10.352  65.217  1.00  0.00    -0.309 A  
HETATM   26  N   UNL     1     -10.532  10.405  66.472  1.00  0.00    -0.223 NA 
ENDBRANCH  15  17
ENDBRANCH  14  15
ENDBRANCH   7  14
TORSDOF 5
ENDMDL
MODEL       87
REMARK 921   NORMALIZED FREE ENERGY PREDICTED BY IDOCK:   -5.71 KCAL/MOL
REMARK 922        TOTAL FREE ENERGY PREDICTED BY IDOCK:   -8.21 KCAL/MOL
REMARK 923 INTER-LIGAND FREE ENERGY PREDICTED BY IDOCK:   -7.29 KCAL/MOL
REMARK 924 INTRA-LIGAND FREE ENERGY PREDICTED BY IDOCK:   -0.93 KCAL/MOL
REMARK 927      BINDING AFFINITY PREDICTED BY RF-SCORE:    0.00 PKD
ROOT
HETATM    1  C   UNL     1     -13.001  10.472  71.813  1.00  0.00    -0.582 C  
HETATM    2  C   UNL     1     -11.735  10.157  71.072  1.00  0.00    -0.470 A  
HETATM    3  C   UNL     1     -11.332  10.897  69.940  1.00  0.00    -0.305 A  
HETATM    4  C   UNL     1     -10.058  10.699  69.407  1.00  0.00    -0.199 A  
HETATM    5  N   UNL     1      -9.658   8.909  70.960  1.00  0.00    -0.230 NA 
HETATM    6  C   UNL     1      -9.261   9.720  69.954  1.00  0.00    -0.234 A  
HETATM    7  C   UNL     1     -10.891   9.114  71.497  1.00  0.00    -0.366 A  
ENDROOT
BRANCH   3   8
HETATM    8  O   UNL     1     -12.042  11.888  69.305  1.00  0.00    -0.282 OA 
BRANCH   8   9
HETATM    9  C   UNL     1     -11.357  13.135  69.096  1.00  0.00    -0.281 C  
HETATM   10  C   UNL     1     -11.861  14.260  69.997  1.00  0.00    -0.314 C  
HETATM   11  F   UNL     1     -12.523  15.197  69.277  1.00  0.00    -0.254 F  
HETATM   12  F   UNL     1     -10.819  14.889  70.596  1.00  0.00    -0.256 F  
HETATM   13  F   UNL     1     -12.689  13.835  70.975  1.00  0.00    -0.371 F  
ENDBRANCH   8   9
ENDBRANCH   3   8
BRANCH   7  14
HETATM   14  C   UNL     1     -11.280   8.105  72.566  1.00  0.00    -0.391 C  
BRANCH  14  15
HETATM   15  S   UNL     1     -12.221   6.725  71.889  1.00  0.00    -0.308 S  
HETATM   16  O   UNL     1     -13.562   7.144  71.357  1.00  0.00    -0.375 OA 
BRANCH  15  17
HETATM   17  C   UNL     1     -11.263   6.327  70.496  1.00  0.00    -0.354 A  
HETATM   18  N   UNL     1     -10.175   5.587  70.490  1.00  0.00    -0.224 NA 
HETATM   19  C   UNL     1      -9.915   5.343  69.159  1.00  0.00    -0.197 A  
HETATM   20  H   UNL     1      -9.640   5.264  71.296  1.00  0.00     0.000 HD 
HETATM   21  C   UNL     1      -8.916   4.551  68.569  1.00  0.00    -0.145 A  
HETATM   22  C   UNL     1      -8.930   4.375  67.179  1.00  0.00    -0.127 A  
HETATM   23  C   UNL     1      -9.907   4.985  66.390  1.00  0.00    -0.218 A  
HETATM   24  C   UNL     1     -10.886   5.814  66.954  1.00  0.00    -0.337 A  
HETATM   25  C   UNL     1     -10.853   5.969  68.344  1.00  0.00    -0.281 A  
HETATM   26  N   UNL     1     -11.639   6.669  69.221  1.00  0.00    -0.184 NA 
ENDBRANCH  15  17
ENDBRANCH  14  15
ENDBRANCH   7  14
TORSDOF 5
ENDMDL
MODEL       88
REMARK 921   NORMALIZED FREE ENERGY PREDICTED BY IDOCK:   -5.69 KCAL/MOL
REMARK 922        TOTAL FREE ENERGY PREDICTED BY IDOCK:   -8.18 KCAL/MOL
REMARK 923 INTER-LIGAND FREE ENERGY PREDICTED BY IDOCK:   -7.15 KCAL/MOL
REMARK 924 INTRA-LIGAND FREE ENERGY PREDICTED BY IDOCK:   -1.03 KCAL/MOL
REMARK 927      BINDING AFFINITY PREDICTED BY RF-SCORE:    0.00 PKD
ROOT
HETATM    1  C   UNL     1     -11.130   9.676  68.389  1.00  0.00    -0.090 C  
HETATM    2  C   UNL     1     -10.035   9.369  69.367  1.00  0.00    -0.189 A  
HETATM    3  C   UNL     1     -10.271   9.323  70.758  1.00  0.00    -0.286 A  
HETATM    4  C   UNL     1      -9.277   8.842  71.608  1.00  0.00    -0.333 A  
HETATM    5  N   UNL     1      -7.752   8.649  69.760  1.00  0.00    -0.085 NA 
HETATM    6  C   UNL     1      -8.056   8.505  71.069  1.00  0.00    -0.130 A  
HETATM    7  C   UNL     1      -8.727   9.098  68.924  1.00  0.00    -0.132 A  
ENDROOT
BRANCH   3   8
HETATM    8  O   UNL     1     -11.439   9.642  71.408  1.00  0.00    -0.356 OA 
BRANCH   8   9
HETATM    9  C   UNL     1     -12.222   8.541  71.898  1.00  0.00    -0.352 C  
HETATM   10  C   UNL     1     -13.716   8.684  71.610  1.00  0.00    -0.384 C  
HETATM   11  F   UNL     1     -14.410   8.901  72.752  1.00  0.00    -0.490 F  
HETATM   12  F   UNL     1     -14.204   7.543  71.064  1.00  0.00    -0.453 F  
HETATM   13  F   UNL     1     -14.003   9.692  70.759  1.00  0.00    -0.336 F  
ENDBRANCH   8   9
ENDBRANCH   3   8
BRANCH   7  14
HETATM   14  C   UNL     1      -8.270   9.303  67.489  1.00  0.00    -0.114 C  
BRANCH  14  15
HETATM   15  S   UNL     1      -7.468  10.899  67.252  1.00  0.00    -0.109 S  
HETATM   16  O   UNL     1      -6.352  10.844  66.248  1.00  0.00    -0.117 OA 
BRANCH  15  17
HETATM   17  C   UNL     1      -8.745  11.798  66.490  1.00  0.00    -0.173 A  
HETATM   18  N   UNL     1      -9.122  11.692  65.234  1.00  0.00    -0.414 NA 
HETATM   19  C   UNL     1     -10.305  12.394  65.155  1.00  0.00    -0.287 A  
HETATM   20  H   UNL     1      -8.644  11.197  64.481  1.00  0.00     0.000 HD 
HETATM   21  C   UNL     1     -11.183  12.559  64.070  1.00  0.00    -0.461 A  
HETATM   22  C   UNL     1     -12.390  13.239  64.278  1.00  0.00    -0.406 A  
HETATM   23  C   UNL     1     -12.712  13.758  65.533  1.00  0.00    -0.530 A  
HETATM   24  C   UNL     1     -11.831  13.644  66.617  1.00  0.00    -0.447 A  
HETATM   25  C   UNL     1     -10.636  12.956  66.385  1.00  0.00    -0.271 A  
HETATM   26  N   UNL     1      -9.572  12.641  67.189  1.00  0.00    -0.202 NA 
ENDBRANCH  15  17
ENDBRANCH  14  15
ENDBRANCH   7  14
TORSDOF 5
ENDMDL
MODEL       89
REMARK 921   NORMALIZED FREE ENERGY PREDICTED BY IDOCK:   -5.67 KCAL/MOL
REMARK 922        TOTAL FREE ENERGY PREDICTED BY IDOCK:   -8.16 KCAL/MOL
REMARK 923 INTER-LIGAND FREE ENERGY PREDICTED BY IDOCK:   -7.79 KCAL/MOL
REMARK 924 INTRA-LIGAND FREE ENERGY PREDICTED BY IDOCK:   -0.37 KCAL/MOL
REMARK 927      BINDING AFFINITY PREDICTED BY RF-SCORE:    0.00 PKD
ROOT
HETATM    1  C   UNL     1     -10.226  11.218  68.871  1.00  0.00    -0.195 C  
HETATM    2  C   UNL     1     -11.353  11.346  69.853  1.00  0.00    -0.300 A  
HETATM    3  C   UNL     1     -11.760  10.265  70.664  1.00  0.00    -0.348 A  
HETATM    4  C   UNL     1     -12.672  10.485  71.696  1.00  0.00    -0.550 A  
HETATM    5  N   UNL     1     -12.942  12.771  71.005  1.00  0.00    -0.156 NA 
HETATM    6  C   UNL     1     -13.216  11.742  71.836  1.00  0.00    -0.362 A  
HETATM    7  C   UNL     1     -12.036  12.567  70.011  1.00  0.00    -0.266 A  
ENDROOT
BRANCH   3   8
HETATM    8  O   UNL     1     -11.297   8.972  70.610  1.00  0.00    -0.260 OA 
BRANCH   8   9
HETATM    9  C   UNL     1     -11.516   8.163  71.778  1.00  0.00    -0.284 C  
HETATM   10  C   UNL     1     -12.124   6.798  71.463  1.00  0.00    -0.363 C  
HETATM   11  F   UNL     1     -13.400   6.722  71.913  1.00  0.00    -0.383 F  
HETATM   12  F   UNL     1     -11.429   5.815  72.087  1.00  0.00    -0.312 F  
HETATM   13  F   UNL     1     -12.137   6.508  70.145  1.00  0.00    -0.468 F  
ENDBRANCH   8   9
ENDBRANCH   3   8
BRANCH   7  14
HETATM   14  C   UNL     1     -11.854  13.755  69.081  1.00  0.00    -0.354 C  
BRANCH  14  15
HETATM   15  S   UNL     1     -11.831  15.320  69.973  1.00  0.00    -0.361 S  
HETATM   16  O   UNL     1     -11.306  15.181  71.374  1.00  0.00    -0.351 OA 
BRANCH  15  17
HETATM   17  C   UNL     1     -10.605  16.182  69.093  1.00  0.00    -0.276 A  
HETATM   18  N   UNL     1      -9.747  15.655  68.246  1.00  0.00    -0.200 NA 
HETATM   19  C   UNL     1      -9.157  16.732  67.620  1.00  0.00    -0.218 A  
HETATM   20  H   UNL     1      -9.558  14.666  68.088  1.00  0.00     0.000 HD 
HETATM   21  C   UNL     1      -8.216  16.761  66.577  1.00  0.00    -0.325 A  
HETATM   22  C   UNL     1      -7.850  17.999  66.034  1.00  0.00    -0.177 A  
HETATM   23  C   UNL     1      -8.394  19.186  66.528  1.00  0.00    -0.324 A  
HETATM   24  C   UNL     1      -9.300  19.183  67.597  1.00  0.00    -0.357 A  
HETATM   25  C   UNL     1      -9.654  17.933  68.117  1.00  0.00    -0.306 A  
HETATM   26  N   UNL     1     -10.502  17.550  69.123  1.00  0.00    -0.296 NA 
ENDBRANCH  15  17
ENDBRANCH  14  15
ENDBRANCH   7  14
TORSDOF 5
ENDMDL
MODEL       90
REMARK 921   NORMALIZED FREE ENERGY PREDICTED BY IDOCK:   -5.67 KCAL/MOL
REMARK 922        TOTAL FREE ENERGY PREDICTED BY IDOCK:   -8.15 KCAL/MOL
REMARK 923 INTER-LIGAND FREE ENERGY PREDICTED BY IDOCK:   -7.51 KCAL/MOL
REMARK 924 INTRA-LIGAND FREE ENERGY PREDICTED BY IDOCK:   -0.64 KCAL/MOL
REMARK 927      BINDING AFFINITY PREDICTED BY RF-SCORE:    0.00 PKD
ROOT
HETATM    1  C   UNL     1      -8.535  14.888  66.794  1.00  0.00    -0.215 C  
HETATM    2  C   UNL     1      -9.375  15.268  67.977  1.00  0.00    -0.197 A  
HETATM    3  C   UNL     1      -9.467  16.603  68.425  1.00  0.00    -0.231 A  
HETATM    4  C   UNL     1     -10.408  16.938  69.398  1.00  0.00    -0.250 A  
HETATM    5  N   UNL     1     -11.021  14.627  69.639  1.00  0.00    -0.249 NA 
HETATM    6  C   UNL     1     -11.165  15.933  69.955  1.00  0.00    -0.353 A  
HETATM    7  C   UNL     1     -10.119  14.299  68.674  1.00  0.00    -0.238 A  
ENDROOT
BRANCH   3   8
HETATM    8  O   UNL     1      -8.760  17.684  67.953  1.00  0.00    -0.236 OA 
BRANCH   8   9
HETATM    9  C   UNL     1      -9.444  18.948  67.955  1.00  0.00    -0.317 C  
HETATM   10  C   UNL     1     -10.251  19.201  66.683  1.00  0.00    -0.411 C  
HETATM   11  F   UNL     1      -9.691  20.189  65.944  1.00  0.00    -0.474 F  
HETATM   12  F   UNL     1     -11.507  19.606  66.992  1.00  0.00    -0.437 F  
HETATM   13  F   UNL     1     -10.362  18.112  65.893  1.00  0.00    -0.368 F  
ENDBRANCH   8   9
ENDBRANCH   3   8
BRANCH   7  14
HETATM   14  C   UNL     1      -9.971  12.803  68.444  1.00  0.00    -0.210 C  
BRANCH  14  15
HETATM   15  S   UNL     1     -11.563  11.990  68.215  1.00  0.00    -0.342 S  
HETATM   16  O   UNL     1     -12.034  12.030  66.790  1.00  0.00    -0.616 OA 
BRANCH  15  17
HETATM   17  C   UNL     1     -11.133  10.335  68.524  1.00  0.00    -0.242 A  
HETATM   18  N   UNL     1     -11.221   9.716  69.682  1.00  0.00    -0.384 NA 
HETATM   19  C   UNL     1     -11.018   8.384  69.391  1.00  0.00    -0.002 A  
HETATM   20  H   UNL     1     -11.401  10.131  70.596  1.00  0.00     0.000 HD 
HETATM   21  C   UNL     1     -11.069   7.262  70.235  1.00  0.00    -0.289 A  
HETATM   22  C   UNL     1     -10.931   5.988  69.669  1.00  0.00    -0.470 A  
HETATM   23  C   UNL     1     -10.730   5.832  68.297  1.00  0.00    -0.285 A  
HETATM   24  C   UNL     1     -10.631   6.939  67.444  1.00  0.00    -0.373 A  
HETATM   25  C   UNL     1     -10.778   8.200  68.033  1.00  0.00    -0.044 A  
HETATM   26  N   UNL     1     -10.759   9.472  67.524  1.00  0.00    -0.281 NA 
ENDBRANCH  15  17
ENDBRANCH  14  15
ENDBRANCH   7  14
TORSDOF 5
ENDMDL
MODEL       91
REMARK 921   NORMALIZED FREE ENERGY PREDICTED BY IDOCK:   -5.66 KCAL/MOL
REMARK 922        TOTAL FREE ENERGY PREDICTED BY IDOCK:   -8.14 KCAL/MOL
REMARK 923 INTER-LIGAND FREE ENERGY PREDICTED BY IDOCK:   -7.57 KCAL/MOL
REMARK 924 INTRA-LIGAND FREE ENERGY PREDICTED BY IDOCK:   -0.57 KCAL/MOL
REMARK 927      BINDING AFFINITY PREDICTED BY RF-SCORE:    0.00 PKD
ROOT
HETATM    1  C   UNL     1     -10.278   7.126  73.889  1.00  0.00    -0.358 C  
HETATM    2  C   UNL     1     -10.437   6.738  72.449  1.00  0.00    -0.230 A  
HETATM    3  C   UNL     1     -10.139   5.436  71.992  1.00  0.00    -0.190 A  
HETATM    4  C   UNL     1     -10.489   5.067  70.694  1.00  0.00    -0.227 A  
HETATM    5  N   UNL     1     -11.229   7.305  70.227  1.00  0.00    -0.273 NA 
HETATM    6  C   UNL     1     -11.040   6.017  69.865  1.00  0.00    -0.399 A  
HETATM    7  C   UNL     1     -10.909   7.664  71.500  1.00  0.00    -0.227 A  
ENDROOT
BRANCH   3   8
HETATM    8  O   UNL     1      -9.584   4.412  72.721  1.00  0.00    -0.130 OA 
BRANCH   8   9
HETATM    9  C   UNL     1     -10.378   3.889  73.800  1.00  0.00    -0.174 C  
HETATM   10  C   UNL     1     -11.047   2.556  73.468  1.00  0.00    -0.213 C  
HETATM   11  F   UNL     1     -12.389   2.705  73.355  1.00  0.00    -0.195 F  
HETATM   12  F   UNL     1     -10.833   1.659  74.461  1.00  0.00    -0.153 F  
HETATM   13  F   UNL     1     -10.599   2.002  72.322  1.00  0.00    -0.228 F  
ENDBRANCH   8   9
ENDBRANCH   3   8
BRANCH   7  14
HETATM   14  C   UNL     1     -11.081   9.147  71.790  1.00  0.00    -0.367 C  
BRANCH  14  15
HETATM   15  S   UNL     1     -12.629   9.794  71.134  1.00  0.00    -0.345 S  
HETATM   16  O   UNL     1     -13.324  10.716  72.094  1.00  0.00    -0.444 OA 
BRANCH  15  17
HETATM   17  C   UNL     1     -12.043  10.804  69.848  1.00  0.00    -0.337 A  
HETATM   18  N   UNL     1     -11.693  10.401  68.645  1.00  0.00    -0.642 NA 
HETATM   19  C   UNL     1     -11.543  11.557  67.910  1.00  0.00    -0.282 A  
HETATM   20  H   UNL     1     -11.562   9.442  68.325  1.00  0.00     0.000 HD 
HETATM   21  C   UNL     1     -11.246  11.724  66.547  1.00  0.00    -0.380 A  
HETATM   22  C   UNL     1     -11.256  13.018  66.009  1.00  0.00    -0.320 A  
HETATM   23  C   UNL     1     -11.539  14.125  66.812  1.00  0.00    -0.409 A  
HETATM   24  C   UNL     1     -11.794  13.985  68.183  1.00  0.00    -0.402 A  
HETATM   25  C   UNL     1     -11.784  12.682  68.693  1.00  0.00    -0.325 A  
HETATM   26  N   UNL     1     -12.002  12.173  69.947  1.00  0.00    -0.325 NA 
ENDBRANCH  15  17
ENDBRANCH  14  15
ENDBRANCH   7  14
TORSDOF 5
ENDMDL
MODEL       92
REMARK 921   NORMALIZED FREE ENERGY PREDICTED BY IDOCK:   -5.65 KCAL/MOL
REMARK 922        TOTAL FREE ENERGY PREDICTED BY IDOCK:   -8.13 KCAL/MOL
REMARK 923 INTER-LIGAND FREE ENERGY PREDICTED BY IDOCK:   -7.57 KCAL/MOL
REMARK 924 INTRA-LIGAND FREE ENERGY PREDICTED BY IDOCK:   -0.56 KCAL/MOL
REMARK 927      BINDING AFFINITY PREDICTED BY RF-SCORE:    0.00 PKD
ROOT
HETATM    1  C   UNL     1     -11.150  10.422  67.588  1.00  0.00    -0.361 C  
HETATM    2  C   UNL     1      -9.963  11.293  67.874  1.00  0.00    -0.189 A  
HETATM    3  C   UNL     1      -8.857  10.823  68.615  1.00  0.00    -0.152 A  
HETATM    4  C   UNL     1      -7.699  11.596  68.686  1.00  0.00    -0.134 A  
HETATM    5  N   UNL     1      -8.780  13.375  67.484  1.00  0.00    -0.192 NA 
HETATM    6  C   UNL     1      -7.701  12.841  68.098  1.00  0.00    -0.137 A  
HETATM    7  C   UNL     1      -9.905  12.615  67.394  1.00  0.00    -0.205 A  
ENDROOT
BRANCH   3   8
HETATM    8  O   UNL     1      -8.744   9.610  69.250  1.00  0.00    -0.138 OA 
BRANCH   8   9
HETATM    9  C   UNL     1      -9.619   9.386  70.368  1.00  0.00    -0.266 C  
HETATM   10  C   UNL     1     -10.633   8.269  70.128  1.00  0.00    -0.233 C  
HETATM   11  F   UNL     1     -11.887   8.769  70.020  1.00  0.00    -0.067 F  
HETATM   12  F   UNL     1     -10.643   7.406  71.174  1.00  0.00    -0.218 F  
HETATM   13  F   UNL     1     -10.383   7.548  69.015  1.00  0.00    -0.191 F  
ENDBRANCH   8   9
ENDBRANCH   3   8
BRANCH   7  14
HETATM   14  C   UNL     1     -11.088  13.327  66.759  1.00  0.00    -0.292 C  
BRANCH  14  15
HETATM   15  S   UNL     1     -10.596  14.348  65.359  1.00  0.00    -0.392 S  
HETATM   16  O   UNL     1     -11.623  14.361  64.262  1.00  0.00    -0.347 OA 
BRANCH  15  17
HETATM   17  C   UNL     1     -10.647  15.931  66.072  1.00  0.00    -0.323 A  
HETATM   18  N   UNL     1     -10.561  16.204  67.357  1.00  0.00    -0.311 NA 
HETATM   19  C   UNL     1     -10.395  17.571  67.422  1.00  0.00    -0.351 A  
HETATM   20  H   UNL     1     -10.608  15.547  68.135  1.00  0.00     0.000 HD 
HETATM   21  C   UNL     1     -10.182  18.398  68.537  1.00  0.00    -0.394 A  
HETATM   22  C   UNL     1      -9.932  19.761  68.326  1.00  0.00    -0.557 A  
HETATM   23  C   UNL     1      -9.909  20.293  67.036  1.00  0.00    -0.607 A  
HETATM   24  C   UNL     1     -10.163  19.494  65.913  1.00  0.00    -0.508 A  
HETATM   25  C   UNL     1     -10.404  18.136  66.150  1.00  0.00    -0.385 A  
HETATM   26  N   UNL     1     -10.666  17.079  65.319  1.00  0.00    -0.617 NA 
ENDBRANCH  15  17
ENDBRANCH  14  15
ENDBRANCH   7  14
TORSDOF 5
ENDMDL
MODEL       93
REMARK 921   NORMALIZED FREE ENERGY PREDICTED BY IDOCK:   -5.64 KCAL/MOL
REMARK 922        TOTAL FREE ENERGY PREDICTED BY IDOCK:   -8.12 KCAL/MOL
REMARK 923 INTER-LIGAND FREE ENERGY PREDICTED BY IDOCK:   -7.37 KCAL/MOL
REMARK 924 INTRA-LIGAND FREE ENERGY PREDICTED BY IDOCK:   -0.76 KCAL/MOL
REMARK 927      BINDING AFFINITY PREDICTED BY RF-SCORE:    0.00 PKD
ROOT
HETATM    1  C   UNL     1     -10.387   8.916  67.381  1.00  0.00    -0.337 C  
HETATM    2  C   UNL     1     -10.137   9.834  66.221  1.00  0.00    -0.313 A  
HETATM    3  C   UNL     1      -9.366   9.435  65.109  1.00  0.00    -0.221 A  
HETATM    4  C   UNL     1      -9.327  10.244  63.974  1.00  0.00    -0.337 A  
HETATM    5  N   UNL     1     -10.626  11.926  65.095  1.00  0.00    -0.276 NA 
HETATM    6  C   UNL     1      -9.978  11.456  64.007  1.00  0.00    -0.297 A  
HETATM    7  C   UNL     1     -10.685  11.131  66.197  1.00  0.00    -0.225 A  
ENDROOT
BRANCH   3   8
HETATM    8  O   UNL     1      -8.668   8.259  64.967  1.00  0.00    -0.128 OA 
BRANCH   8   9
HETATM    9  C   UNL     1      -7.244   8.333  65.143  1.00  0.00    -0.079 C  
HETATM   10  C   UNL     1      -6.771   7.784  66.488  1.00  0.00    -0.062 C  
HETATM   11  F   UNL     1      -6.314   8.781  67.283  1.00  0.00    -0.053 F  
HETATM   12  F   UNL     1      -5.742   6.919  66.311  1.00  0.00    -0.025 F  
HETATM   13  F   UNL     1      -7.736   7.128  67.168  1.00  0.00    -0.098 F  
ENDBRANCH   8   9
ENDBRANCH   3   8
BRANCH   7  14
HETATM   14  C   UNL     1     -11.364  11.776  67.395  1.00  0.00    -0.311 C  
BRANCH  14  15
HETATM   15  S   UNL     1     -11.341  13.575  67.303  1.00  0.00    -0.331 S  
HETATM   16  O   UNL     1     -12.527  14.133  66.569  1.00  0.00    -0.447 OA 
BRANCH  15  17
HETATM   17  C   UNL     1     -11.578  13.993  68.972  1.00  0.00    -0.306 A  
HETATM   18  N   UNL     1     -11.249  15.134  69.538  1.00  0.00    -0.256 NA 
HETATM   19  C   UNL     1     -11.846  15.102  70.780  1.00  0.00    -0.324 A  
HETATM   20  H   UNL     1     -10.676  15.880  69.145  1.00  0.00     0.000 HD 
HETATM   21  C   UNL     1     -11.887  16.084  71.783  1.00  0.00    -0.599 A  
HETATM   22  C   UNL     1     -12.662  15.847  72.927  1.00  0.00    -0.584 A  
HETATM   23  C   UNL     1     -13.368  14.653  73.077  1.00  0.00    -0.527 A  
HETATM   24  C   UNL     1     -13.306  13.642  72.109  1.00  0.00    -0.587 A  
HETATM   25  C   UNL     1     -12.530  13.906  70.975  1.00  0.00    -0.377 A  
HETATM   26  N   UNL     1     -12.257  13.180  69.845  1.00  0.00    -0.266 NA 
ENDBRANCH  15  17
ENDBRANCH  14  15
ENDBRANCH   7  14
TORSDOF 5
ENDMDL
MODEL       94
REMARK 921   NORMALIZED FREE ENERGY PREDICTED BY IDOCK:   -5.64 KCAL/MOL
REMARK 922        TOTAL FREE ENERGY PREDICTED BY IDOCK:   -8.12 KCAL/MOL
REMARK 923 INTER-LIGAND FREE ENERGY PREDICTED BY IDOCK:   -7.13 KCAL/MOL
REMARK 924 INTRA-LIGAND FREE ENERGY PREDICTED BY IDOCK:   -0.99 KCAL/MOL
REMARK 927      BINDING AFFINITY PREDICTED BY RF-SCORE:    0.00 PKD
ROOT
HETATM    1  C   UNL     1     -10.904   6.752  68.762  1.00  0.00    -0.280 C  
HETATM    2  C   UNL     1      -9.906   7.512  69.585  1.00  0.00    -0.180 A  
HETATM    3  C   UNL     1      -9.199   6.906  70.645  1.00  0.00    -0.158 A  
HETATM    4  C   UNL     1      -8.145   7.590  71.249  1.00  0.00    -0.096 A  
HETATM    5  N   UNL     1      -8.612   9.537  69.919  1.00  0.00    -0.184 NA 
HETATM    6  C   UNL     1      -7.881   8.879  70.846  1.00  0.00    -0.133 A  
HETATM    7  C   UNL     1      -9.627   8.865  69.312  1.00  0.00    -0.162 A  
ENDROOT
BRANCH   3   8
HETATM    8  O   UNL     1      -9.379   5.635  71.138  1.00  0.00    -0.150 OA 
BRANCH   8   9
HETATM    9  C   UNL     1      -9.582   5.520  72.556  1.00  0.00    -0.148 C  
HETATM   10  C   UNL     1     -10.998   5.884  72.997  1.00  0.00    -0.268 C  
HETATM   11  F   UNL     1     -11.002   7.042  73.701  1.00  0.00    -0.343 F  
HETATM   12  F   UNL     1     -11.500   4.926  73.814  1.00  0.00    -0.361 F  
HETATM   13  F   UNL     1     -11.859   6.028  71.968  1.00  0.00    -0.342 F  
ENDBRANCH   8   9
ENDBRANCH   3   8
BRANCH   7  14
HETATM   14  C   UNL     1     -10.441   9.709  68.345  1.00  0.00    -0.223 C  
BRANCH  14  15
HETATM   15  S   UNL     1      -9.870  11.417  68.286  1.00  0.00    -0.206 S  
HETATM   16  O   UNL     1      -9.952  12.008  66.907  1.00  0.00    -0.200 OA 
BRANCH  15  17
HETATM   17  C   UNL     1     -11.107  12.209  69.214  1.00  0.00    -0.167 A  
HETATM   18  N   UNL     1     -11.786  11.680  70.209  1.00  0.00    -0.492 NA 
HETATM   19  C   UNL     1     -12.455  12.737  70.787  1.00  0.00    -0.271 A  
HETATM   20  H   UNL     1     -11.811  10.701  70.492  1.00  0.00     0.000 HD 
HETATM   21  C   UNL     1     -13.274  12.767  71.928  1.00  0.00    -0.511 A  
HETATM   22  C   UNL     1     -13.756  14.003  72.379  1.00  0.00    -0.669 A  
HETATM   23  C   UNL     1     -13.444  15.183  71.702  1.00  0.00    -0.535 A  
HETATM   24  C   UNL     1     -12.666  15.170  70.537  1.00  0.00    -0.416 A  
HETATM   25  C   UNL     1     -12.192  13.925  70.111  1.00  0.00    -0.358 A  
HETATM   26  N   UNL     1     -11.410  13.538  69.055  1.00  0.00    -0.273 NA 
ENDBRANCH  15  17
ENDBRANCH  14  15
ENDBRANCH   7  14
TORSDOF 5
ENDMDL
MODEL       95
REMARK 921   NORMALIZED FREE ENERGY PREDICTED BY IDOCK:   -5.62 KCAL/MOL
REMARK 922        TOTAL FREE ENERGY PREDICTED BY IDOCK:   -8.09 KCAL/MOL
REMARK 923 INTER-LIGAND FREE ENERGY PREDICTED BY IDOCK:   -7.27 KCAL/MOL
REMARK 924 INTRA-LIGAND FREE ENERGY PREDICTED BY IDOCK:   -0.82 KCAL/MOL
REMARK 927      BINDING AFFINITY PREDICTED BY RF-SCORE:    0.00 PKD
ROOT
HETATM    1  C   UNL     1     -13.376   9.978  71.235  1.00  0.00    -0.410 C  
HETATM    2  C   UNL     1     -11.968   9.839  70.736  1.00  0.00    -0.382 A  
HETATM    3  C   UNL     1     -11.522  10.503  69.573  1.00  0.00    -0.272 A  
HETATM    4  C   UNL     1     -10.163  10.504  69.261  1.00  0.00    -0.245 A  
HETATM    5  N   UNL     1      -9.710   9.035  71.108  1.00  0.00    -0.277 NA 
HETATM    6  C   UNL     1      -9.305   9.781  70.057  1.00  0.00    -0.235 A  
HETATM    7  C   UNL     1     -11.032   9.049  71.429  1.00  0.00    -0.324 A  
ENDROOT
BRANCH   3   8
HETATM    8  O   UNL     1     -12.284  11.244  68.702  1.00  0.00    -0.562 OA 
BRANCH   8   9
HETATM    9  C   UNL     1     -11.962  12.641  68.597  1.00  0.00    -0.223 C  
HETATM   10  C   UNL     1     -11.730  13.102  67.159  1.00  0.00    -0.377 C  
HETATM   11  F   UNL     1     -10.426  13.405  66.953  1.00  0.00    -0.262 F  
HETATM   12  F   UNL     1     -12.440  14.228  66.903  1.00  0.00    -0.455 F  
HETATM   13  F   UNL     1     -12.087  12.183  66.237  1.00  0.00    -0.425 F  
ENDBRANCH   8   9
ENDBRANCH   3   8
BRANCH   7  14
HETATM   14  C   UNL     1     -11.404   8.120  72.573  1.00  0.00    -0.401 C  
BRANCH  14  15
HETATM   15  S   UNL     1      -9.998   7.150  73.147  1.00  0.00    -0.259 S  
HETATM   16  O   UNL     1     -10.220   6.560  74.511  1.00  0.00    -0.358 OA 
BRANCH  15  17
HETATM   17  C   UNL     1     -10.048   5.812  72.040  1.00  0.00    -0.185 A  
HETATM   18  N   UNL     1     -10.029   5.893  70.727  1.00  0.00    -0.182 NA 
HETATM   19  C   UNL     1      -9.832   4.601  70.292  1.00  0.00    -0.243 A  
HETATM   20  H   UNL     1     -10.138   6.730  70.155  1.00  0.00     0.000 HD 
HETATM   21  C   UNL     1      -9.661   4.108  68.988  1.00  0.00    -0.232 A  
HETATM   22  C   UNL     1      -9.363   2.749  68.815  1.00  0.00    -0.234 A  
HETATM   23  C   UNL     1      -9.252   1.896  69.914  1.00  0.00    -0.172 A  
HETATM   24  C   UNL     1      -9.463   2.358  71.220  1.00  0.00    -0.218 A  
HETATM   25  C   UNL     1      -9.753   3.718  71.365  1.00  0.00    -0.172 A  
HETATM   26  N   UNL     1      -9.994   4.507  72.460  1.00  0.00    -0.164 NA 
ENDBRANCH  15  17
ENDBRANCH  14  15
ENDBRANCH   7  14
TORSDOF 5
ENDMDL
MODEL       96
REMARK 921   NORMALIZED FREE ENERGY PREDICTED BY IDOCK:   -5.60 KCAL/MOL
REMARK 922        TOTAL FREE ENERGY PREDICTED BY IDOCK:   -8.07 KCAL/MOL
REMARK 923 INTER-LIGAND FREE ENERGY PREDICTED BY IDOCK:   -7.47 KCAL/MOL
REMARK 924 INTRA-LIGAND FREE ENERGY PREDICTED BY IDOCK:   -0.59 KCAL/MOL
REMARK 927      BINDING AFFINITY PREDICTED BY RF-SCORE:    0.00 PKD
ROOT
HETATM    1  C   UNL     1     -12.165  10.930  69.239  1.00  0.00    -0.240 C  
HETATM    2  C   UNL     1     -10.672  10.925  69.097  1.00  0.00    -0.265 A  
HETATM    3  C   UNL     1      -9.904   9.770  69.357  1.00  0.00    -0.205 A  
HETATM    4  C   UNL     1      -8.550   9.754  69.021  1.00  0.00    -0.146 A  
HETATM    5  N   UNL     1      -8.657  12.067  68.374  1.00  0.00    -0.167 NA 
HETATM    6  C   UNL     1      -7.983  10.905  68.523  1.00  0.00    -0.134 A  
HETATM    7  C   UNL     1      -9.983  12.079  68.679  1.00  0.00    -0.142 A  
ENDROOT
BRANCH   3   8
HETATM    8  O   UNL     1     -10.356   8.573  69.858  1.00  0.00    -0.200 OA 
BRANCH   8   9
HETATM    9  C   UNL     1      -9.994   7.391  69.123  1.00  0.00    -0.173 C  
HETATM   10  C   UNL     1     -11.000   6.252  69.276  1.00  0.00    -0.369 C  
HETATM   11  F   UNL     1     -10.471   5.233  69.996  1.00  0.00    -0.314 F  
HETATM   12  F   UNL     1     -11.328   5.745  68.062  1.00  0.00    -0.261 F  
HETATM   13  F   UNL     1     -12.147   6.627  69.879  1.00  0.00    -0.401 F  
ENDBRANCH   8   9
ENDBRANCH   3   8
BRANCH   7  14
HETATM   14  C   UNL     1     -10.637  13.446  68.556  1.00  0.00    -0.253 C  
BRANCH  14  15
HETATM   15  S   UNL     1     -10.925  13.910  66.839  1.00  0.00    -0.300 S  
HETATM   16  O   UNL     1     -12.377  13.851  66.458  1.00  0.00    -0.445 OA 
BRANCH  15  17
HETATM   17  C   UNL     1     -10.516  15.598  66.883  1.00  0.00    -0.307 A  
HETATM   18  N   UNL     1     -10.633  16.449  65.885  1.00  0.00    -0.315 NA 
HETATM   19  C   UNL     1     -10.437  17.690  66.449  1.00  0.00    -0.286 A  
HETATM   20  H   UNL     1     -10.827  16.235  64.907  1.00  0.00     0.000 HD 
HETATM   21  C   UNL     1     -10.516  18.966  65.865  1.00  0.00    -0.450 A  
HETATM   22  C   UNL     1     -10.378  20.092  66.687  1.00  0.00    -0.508 A  
HETATM   23  C   UNL     1     -10.151  19.955  68.057  1.00  0.00    -0.572 A  
HETATM   24  C   UNL     1     -10.025  18.693  68.653  1.00  0.00    -0.431 A  
HETATM   25  C   UNL     1     -10.172  17.585  67.811  1.00  0.00    -0.349 A  
HETATM   26  N   UNL     1     -10.131  16.233  68.037  1.00  0.00    -0.240 NA 
ENDBRANCH  15  17
ENDBRANCH  14  15
ENDBRANCH   7  14
TORSDOF 5
ENDMDL
MODEL       97
REMARK 921   NORMALIZED FREE ENERGY PREDICTED BY IDOCK:   -5.58 KCAL/MOL
REMARK 922        TOTAL FREE ENERGY PREDICTED BY IDOCK:   -8.05 KCAL/MOL
REMARK 923 INTER-LIGAND FREE ENERGY PREDICTED BY IDOCK:   -7.55 KCAL/MOL
REMARK 924 INTRA-LIGAND FREE ENERGY PREDICTED BY IDOCK:   -0.50 KCAL/MOL
REMARK 927      BINDING AFFINITY PREDICTED BY RF-SCORE:    0.00 PKD
ROOT
HETATM    1  C   UNL     1     -10.964  10.322  70.402  1.00  0.00    -0.365 C  
HETATM    2  C   UNL     1     -10.579   9.780  69.057  1.00  0.00    -0.238 A  
HETATM    3  C   UNL     1     -10.655   8.402  68.761  1.00  0.00    -0.125 A  
HETATM    4  C   UNL     1     -10.478   7.971  67.447  1.00  0.00    -0.357 A  
HETATM    5  N   UNL     1      -9.946  10.210  66.755  1.00  0.00    -0.202 NA 
HETATM    6  C   UNL     1     -10.147   8.901  66.488  1.00  0.00    -0.286 A  
HETATM    7  C   UNL     1     -10.140  10.639  68.032  1.00  0.00    -0.157 A  
ENDROOT
BRANCH   3   8
HETATM    8  O   UNL     1     -10.966   7.386  69.633  1.00  0.00    -0.238 OA 
BRANCH   8   9
HETATM    9  C   UNL     1     -12.354   7.235  69.973  1.00  0.00     0.513 C  
HETATM   10  C   UNL     1     -12.650   7.514  71.446  1.00  0.00    -0.351 C  
HETATM   11  F   UNL     1     -12.991   6.375  72.095  1.00  0.00    -0.345 F  
HETATM   12  F   UNL     1     -13.701   8.363  71.564  1.00  0.00    -0.355 F  
HETATM   13  F   UNL     1     -11.610   8.067  72.106  1.00  0.00    -0.296 F  
ENDBRANCH   8   9
ENDBRANCH   3   8
BRANCH   7  14
HETATM   14  C   UNL     1      -9.814  12.107  68.252  1.00  0.00    -0.212 C  
BRANCH  14  15
HETATM   15  S   UNL     1     -11.098  13.193  67.606  1.00  0.00    -0.281 S  
HETATM   16  O   UNL     1     -12.219  12.438  66.949  1.00  0.00    -0.527 OA 
BRANCH  15  17
HETATM   17  C   UNL     1     -11.760  13.832  69.079  1.00  0.00    -0.331 A  
HETATM   18  N   UNL     1     -12.454  13.160  69.972  1.00  0.00    -0.147 NA 
HETATM   19  C   UNL     1     -12.543  13.997  71.062  1.00  0.00    -0.366 A  
HETATM   20  H   UNL     1     -12.843  12.222  69.877  1.00  0.00     0.000 HD 
HETATM   21  C   UNL     1     -13.113  13.772  72.326  1.00  0.00    -0.500 A  
HETATM   22  C   UNL     1     -12.976  14.757  73.312  1.00  0.00    -0.608 A  
HETATM   23  C   UNL     1     -12.300  15.948  73.045  1.00  0.00    -0.605 A  
HETATM   24  C   UNL     1     -11.762  16.213  71.778  1.00  0.00    -0.568 A  
HETATM   25  C   UNL     1     -11.908  15.210  70.813  1.00  0.00    -0.324 A  
HETATM   26  N   UNL     1     -11.506  15.112  69.507  1.00  0.00    -0.276 NA 
ENDBRANCH  15  17
ENDBRANCH  14  15
ENDBRANCH   7  14
TORSDOF 5
ENDMDL
MODEL       98
REMARK 921   NORMALIZED FREE ENERGY PREDICTED BY IDOCK:   -5.58 KCAL/MOL
REMARK 922        TOTAL FREE ENERGY PREDICTED BY IDOCK:   -8.05 KCAL/MOL
REMARK 923 INTER-LIGAND FREE ENERGY PREDICTED BY IDOCK:   -7.20 KCAL/MOL
REMARK 924 INTRA-LIGAND FREE ENERGY PREDICTED BY IDOCK:   -0.85 KCAL/MOL
REMARK 927      BINDING AFFINITY PREDICTED BY RF-SCORE:    0.00 PKD
ROOT
HETATM    1  C   UNL     1     -11.691   6.241  70.995  1.00  0.00    -0.283 C  
HETATM    2  C   UNL     1     -10.601   7.256  70.817  1.00  0.00    -0.237 A  
HETATM    3  C   UNL     1      -9.495   7.020  69.974  1.00  0.00    -0.161 A  
HETATM    4  C   UNL     1      -8.615   8.063  69.686  1.00  0.00    -0.135 A  
HETATM    5  N   UNL     1      -9.783   9.505  71.213  1.00  0.00    -0.175 NA 
HETATM    6  C   UNL     1      -8.807   9.276  70.307  1.00  0.00    -0.224 A  
HETATM    7  C   UNL     1     -10.657   8.497  71.479  1.00  0.00    -0.263 A  
ENDROOT
BRANCH   3   8
HETATM    8  O   UNL     1      -9.196   5.854  69.311  1.00  0.00    -0.122 OA 
BRANCH   8   9
HETATM    9  C   UNL     1      -8.763   5.985  67.946  1.00  0.00    -0.112 C  
HETATM   10  C   UNL     1      -9.915   6.191  66.964  1.00  0.00    -0.162 C  
HETATM   11  F   UNL     1     -10.077   5.102  66.174  1.00  0.00    -0.174 F  
HETATM   12  F   UNL     1      -9.654   7.237  66.142  1.00  0.00    -0.207 F  
HETATM   13  F   UNL     1     -11.097   6.438  67.567  1.00  0.00    -0.332 F  
ENDBRANCH   8   9
ENDBRANCH   3   8
BRANCH   7  14
HETATM   14  C   UNL     1     -11.669   8.822  72.566  1.00  0.00    -0.171 C  
BRANCH  14  15
HETATM   15  S   UNL     1     -13.247   9.365  71.886  1.00  0.00    -0.462 S  
HETATM   16  O   UNL     1     -14.389   9.164  72.841  1.00  0.00    -0.519 OA 
BRANCH  15  17
HETATM   17  C   UNL     1     -12.996  11.082  71.805  1.00  0.00    -0.438 A  
HETATM   18  N   UNL     1     -12.327  11.723  70.870  1.00  0.00    -0.366 NA 
HETATM   19  C   UNL     1     -12.608  13.055  71.080  1.00  0.00    -0.297 A  
HETATM   20  H   UNL     1     -11.731  11.321  70.147  1.00  0.00     0.000 HD 
HETATM   21  C   UNL     1     -12.218  14.183  70.339  1.00  0.00    -0.427 A  
HETATM   22  C   UNL     1     -12.730  15.437  70.701  1.00  0.00    -0.490 A  
HETATM   23  C   UNL     1     -13.599  15.569  71.785  1.00  0.00    -0.578 A  
HETATM   24  C   UNL     1     -13.965  14.463  72.565  1.00  0.00    -0.508 A  
HETATM   25  C   UNL     1     -13.444  13.223  72.179  1.00  0.00    -0.562 A  
HETATM   26  N   UNL     1     -13.593  11.956  72.679  1.00  0.00     0.204 NA 
ENDBRANCH  15  17
ENDBRANCH  14  15
ENDBRANCH   7  14
TORSDOF 5
ENDMDL
MODEL       99
REMARK 921   NORMALIZED FREE ENERGY PREDICTED BY IDOCK:   -5.58 KCAL/MOL
REMARK 922        TOTAL FREE ENERGY PREDICTED BY IDOCK:   -8.04 KCAL/MOL
REMARK 923 INTER-LIGAND FREE ENERGY PREDICTED BY IDOCK:   -7.23 KCAL/MOL
REMARK 924 INTRA-LIGAND FREE ENERGY PREDICTED BY IDOCK:   -0.81 KCAL/MOL
REMARK 927      BINDING AFFINITY PREDICTED BY RF-SCORE:    0.00 PKD
ROOT
HETATM    1  C   UNL     1      -7.380  16.455  67.071  1.00  0.00    -0.255 C  
HETATM    2  C   UNL     1      -8.463  17.462  66.818  1.00  0.00    -0.280 A  
HETATM    3  C   UNL     1      -8.177  18.833  66.639  1.00  0.00    -0.289 A  
HETATM    4  C   UNL     1      -9.186  19.695  66.211  1.00  0.00    -0.437 A  
HETATM    5  N   UNL     1     -10.797  17.916  66.337  1.00  0.00    -0.081 NA 
HETATM    6  C   UNL     1     -10.459  19.194  66.059  1.00  0.00    -0.467 A  
HETATM    7  C   UNL     1      -9.811  17.066  66.734  1.00  0.00    -0.278 A  
ENDROOT
BRANCH   3   8
HETATM    8  O   UNL     1      -6.954  19.445  66.771  1.00  0.00    -0.195 OA 
BRANCH   8   9
HETATM    9  C   UNL     1      -6.871  20.513  67.730  1.00  0.00    -0.322 C  
HETATM   10  C   UNL     1      -6.172  20.107  69.027  1.00  0.00    -0.326 C  
HETATM   11  F   UNL     1      -7.053  20.062  70.056  1.00  0.00    -0.358 F  
HETATM   12  F   UNL     1      -5.226  21.019  69.360  1.00  0.00    -0.313 F  
HETATM   13  F   UNL     1      -5.564  18.905  68.955  1.00  0.00    -0.191 F  
ENDBRANCH   8   9
ENDBRANCH   3   8
BRANCH   7  14
HETATM   14  C   UNL     1     -10.299  15.674  67.100  1.00  0.00    -0.285 C  
BRANCH  14  15
HETATM   15  S   UNL     1     -10.802  15.561  68.826  1.00  0.00    -0.273 S  
HETATM   16  O   UNL     1     -12.129  16.214  69.087  1.00  0.00    -0.231 OA 
BRANCH  15  17
HETATM   17  C   UNL     1     -11.077  13.853  68.978  1.00  0.00    -0.268 A  
HETATM   18  N   UNL     1     -10.351  12.901  68.431  1.00  0.00    -0.242 NA 
HETATM   19  C   UNL     1     -10.787  11.735  69.023  1.00  0.00    -0.195 A  
HETATM   20  H   UNL     1      -9.625  13.003  67.723  1.00  0.00     0.000 HD 
HETATM   21  C   UNL     1     -10.317  10.420  68.871  1.00  0.00    -0.227 A  
HETATM   22  C   UNL     1     -10.863   9.412  69.677  1.00  0.00    -0.245 A  
HETATM   23  C   UNL     1     -11.865   9.702  70.605  1.00  0.00    -0.331 A  
HETATM   24  C   UNL     1     -12.379  10.999  70.741  1.00  0.00    -0.496 A  
HETATM   25  C   UNL     1     -11.812  11.987  69.929  1.00  0.00    -0.331 A  
HETATM   26  N   UNL     1     -12.042  13.333  69.803  1.00  0.00    -0.312 NA 
ENDBRANCH  15  17
ENDBRANCH  14  15
ENDBRANCH   7  14
TORSDOF 5
ENDMDL
MODEL      100
REMARK 921   NORMALIZED FREE ENERGY PREDICTED BY IDOCK:   -5.57 KCAL/MOL
REMARK 922        TOTAL FREE ENERGY PREDICTED BY IDOCK:   -8.03 KCAL/MOL
REMARK 923 INTER-LIGAND FREE ENERGY PREDICTED BY IDOCK:   -7.60 KCAL/MOL
REMARK 924 INTRA-LIGAND FREE ENERGY PREDICTED BY IDOCK:   -0.43 KCAL/MOL
REMARK 927      BINDING AFFINITY PREDICTED BY RF-SCORE:    0.00 PKD
ROOT
HETATM    1  C   UNL     1      -9.952  12.460  68.057  1.00  0.00    -0.207 C  
HETATM    2  C   UNL     1     -10.425  12.080  66.686  1.00  0.00    -0.247 A  
HETATM    3  C   UNL     1     -11.308  12.899  65.950  1.00  0.00    -0.312 A  
HETATM    4  C   UNL     1     -11.561  12.607  64.610  1.00  0.00    -0.392 A  
HETATM    5  N   UNL     1     -10.253  10.597  64.774  1.00  0.00    -0.341 NA 
HETATM    6  C   UNL     1     -11.006  11.471  64.068  1.00  0.00    -0.383 A  
HETATM    7  C   UNL     1      -9.985  10.891  66.075  1.00  0.00    -0.240 A  
ENDROOT
BRANCH   3   8
HETATM    8  O   UNL     1     -11.927  14.047  66.386  1.00  0.00    -0.396 OA 
BRANCH   8   9
HETATM    9  C   UNL     1     -11.067  15.119  66.808  1.00  0.00    -0.307 C  
HETATM   10  C   UNL     1     -10.520  15.949  65.649  1.00  0.00    -0.392 C  
HETATM   11  F   UNL     1      -9.189  15.749  65.496  1.00  0.00    -0.328 F  
HETATM   12  F   UNL     1     -10.693  17.272  65.891  1.00  0.00    -0.335 F  
HETATM   13  F   UNL     1     -11.113  15.676  64.467  1.00  0.00    -0.408 F  
ENDBRANCH   8   9
ENDBRANCH   3   8
BRANCH   7  14
HETATM   14  C   UNL     1      -9.201   9.814  66.807  1.00  0.00    -0.148 C  
BRANCH  14  15
HETATM   15  S   UNL     1      -9.977   8.193  66.665  1.00  0.00    -0.248 S  
HETATM   16  O   UNL     1      -8.977   7.088  66.472  1.00  0.00    -0.136 OA 
BRANCH  15  17
HETATM   17  C   UNL     1     -10.604   7.988  68.272  1.00  0.00    -0.101 A  
HETATM   18  N   UNL     1     -11.172   6.900  68.748  1.00  0.00    -0.516 NA 
HETATM   19  C   UNL     1     -11.273   7.115  70.105  1.00  0.00    -0.262 A  
HETATM   20  H   UNL     1     -11.471   6.077  68.226  1.00  0.00     0.000 HD 
HETATM   21  C   UNL     1     -11.739   6.259  71.118  1.00  0.00    -0.292 A  
HETATM   22  C   UNL     1     -11.638   6.678  72.452  1.00  0.00    -0.281 A  
HETATM   23  C   UNL     1     -11.101   7.926  72.771  1.00  0.00    -0.462 A  
HETATM   24  C   UNL     1     -10.672   8.812  71.774  1.00  0.00    -0.413 A  
HETATM   25  C   UNL     1     -10.778   8.368  70.452  1.00  0.00    -0.231 A  
HETATM   26  N   UNL     1     -10.451   8.939  69.250  1.00  0.00    -0.224 NA 
ENDBRANCH  15  17
ENDBRANCH  14  15
ENDBRANCH   7  14
TORSDOF 5
ENDMDL
MODEL      101
REMARK 921   NORMALIZED FREE ENERGY PREDICTED BY IDOCK:   -5.57 KCAL/MOL
REMARK 922        TOTAL FREE ENERGY PREDICTED BY IDOCK:   -8.02 KCAL/MOL
REMARK 923 INTER-LIGAND FREE ENERGY PREDICTED BY IDOCK:   -7.12 KCAL/MOL
REMARK 924 INTRA-LIGAND FREE ENERGY PREDICTED BY IDOCK:   -0.90 KCAL/MOL
REMARK 927      BINDING AFFINITY PREDICTED BY RF-SCORE:    0.00 PKD
ROOT
HETATM    1  C   UNL     1     -12.053  11.551  70.514  1.00  0.00    -0.472 C  
HETATM    2  C   UNL     1     -11.385  10.577  69.588  1.00  0.00    -0.345 A  
HETATM    3  C   UNL     1     -11.436  10.728  68.186  1.00  0.00    -0.271 A  
HETATM    4  C   UNL     1     -10.640   9.918  67.378  1.00  0.00    -0.338 A  
HETATM    5  N   UNL     1      -9.906   8.676  69.300  1.00  0.00    -0.184 NA 
HETATM    6  C   UNL     1      -9.888   8.931  67.973  1.00  0.00    -0.168 A  
HETATM    7  C   UNL     1     -10.664   9.479  70.094  1.00  0.00    -0.257 A  
ENDROOT
BRANCH   3   8
HETATM    8  O   UNL     1     -12.153  11.666  67.482  1.00  0.00    -0.611 OA 
BRANCH   8   9
HETATM    9  C   UNL     1     -11.451  12.357  66.435  1.00  0.00    -0.373 C  
HETATM   10  C   UNL     1     -11.013  13.767  66.828  1.00  0.00    -0.304 C  
HETATM   11  F   UNL     1     -11.718  14.701  66.146  1.00  0.00    -0.359 F  
HETATM   12  F   UNL     1      -9.706  13.959  66.521  1.00  0.00    -0.256 F  
HETATM   13  F   UNL     1     -11.158  14.025  68.145  1.00  0.00    -0.243 F  
ENDBRANCH   8   9
ENDBRANCH   3   8
BRANCH   7  14
HETATM   14  C   UNL     1     -10.684   9.067  71.558  1.00  0.00    -0.351 C  
BRANCH  14  15
HETATM   15  S   UNL     1     -12.074   7.987  71.942  1.00  0.00    -0.335 S  
HETATM   16  O   UNL     1     -12.998   7.794  70.773  1.00  0.00     0.023 OA 
BRANCH  15  17
HETATM   17  C   UNL     1     -11.259   6.467  72.156  1.00  0.00    -0.271 A  
HETATM   18  N   UNL     1     -11.441   5.625  73.150  1.00  0.00    -0.510 NA 
HETATM   19  C   UNL     1     -10.784   4.475  72.770  1.00  0.00    -0.186 A  
HETATM   20  H   UNL     1     -11.956   5.788  74.015  1.00  0.00     0.000 HD 
HETATM   21  C   UNL     1     -10.704   3.230  73.415  1.00  0.00    -0.299 A  
HETATM   22  C   UNL     1     -10.056   2.173  72.761  1.00  0.00    -0.205 A  
HETATM   23  C   UNL     1      -9.486   2.354  71.500  1.00  0.00    -0.206 A  
HETATM   24  C   UNL     1      -9.515   3.599  70.859  1.00  0.00    -0.235 A  
HETATM   25  C   UNL     1     -10.173   4.636  71.530  1.00  0.00    -0.154 A  
HETATM   26  N   UNL     1     -10.410   5.948  71.211  1.00  0.00    -0.213 NA 
ENDBRANCH  15  17
ENDBRANCH  14  15
ENDBRANCH   7  14
TORSDOF 5
ENDMDL
MODEL      102
REMARK 921   NORMALIZED FREE ENERGY PREDICTED BY IDOCK:   -5.56 KCAL/MOL
REMARK 922        TOTAL FREE ENERGY PREDICTED BY IDOCK:   -8.02 KCAL/MOL
REMARK 923 INTER-LIGAND FREE ENERGY PREDICTED BY IDOCK:   -7.37 KCAL/MOL
REMARK 924 INTRA-LIGAND FREE ENERGY PREDICTED BY IDOCK:   -0.64 KCAL/MOL
REMARK 927      BINDING AFFINITY PREDICTED BY RF-SCORE:    0.00 PKD
ROOT
HETATM    1  C   UNL     1      -8.489  15.965  69.466  1.00  0.00    -0.089 C  
HETATM    2  C   UNL     1      -8.183  16.743  68.221  1.00  0.00    -0.204 A  
HETATM    3  C   UNL     1      -6.949  17.404  68.041  1.00  0.00    -0.186 A  
HETATM    4  C   UNL     1      -6.635  17.944  66.794  1.00  0.00    -0.216 A  
HETATM    5  N   UNL     1      -8.817  17.373  65.965  1.00  0.00    -0.528 NA 
HETATM    6  C   UNL     1      -7.580  17.890  65.796  1.00  0.00    -0.024 A  
HETATM    7  C   UNL     1      -9.120  16.825  67.174  1.00  0.00    -0.212 A  
ENDROOT
BRANCH   3   8
HETATM    8  O   UNL     1      -5.937  17.530  68.962  1.00  0.00    -0.180 OA 
BRANCH   8   9
HETATM    9  C   UNL     1      -5.265  18.800  69.007  1.00  0.00    -0.192 C  
HETATM   10  C   UNL     1      -6.170  19.949  69.446  1.00  0.00    -0.322 C  
HETATM   11  F   UNL     1      -6.411  20.795  68.415  1.00  0.00    -0.327 F  
HETATM   12  F   UNL     1      -5.571  20.678  70.420  1.00  0.00    -0.324 F  
HETATM   13  F   UNL     1      -7.363  19.539  69.926  1.00  0.00    -0.261 F  
ENDBRANCH   8   9
ENDBRANCH   3   8
BRANCH   7  14
HETATM   14  C   UNL     1     -10.556  16.342  67.295  1.00  0.00    -0.293 C  
BRANCH  14  15
HETATM   15  S   UNL     1     -10.738  14.618  66.804  1.00  0.00    -0.307 S  
HETATM   16  O   UNL     1      -9.433  13.988  66.408  1.00  0.00    -0.282 OA 
BRANCH  15  17
HETATM   17  C   UNL     1     -11.175  13.889  68.319  1.00  0.00    -0.272 A  
HETATM   18  N   UNL     1     -11.764  14.495  69.328  1.00  0.00    -0.292 NA 
HETATM   19  C   UNL     1     -12.131  13.483  70.188  1.00  0.00    -0.354 A  
HETATM   20  H   UNL     1     -11.916  15.496  69.448  1.00  0.00     0.000 HD 
HETATM   21  C   UNL     1     -12.853  13.543  71.392  1.00  0.00    -0.440 A  
HETATM   22  C   UNL     1     -13.195  12.345  72.032  1.00  0.00    -0.514 A  
HETATM   23  C   UNL     1     -12.816  11.113  71.496  1.00  0.00    -0.542 A  
HETATM   24  C   UNL     1     -12.058  11.032  70.321  1.00  0.00    -0.448 A  
HETATM   25  C   UNL     1     -11.734  12.242  69.698  1.00  0.00    -0.316 A  
HETATM   26  N   UNL     1     -11.040  12.544  68.555  1.00  0.00    -0.246 NA 
ENDBRANCH  15  17
ENDBRANCH  14  15
ENDBRANCH   7  14
TORSDOF 5
ENDMDL
MODEL      103
REMARK 921   NORMALIZED FREE ENERGY PREDICTED BY IDOCK:   -5.56 KCAL/MOL
REMARK 922        TOTAL FREE ENERGY PREDICTED BY IDOCK:   -8.01 KCAL/MOL
REMARK 923 INTER-LIGAND FREE ENERGY PREDICTED BY IDOCK:   -7.39 KCAL/MOL
REMARK 924 INTRA-LIGAND FREE ENERGY PREDICTED BY IDOCK:   -0.62 KCAL/MOL
REMARK 927      BINDING AFFINITY PREDICTED BY RF-SCORE:    0.00 PKD
ROOT
HETATM    1  C   UNL     1      -9.425  15.940  69.674  1.00  0.00    -0.148 C  
HETATM    2  C   UNL     1      -8.280  16.079  68.716  1.00  0.00    -0.211 A  
HETATM    3  C   UNL     1      -7.644  17.319  68.492  1.00  0.00    -0.251 A  
HETATM    4  C   UNL     1      -6.464  17.362  67.750  1.00  0.00    -0.160 A  
HETATM    5  N   UNL     1      -6.646  15.013  67.274  1.00  0.00    -0.285 NA 
HETATM    6  C   UNL     1      -6.001  16.197  67.183  1.00  0.00    -0.041 A  
HETATM    7  C   UNL     1      -7.785  14.962  68.016  1.00  0.00    -0.122 A  
ENDROOT
BRANCH   3   8
HETATM    8  O   UNL     1      -8.018  18.542  68.995  1.00  0.00    -0.241 OA 
BRANCH   8   9
HETATM    9  C   UNL     1      -8.258  19.584  68.034  1.00  0.00    -0.316 C  
HETATM   10  C   UNL     1      -9.722  19.694  67.613  1.00  0.00    -0.358 C  
HETATM   11  F   UNL     1      -9.885  19.301  66.326  1.00  0.00    -0.348 F  
HETATM   12  F   UNL     1     -10.141  20.981  67.686  1.00  0.00    -0.528 F  
HETATM   13  F   UNL     1     -10.556  18.955  68.375  1.00  0.00    -0.382 F  
ENDBRANCH   8   9
ENDBRANCH   3   8
BRANCH   7  14
HETATM   14  C   UNL     1      -8.482  13.611  67.995  1.00  0.00    -0.174 C  
BRANCH  14  15
HETATM   15  S   UNL     1     -10.046  13.666  67.103  1.00  0.00    -0.248 S  
HETATM   16  O   UNL     1     -10.150  12.601  66.048  1.00  0.00    -0.254 OA 
BRANCH  15  17
HETATM   17  C   UNL     1     -11.156  13.201  68.356  1.00  0.00    -0.268 A  
HETATM   18  N   UNL     1     -11.307  11.988  68.843  1.00  0.00    -0.255 NA 
HETATM   19  C   UNL     1     -12.094  12.149  69.963  1.00  0.00    -0.277 A  
HETATM   20  H   UNL     1     -10.926  11.118  68.473  1.00  0.00     0.000 HD 
HETATM   21  C   UNL     1     -12.515  11.200  70.910  1.00  0.00    -0.509 A  
HETATM   22  C   UNL     1     -13.228  11.640  72.033  1.00  0.00    -0.443 A  
HETATM   23  C   UNL     1     -13.531  12.992  72.204  1.00  0.00    -0.638 A  
HETATM   24  C   UNL     1     -13.160  13.949  71.249  1.00  0.00    -0.385 A  
HETATM   25  C   UNL     1     -12.443  13.484  70.141  1.00  0.00    -0.209 A  
HETATM   26  N   UNL     1     -11.913  14.114  69.045  1.00  0.00    -0.341 NA 
ENDBRANCH  15  17
ENDBRANCH  14  15
ENDBRANCH   7  14
TORSDOF 5
ENDMDL
MODEL      104
REMARK 921   NORMALIZED FREE ENERGY PREDICTED BY IDOCK:   -5.55 KCAL/MOL
REMARK 922        TOTAL FREE ENERGY PREDICTED BY IDOCK:   -8.00 KCAL/MOL
REMARK 923 INTER-LIGAND FREE ENERGY PREDICTED BY IDOCK:   -7.37 KCAL/MOL
REMARK 924 INTRA-LIGAND FREE ENERGY PREDICTED BY IDOCK:   -0.63 KCAL/MOL
REMARK 927      BINDING AFFINITY PREDICTED BY RF-SCORE:    0.00 PKD
ROOT
HETATM    1  C   UNL     1     -13.747  13.042  72.413  1.00  0.00    -0.593 C  
HETATM    2  C   UNL     1     -12.957  12.708  71.182  1.00  0.00    -0.239 A  
HETATM    3  C   UNL     1     -12.451  11.411  70.952  1.00  0.00    -0.379 A  
HETATM    4  C   UNL     1     -11.899  11.100  69.710  1.00  0.00    -0.422 A  
HETATM    5  N   UNL     1     -12.146  13.382  68.998  1.00  0.00    -0.307 NA 
HETATM    6  C   UNL     1     -11.785  12.100  68.771  1.00  0.00    -0.321 A  
HETATM    7  C   UNL     1     -12.706  13.685  70.200  1.00  0.00    -0.049 A  
ENDROOT
BRANCH   3   8
HETATM    8  O   UNL     1     -12.500  10.341  71.812  1.00  0.00    -0.397 OA 
BRANCH   8   9
HETATM    9  C   UNL     1     -12.845   9.069  71.236  1.00  0.00    -0.245 C  
HETATM   10  C   UNL     1     -12.062   7.902  71.833  1.00  0.00    -0.312 C  
HETATM   11  F   UNL     1     -11.190   7.393  70.930  1.00  0.00    -0.255 F  
HETATM   12  F   UNL     1     -12.902   6.895  72.178  1.00  0.00    -0.315 F  
HETATM   13  F   UNL     1     -11.360   8.236  72.937  1.00  0.00    -0.435 F  
ENDBRANCH   8   9
ENDBRANCH   3   8
BRANCH   7  14
HETATM   14  C   UNL     1     -13.006  15.163  70.392  1.00  0.00    -0.256 C  
BRANCH  14  15
HETATM   15  S   UNL     1     -11.597  16.060  71.067  1.00  0.00    -0.397 S  
HETATM   16  O   UNL     1     -10.823  15.254  72.070  1.00  0.00    -0.136 OA 
BRANCH  15  17
HETATM   17  C   UNL     1     -10.578  16.175  69.665  1.00  0.00    -0.311 A  
HETATM   18  N   UNL     1     -10.630  17.114  68.745  1.00  0.00    -0.349 NA 
HETATM   19  C   UNL     1      -9.494  16.936  67.987  1.00  0.00    -0.243 A  
HETATM   20  H   UNL     1     -11.355  17.821  68.620  1.00  0.00     0.000 HD 
HETATM   21  C   UNL     1      -9.001  17.696  66.913  1.00  0.00    -0.258 A  
HETATM   22  C   UNL     1      -7.751  17.366  66.372  1.00  0.00    -0.343 A  
HETATM   23  C   UNL     1      -7.012  16.295  66.878  1.00  0.00    -0.226 A  
HETATM   24  C   UNL     1      -7.505  15.497  67.919  1.00  0.00    -0.150 A  
HETATM   25  C   UNL     1      -8.753  15.851  68.445  1.00  0.00    -0.183 A  
HETATM   26  N   UNL     1      -9.521  15.327  69.452  1.00  0.00    -0.242 NA 
ENDBRANCH  15  17
ENDBRANCH  14  15
ENDBRANCH   7  14
TORSDOF 5
ENDMDL
MODEL      105
REMARK 921   NORMALIZED FREE ENERGY PREDICTED BY IDOCK:   -5.52 KCAL/MOL
REMARK 922        TOTAL FREE ENERGY PREDICTED BY IDOCK:   -7.96 KCAL/MOL
REMARK 923 INTER-LIGAND FREE ENERGY PREDICTED BY IDOCK:   -7.04 KCAL/MOL
REMARK 924 INTRA-LIGAND FREE ENERGY PREDICTED BY IDOCK:   -0.92 KCAL/MOL
REMARK 927      BINDING AFFINITY PREDICTED BY RF-SCORE:    0.00 PKD
ROOT
HETATM    1  C   UNL     1     -10.552   8.152  69.387  1.00  0.00    -0.206 C  
HETATM    2  C   UNL     1     -11.393   9.243  69.982  1.00  0.00    -0.137 A  
HETATM    3  C   UNL     1     -12.071   9.075  71.208  1.00  0.00    -0.314 A  
HETATM    4  C   UNL     1     -12.674  10.175  71.816  1.00  0.00    -0.534 A  
HETATM    5  N   UNL     1     -12.128  11.554  69.925  1.00  0.00    -0.319 NA 
HETATM    6  C   UNL     1     -12.662  11.381  71.155  1.00  0.00    -0.377 A  
HETATM    7  C   UNL     1     -11.519  10.488  69.338  1.00  0.00    -0.262 A  
ENDROOT
BRANCH   3   8
HETATM    8  O   UNL     1     -12.159   7.922  71.952  1.00  0.00    -0.288 OA 
BRANCH   8   9
HETATM    9  C   UNL     1     -11.090   7.675  72.880  1.00  0.00    -0.393 C  
HETATM   10  C   UNL     1     -10.524   6.259  72.787  1.00  0.00    -0.214 C  
HETATM   11  F   UNL     1     -10.839   5.539  73.890  1.00  0.00    -0.276 F  
HETATM   12  F   UNL     1      -9.170   6.295  72.715  1.00  0.00    -0.139 F  
HETATM   13  F   UNL     1     -10.966   5.575  71.711  1.00  0.00    -0.291 F  
ENDBRANCH   8   9
ENDBRANCH   3   8
BRANCH   7  14
HETATM   14  C   UNL     1     -11.021  10.756  67.927  1.00  0.00    -0.289 C  
BRANCH  14  15
HETATM   15  S   UNL     1      -9.450  11.640  67.918  1.00  0.00    -0.187 S  
HETATM   16  O   UNL     1      -8.602  11.300  66.725  1.00  0.00    -0.148 OA 
BRANCH  15  17
HETATM   17  C   UNL     1      -9.992  13.270  67.663  1.00  0.00    -0.229 A  
HETATM   18  N   UNL     1     -10.339  14.125  68.601  1.00  0.00    -0.241 NA 
HETATM   19  C   UNL     1     -10.448  15.339  67.957  1.00  0.00    -0.248 A  
HETATM   20  H   UNL     1     -10.495  13.933  69.591  1.00  0.00     0.000 HD 
HETATM   21  C   UNL     1     -10.724  16.613  68.480  1.00  0.00    -0.351 A  
HETATM   22  C   UNL     1     -10.672  17.719  67.621  1.00  0.00    -0.330 A  
HETATM   23  C   UNL     1     -10.366  17.561  66.268  1.00  0.00    -0.335 A  
HETATM   24  C   UNL     1     -10.130  16.294  65.717  1.00  0.00    -0.373 A  
HETATM   25  C   UNL     1     -10.183  15.208  66.597  1.00  0.00    -0.266 A  
HETATM   26  N   UNL     1      -9.994  13.861  66.425  1.00  0.00    -0.289 NA 
ENDBRANCH  15  17
ENDBRANCH  14  15
ENDBRANCH   7  14
TORSDOF 5
ENDMDL
MODEL      106
REMARK 921   NORMALIZED FREE ENERGY PREDICTED BY IDOCK:   -5.52 KCAL/MOL
REMARK 922        TOTAL FREE ENERGY PREDICTED BY IDOCK:   -7.96 KCAL/MOL
REMARK 923 INTER-LIGAND FREE ENERGY PREDICTED BY IDOCK:   -7.11 KCAL/MOL
REMARK 924 INTRA-LIGAND FREE ENERGY PREDICTED BY IDOCK:   -0.85 KCAL/MOL
REMARK 927      BINDING AFFINITY PREDICTED BY RF-SCORE:    0.00 PKD
ROOT
HETATM    1  C   UNL     1     -11.140  10.305  68.985  1.00  0.00    -0.277 C  
HETATM    2  C   UNL     1     -10.518  10.571  67.646  1.00  0.00    -0.276 A  
HETATM    3  C   UNL     1     -10.313   9.541  66.703  1.00  0.00    -0.210 A  
HETATM    4  C   UNL     1      -9.918   9.866  65.406  1.00  0.00    -0.349 A  
HETATM    5  N   UNL     1      -9.725  12.183  66.016  1.00  0.00    -0.243 NA 
HETATM    6  C   UNL     1      -9.656  11.184  65.109  1.00  0.00    -0.234 A  
HETATM    7  C   UNL     1     -10.131  11.873  67.277  1.00  0.00    -0.196 A  
ENDROOT
BRANCH   3   8
HETATM    8  O   UNL     1     -10.530   8.197  66.888  1.00  0.00    -0.328 OA 
BRANCH   8   9
HETATM    9  C   UNL     1      -9.396   7.332  66.705  1.00  0.00    -0.163 C  
HETATM   10  C   UNL     1      -8.557   7.159  67.970  1.00  0.00    -0.128 C  
HETATM   11  F   UNL     1      -7.353   7.766  67.838  1.00  0.00    -0.090 F  
HETATM   12  F   UNL     1      -8.312   5.845  68.199  1.00  0.00    -0.111 F  
HETATM   13  F   UNL     1      -9.148   7.657  69.077  1.00  0.00    -0.142 F  
ENDBRANCH   8   9
ENDBRANCH   3   8
BRANCH   7  14
HETATM   14  C   UNL     1     -10.101  13.044  68.246  1.00  0.00    -0.239 C  
BRANCH  14  15
HETATM   15  S   UNL     1     -11.599  14.041  68.156  1.00  0.00    -0.354 S  
HETATM   16  O   UNL     1     -12.284  14.179  69.486  1.00  0.00    -0.326 OA 
BRANCH  15  17
HETATM   17  C   UNL     1     -10.931  15.605  67.803  1.00  0.00    -0.316 A  
HETATM   18  N   UNL     1     -10.926  16.197  66.628  1.00  0.00    -0.141 NA 
HETATM   19  C   UNL     1     -10.531  17.493  66.882  1.00  0.00    -0.285 A  
HETATM   20  H   UNL     1     -11.162  15.787  65.725  1.00  0.00     0.000 HD 
HETATM   21  C   UNL     1     -10.417  18.586  66.007  1.00  0.00    -0.433 A  
HETATM   22  C   UNL     1     -10.095  19.842  66.538  1.00  0.00    -0.607 A  
HETATM   23  C   UNL     1      -9.877  20.007  67.906  1.00  0.00    -0.538 A  
HETATM   24  C   UNL     1      -9.942  18.922  68.790  1.00  0.00    -0.466 A  
HETATM   25  C   UNL     1     -10.270  17.680  68.236  1.00  0.00    -0.374 A  
HETATM   26  N   UNL     1     -10.438  16.433  68.781  1.00  0.00    -0.279 NA 
ENDBRANCH  15  17
ENDBRANCH  14  15
ENDBRANCH   7  14
TORSDOF 5
ENDMDL
MODEL      107
REMARK 921   NORMALIZED FREE ENERGY PREDICTED BY IDOCK:   -5.49 KCAL/MOL
REMARK 922        TOTAL FREE ENERGY PREDICTED BY IDOCK:   -7.92 KCAL/MOL
REMARK 923 INTER-LIGAND FREE ENERGY PREDICTED BY IDOCK:   -7.21 KCAL/MOL
REMARK 924 INTRA-LIGAND FREE ENERGY PREDICTED BY IDOCK:   -0.71 KCAL/MOL
REMARK 927      BINDING AFFINITY PREDICTED BY RF-SCORE:    0.00 PKD
ROOT
HETATM    1  C   UNL     1     -11.898   6.663  70.399  1.00  0.00    -0.407 C  
HETATM    2  C   UNL     1     -10.758   7.491  69.885  1.00  0.00    -0.254 A  
HETATM    3  C   UNL     1      -9.874   7.007  68.897  1.00  0.00    -0.150 A  
HETATM    4  C   UNL     1      -8.957   7.878  68.310  1.00  0.00    -0.132 A  
HETATM    5  N   UNL     1      -9.629   9.636  69.804  1.00  0.00    -0.205 NA 
HETATM    6  C   UNL     1      -8.884   9.170  68.777  1.00  0.00    -0.132 A  
HETATM    7  C   UNL     1     -10.541   8.796  70.364  1.00  0.00    -0.221 A  
ENDROOT
BRANCH   3   8
HETATM    8  O   UNL     1      -9.846   5.742  68.361  1.00  0.00    -0.127 OA 
BRANCH   8   9
HETATM    9  C   UNL     1     -10.380   5.594  67.034  1.00  0.00    -0.254 C  
HETATM   10  C   UNL     1      -9.371   5.029  66.036  1.00  0.00    -0.157 C  
HETATM   11  F   UNL     1      -9.006   5.970  65.133  1.00  0.00    -0.129 F  
HETATM   12  F   UNL     1      -9.921   4.006  65.337  1.00  0.00    -0.171 F  
HETATM   13  F   UNL     1      -8.247   4.561  66.617  1.00  0.00    -0.101 F  
ENDBRANCH   8   9
ENDBRANCH   3   8
BRANCH   7  14
HETATM   14  C   UNL     1     -11.274   9.382  71.560  1.00  0.00    -0.386 C  
BRANCH  14  15
HETATM   15  S   UNL     1     -12.792  10.225  71.081  1.00  0.00    -0.434 S  
HETATM   16  O   UNL     1     -13.315  11.133  72.158  1.00  0.00    -0.452 OA 
BRANCH  15  17
HETATM   17  C   UNL     1     -12.206  11.270  69.824  1.00  0.00    -0.275 A  
HETATM   18  N   UNL     1     -12.163  10.988  68.540  1.00  0.00    -0.781 NA 
HETATM   19  C   UNL     1     -11.869  12.183  67.920  1.00  0.00    -0.269 A  
HETATM   20  H   UNL     1     -12.315  10.081  68.098  1.00  0.00     0.000 HD 
HETATM   21  C   UNL     1     -11.769  12.486  66.552  1.00  0.00    -0.454 A  
HETATM   22  C   UNL     1     -11.563  13.818  66.171  1.00  0.00    -0.369 A  
HETATM   23  C   UNL     1     -11.443  14.826  67.128  1.00  0.00    -0.375 A  
HETATM   24  C   UNL     1     -11.495  14.539  68.499  1.00  0.00    -0.327 A  
HETATM   25  C   UNL     1     -11.707  13.203  68.853  1.00  0.00    -0.326 A  
HETATM   26  N   UNL     1     -11.830  12.568  70.062  1.00  0.00    -0.323 NA 
ENDBRANCH  15  17
ENDBRANCH  14  15
ENDBRANCH   7  14
TORSDOF 5
ENDMDL
MODEL      108
REMARK 921   NORMALIZED FREE ENERGY PREDICTED BY IDOCK:   -5.47 KCAL/MOL
REMARK 922        TOTAL FREE ENERGY PREDICTED BY IDOCK:   -7.90 KCAL/MOL
REMARK 923 INTER-LIGAND FREE ENERGY PREDICTED BY IDOCK:   -7.22 KCAL/MOL
REMARK 924 INTRA-LIGAND FREE ENERGY PREDICTED BY IDOCK:   -0.69 KCAL/MOL
REMARK 927      BINDING AFFINITY PREDICTED BY RF-SCORE:    0.00 PKD
ROOT
HETATM    1  C   UNL     1     -10.547   9.695  70.296  1.00  0.00    -0.333 C  
HETATM    2  C   UNL     1     -10.562   8.604  69.266  1.00  0.00    -0.204 A  
HETATM    3  C   UNL     1     -10.883   7.271  69.598  1.00  0.00    -0.222 A  
HETATM    4  C   UNL     1     -11.078   6.337  68.582  1.00  0.00    -0.409 A  
HETATM    5  N   UNL     1     -10.441   7.962  66.930  1.00  0.00    -0.341 NA 
HETATM    6  C   UNL     1     -10.866   6.728  67.279  1.00  0.00    -0.373 A  
HETATM    7  C   UNL     1     -10.271   8.883  67.917  1.00  0.00    -0.222 A  
ENDROOT
BRANCH   3   8
HETATM    8  O   UNL     1     -11.108   6.765  70.856  1.00  0.00    -0.250 OA 
BRANCH   8   9
HETATM    9  C   UNL     1      -9.957   6.625  71.707  1.00  0.00    -0.175 C  
HETATM   10  C   UNL     1     -10.072   7.409  73.013  1.00  0.00    -0.273 C  
HETATM   11  F   UNL     1      -9.205   8.450  73.029  1.00  0.00    -0.300 F  
HETATM   12  F   UNL     1      -9.756   6.619  74.068  1.00  0.00    -0.180 F  
HETATM   13  F   UNL     1     -11.308   7.903  73.235  1.00  0.00    -0.456 F  
ENDBRANCH   8   9
ENDBRANCH   3   8
BRANCH   7  14
HETATM   14  C   UNL     1      -9.716  10.214  67.437  1.00  0.00    -0.161 C  
BRANCH  14  15
HETATM   15  S   UNL     1     -11.013  11.321  66.854  1.00  0.00    -0.272 S  
HETATM   16  O   UNL     1     -12.191  11.375  67.786  1.00  0.00    -0.537 OA 
BRANCH  15  17
HETATM   17  C   UNL     1     -10.222  12.861  67.003  1.00  0.00    -0.243 A  
HETATM   18  N   UNL     1      -9.765  13.595  66.012  1.00  0.00    -0.422 NA 
HETATM   19  C   UNL     1      -9.460  14.813  66.580  1.00  0.00    -0.293 A  
HETATM   20  H   UNL     1      -9.660  13.322  65.035  1.00  0.00     0.000 HD 
HETATM   21  C   UNL     1      -9.000  15.996  65.977  1.00  0.00    -0.345 A  
HETATM   22  C   UNL     1      -8.866  17.145  66.767  1.00  0.00    -0.270 A  
HETATM   23  C   UNL     1      -9.167  17.117  68.130  1.00  0.00    -0.261 A  
HETATM   24  C   UNL     1      -9.585  15.936  68.759  1.00  0.00    -0.219 A  
HETATM   25  C   UNL     1      -9.716  14.805  67.947  1.00  0.00    -0.211 A  
HETATM   26  N   UNL     1     -10.106  13.516  68.204  1.00  0.00    -0.243 NA 
ENDBRANCH  15  17
ENDBRANCH  14  15
ENDBRANCH   7  14
TORSDOF 5
ENDMDL
MODEL      109
REMARK 921   NORMALIZED FREE ENERGY PREDICTED BY IDOCK:   -5.46 KCAL/MOL
REMARK 922        TOTAL FREE ENERGY PREDICTED BY IDOCK:   -7.88 KCAL/MOL
REMARK 923 INTER-LIGAND FREE ENERGY PREDICTED BY IDOCK:   -7.05 KCAL/MOL
REMARK 924 INTRA-LIGAND FREE ENERGY PREDICTED BY IDOCK:   -0.83 KCAL/MOL
REMARK 927      BINDING AFFINITY PREDICTED BY RF-SCORE:    0.00 PKD
ROOT
HETATM    1  C   UNL     1     -11.242   8.494  71.665  1.00  0.00    -0.361 C  
HETATM    2  C   UNL     1     -10.960   8.012  70.272  1.00  0.00    -0.242 A  
HETATM    3  C   UNL     1     -10.978   6.640  69.943  1.00  0.00    -0.319 A  
HETATM    4  C   UNL     1     -10.908   6.254  68.604  1.00  0.00    -0.401 A  
HETATM    5  N   UNL     1     -10.594   8.540  67.933  1.00  0.00    -0.196 NA 
HETATM    6  C   UNL     1     -10.737   7.227  67.647  1.00  0.00    -0.224 A  
HETATM    7  C   UNL     1     -10.684   8.923  69.236  1.00  0.00    -0.162 A  
ENDROOT
BRANCH   3   8
HETATM    8  O   UNL     1     -11.134   5.584  70.809  1.00  0.00    -0.192 OA 
BRANCH   8   9
HETATM    9  C   UNL     1      -9.955   4.815  71.101  1.00  0.00    -0.202 C  
HETATM   10  C   UNL     1      -9.317   5.172  72.443  1.00  0.00    -0.137 C  
HETATM   11  F   UNL     1      -8.130   5.798  72.262  1.00  0.00    -0.104 F  
HETATM   12  F   UNL     1      -9.064   4.049  73.159  1.00  0.00    -0.104 F  
HETATM   13  F   UNL     1     -10.090   5.972  73.207  1.00  0.00    -0.168 F  
ENDBRANCH   8   9
ENDBRANCH   3   8
BRANCH   7  14
HETATM   14  C   UNL     1     -10.432  10.404  69.468  1.00  0.00    -0.247 C  
BRANCH  14  15
HETATM   15  S   UNL     1     -11.949  11.373  69.386  1.00  0.00    -0.324 S  
HETATM   16  O   UNL     1     -12.057  12.374  70.501  1.00  0.00    -0.363 OA 
BRANCH  15  17
HETATM   17  C   UNL     1     -11.669  12.300  67.944  1.00  0.00    -0.347 A  
HETATM   18  N   UNL     1     -12.241  12.104  66.775  1.00  0.00    -0.443 NA 
HETATM   19  C   UNL     1     -11.911  13.212  66.026  1.00  0.00    -0.433 A  
HETATM   20  H   UNL     1     -12.805  11.305  66.486  1.00  0.00     0.000 HD 
HETATM   21  C   UNL     1     -12.305  13.567  64.725  1.00  0.00    -0.435 A  
HETATM   22  C   UNL     1     -11.916  14.815  64.220  1.00  0.00    -0.387 A  
HETATM   23  C   UNL     1     -11.139  15.685  64.986  1.00  0.00    -0.399 A  
HETATM   24  C   UNL     1     -10.697  15.332  66.268  1.00  0.00    -0.315 A  
HETATM   25  C   UNL     1     -11.104  14.084  66.750  1.00  0.00    -0.306 A  
HETATM   26  N   UNL     1     -10.887  13.428  67.934  1.00  0.00    -0.242 NA 
ENDBRANCH  15  17
ENDBRANCH  14  15
ENDBRANCH   7  14
TORSDOF 5
ENDMDL
MODEL      110
REMARK 921   NORMALIZED FREE ENERGY PREDICTED BY IDOCK:   -5.44 KCAL/MOL
REMARK 922        TOTAL FREE ENERGY PREDICTED BY IDOCK:   -7.85 KCAL/MOL
REMARK 923 INTER-LIGAND FREE ENERGY PREDICTED BY IDOCK:   -7.27 KCAL/MOL
REMARK 924 INTRA-LIGAND FREE ENERGY PREDICTED BY IDOCK:   -0.58 KCAL/MOL
REMARK 927      BINDING AFFINITY PREDICTED BY RF-SCORE:    0.00 PKD
ROOT
HETATM    1  C   UNL     1     -10.644  18.258  67.900  1.00  0.00    -0.392 C  
HETATM    2  C   UNL     1      -9.753  17.134  68.339  1.00  0.00    -0.284 A  
HETATM    3  C   UNL     1      -8.359  17.302  68.480  1.00  0.00    -0.267 A  
HETATM    4  C   UNL     1      -7.602  16.294  69.078  1.00  0.00    -0.219 A  
HETATM    5  N   UNL     1      -9.540  14.878  69.206  1.00  0.00    -0.169 NA 
HETATM    6  C   UNL     1      -8.231  15.123  69.435  1.00  0.00    -0.197 A  
HETATM    7  C   UNL     1     -10.286  15.867  68.643  1.00  0.00    -0.229 A  
ENDROOT
BRANCH   3   8
HETATM    8  O   UNL     1      -7.623  18.415  68.152  1.00  0.00    -0.257 OA 
BRANCH   8   9
HETATM    9  C   UNL     1      -7.396  18.645  66.751  1.00  0.00    -0.217 C  
HETATM   10  C   UNL     1      -7.837  20.031  66.286  1.00  0.00    -0.298 C  
HETATM   11  F   UNL     1      -8.922  19.947  65.478  1.00  0.00    -0.252 F  
HETATM   12  F   UNL     1      -6.855  20.622  65.563  1.00  0.00    -0.280 F  
HETATM   13  F   UNL     1      -8.147  20.864  67.302  1.00  0.00    -0.375 F  
ENDBRANCH   8   9
ENDBRANCH   3   8
BRANCH   7  14
HETATM   14  C   UNL     1     -11.725  15.472  68.351  1.00  0.00    -0.309 C  
BRANCH  14  15
HETATM   15  S   UNL     1     -11.829  14.010  67.302  1.00  0.00    -0.416 S  
HETATM   16  O   UNL     1     -10.676  13.900  66.346  1.00  0.00    -0.279 OA 
BRANCH  15  17
HETATM   17  C   UNL     1     -11.594  12.749  68.473  1.00  0.00    -0.321 A  
HETATM   18  N   UNL     1     -12.159  12.679  69.659  1.00  0.00    -0.256 NA 
HETATM   19  C   UNL     1     -11.879  11.408  70.114  1.00  0.00    -0.355 A  
HETATM   20  H   UNL     1     -12.689  13.406  70.139  1.00  0.00     0.000 HD 
HETATM   21  C   UNL     1     -12.292  10.764  71.292  1.00  0.00    -0.470 A  
HETATM   22  C   UNL     1     -11.958   9.415  71.475  1.00  0.00    -0.456 A  
HETATM   23  C   UNL     1     -11.217   8.726  70.515  1.00  0.00    -0.278 A  
HETATM   24  C   UNL     1     -10.757   9.361  69.353  1.00  0.00    -0.234 A  
HETATM   25  C   UNL     1     -11.109  10.706  69.193  1.00  0.00    -0.255 A  
HETATM   26  N   UNL     1     -10.860  11.621  68.203  1.00  0.00    -0.205 NA 
ENDBRANCH  15  17
ENDBRANCH  14  15
ENDBRANCH   7  14
TORSDOF 5
ENDMDL
MODEL      111
REMARK 921   NORMALIZED FREE ENERGY PREDICTED BY IDOCK:   -5.43 KCAL/MOL
REMARK 922        TOTAL FREE ENERGY PREDICTED BY IDOCK:   -7.85 KCAL/MOL
REMARK 923 INTER-LIGAND FREE ENERGY PREDICTED BY IDOCK:   -7.62 KCAL/MOL
REMARK 924 INTRA-LIGAND FREE ENERGY PREDICTED BY IDOCK:   -0.23 KCAL/MOL
REMARK 927      BINDING AFFINITY PREDICTED BY RF-SCORE:    0.00 PKD
ROOT
HETATM    1  C   UNL     1      -9.938   9.939  69.741  1.00  0.00    -0.275 C  
HETATM    2  C   UNL     1     -11.215  10.003  70.526  1.00  0.00    -0.408 A  
HETATM    3  C   UNL     1     -11.699   8.894  71.251  1.00  0.00    -0.306 A  
HETATM    4  C   UNL     1     -12.777   9.059  72.120  1.00  0.00    -0.470 A  
HETATM    5  N   UNL     1     -13.034  11.341  71.411  1.00  0.00    -0.415 NA 
HETATM    6  C   UNL     1     -13.393  10.289  72.179  1.00  0.00    -0.299 A  
HETATM    7  C   UNL     1     -11.969  11.191  70.578  1.00  0.00    -0.380 A  
ENDROOT
BRANCH   3   8
HETATM    8  O   UNL     1     -11.176   7.624  71.264  1.00  0.00    -0.247 OA 
BRANCH   8   9
HETATM    9  C   UNL     1     -10.902   7.056  72.556  1.00  0.00    -0.252 C  
HETATM   10  C   UNL     1     -10.852   5.529  72.548  1.00  0.00    -0.252 C  
HETATM   11  F   UNL     1     -11.911   5.007  73.212  1.00  0.00    -0.385 F  
HETATM   12  F   UNL     1      -9.736   5.090  73.180  1.00  0.00    -0.148 F  
HETATM   13  F   UNL     1     -10.846   5.000  71.307  1.00  0.00    -0.251 F  
ENDBRANCH   8   9
ENDBRANCH   3   8
BRANCH   7  14
HETATM   14  C   UNL     1     -11.691  12.399  69.699  1.00  0.00    -0.307 C  
BRANCH  14  15
HETATM   15  S   UNL     1     -12.411  13.908  70.370  1.00  0.00    -0.307 S  
HETATM   16  O   UNL     1     -12.201  14.041  71.851  1.00  0.00    -0.211 OA 
BRANCH  15  17
HETATM   17  C   UNL     1     -11.393  15.111  69.639  1.00  0.00    -0.283 A  
HETATM   18  N   UNL     1     -10.161  15.403  69.996  1.00  0.00    -0.445 NA 
HETATM   19  C   UNL     1      -9.681  16.217  68.993  1.00  0.00    -0.248 A  
HETATM   20  H   UNL     1      -9.668  15.095  70.834  1.00  0.00     0.000 HD 
HETATM   21  C   UNL     1      -8.401  16.770  68.819  1.00  0.00    -0.248 A  
HETATM   22  C   UNL     1      -8.130  17.483  67.644  1.00  0.00    -0.211 A  
HETATM   23  C   UNL     1      -9.113  17.658  66.670  1.00  0.00    -0.280 A  
HETATM   24  C   UNL     1     -10.409  17.153  66.843  1.00  0.00    -0.308 A  
HETATM   25  C   UNL     1     -10.652  16.439  68.022  1.00  0.00    -0.314 A  
HETATM   26  N   UNL     1     -11.762  15.803  68.512  1.00  0.00    -0.370 NA 
ENDBRANCH  15  17
ENDBRANCH  14  15
ENDBRANCH   7  14
TORSDOF 5
ENDMDL
MODEL      112
REMARK 921   NORMALIZED FREE ENERGY PREDICTED BY IDOCK:   -5.43 KCAL/MOL
REMARK 922        TOTAL FREE ENERGY PREDICTED BY IDOCK:   -7.85 KCAL/MOL
REMARK 923 INTER-LIGAND FREE ENERGY PREDICTED BY IDOCK:   -6.97 KCAL/MOL
REMARK 924 INTRA-LIGAND FREE ENERGY PREDICTED BY IDOCK:   -0.87 KCAL/MOL
REMARK 927      BINDING AFFINITY PREDICTED BY RF-SCORE:    0.00 PKD
ROOT
HETATM    1  C   UNL     1     -10.337  18.197  68.055  1.00  0.00    -0.405 C  
HETATM    2  C   UNL     1      -9.360  17.093  68.331  1.00  0.00    -0.273 A  
HETATM    3  C   UNL     1      -7.997  17.352  68.586  1.00  0.00    -0.271 A  
HETATM    4  C   UNL     1      -7.172  16.319  69.032  1.00  0.00    -0.204 A  
HETATM    5  N   UNL     1      -8.967  14.741  68.776  1.00  0.00    -0.181 NA 
HETATM    6  C   UNL     1      -7.699  15.051  69.127  1.00  0.00    -0.179 A  
HETATM    7  C   UNL     1      -9.781  15.750  68.362  1.00  0.00    -0.203 A  
ENDROOT
BRANCH   3   8
HETATM    8  O   UNL     1      -7.360  18.567  68.516  1.00  0.00    -0.275 OA 
BRANCH   8   9
HETATM    9  C   UNL     1      -6.069  18.653  69.142  1.00  0.00    -0.242 C  
HETATM   10  C   UNL     1      -5.992  19.727  70.225  1.00  0.00    -0.302 C  
HETATM   11  F   UNL     1      -5.199  20.753  69.833  1.00  0.00    -0.284 F  
HETATM   12  F   UNL     1      -5.445  19.219  71.357  1.00  0.00    -0.236 F  
HETATM   13  F   UNL     1      -7.195  20.242  70.556  1.00  0.00    -0.181 F  
ENDBRANCH   8   9
ENDBRANCH   3   8
BRANCH   7  14
HETATM   14  C   UNL     1     -11.160  15.293  67.915  1.00  0.00    -0.321 C  
BRANCH  14  15
HETATM   15  S   UNL     1     -11.200  14.864  66.165  1.00  0.00    -0.295 S  
HETATM   16  O   UNL     1      -9.973  15.322  65.428  1.00  0.00    -0.347 OA 
BRANCH  15  17
HETATM   17  C   UNL     1     -11.082  13.133  66.249  1.00  0.00    -0.287 A  
HETATM   18  N   UNL     1     -10.510  12.352  65.357  1.00  0.00    -0.270 NA 
HETATM   19  C   UNL     1     -10.438  11.115  65.959  1.00  0.00    -0.256 A  
HETATM   20  H   UNL     1     -10.189  12.607  64.423  1.00  0.00     0.000 HD 
HETATM   21  C   UNL     1      -9.860   9.921  65.495  1.00  0.00    -0.381 A  
HETATM   22  C   UNL     1      -9.822   8.814  66.353  1.00  0.00    -0.352 A  
HETATM   23  C   UNL     1     -10.360   8.885  67.639  1.00  0.00    -0.313 A  
HETATM   24  C   UNL     1     -10.980  10.052  68.105  1.00  0.00    -0.289 A  
HETATM   25  C   UNL     1     -11.000  11.145  67.232  1.00  0.00    -0.296 A  
HETATM   26  N   UNL     1     -11.491  12.419  67.348  1.00  0.00    -0.329 NA 
ENDBRANCH  15  17
ENDBRANCH  14  15
ENDBRANCH   7  14
TORSDOF 5
ENDMDL
MODEL      113
REMARK 921   NORMALIZED FREE ENERGY PREDICTED BY IDOCK:   -5.42 KCAL/MOL
REMARK 922        TOTAL FREE ENERGY PREDICTED BY IDOCK:   -7.83 KCAL/MOL
REMARK 923 INTER-LIGAND FREE ENERGY PREDICTED BY IDOCK:   -7.02 KCAL/MOL
REMARK 924 INTRA-LIGAND FREE ENERGY PREDICTED BY IDOCK:   -0.82 KCAL/MOL
REMARK 927      BINDING AFFINITY PREDICTED BY RF-SCORE:    0.00 PKD
ROOT
HETATM    1  C   UNL     1     -11.266  11.555  65.434  1.00  0.00    -0.207 C  
HETATM    2  C   UNL     1     -11.382  12.282  66.741  1.00  0.00    -0.395 A  
HETATM    3  C   UNL     1     -10.863  11.747  67.939  1.00  0.00    -0.211 A  
HETATM    4  C   UNL     1     -10.817  12.541  69.084  1.00  0.00    -0.134 A  
HETATM    5  N   UNL     1     -11.978  14.306  67.938  1.00  0.00    -0.352 NA 
HETATM    6  C   UNL     1     -11.364  13.803  69.032  1.00  0.00    -0.289 A  
HETATM    7  C   UNL     1     -12.005  13.542  66.812  1.00  0.00    -0.404 A  
ENDROOT
BRANCH   3   8
HETATM    8  O   UNL     1     -10.303  10.504  68.114  1.00  0.00    -0.158 OA 
BRANCH   8   9
HETATM    9  C   UNL     1     -10.086  10.082  69.471  1.00  0.00    -0.227 C  
HETATM   10  C   UNL     1     -10.157   8.568  69.653  1.00  0.00    -0.202 C  
HETATM   11  F   UNL     1     -11.260   8.217  70.358  1.00  0.00    -0.259 F  
HETATM   12  F   UNL     1      -9.085   8.124  70.355  1.00  0.00    -0.143 F  
HETATM   13  F   UNL     1     -10.184   7.888  68.487  1.00  0.00    -0.188 F  
ENDBRANCH   8   9
ENDBRANCH   3   8
BRANCH   7  14
HETATM   14  C   UNL     1     -12.785  14.157  65.662  1.00  0.00    -0.441 C  
BRANCH  14  15
HETATM   15  S   UNL     1     -11.705  14.928  64.443  1.00  0.00    -0.265 S  
HETATM   16  O   UNL     1     -12.364  16.072  63.726  1.00  0.00    -0.858 OA 
BRANCH  15  17
HETATM   17  C   UNL     1     -10.505  15.645  65.474  1.00  0.00    -0.404 A  
HETATM   18  N   UNL     1     -10.659  16.730  66.203  1.00  0.00    -0.260 NA 
HETATM   19  C   UNL     1      -9.555  16.766  67.027  1.00  0.00    -0.239 A  
HETATM   20  H   UNL     1     -11.428  17.398  66.166  1.00  0.00     0.000 HD 
HETATM   21  C   UNL     1      -9.232  17.666  68.057  1.00  0.00    -0.271 A  
HETATM   22  C   UNL     1      -8.089  17.422  68.830  1.00  0.00    -0.234 A  
HETATM   23  C   UNL     1      -7.277  16.315  68.576  1.00  0.00    -0.159 A  
HETATM   24  C   UNL     1      -7.557  15.431  67.527  1.00  0.00    -0.207 A  
HETATM   25  C   UNL     1      -8.706  15.694  66.774  1.00  0.00    -0.271 A  
HETATM   26  N   UNL     1      -9.289  15.054  65.711  1.00  0.00    -0.236 NA 
ENDBRANCH  15  17
ENDBRANCH  14  15
ENDBRANCH   7  14
TORSDOF 5
ENDMDL
MODEL      114
REMARK 921   NORMALIZED FREE ENERGY PREDICTED BY IDOCK:   -5.41 KCAL/MOL
REMARK 922        TOTAL FREE ENERGY PREDICTED BY IDOCK:   -7.82 KCAL/MOL
REMARK 923 INTER-LIGAND FREE ENERGY PREDICTED BY IDOCK:   -8.00 KCAL/MOL
REMARK 924 INTRA-LIGAND FREE ENERGY PREDICTED BY IDOCK:    0.17 KCAL/MOL
REMARK 927      BINDING AFFINITY PREDICTED BY RF-SCORE:    0.00 PKD
ROOT
HETATM    1  C   UNL     1     -10.732  16.602  66.003  1.00  0.00    -0.153 C  
HETATM    2  C   UNL     1      -9.372  16.087  66.372  1.00  0.00    -0.329 A  
HETATM    3  C   UNL     1      -8.238  16.926  66.390  1.00  0.00    -0.307 A  
HETATM    4  C   UNL     1      -7.042  16.454  66.927  1.00  0.00    -0.256 A  
HETATM    5  N   UNL     1      -8.009  14.275  67.236  1.00  0.00    -0.191 NA 
HETATM    6  C   UNL     1      -6.981  15.145  67.348  1.00  0.00    -0.163 A  
HETATM    7  C   UNL     1      -9.185  14.739  66.733  1.00  0.00    -0.260 A  
ENDROOT
BRANCH   3   8
HETATM    8  O   UNL     1      -8.177  18.239  65.989  1.00  0.00    -0.479 OA 
BRANCH   8   9
HETATM    9  C   UNL     1      -8.286  19.232  67.023  1.00  0.00    -0.278 C  
HETATM   10  C   UNL     1      -6.976  19.969  67.295  1.00  0.00    -0.232 C  
HETATM   11  F   UNL     1      -6.474  19.633  68.507  1.00  0.00    -0.260 F  
HETATM   12  F   UNL     1      -7.183  21.309  67.314  1.00  0.00    -0.418 F  
HETATM   13  F   UNL     1      -6.021  19.723  66.374  1.00  0.00    -0.171 F  
ENDBRANCH   8   9
ENDBRANCH   3   8
BRANCH   7  14
HETATM   14  C   UNL     1     -10.256  13.672  66.571  1.00  0.00    -0.284 C  
BRANCH  14  15
HETATM   15  S   UNL     1     -10.122  12.378  67.818  1.00  0.00    -0.208 S  
HETATM   16  O   UNL     1      -8.804  12.404  68.539  1.00  0.00    -0.151 OA 
BRANCH  15  17
HETATM   17  C   UNL     1     -11.304  12.912  68.973  1.00  0.00    -0.290 A  
HETATM   18  N   UNL     1     -11.749  12.220  70.001  1.00  0.00    -0.503 NA 
HETATM   19  C   UNL     1     -12.463  13.123  70.757  1.00  0.00    -0.308 A  
HETATM   20  H   UNL     1     -11.597  11.231  70.195  1.00  0.00     0.000 HD 
HETATM   21  C   UNL     1     -13.100  12.952  71.998  1.00  0.00    -0.483 A  
HETATM   22  C   UNL     1     -13.675  14.068  72.619  1.00  0.00    -0.586 A  
HETATM   23  C   UNL     1     -13.632  15.326  72.014  1.00  0.00    -0.571 A  
HETATM   24  C   UNL     1     -13.041  15.510  70.757  1.00  0.00    -0.446 A  
HETATM   25  C   UNL     1     -12.469  14.381  70.161  1.00  0.00    -0.339 A  
HETATM   26  N   UNL     1     -11.807  14.189  68.977  1.00  0.00    -0.329 NA 
ENDBRANCH  15  17
ENDBRANCH  14  15
ENDBRANCH   7  14
TORSDOF 5
ENDMDL
MODEL      115
REMARK 921   NORMALIZED FREE ENERGY PREDICTED BY IDOCK:   -5.40 KCAL/MOL
REMARK 922        TOTAL FREE ENERGY PREDICTED BY IDOCK:   -7.80 KCAL/MOL
REMARK 923 INTER-LIGAND FREE ENERGY PREDICTED BY IDOCK:   -7.11 KCAL/MOL
REMARK 924 INTRA-LIGAND FREE ENERGY PREDICTED BY IDOCK:   -0.69 KCAL/MOL
REMARK 927      BINDING AFFINITY PREDICTED BY RF-SCORE:    0.00 PKD
ROOT
HETATM    1  C   UNL     1     -10.757  11.796  68.596  1.00  0.00    -0.252 C  
HETATM    2  C   UNL     1     -10.425  10.835  67.493  1.00  0.00    -0.260 A  
HETATM    3  C   UNL     1     -10.245  11.266  66.161  1.00  0.00    -0.245 A  
HETATM    4  C   UNL     1      -9.745  10.375  65.212  1.00  0.00    -0.339 A  
HETATM    5  N   UNL     1      -9.798   8.590  66.821  1.00  0.00    -0.232 NA 
HETATM    6  C   UNL     1      -9.523   9.070  65.588  1.00  0.00    -0.203 A  
HETATM    7  C   UNL     1     -10.265   9.462  67.756  1.00  0.00    -0.222 A  
ENDROOT
BRANCH   3   8
HETATM    8  O   UNL     1     -10.442  12.534  65.669  1.00  0.00    -0.262 OA 
BRANCH   8   9
HETATM    9  C   UNL     1     -10.696  12.643  64.258  1.00  0.00    -0.382 C  
HETATM   10  C   UNL     1     -12.182  12.712  63.914  1.00  0.00    -0.481 C  
HETATM   11  F   UNL     1     -12.586  11.581  63.286  1.00  0.00    -0.621 F  
HETATM   12  F   UNL     1     -12.424  13.741  63.065  1.00  0.00    -0.485 F  
HETATM   13  F   UNL     1     -12.975  12.886  64.993  1.00  0.00    -0.537 F  
ENDBRANCH   8   9
ENDBRANCH   3   8
BRANCH   7  14
HETATM   14  C   UNL     1     -10.620   8.817  69.086  1.00  0.00    -0.184 C  
BRANCH  14  15
HETATM   15  S   UNL     1      -9.156   8.348  70.027  1.00  0.00    -0.152 S  
HETATM   16  O   UNL     1      -8.841   9.318  71.130  1.00  0.00    -0.257 OA 
BRANCH  15  17
HETATM   17  C   UNL     1      -9.719   6.905  70.812  1.00  0.00    -0.171 A  
HETATM   18  N   UNL     1      -9.443   5.670  70.452  1.00  0.00    -0.162 NA 
HETATM   19  C   UNL     1      -9.887   4.885  71.495  1.00  0.00    -0.183 A  
HETATM   20  H   UNL     1      -8.996   5.359  69.589  1.00  0.00     0.000 HD 
HETATM   21  C   UNL     1      -9.788   3.496  71.680  1.00  0.00    -0.227 A  
HETATM   22  C   UNL     1     -10.227   2.946  72.892  1.00  0.00    -0.233 A  
HETATM   23  C   UNL     1     -10.768   3.756  73.891  1.00  0.00    -0.305 A  
HETATM   24  C   UNL     1     -10.916   5.137  73.709  1.00  0.00    -0.297 A  
HETATM   25  C   UNL     1     -10.465   5.662  72.494  1.00  0.00    -0.213 A  
HETATM   26  N   UNL     1     -10.432   6.934  71.984  1.00  0.00    -0.204 NA 
ENDBRANCH  15  17
ENDBRANCH  14  15
ENDBRANCH   7  14
TORSDOF 5
ENDMDL
MODEL      116
REMARK 921   NORMALIZED FREE ENERGY PREDICTED BY IDOCK:   -5.34 KCAL/MOL
REMARK 922        TOTAL FREE ENERGY PREDICTED BY IDOCK:   -7.73 KCAL/MOL
REMARK 923 INTER-LIGAND FREE ENERGY PREDICTED BY IDOCK:   -7.12 KCAL/MOL
REMARK 924 INTRA-LIGAND FREE ENERGY PREDICTED BY IDOCK:   -0.61 KCAL/MOL
REMARK 927      BINDING AFFINITY PREDICTED BY RF-SCORE:    0.00 PKD
ROOT
HETATM    1  C   UNL     1     -12.377  14.066  69.964  1.00  0.00    -0.397 C  
HETATM    2  C   UNL     1     -11.639  13.747  68.697  1.00  0.00    -0.369 A  
HETATM    3  C   UNL     1     -11.105  14.759  67.872  1.00  0.00    -0.293 A  
HETATM    4  C   UNL     1     -10.262  14.412  66.817  1.00  0.00    -0.270 A  
HETATM    5  N   UNL     1     -10.635  12.078  67.252  1.00  0.00    -0.217 NA 
HETATM    6  C   UNL     1     -10.045  13.077  66.560  1.00  0.00    -0.270 A  
HETATM    7  C   UNL     1     -11.440  12.412  68.296  1.00  0.00    -0.310 A  
ENDROOT
BRANCH   3   8
HETATM    8  O   UNL     1     -11.260  16.116  68.024  1.00  0.00    -0.348 OA 
BRANCH   8   9
HETATM    9  C   UNL     1     -10.589  16.950  67.065  1.00  0.00    -0.230 C  
HETATM   10  C   UNL     1     -10.308  18.360  67.581  1.00  0.00    -0.405 C  
HETATM   11  F   UNL     1     -11.075  19.272  66.936  1.00  0.00    -0.515 F  
HETATM   12  F   UNL     1      -9.016  18.700  67.350  1.00  0.00    -0.266 F  
HETATM   13  F   UNL     1     -10.531  18.501  68.904  1.00  0.00    -0.359 F  
ENDBRANCH   8   9
ENDBRANCH   3   8
BRANCH   7  14
HETATM   14  C   UNL     1     -12.120  11.227  68.962  1.00  0.00    -0.257 C  
BRANCH  14  15
HETATM   15  S   UNL     1     -11.167  10.589  70.352  1.00  0.00    -0.241 S  
HETATM   16  O   UNL     1     -12.027  10.240  71.533  1.00  0.00    -0.358 OA 
BRANCH  15  17
HETATM   17  C   UNL     1     -10.616   9.074  69.705  1.00  0.00    -0.224 A  
HETATM   18  N   UNL     1     -10.308   8.001  70.402  1.00  0.00    -0.202 NA 
HETATM   19  C   UNL     1     -10.174   6.995  69.469  1.00  0.00    -0.199 A  
HETATM   20  H   UNL     1     -10.193   7.929  71.413  1.00  0.00     0.000 HD 
HETATM   21  C   UNL     1      -9.919   5.626  69.654  1.00  0.00    -0.267 A  
HETATM   22  C   UNL     1      -9.937   4.781  68.537  1.00  0.00    -0.160 A  
HETATM   23  C   UNL     1     -10.188   5.288  67.260  1.00  0.00    -0.252 A  
HETATM   24  C   UNL     1     -10.400   6.656  67.048  1.00  0.00    -0.330 A  
HETATM   25  C   UNL     1     -10.383   7.477  68.181  1.00  0.00    -0.200 A  
HETATM   26  N   UNL     1     -10.564   8.825  68.356  1.00  0.00    -0.180 NA 
ENDBRANCH  15  17
ENDBRANCH  14  15
ENDBRANCH   7  14
TORSDOF 5
ENDMDL
MODEL      117
REMARK 921   NORMALIZED FREE ENERGY PREDICTED BY IDOCK:   -5.34 KCAL/MOL
REMARK 922        TOTAL FREE ENERGY PREDICTED BY IDOCK:   -7.73 KCAL/MOL
REMARK 923 INTER-LIGAND FREE ENERGY PREDICTED BY IDOCK:   -6.95 KCAL/MOL
REMARK 924 INTRA-LIGAND FREE ENERGY PREDICTED BY IDOCK:   -0.78 KCAL/MOL
REMARK 927      BINDING AFFINITY PREDICTED BY RF-SCORE:    0.00 PKD
ROOT
HETATM    1  C   UNL     1      -9.590  10.028  67.926  1.00  0.00    -0.163 C  
HETATM    2  C   UNL     1      -9.460   9.893  66.437  1.00  0.00    -0.234 A  
HETATM    3  C   UNL     1      -9.953  10.878  65.555  1.00  0.00    -0.260 A  
HETATM    4  C   UNL     1      -9.635  10.808  64.199  1.00  0.00    -0.333 A  
HETATM    5  N   UNL     1      -8.531   8.701  64.541  1.00  0.00    -0.146 NA 
HETATM    6  C   UNL     1      -8.916   9.725  63.748  1.00  0.00    -0.240 A  
HETATM    7  C   UNL     1      -8.820   8.777  65.868  1.00  0.00    -0.186 A  
ENDROOT
BRANCH   3   8
HETATM    8  O   UNL     1     -10.685  11.993  65.888  1.00  0.00    -0.257 OA 
BRANCH   8   9
HETATM    9  C   UNL     1     -11.895  12.211  65.144  1.00  0.00    -0.298 C  
HETATM   10  C   UNL     1     -11.937  13.567  64.440  1.00  0.00    -0.422 C  
HETATM   11  F   UNL     1     -12.857  14.380  65.013  1.00  0.00    -0.446 F  
HETATM   12  F   UNL     1     -12.300  13.415  63.143  1.00  0.00    -0.606 F  
HETATM   13  F   UNL     1     -10.753  14.214  64.454  1.00  0.00    -0.399 F  
ENDBRANCH   8   9
ENDBRANCH   3   8
BRANCH   7  14
HETATM   14  C   UNL     1      -8.418   7.545  66.664  1.00  0.00    -0.130 C  
BRANCH  14  15
HETATM   15  S   UNL     1      -9.504   6.144  66.344  1.00  0.00    -0.113 S  
HETATM   16  O   UNL     1      -8.750   4.903  65.959  1.00  0.00    -0.119 OA 
BRANCH  15  17
HETATM   17  C   UNL     1     -10.129   5.842  67.936  1.00  0.00    -0.162 A  
HETATM   18  N   UNL     1      -9.571   5.083  68.855  1.00  0.00    -0.140 NA 
HETATM   19  C   UNL     1     -10.275   5.344  70.010  1.00  0.00    -0.279 A  
HETATM   20  H   UNL     1      -8.788   4.440  68.738  1.00  0.00     0.000 HD 
HETATM   21  C   UNL     1     -10.071   4.866  71.316  1.00  0.00    -0.269 A  
HETATM   22  C   UNL     1     -10.867   5.373  72.351  1.00  0.00    -0.297 A  
HETATM   23  C   UNL     1     -11.857   6.324  72.093  1.00  0.00    -0.365 A  
HETATM   24  C   UNL     1     -12.107   6.781  70.792  1.00  0.00    -0.402 A  
HETATM   25  C   UNL     1     -11.294   6.263  69.778  1.00  0.00    -0.436 A  
HETATM   26  N   UNL     1     -11.237   6.485  68.427  1.00  0.00    -0.251 NA 
ENDBRANCH  15  17
ENDBRANCH  14  15
ENDBRANCH   7  14
TORSDOF 5
ENDMDL
MODEL      118
REMARK 921   NORMALIZED FREE ENERGY PREDICTED BY IDOCK:   -5.31 KCAL/MOL
REMARK 922        TOTAL FREE ENERGY PREDICTED BY IDOCK:   -7.69 KCAL/MOL
REMARK 923 INTER-LIGAND FREE ENERGY PREDICTED BY IDOCK:   -6.80 KCAL/MOL
REMARK 924 INTRA-LIGAND FREE ENERGY PREDICTED BY IDOCK:   -0.89 KCAL/MOL
REMARK 927      BINDING AFFINITY PREDICTED BY RF-SCORE:    0.00 PKD
ROOT
HETATM    1  C   UNL     1      -9.603  16.136  69.360  1.00  0.00    -0.208 C  
HETATM    2  C   UNL     1     -10.224  15.355  68.240  1.00  0.00    -0.229 A  
HETATM    3  C   UNL     1     -11.552  14.882  68.309  1.00  0.00    -0.334 A  
HETATM    4  C   UNL     1     -12.147  14.338  67.171  1.00  0.00    -0.412 A  
HETATM    5  N   UNL     1     -10.077  14.526  65.965  1.00  0.00    -0.303 NA 
HETATM    6  C   UNL     1     -11.386  14.198  66.033  1.00  0.00    -0.330 A  
HETATM    7  C   UNL     1      -9.499  15.079  67.066  1.00  0.00    -0.229 A  
ENDROOT
BRANCH   3   8
HETATM    8  O   UNL     1     -12.401  14.958  69.387  1.00  0.00    -0.233 OA 
BRANCH   8   9
HETATM    9  C   UNL     1     -12.140  14.055  70.474  1.00  0.00    -0.353 C  
HETATM   10  C   UNL     1     -12.351  14.686  71.849  1.00  0.00    -0.338 C  
HETATM   11  F   UNL     1     -11.171  14.846  72.494  1.00  0.00    -0.416 F  
HETATM   12  F   UNL     1     -13.117  13.881  72.626  1.00  0.00    -0.468 F  
HETATM   13  F   UNL     1     -12.957  15.891  71.798  1.00  0.00    -0.459 F  
ENDBRANCH   8   9
ENDBRANCH   3   8
BRANCH   7  14
HETATM   14  C   UNL     1      -8.008  15.341  66.920  1.00  0.00    -0.159 C  
BRANCH  14  15
HETATM   15  S   UNL     1      -7.013  14.014  67.624  1.00  0.00    -0.161 S  
HETATM   16  O   UNL     1      -6.893  14.110  69.118  1.00  0.00    -0.106 OA 
BRANCH  15  17
HETATM   17  C   UNL     1      -8.033  12.641  67.319  1.00  0.00    -0.166 A  
HETATM   18  N   UNL     1      -8.073  11.938  66.207  1.00  0.00    -0.381 NA 
HETATM   19  C   UNL     1      -8.823  10.824  66.515  1.00  0.00    -0.155 A  
HETATM   20  H   UNL     1      -7.642  12.168  65.312  1.00  0.00     0.000 HD 
HETATM   21  C   UNL     1      -9.133   9.703  65.727  1.00  0.00    -0.230 A  
HETATM   22  C   UNL     1      -9.831   8.640  66.314  1.00  0.00    -0.320 A  
HETATM   23  C   UNL     1     -10.228   8.696  67.651  1.00  0.00    -0.300 A  
HETATM   24  C   UNL     1      -9.969   9.823  68.442  1.00  0.00    -0.176 A  
HETATM   25  C   UNL     1      -9.265  10.868  67.834  1.00  0.00    -0.152 A  
HETATM   26  N   UNL     1      -8.828  12.085  68.289  1.00  0.00    -0.184 NA 
ENDBRANCH  15  17
ENDBRANCH  14  15
ENDBRANCH   7  14
TORSDOF 5
ENDMDL
MODEL      119
REMARK 921   NORMALIZED FREE ENERGY PREDICTED BY IDOCK:   -5.31 KCAL/MOL
REMARK 922        TOTAL FREE ENERGY PREDICTED BY IDOCK:   -7.69 KCAL/MOL
REMARK 923 INTER-LIGAND FREE ENERGY PREDICTED BY IDOCK:   -6.83 KCAL/MOL
REMARK 924 INTRA-LIGAND FREE ENERGY PREDICTED BY IDOCK:   -0.85 KCAL/MOL
REMARK 927      BINDING AFFINITY PREDICTED BY RF-SCORE:    0.00 PKD
ROOT
HETATM    1  C   UNL     1     -11.087  10.632  67.502  1.00  0.00    -0.367 C  
HETATM    2  C   UNL     1      -9.869  11.501  67.607  1.00  0.00    -0.192 A  
HETATM    3  C   UNL     1      -8.681  11.047  68.220  1.00  0.00    -0.144 A  
HETATM    4  C   UNL     1      -7.520  11.812  68.118  1.00  0.00    -0.098 A  
HETATM    5  N   UNL     1      -8.735  13.558  66.999  1.00  0.00    -0.211 NA 
HETATM    6  C   UNL     1      -7.590  13.035  67.491  1.00  0.00    -0.165 A  
HETATM    7  C   UNL     1      -9.866  12.805  67.077  1.00  0.00    -0.231 A  
ENDROOT
BRANCH   3   8
HETATM    8  O   UNL     1      -8.495   9.855  68.878  1.00  0.00    -0.114 OA 
BRANCH   8   9
HETATM    9  C   UNL     1      -7.794   8.827  68.158  1.00  0.00    -0.102 C  
HETATM   10  C   UNL     1      -6.585   8.277  68.912  1.00  0.00    -0.053 C  
HETATM   11  F   UNL     1      -5.430   8.646  68.308  1.00  0.00    -0.032 F  
HETATM   12  F   UNL     1      -6.609   6.922  68.919  1.00  0.00    -0.037 F  
HETATM   13  F   UNL     1      -6.524   8.685  70.197  1.00  0.00    -0.036 F  
ENDBRANCH   8   9
ENDBRANCH   3   8
BRANCH   7  14
HETATM   14  C   UNL     1     -11.116  13.506  66.570  1.00  0.00    -0.300 C  
BRANCH  14  15
HETATM   15  S   UNL     1     -10.769  14.589  65.172  1.00  0.00    -0.434 S  
HETATM   16  O   UNL     1     -11.892  14.623  64.174  1.00  0.00    -0.354 OA 
BRANCH  15  17
HETATM   17  C   UNL     1     -10.780  16.142  65.949  1.00  0.00    -0.255 A  
HETATM   18  N   UNL     1     -10.626  16.365  67.236  1.00  0.00    -0.313 NA 
HETATM   19  C   UNL     1     -10.455  17.728  67.346  1.00  0.00    -0.364 A  
HETATM   20  H   UNL     1     -10.632  15.678  67.990  1.00  0.00     0.000 HD 
HETATM   21  C   UNL     1     -10.182  18.511  68.480  1.00  0.00    -0.389 A  
HETATM   22  C   UNL     1      -9.942  19.881  68.309  1.00  0.00    -0.552 A  
HETATM   23  C   UNL     1      -9.987  20.463  67.041  1.00  0.00    -0.568 A  
HETATM   24  C   UNL     1     -10.302  19.709  65.903  1.00  0.00    -0.584 A  
HETATM   25  C   UNL     1     -10.531  18.343  66.100  1.00  0.00    -0.395 A  
HETATM   26  N   UNL     1     -10.838  17.318  65.243  1.00  0.00    -0.546 NA 
ENDBRANCH  15  17
ENDBRANCH  14  15
ENDBRANCH   7  14
TORSDOF 5
ENDMDL
MODEL      120
REMARK 921   NORMALIZED FREE ENERGY PREDICTED BY IDOCK:   -5.30 KCAL/MOL
REMARK 922        TOTAL FREE ENERGY PREDICTED BY IDOCK:   -7.68 KCAL/MOL
REMARK 923 INTER-LIGAND FREE ENERGY PREDICTED BY IDOCK:   -7.53 KCAL/MOL
REMARK 924 INTRA-LIGAND FREE ENERGY PREDICTED BY IDOCK:   -0.15 KCAL/MOL
REMARK 927      BINDING AFFINITY PREDICTED BY RF-SCORE:    0.00 PKD
ROOT
HETATM    1  C   UNL     1     -10.049  15.303  65.336  1.00  0.00    -0.397 C  
HETATM    2  C   UNL     1     -10.308  14.325  66.444  1.00  0.00    -0.287 A  
HETATM    3  C   UNL     1     -11.547  13.663  66.578  1.00  0.00    -0.366 A  
HETATM    4  C   UNL     1     -11.674  12.622  67.497  1.00  0.00    -0.429 A  
HETATM    5  N   UNL     1      -9.442  13.019  68.296  1.00  0.00    -0.220 NA 
HETATM    6  C   UNL     1     -10.604  12.329  68.311  1.00  0.00    -0.227 A  
HETATM    7  C   UNL     1      -9.307  14.021  67.386  1.00  0.00    -0.220 A  
ENDROOT
BRANCH   3   8
HETATM    8  O   UNL     1     -12.682  13.876  65.833  1.00  0.00    -0.489 OA 
BRANCH   8   9
HETATM    9  C   UNL     1     -12.519  13.891  64.405  1.00  0.00    -0.279 C  
HETATM   10  C   UNL     1     -12.117  12.535  63.828  1.00  0.00    -0.529 C  
HETATM   11  F   UNL     1     -10.843  12.563  63.368  1.00  0.00    -0.435 F  
HETATM   12  F   UNL     1     -12.908  12.217  62.774  1.00  0.00    -0.397 F  
HETATM   13  F   UNL     1     -12.209  11.525  64.719  1.00  0.00    -0.147 F  
ENDBRANCH   8   9
ENDBRANCH   3   8
BRANCH   7  14
HETATM   14  C   UNL     1      -8.000  14.790  67.497  1.00  0.00    -0.188 C  
BRANCH  14  15
HETATM   15  S   UNL     1      -7.982  15.897  68.919  1.00  0.00    -0.218 S  
HETATM   16  O   UNL     1      -6.798  15.669  69.815  1.00  0.00    -0.183 OA 
BRANCH  15  17
HETATM   17  C   UNL     1      -7.699  17.425  68.142  1.00  0.00    -0.221 A  
HETATM   18  N   UNL     1      -7.452  18.567  68.747  1.00  0.00    -0.295 NA 
HETATM   19  C   UNL     1      -7.052  19.424  67.745  1.00  0.00    -0.245 A  
HETATM   20  H   UNL     1      -7.539  18.774  69.742  1.00  0.00     0.000 HD 
HETATM   21  C   UNL     1      -6.601  20.752  67.825  1.00  0.00    -0.385 A  
HETATM   22  C   UNL     1      -6.143  21.379  66.658  1.00  0.00    -0.371 A  
HETATM   23  C   UNL     1      -6.148  20.706  65.435  1.00  0.00    -0.277 A  
HETATM   24  C   UNL     1      -6.634  19.396  65.326  1.00  0.00    -0.300 A  
HETATM   25  C   UNL     1      -7.080  18.791  66.506  1.00  0.00    -0.218 A  
HETATM   26  N   UNL     1      -7.591  17.550  66.779  1.00  0.00    -0.207 NA 
ENDBRANCH  15  17
ENDBRANCH  14  15
ENDBRANCH   7  14
TORSDOF 5
ENDMDL
MODEL      121
REMARK 921   NORMALIZED FREE ENERGY PREDICTED BY IDOCK:   -5.29 KCAL/MOL
REMARK 922        TOTAL FREE ENERGY PREDICTED BY IDOCK:   -7.67 KCAL/MOL
REMARK 923 INTER-LIGAND FREE ENERGY PREDICTED BY IDOCK:   -6.77 KCAL/MOL
REMARK 924 INTRA-LIGAND FREE ENERGY PREDICTED BY IDOCK:   -0.90 KCAL/MOL
REMARK 927      BINDING AFFINITY PREDICTED BY RF-SCORE:    0.00 PKD
ROOT
HETATM    1  C   UNL     1      -7.679  11.669  67.354  1.00  0.00    -0.147 C  
HETATM    2  C   UNL     1      -9.119  11.454  67.713  1.00  0.00    -0.158 A  
HETATM    3  C   UNL     1     -10.063  12.501  67.664  1.00  0.00    -0.217 A  
HETATM    4  C   UNL     1     -11.419  12.212  67.813  1.00  0.00    -0.398 A  
HETATM    5  N   UNL     1     -10.906   9.908  68.265  1.00  0.00    -0.242 NA 
HETATM    6  C   UNL     1     -11.789  10.916  68.091  1.00  0.00    -0.046 A  
HETATM    7  C   UNL     1      -9.583  10.182  68.099  1.00  0.00    -0.139 A  
ENDROOT
BRANCH   3   8
HETATM    8  O   UNL     1      -9.812  13.828  67.406  1.00  0.00    -0.230 OA 
BRANCH   8   9
HETATM    9  C   UNL     1      -9.959  14.255  66.041  1.00  0.00    -0.319 C  
HETATM   10  C   UNL     1     -11.177  15.148  65.815  1.00  0.00    -0.287 C  
HETATM   11  F   UNL     1     -12.117  14.506  65.081  1.00  0.00    -0.364 F  
HETATM   12  F   UNL     1     -10.826  16.258  65.119  1.00  0.00    -0.375 F  
HETATM   13  F   UNL     1     -11.761  15.559  66.960  1.00  0.00    -0.210 F  
ENDBRANCH   8   9
ENDBRANCH   3   8
BRANCH   7  14
HETATM   14  C   UNL     1      -8.663   9.008  68.393  1.00  0.00    -0.130 C  
BRANCH  14  15
HETATM   15  S   UNL     1      -8.213   8.916  70.135  1.00  0.00    -0.140 S  
HETATM   16  O   UNL     1      -7.678  10.216  70.664  1.00  0.00    -0.202 OA 
BRANCH  15  17
HETATM   17  C   UNL     1      -9.776   8.715  70.868  1.00  0.00    -0.204 A  
HETATM   18  N   UNL     1     -10.537   9.677  71.344  1.00  0.00    -0.236 NA 
HETATM   19  C   UNL     1     -11.756   9.083  71.584  1.00  0.00    -0.361 A  
HETATM   20  H   UNL     1     -10.280  10.652  71.501  1.00  0.00     0.000 HD 
HETATM   21  C   UNL     1     -12.961   9.651  72.030  1.00  0.00    -0.518 A  
HETATM   22  C   UNL     1     -14.104   8.844  72.092  1.00  0.00    -0.497 A  
HETATM   23  C   UNL     1     -14.049   7.496  71.732  1.00  0.00    -0.509 A  
HETATM   24  C   UNL     1     -12.848   6.899  71.326  1.00  0.00    -0.336 A  
HETATM   25  C   UNL     1     -11.723   7.728  71.268  1.00  0.00    -0.288 A  
HETATM   26  N   UNL     1     -10.419   7.504  70.909  1.00  0.00    -0.212 NA 
ENDBRANCH  15  17
ENDBRANCH  14  15
ENDBRANCH   7  14
TORSDOF 5
ENDMDL
MODEL      122
REMARK 921   NORMALIZED FREE ENERGY PREDICTED BY IDOCK:   -5.27 KCAL/MOL
REMARK 922        TOTAL FREE ENERGY PREDICTED BY IDOCK:   -7.64 KCAL/MOL
REMARK 923 INTER-LIGAND FREE ENERGY PREDICTED BY IDOCK:   -6.90 KCAL/MOL
REMARK 924 INTRA-LIGAND FREE ENERGY PREDICTED BY IDOCK:   -0.74 KCAL/MOL
REMARK 927      BINDING AFFINITY PREDICTED BY RF-SCORE:    0.00 PKD
ROOT
HETATM    1  C   UNL     1     -11.826  11.245  68.344  1.00  0.00    -0.331 C  
HETATM    2  C   UNL     1     -12.199  11.981  69.597  1.00  0.00    -0.202 A  
HETATM    3  C   UNL     1     -12.141  13.388  69.679  1.00  0.00    -0.289 A  
HETATM    4  C   UNL     1     -12.683  14.035  70.789  1.00  0.00    -0.396 A  
HETATM    5  N   UNL     1     -13.148  11.919  71.829  1.00  0.00    -0.432 NA 
HETATM    6  C   UNL     1     -13.184  13.269  71.817  1.00  0.00    -0.405 A  
HETATM    7  C   UNL     1     -12.640  11.284  70.737  1.00  0.00    -0.332 A  
ENDROOT
BRANCH   3   8
HETATM    8  O   UNL     1     -11.657  14.252  68.725  1.00  0.00    -0.283 OA 
BRANCH   8   9
HETATM    9  C   UNL     1     -11.597  15.641  69.089  1.00  0.00    -0.383 C  
HETATM   10  C   UNL     1     -10.396  16.372  68.493  1.00  0.00    -0.270 C  
HETATM   11  F   UNL     1      -9.504  16.703  69.457  1.00  0.00    -0.210 F  
HETATM   12  F   UNL     1     -10.788  17.529  67.906  1.00  0.00    -0.366 F  
HETATM   13  F   UNL     1      -9.739  15.650  67.559  1.00  0.00    -0.217 F  
ENDBRANCH   8   9
ENDBRANCH   3   8
BRANCH   7  14
HETATM   14  C   UNL     1     -12.567   9.772  70.875  1.00  0.00    -0.263 C  
BRANCH  14  15
HETATM   15  S   UNL     1     -10.955   9.218  71.458  1.00  0.00    -0.356 S  
HETATM   16  O   UNL     1     -11.047   8.351  72.681  1.00  0.00    -0.359 OA 
BRANCH  15  17
HETATM   17  C   UNL     1     -10.483   8.161  70.163  1.00  0.00    -0.225 A  
HETATM   18  N   UNL     1     -11.113   7.069  69.787  1.00  0.00    -0.362 NA 
HETATM   19  C   UNL     1     -10.530   6.713  68.591  1.00  0.00    -0.211 A  
HETATM   20  H   UNL     1     -11.870   6.589  70.275  1.00  0.00     0.000 HD 
HETATM   21  C   UNL     1     -10.852   5.668  67.709  1.00  0.00    -0.176 A  
HETATM   22  C   UNL     1     -10.169   5.582  66.489  1.00  0.00    -0.273 A  
HETATM   23  C   UNL     1      -9.177   6.505  66.157  1.00  0.00    -0.126 A  
HETATM   24  C   UNL     1      -8.809   7.529  67.041  1.00  0.00    -0.134 A  
HETATM   25  C   UNL     1      -9.510   7.596  68.250  1.00  0.00    -0.145 A  
HETATM   26  N   UNL     1      -9.439   8.449  69.320  1.00  0.00    -0.154 NA 
ENDBRANCH  15  17
ENDBRANCH  14  15
ENDBRANCH   7  14
TORSDOF 5
ENDMDL
MODEL      123
REMARK 921   NORMALIZED FREE ENERGY PREDICTED BY IDOCK:   -5.26 KCAL/MOL
REMARK 922        TOTAL FREE ENERGY PREDICTED BY IDOCK:   -7.63 KCAL/MOL
REMARK 923 INTER-LIGAND FREE ENERGY PREDICTED BY IDOCK:   -6.61 KCAL/MOL
REMARK 924 INTRA-LIGAND FREE ENERGY PREDICTED BY IDOCK:   -1.02 KCAL/MOL
REMARK 927      BINDING AFFINITY PREDICTED BY RF-SCORE:    0.00 PKD
ROOT
HETATM    1  C   UNL     1     -11.911  13.050  67.785  1.00  0.00    -0.344 C  
HETATM    2  C   UNL     1     -11.068  13.994  66.980  1.00  0.00    -0.312 A  
HETATM    3  C   UNL     1     -11.513  14.525  65.750  1.00  0.00    -0.342 A  
HETATM    4  C   UNL     1     -10.785  15.545  65.139  1.00  0.00    -0.460 A  
HETATM    5  N   UNL     1      -9.082  15.378  66.826  1.00  0.00    -0.239 NA 
HETATM    6  C   UNL     1      -9.601  15.946  65.715  1.00  0.00    -0.304 A  
HETATM    7  C   UNL     1      -9.800  14.397  67.438  1.00  0.00    -0.224 A  
ENDROOT
BRANCH   3   8
HETATM    8  O   UNL     1     -12.667  14.198  65.079  1.00  0.00    -0.631 OA 
BRANCH   8   9
HETATM    9  C   UNL     1     -12.513  13.741  63.725  1.00  0.00    -0.159 C  
HETATM   10  C   UNL     1     -12.039  12.292  63.626  1.00  0.00    -0.554 C  
HETATM   11  F   UNL     1     -10.772  12.230  63.151  1.00  0.00    -0.452 F  
HETATM   12  F   UNL     1     -12.817  11.598  62.760  1.00  0.00    -0.537 F  
HETATM   13  F   UNL     1     -12.067  11.637  64.806  1.00  0.00    -0.269 F  
ENDBRANCH   8   9
ENDBRANCH   3   8
BRANCH   7  14
HETATM   14  C   UNL     1      -9.100  13.766  68.630  1.00  0.00    -0.063 C  
BRANCH  14  15
HETATM   15  S   UNL     1      -7.722  12.717  68.134  1.00  0.00    -0.153 S  
HETATM   16  O   UNL     1      -6.554  12.810  69.074  1.00  0.00    -0.091 OA 
BRANCH  15  17
HETATM   17  C   UNL     1      -8.404  11.139  68.383  1.00  0.00    -0.149 A  
HETATM   18  N   UNL     1      -7.819   9.991  68.115  1.00  0.00    -0.089 NA 
HETATM   19  C   UNL     1      -8.619   9.035  68.701  1.00  0.00    -0.129 A  
HETATM   20  H   UNL     1      -6.958   9.841  67.588  1.00  0.00     0.000 HD 
HETATM   21  C   UNL     1      -8.441   7.645  68.791  1.00  0.00    -0.129 A  
HETATM   22  C   UNL     1      -9.356   6.896  69.543  1.00  0.00    -0.147 A  
HETATM   23  C   UNL     1     -10.433   7.513  70.180  1.00  0.00    -0.226 A  
HETATM   24  C   UNL     1     -10.655   8.892  70.067  1.00  0.00    -0.234 A  
HETATM   25  C   UNL     1      -9.724   9.617  69.315  1.00  0.00    -0.185 A  
HETATM   26  N   UNL     1      -9.610  10.948  69.009  1.00  0.00    -0.187 NA 
ENDBRANCH  15  17
ENDBRANCH  14  15
ENDBRANCH   7  14
TORSDOF 5
ENDMDL
MODEL      124
REMARK 921   NORMALIZED FREE ENERGY PREDICTED BY IDOCK:   -5.26 KCAL/MOL
REMARK 922        TOTAL FREE ENERGY PREDICTED BY IDOCK:   -7.63 KCAL/MOL
REMARK 923 INTER-LIGAND FREE ENERGY PREDICTED BY IDOCK:   -6.91 KCAL/MOL
REMARK 924 INTRA-LIGAND FREE ENERGY PREDICTED BY IDOCK:   -0.72 KCAL/MOL
REMARK 927      BINDING AFFINITY PREDICTED BY RF-SCORE:    0.00 PKD
ROOT
HETATM    1  C   UNL     1     -10.098   9.010  67.046  1.00  0.00    -0.318 C  
HETATM    2  C   UNL     1     -10.637   9.910  68.117  1.00  0.00    -0.270 A  
HETATM    3  C   UNL     1     -11.353  11.086  67.810  1.00  0.00    -0.292 A  
HETATM    4  C   UNL     1     -12.002  11.782  68.829  1.00  0.00    -0.317 A  
HETATM    5  N   UNL     1     -11.073  10.294  70.472  1.00  0.00    -0.315 NA 
HETATM    6  C   UNL     1     -11.850  11.344  70.125  1.00  0.00    -0.355 A  
HETATM    7  C   UNL     1     -10.457   9.599  69.478  1.00  0.00    -0.224 A  
ENDROOT
BRANCH   3   8
HETATM    8  O   UNL     1     -11.564  11.623  66.562  1.00  0.00    -0.473 OA 
BRANCH   8   9
HETATM    9  C   UNL     1     -11.774  13.044  66.502  1.00  0.00    -0.382 C  
HETATM   10  C   UNL     1     -12.504  13.494  65.237  1.00  0.00    -0.482 C  
HETATM   11  F   UNL     1     -11.675  14.191  64.423  1.00  0.00    -0.372 F  
HETATM   12  F   UNL     1     -13.531  14.321  65.553  1.00  0.00    -0.467 F  
HETATM   13  F   UNL     1     -13.017  12.471  64.521  1.00  0.00    -0.509 F  
ENDBRANCH   8   9
ENDBRANCH   3   8
BRANCH   7  14
HETATM   14  C   UNL     1      -9.544   8.488  69.970  1.00  0.00    -0.169 C  
BRANCH  14  15
HETATM   15  S   UNL     1     -10.465   7.021  70.468  1.00  0.00    -0.212 S  
HETATM   16  O   UNL     1     -11.950   7.249  70.486  1.00  0.00    -0.255 OA 
BRANCH  15  17
HETATM   17  C   UNL     1     -10.164   5.971  69.117  1.00  0.00    -0.204 A  
HETATM   18  N   UNL     1     -10.926   5.842  68.052  1.00  0.00    -0.185 NA 
HETATM   19  C   UNL     1     -10.174   5.107  67.161  1.00  0.00    -0.208 A  
HETATM   20  H   UNL     1     -11.869   6.206  67.915  1.00  0.00     0.000 HD 
HETATM   21  C   UNL     1     -10.461   4.731  65.839  1.00  0.00    -0.313 A  
HETATM   22  C   UNL     1      -9.473   4.069  65.097  1.00  0.00    -0.172 A  
HETATM   23  C   UNL     1      -8.232   3.774  65.663  1.00  0.00    -0.105 A  
HETATM   24  C   UNL     1      -7.941   4.101  66.994  1.00  0.00    -0.097 A  
HETATM   25  C   UNL     1      -8.942   4.766  67.710  1.00  0.00    -0.111 A  
HETATM   26  N   UNL     1      -9.006   5.245  68.993  1.00  0.00    -0.105 NA 
ENDBRANCH  15  17
ENDBRANCH  14  15
ENDBRANCH   7  14
TORSDOF 5
ENDMDL
MODEL      125
REMARK 921   NORMALIZED FREE ENERGY PREDICTED BY IDOCK:   -5.26 KCAL/MOL
REMARK 922        TOTAL FREE ENERGY PREDICTED BY IDOCK:   -7.62 KCAL/MOL
REMARK 923 INTER-LIGAND FREE ENERGY PREDICTED BY IDOCK:   -6.69 KCAL/MOL
REMARK 924 INTRA-LIGAND FREE ENERGY PREDICTED BY IDOCK:   -0.94 KCAL/MOL
REMARK 927      BINDING AFFINITY PREDICTED BY RF-SCORE:    0.00 PKD
ROOT
HETATM    1  C   UNL     1      -6.706   9.584  67.734  1.00  0.00    -0.067 C  
HETATM    2  C   UNL     1      -8.088   9.017  67.601  1.00  0.00    -0.109 A  
HETATM    3  C   UNL     1      -9.019   9.536  66.675  1.00  0.00    -0.146 A  
HETATM    4  C   UNL     1     -10.214   8.854  66.448  1.00  0.00    -0.273 A  
HETATM    5  N   UNL     1      -9.677   7.278  68.181  1.00  0.00    -0.143 NA 
HETATM    6  C   UNL     1     -10.488   7.736  67.202  1.00  0.00    -0.343 A  
HETATM    7  C   UNL     1      -8.500   7.927  68.391  1.00  0.00    -0.128 A  
ENDROOT
BRANCH   3   8
HETATM    8  O   UNL     1      -8.861  10.644  65.878  1.00  0.00    -0.162 OA 
BRANCH   8   9
HETATM    9  C   UNL     1      -9.383  11.882  66.388  1.00  0.00    -0.226 C  
HETATM   10  C   UNL     1     -10.561  12.421  65.579  1.00  0.00    -0.275 C  
HETATM   11  F   UNL     1     -10.212  13.544  64.907  1.00  0.00    -0.336 F  
HETATM   12  F   UNL     1     -11.585  12.758  66.402  1.00  0.00    -0.332 F  
HETATM   13  F   UNL     1     -11.042  11.538  64.679  1.00  0.00    -0.359 F  
ENDBRANCH   8   9
ENDBRANCH   3   8
BRANCH   7  14
HETATM   14  C   UNL     1      -7.694   7.390  69.562  1.00  0.00    -0.108 C  
BRANCH  14  15
HETATM   15  S   UNL     1      -8.050   8.271  71.094  1.00  0.00    -0.123 S  
HETATM   16  O   UNL     1      -7.646   9.716  71.039  1.00  0.00    -0.326 OA 
BRANCH  15  17
HETATM   17  C   UNL     1      -9.787   8.265  71.079  1.00  0.00    -0.187 A  
HETATM   18  N   UNL     1     -10.557   7.200  71.010  1.00  0.00    -0.220 NA 
HETATM   19  C   UNL     1     -11.828   7.659  71.281  1.00  0.00    -0.292 A  
HETATM   20  H   UNL     1     -10.275   6.242  70.802  1.00  0.00     0.000 HD 
HETATM   21  C   UNL     1     -13.033   6.948  71.408  1.00  0.00    -0.339 A  
HETATM   22  C   UNL     1     -14.186   7.642  71.799  1.00  0.00    -0.549 A  
HETATM   23  C   UNL     1     -14.146   9.015  72.043  1.00  0.00    -0.434 A  
HETATM   24  C   UNL     1     -12.965   9.751  71.878  1.00  0.00    -0.535 A  
HETATM   25  C   UNL     1     -11.827   9.034  71.493  1.00  0.00    -0.345 A  
HETATM   26  N   UNL     1     -10.529   9.405  71.260  1.00  0.00    -0.331 NA 
ENDBRANCH  15  17
ENDBRANCH  14  15
ENDBRANCH   7  14
TORSDOF 5
ENDMDL
MODEL      126
REMARK 921   NORMALIZED FREE ENERGY PREDICTED BY IDOCK:   -5.23 KCAL/MOL
REMARK 922        TOTAL FREE ENERGY PREDICTED BY IDOCK:   -7.59 KCAL/MOL
REMARK 923 INTER-LIGAND FREE ENERGY PREDICTED BY IDOCK:   -6.51 KCAL/MOL
REMARK 924 INTRA-LIGAND FREE ENERGY PREDICTED BY IDOCK:   -1.08 KCAL/MOL
REMARK 927      BINDING AFFINITY PREDICTED BY RF-SCORE:    0.00 PKD
ROOT
HETATM    1  C   UNL     1     -10.555   8.148  66.884  1.00  0.00    -0.311 C  
HETATM    2  C   UNL     1      -9.832   9.116  67.772  1.00  0.00    -0.214 A  
HETATM    3  C   UNL     1      -8.969   8.681  68.800  1.00  0.00    -0.138 A  
HETATM    4  C   UNL     1      -8.169   9.610  69.466  1.00  0.00    -0.136 A  
HETATM    5  N   UNL     1      -9.213  11.410  68.263  1.00  0.00    -0.177 NA 
HETATM    6  C   UNL     1      -8.312  10.943  69.155  1.00  0.00    -0.069 A  
HETATM    7  C   UNL     1      -9.979  10.505  67.595  1.00  0.00    -0.173 A  
ENDROOT
BRANCH   3   8
HETATM    8  O   UNL     1      -8.752   7.385  69.203  1.00  0.00    -0.136 OA 
BRANCH   8   9
HETATM    9  C   UNL     1      -9.603   6.888  70.250  1.00  0.00    -0.168 C  
HETATM   10  C   UNL     1     -10.562   5.795  69.781  1.00  0.00    -0.318 C  
HETATM   11  F   UNL     1     -11.841   6.242  69.780  1.00  0.00    -0.494 F  
HETATM   12  F   UNL     1     -10.518   4.734  70.623  1.00  0.00    -0.292 F  
HETATM   13  F   UNL     1     -10.288   5.337  68.541  1.00  0.00    -0.224 F  
ENDBRANCH   8   9
ENDBRANCH   3   8
BRANCH   7  14
HETATM   14  C   UNL     1     -11.015  11.127  66.674  1.00  0.00    -0.228 C  
BRANCH  14  15
HETATM   15  S   UNL     1     -10.260  12.099  65.358  1.00  0.00    -0.274 S  
HETATM   16  O   UNL     1     -10.993  11.976  64.053  1.00  0.00    -0.317 OA 
BRANCH  15  17
HETATM   17  C   UNL     1     -10.569  13.713  65.923  1.00  0.00    -0.289 A  
HETATM   18  N   UNL     1     -10.613  14.097  67.181  1.00  0.00    -0.277 NA 
HETATM   19  C   UNL     1     -10.633  15.474  67.134  1.00  0.00    -0.300 A  
HETATM   20  H   UNL     1     -10.629  13.504  68.011  1.00  0.00     0.000 HD 
HETATM   21  C   UNL     1     -10.611  16.410  68.182  1.00  0.00    -0.318 A  
HETATM   22  C   UNL     1     -10.526  17.772  67.866  1.00  0.00    -0.401 A  
HETATM   23  C   UNL     1     -10.481  18.197  66.537  1.00  0.00    -0.356 A  
HETATM   24  C   UNL     1     -10.546  17.283  65.477  1.00  0.00    -0.136 A  
HETATM   25  C   UNL     1     -10.624  15.929  65.819  1.00  0.00    -0.355 A  
HETATM   26  N   UNL     1     -10.684  14.782  65.071  1.00  0.00    -0.407 NA 
ENDBRANCH  15  17
ENDBRANCH  14  15
ENDBRANCH   7  14
TORSDOF 5
ENDMDL
MODEL      127
REMARK 921   NORMALIZED FREE ENERGY PREDICTED BY IDOCK:   -5.21 KCAL/MOL
REMARK 922        TOTAL FREE ENERGY PREDICTED BY IDOCK:   -7.56 KCAL/MOL
REMARK 923 INTER-LIGAND FREE ENERGY PREDICTED BY IDOCK:   -6.28 KCAL/MOL
REMARK 924 INTRA-LIGAND FREE ENERGY PREDICTED BY IDOCK:   -1.29 KCAL/MOL
REMARK 927      BINDING AFFINITY PREDICTED BY RF-SCORE:    0.00 PKD
ROOT
HETATM    1  C   UNL     1      -8.731   9.749  69.711  1.00  0.00    -0.228 C  
HETATM    2  C   UNL     1      -9.871  10.485  69.070  1.00  0.00    -0.224 A  
HETATM    3  C   UNL     1     -11.031  10.834  69.793  1.00  0.00    -0.252 A  
HETATM    4  C   UNL     1     -11.971  11.685  69.215  1.00  0.00    -0.382 A  
HETATM    5  N   UNL     1     -10.742  11.683  67.150  1.00  0.00    -0.235 NA 
HETATM    6  C   UNL     1     -11.778  12.093  67.914  1.00  0.00    -0.336 A  
HETATM    7  C   UNL     1      -9.811  10.870  67.718  1.00  0.00    -0.175 A  
ENDROOT
BRANCH   3   8
HETATM    8  O   UNL     1     -11.336  10.481  71.086  1.00  0.00    -0.196 OA 
BRANCH   8   9
HETATM    9  C   UNL     1     -11.925   9.183  71.275  1.00  0.00    -0.325 C  
HETATM   10  C   UNL     1     -13.329   9.238  71.875  1.00  0.00    -0.429 C  
HETATM   11  F   UNL     1     -13.333   8.757  73.141  1.00  0.00    -0.349 F  
HETATM   12  F   UNL     1     -14.180   8.462  71.158  1.00  0.00    -0.381 F  
HETATM   13  F   UNL     1     -13.850  10.482  71.908  1.00  0.00    -0.277 F  
ENDBRANCH   8   9
ENDBRANCH   3   8
BRANCH   7  14
HETATM   14  C   UNL     1      -8.729  10.398  66.760  1.00  0.00    -0.127 C  
BRANCH  14  15
HETATM   15  S   UNL     1      -9.317   9.104  65.653  1.00  0.00    -0.211 S  
HETATM   16  O   UNL     1      -8.270   8.664  64.669  1.00  0.00    -0.151 OA 
BRANCH  15  17
HETATM   17  C   UNL     1      -9.507   7.783  66.764  1.00  0.00    -0.197 A  
HETATM   18  N   UNL     1      -8.550   6.985  67.188  1.00  0.00    -0.120 NA 
HETATM   19  C   UNL     1      -9.113   6.272  68.224  1.00  0.00    -0.113 A  
HETATM   20  H   UNL     1      -7.599   6.910  66.829  1.00  0.00     0.000 HD 
HETATM   21  C   UNL     1      -8.530   5.328  69.087  1.00  0.00    -0.098 A  
HETATM   22  C   UNL     1      -9.296   4.818  70.143  1.00  0.00    -0.222 A  
HETATM   23  C   UNL     1     -10.618   5.226  70.331  1.00  0.00    -0.278 A  
HETATM   24  C   UNL     1     -11.232   6.132  69.456  1.00  0.00    -0.482 A  
HETATM   25  C   UNL     1     -10.444   6.630  68.413  1.00  0.00    -0.211 A  
HETATM   26  N   UNL     1     -10.693   7.523  67.403  1.00  0.00    -0.279 NA 
ENDBRANCH  15  17
ENDBRANCH  14  15
ENDBRANCH   7  14
TORSDOF 5
ENDMDL
MODEL      128
REMARK 921   NORMALIZED FREE ENERGY PREDICTED BY IDOCK:   -5.21 KCAL/MOL
REMARK 922        TOTAL FREE ENERGY PREDICTED BY IDOCK:   -7.56 KCAL/MOL
REMARK 923 INTER-LIGAND FREE ENERGY PREDICTED BY IDOCK:   -6.71 KCAL/MOL
REMARK 924 INTRA-LIGAND FREE ENERGY PREDICTED BY IDOCK:   -0.85 KCAL/MOL
REMARK 927      BINDING AFFINITY PREDICTED BY RF-SCORE:    0.00 PKD
ROOT
HETATM    1  C   UNL     1     -11.878  15.468  69.449  1.00  0.00    -0.392 C  
HETATM    2  C   UNL     1     -10.868  15.108  68.399  1.00  0.00    -0.255 A  
HETATM    3  C   UNL     1     -10.357  16.067  67.499  1.00  0.00    -0.287 A  
HETATM    4  C   UNL     1      -9.280  15.734  66.678  1.00  0.00    -0.283 A  
HETATM    5  N   UNL     1      -9.344  13.466  67.470  1.00  0.00    -0.209 NA 
HETATM    6  C   UNL     1      -8.803  14.444  66.710  1.00  0.00    -0.200 A  
HETATM    7  C   UNL     1     -10.380  13.793  68.289  1.00  0.00    -0.247 A  
ENDROOT
BRANCH   3   8
HETATM    8  O   UNL     1     -10.757  17.376  67.371  1.00  0.00    -0.333 OA 
BRANCH   8   9
HETATM    9  C   UNL     1      -9.982  18.200  66.485  1.00  0.00    -0.374 C  
HETATM   10  C   UNL     1     -10.456  19.652  66.439  1.00  0.00    -0.513 C  
HETATM   11  F   UNL     1     -11.016  19.939  65.239  1.00  0.00    -0.583 F  
HETATM   12  F   UNL     1      -9.409  20.497  66.596  1.00  0.00    -0.439 F  
HETATM   13  F   UNL     1     -11.362  19.950  67.394  1.00  0.00    -0.426 F  
ENDBRANCH   8   9
ENDBRANCH   3   8
BRANCH   7  14
HETATM   14  C   UNL     1     -10.972  12.613  69.044  1.00  0.00    -0.191 C  
BRANCH  14  15
HETATM   15  S   UNL     1     -11.898  11.509  67.962  1.00  0.00    -0.126 S  
HETATM   16  O   UNL     1     -12.207  12.130  66.629  1.00  0.00    -0.566 OA 
BRANCH  15  17
HETATM   17  C   UNL     1     -10.708  10.284  67.648  1.00  0.00    -0.288 A  
HETATM   18  N   UNL     1      -9.638  10.419  66.894  1.00  0.00    -0.168 NA 
HETATM   19  C   UNL     1      -8.881   9.295  67.143  1.00  0.00    -0.127 A  
HETATM   20  H   UNL     1      -9.416  11.189  66.263  1.00  0.00     0.000 HD 
HETATM   21  C   UNL     1      -7.607   8.945  66.665  1.00  0.00    -0.089 A  
HETATM   22  C   UNL     1      -6.999   7.783  67.158  1.00  0.00    -0.077 A  
HETATM   23  C   UNL     1      -7.648   6.977  68.095  1.00  0.00    -0.108 A  
HETATM   24  C   UNL     1      -8.937   7.284  68.552  1.00  0.00    -0.130 A  
HETATM   25  C   UNL     1      -9.519   8.452  68.048  1.00  0.00    -0.143 A  
HETATM   26  N   UNL     1     -10.726   9.062  68.274  1.00  0.00    -0.154 NA 
ENDBRANCH  15  17
ENDBRANCH  14  15
ENDBRANCH   7  14
TORSDOF 5
ENDMDL
MODEL      129
REMARK 921   NORMALIZED FREE ENERGY PREDICTED BY IDOCK:   -5.20 KCAL/MOL
REMARK 922        TOTAL FREE ENERGY PREDICTED BY IDOCK:   -7.55 KCAL/MOL
REMARK 923 INTER-LIGAND FREE ENERGY PREDICTED BY IDOCK:   -6.57 KCAL/MOL
REMARK 924 INTRA-LIGAND FREE ENERGY PREDICTED BY IDOCK:   -0.98 KCAL/MOL
REMARK 927      BINDING AFFINITY PREDICTED BY RF-SCORE:    0.00 PKD
ROOT
HETATM    1  C   UNL     1      -7.737   8.721  70.073  1.00  0.00    -0.082 C  
HETATM    2  C   UNL     1      -8.652   8.392  68.930  1.00  0.00    -0.135 A  
HETATM    3  C   UNL     1      -9.651   7.401  69.039  1.00  0.00    -0.148 A  
HETATM    4  C   UNL     1     -10.601   7.270  68.026  1.00  0.00    -0.247 A  
HETATM    5  N   UNL     1      -9.470   8.934  66.712  1.00  0.00    -0.172 NA 
HETATM    6  C   UNL     1     -10.482   8.059  66.905  1.00  0.00    -0.317 A  
HETATM    7  C   UNL     1      -8.554   9.081  67.707  1.00  0.00    -0.121 A  
ENDROOT
BRANCH   3   8
HETATM    8  O   UNL     1      -9.862   6.553  70.099  1.00  0.00    -0.166 OA 
BRANCH   8   9
HETATM    9  C   UNL     1     -11.200   6.058  70.269  1.00  0.00    -0.322 C  
HETATM   10  C   UNL     1     -12.018   6.860  71.280  1.00  0.00    -0.356 C  
HETATM   11  F   UNL     1     -12.253   6.132  72.398  1.00  0.00    -0.341 F  
HETATM   12  F   UNL     1     -13.228   7.182  70.759  1.00  0.00    -0.341 F  
HETATM   13  F   UNL     1     -11.423   8.011  71.658  1.00  0.00    -0.259 F  
ENDBRANCH   8   9
ENDBRANCH   3   8
BRANCH   7  14
HETATM   14  C   UNL     1      -7.412  10.026  67.367  1.00  0.00    -0.091 C  
BRANCH  14  15
HETATM   15  S   UNL     1      -7.814  11.742  67.742  1.00  0.00    -0.146 S  
HETATM   16  O   UNL     1      -6.675  12.679  67.458  1.00  0.00    -0.130 OA 
BRANCH  15  17
HETATM   17  C   UNL     1      -9.012  12.071  66.527  1.00  0.00    -0.193 A  
HETATM   18  N   UNL     1      -8.934  11.744  65.255  1.00  0.00    -0.405 NA 
HETATM   19  C   UNL     1     -10.194  11.977  64.748  1.00  0.00    -0.279 A  
HETATM   20  H   UNL     1      -8.119  11.393  64.753  1.00  0.00     0.000 HD 
HETATM   21  C   UNL     1     -10.704  11.738  63.461  1.00  0.00    -0.501 A  
HETATM   22  C   UNL     1     -12.066  11.963  63.224  1.00  0.00    -0.466 A  
HETATM   23  C   UNL     1     -12.902  12.430  64.240  1.00  0.00    -0.356 A  
HETATM   24  C   UNL     1     -12.405  12.716  65.518  1.00  0.00    -0.455 A  
HETATM   25  C   UNL     1     -11.043  12.478  65.730  1.00  0.00    -0.308 A  
HETATM   26  N   UNL     1     -10.233  12.620  66.827  1.00  0.00    -0.235 NA 
ENDBRANCH  15  17
ENDBRANCH  14  15
ENDBRANCH   7  14
TORSDOF 5
ENDMDL
MODEL      130
REMARK 921   NORMALIZED FREE ENERGY PREDICTED BY IDOCK:   -5.18 KCAL/MOL
REMARK 922        TOTAL FREE ENERGY PREDICTED BY IDOCK:   -7.52 KCAL/MOL
REMARK 923 INTER-LIGAND FREE ENERGY PREDICTED BY IDOCK:   -6.96 KCAL/MOL
REMARK 924 INTRA-LIGAND FREE ENERGY PREDICTED BY IDOCK:   -0.57 KCAL/MOL
REMARK 927      BINDING AFFINITY PREDICTED BY RF-SCORE:    0.00 PKD
ROOT
HETATM    1  C   UNL     1      -9.767  10.230  65.272  1.00  0.00    -0.354 C  
HETATM    2  C   UNL     1     -10.330  10.989  66.436  1.00  0.00    -0.302 A  
HETATM    3  C   UNL     1      -9.810  10.847  67.740  1.00  0.00    -0.175 A  
HETATM    4  C   UNL     1     -10.231  11.715  68.747  1.00  0.00    -0.190 A  
HETATM    5  N   UNL     1     -11.821  12.720  67.252  1.00  0.00    -0.373 NA 
HETATM    6  C   UNL     1     -11.212  12.634  68.455  1.00  0.00    -0.279 A  
HETATM    7  C   UNL     1     -11.398  11.890  66.261  1.00  0.00    -0.334 A  
ENDROOT
BRANCH   3   8
HETATM    8  O   UNL     1      -8.840   9.964  68.150  1.00  0.00    -0.118 OA 
BRANCH   8   9
HETATM    9  C   UNL     1      -9.298   8.720  68.708  1.00  0.00    -0.141 C  
HETATM   10  C   UNL     1      -8.963   8.563  70.190  1.00  0.00    -0.147 C  
HETATM   11  F   UNL     1      -8.025   7.604  70.375  1.00  0.00    -0.090 F  
HETATM   12  F   UNL     1     -10.062   8.176  70.884  1.00  0.00    -0.185 F  
HETATM   13  F   UNL     1      -8.506   9.698  70.760  1.00  0.00    -0.223 F  
ENDBRANCH   8   9
ENDBRANCH   3   8
BRANCH   7  14
HETATM   14  C   UNL     1     -12.193  12.005  64.970  1.00  0.00    -0.050 C  
BRANCH  14  15
HETATM   15  S   UNL     1     -11.424  13.133  63.795  1.00  0.00    -0.314 S  
HETATM   16  O   UNL     1     -12.430  13.895  62.979  1.00  0.00    -0.689 OA 
BRANCH  15  17
HETATM   17  C   UNL     1     -10.713  14.295  64.873  1.00  0.00    -0.432 A  
HETATM   18  N   UNL     1      -9.500  14.239  65.380  1.00  0.00    -0.483 NA 
HETATM   19  C   UNL     1      -9.295  15.475  65.955  1.00  0.00    -0.344 A  
HETATM   20  H   UNL     1      -8.852  13.452  65.354  1.00  0.00     0.000 HD 
HETATM   21  C   UNL     1      -8.151  15.997  66.582  1.00  0.00    -0.311 A  
HETATM   22  C   UNL     1      -8.161  17.336  66.994  1.00  0.00    -0.237 A  
HETATM   23  C   UNL     1      -9.289  18.135  66.802  1.00  0.00    -0.286 A  
HETATM   24  C   UNL     1     -10.456  17.622  66.220  1.00  0.00    -0.292 A  
HETATM   25  C   UNL     1     -10.418  16.285  65.812  1.00  0.00    -0.364 A  
HETATM   26  N   UNL     1     -11.339  15.470  65.206  1.00  0.00    -0.243 NA 
ENDBRANCH  15  17
ENDBRANCH  14  15
ENDBRANCH   7  14
TORSDOF 5
ENDMDL
MODEL      131
REMARK 921   NORMALIZED FREE ENERGY PREDICTED BY IDOCK:   -5.16 KCAL/MOL
REMARK 922        TOTAL FREE ENERGY PREDICTED BY IDOCK:   -7.50 KCAL/MOL
REMARK 923 INTER-LIGAND FREE ENERGY PREDICTED BY IDOCK:   -6.59 KCAL/MOL
REMARK 924 INTRA-LIGAND FREE ENERGY PREDICTED BY IDOCK:   -0.91 KCAL/MOL
REMARK 927      BINDING AFFINITY PREDICTED BY RF-SCORE:    0.00 PKD
ROOT
HETATM    1  C   UNL     1     -10.665  10.350  68.927  1.00  0.00    -0.255 C  
HETATM    2  C   UNL     1     -10.691  10.528  67.438  1.00  0.00    -0.334 A  
HETATM    3  C   UNL     1     -11.432  11.561  66.825  1.00  0.00    -0.157 A  
HETATM    4  C   UNL     1     -11.268  11.808  65.462  1.00  0.00    -0.316 A  
HETATM    5  N   UNL     1      -9.816   9.904  65.263  1.00  0.00    -0.317 NA 
HETATM    6  C   UNL     1     -10.448  10.976  64.736  1.00  0.00    -0.316 A  
HETATM    7  C   UNL     1      -9.956   9.672  66.597  1.00  0.00    -0.236 A  
ENDROOT
BRANCH   3   8
HETATM    8  O   UNL     1     -12.285  12.444  67.442  1.00  0.00    -0.459 OA 
BRANCH   8   9
HETATM    9  C   UNL     1     -11.918  13.833  67.390  1.00  0.00    -0.388 C  
HETATM   10  C   UNL     1     -11.552  14.414  68.755  1.00  0.00    -0.315 C  
HETATM   11  F   UNL     1     -12.489  15.300  69.170  1.00  0.00    -0.243 F  
HETATM   12  F   UNL     1     -10.378  15.088  68.682  1.00  0.00    -0.214 F  
HETATM   13  F   UNL     1     -11.418  13.477  69.717  1.00  0.00    -0.306 F  
ENDBRANCH   8   9
ENDBRANCH   3   8
BRANCH   7  14
HETATM   14  C   UNL     1      -9.276   8.402  67.082  1.00  0.00    -0.143 C  
BRANCH  14  15
HETATM   15  S   UNL     1     -10.420   7.014  67.184  1.00  0.00    -0.342 S  
HETATM   16  O   UNL     1      -9.950   5.817  66.408  1.00  0.00    -0.160 OA 
BRANCH  15  17
HETATM   17  C   UNL     1     -10.264   6.582  68.859  1.00  0.00    -0.181 A  
HETATM   18  N   UNL     1      -9.138   6.503  69.536  1.00  0.00    -0.140 NA 
HETATM   19  C   UNL     1      -9.521   6.381  70.854  1.00  0.00    -0.175 A  
HETATM   20  H   UNL     1      -8.188   6.528  69.166  1.00  0.00     0.000 HD 
HETATM   21  C   UNL     1      -8.736   6.327  72.018  1.00  0.00    -0.134 A  
HETATM   22  C   UNL     1      -9.377   6.311  73.263  1.00  0.00    -0.136 A  
HETATM   23  C   UNL     1     -10.770   6.331  73.351  1.00  0.00    -0.281 A  
HETATM   24  C   UNL     1     -11.573   6.339  72.203  1.00  0.00    -0.367 A  
HETATM   25  C   UNL     1     -10.907   6.361  70.972  1.00  0.00    -0.262 A  
HETATM   26  N   UNL     1     -11.350   6.391  69.675  1.00  0.00    -0.413 NA 
ENDBRANCH  15  17
ENDBRANCH  14  15
ENDBRANCH   7  14
TORSDOF 5
ENDMDL
MODEL      132
REMARK 921   NORMALIZED FREE ENERGY PREDICTED BY IDOCK:   -5.15 KCAL/MOL
REMARK 922        TOTAL FREE ENERGY PREDICTED BY IDOCK:   -7.49 KCAL/MOL
REMARK 923 INTER-LIGAND FREE ENERGY PREDICTED BY IDOCK:   -6.13 KCAL/MOL
REMARK 924 INTRA-LIGAND FREE ENERGY PREDICTED BY IDOCK:   -1.36 KCAL/MOL
REMARK 927      BINDING AFFINITY PREDICTED BY RF-SCORE:    0.00 PKD
ROOT
HETATM    1  C   UNL     1      -8.455   8.455  69.819  1.00  0.00    -0.127 C  
HETATM    2  C   UNL     1      -9.330   8.869  68.672  1.00  0.00    -0.140 A  
HETATM    3  C   UNL     1     -10.312   9.873  68.811  1.00  0.00    -0.203 A  
HETATM    4  C   UNL     1     -10.960  10.361  67.677  1.00  0.00    -0.374 A  
HETATM    5  N   UNL     1      -9.837   8.740  66.304  1.00  0.00    -0.281 NA 
HETATM    6  C   UNL     1     -10.681   9.784  66.459  1.00  0.00     0.011 A  
HETATM    7  C   UNL     1      -9.186   8.276  67.404  1.00  0.00    -0.141 A  
ENDROOT
BRANCH   3   8
HETATM    8  O   UNL     1     -10.681  10.513  69.970  1.00  0.00    -0.276 OA 
BRANCH   8   9
HETATM    9  C   UNL     1     -12.026  11.020  70.023  1.00  0.00    -0.351 C  
HETATM   10  C   UNL     1     -12.784  10.593  71.278  1.00  0.00    -0.433 C  
HETATM   11  F   UNL     1     -13.770   9.716  70.973  1.00  0.00    -0.421 F  
HETATM   12  F   UNL     1     -13.377  11.664  71.860  1.00  0.00    -0.532 F  
HETATM   13  F   UNL     1     -11.996  10.015  72.210  1.00  0.00    -0.249 F  
ENDBRANCH   8   9
ENDBRANCH   3   8
BRANCH   7  14
HETATM   14  C   UNL     1      -8.321   7.053  67.146  1.00  0.00    -0.121 C  
BRANCH  14  15
HETATM   15  S   UNL     1      -9.298   5.546  67.002  1.00  0.00    -0.123 S  
HETATM   16  O   UNL     1      -8.449   4.309  66.927  1.00  0.00    -0.104 OA 
BRANCH  15  17
HETATM   17  C   UNL     1     -10.063   5.500  68.561  1.00  0.00    -0.180 A  
HETATM   18  N   UNL     1      -9.564   4.959  69.652  1.00  0.00    -0.154 NA 
HETATM   19  C   UNL     1     -10.390   5.381  70.670  1.00  0.00    -0.262 A  
HETATM   20  H   UNL     1      -8.743   4.358  69.728  1.00  0.00     0.000 HD 
HETATM   21  C   UNL     1     -10.294   5.164  72.055  1.00  0.00    -0.274 A  
HETATM   22  C   UNL     1     -11.212   5.799  72.902  1.00  0.00    -0.319 A  
HETATM   23  C   UNL     1     -12.214   6.620  72.383  1.00  0.00    -0.078 A  
HETATM   24  C   UNL     1     -12.356   6.815  71.003  1.00  0.00    -0.370 A  
HETATM   25  C   UNL     1     -11.423   6.174  70.180  1.00  0.00    -0.295 A  
HETATM   26  N   UNL     1     -11.244   6.149  68.822  1.00  0.00    -0.332 NA 
ENDBRANCH  15  17
ENDBRANCH  14  15
ENDBRANCH   7  14
TORSDOF 5
ENDMDL
MODEL      133
REMARK 921   NORMALIZED FREE ENERGY PREDICTED BY IDOCK:   -5.15 KCAL/MOL
REMARK 922        TOTAL FREE ENERGY PREDICTED BY IDOCK:   -7.48 KCAL/MOL
REMARK 923 INTER-LIGAND FREE ENERGY PREDICTED BY IDOCK:   -6.88 KCAL/MOL
REMARK 924 INTRA-LIGAND FREE ENERGY PREDICTED BY IDOCK:   -0.60 KCAL/MOL
REMARK 927      BINDING AFFINITY PREDICTED BY RF-SCORE:    0.00 PKD
ROOT
HETATM    1  C   UNL     1     -11.605   6.647  70.035  1.00  0.00    -0.423 C  
HETATM    2  C   UNL     1     -10.572   5.823  69.325  1.00  0.00    -0.376 A  
HETATM    3  C   UNL     1      -9.999   4.677  69.917  1.00  0.00    -0.226 A  
HETATM    4  C   UNL     1      -9.197   3.834  69.148  1.00  0.00    -0.226 A  
HETATM    5  N   UNL     1      -9.347   5.347  67.286  1.00  0.00    -0.114 NA 
HETATM    6  C   UNL     1      -8.917   4.197  67.850  1.00  0.00    -0.121 A  
HETATM    7  C   UNL     1     -10.149   6.160  68.025  1.00  0.00    -0.153 A  
ENDROOT
BRANCH   3   8
HETATM    8  O   UNL     1     -10.197   4.223  71.199  1.00  0.00    -0.140 OA 
BRANCH   8   9
HETATM    9  C   UNL     1      -9.647   5.026  72.256  1.00  0.00    -0.148 C  
HETATM   10  C   UNL     1     -10.679   5.437  73.304  1.00  0.00    -0.276 C  
HETATM   11  F   UNL     1     -10.929   6.767  73.242  1.00  0.00    -0.268 F  
HETATM   12  F   UNL     1     -10.213   5.183  74.552  1.00  0.00    -0.203 F  
HETATM   13  F   UNL     1     -11.858   4.792  73.176  1.00  0.00    -0.378 F  
ENDBRANCH   8   9
ENDBRANCH   3   8
BRANCH   7  14
HETATM   14  C   UNL     1     -10.516   7.464  67.337  1.00  0.00    -0.296 C  
BRANCH  14  15
HETATM   15  S   UNL     1      -9.423   8.816  67.811  1.00  0.00    -0.144 S  
HETATM   16  O   UNL     1      -7.991   8.562  67.433  1.00  0.00    -0.101 OA 
BRANCH  15  17
HETATM   17  C   UNL     1      -9.976  10.074  66.748  1.00  0.00    -0.210 A  
HETATM   18  N   UNL     1      -9.883  10.074  65.436  1.00  0.00    -0.301 NA 
HETATM   19  C   UNL     1     -10.665  11.131  65.022  1.00  0.00    -0.231 A  
HETATM   20  H   UNL     1      -9.349   9.432  64.850  1.00  0.00     0.000 HD 
HETATM   21  C   UNL     1     -10.986  11.557  63.723  1.00  0.00    -0.485 A  
HETATM   22  C   UNL     1     -11.901  12.607  63.565  1.00  0.00    -0.619 A  
HETATM   23  C   UNL     1     -12.472  13.231  64.676  1.00  0.00    -0.408 A  
HETATM   24  C   UNL     1     -12.132  12.851  65.981  1.00  0.00    -0.484 A  
HETATM   25  C   UNL     1     -11.221  11.796  66.110  1.00  0.00    -0.306 A  
HETATM   26  N   UNL     1     -10.683  11.160  67.198  1.00  0.00    -0.245 NA 
ENDBRANCH  15  17
ENDBRANCH  14  15
ENDBRANCH   7  14
TORSDOF 5
ENDMDL
MODEL      134
REMARK 921   NORMALIZED FREE ENERGY PREDICTED BY IDOCK:   -5.14 KCAL/MOL
REMARK 922        TOTAL FREE ENERGY PREDICTED BY IDOCK:   -7.47 KCAL/MOL
REMARK 923 INTER-LIGAND FREE ENERGY PREDICTED BY IDOCK:   -6.51 KCAL/MOL
REMARK 924 INTRA-LIGAND FREE ENERGY PREDICTED BY IDOCK:   -0.96 KCAL/MOL
REMARK 927      BINDING AFFINITY PREDICTED BY RF-SCORE:    0.00 PKD
ROOT
HETATM    1  C   UNL     1      -9.843   9.961  65.027  1.00  0.00    -0.323 C  
HETATM    2  C   UNL     1     -10.251  10.408  66.400  1.00  0.00    -0.292 A  
HETATM    3  C   UNL     1     -10.365  11.774  66.734  1.00  0.00    -0.219 A  
HETATM    4  C   UNL     1     -10.936  12.138  67.954  1.00  0.00    -0.272 A  
HETATM    5  N   UNL     1     -11.089   9.828  68.601  1.00  0.00    -0.147 NA 
HETATM    6  C   UNL     1     -11.294  11.143  68.835  1.00  0.00    -0.278 A  
HETATM    7  C   UNL     1     -10.552   9.469  67.404  1.00  0.00    -0.271 A  
ENDROOT
BRANCH   3   8
HETATM    8  O   UNL     1     -10.034  12.849  65.944  1.00  0.00    -0.273 OA 
BRANCH   8   9
HETATM    9  C   UNL     1     -10.993  13.228  64.942  1.00  0.00    -0.330 C  
HETATM   10  C   UNL     1     -11.834  14.440  65.338  1.00  0.00    -0.366 C  
HETATM   11  F   UNL     1     -13.120  14.082  65.570  1.00  0.00    -0.550 F  
HETATM   12  F   UNL     1     -11.855  15.351  64.334  1.00  0.00    -0.422 F  
HETATM   13  F   UNL     1     -11.380  15.070  66.443  1.00  0.00    -0.341 F  
ENDBRANCH   8   9
ENDBRANCH   3   8
BRANCH   7  14
HETATM   14  C   UNL     1     -10.286   7.979  67.264  1.00  0.00    -0.275 C  
BRANCH  14  15
HETATM   15  S   UNL     1      -8.688   7.506  67.949  1.00  0.00    -0.123 S  
HETATM   16  O   UNL     1      -7.827   8.692  68.281  1.00  0.00    -0.100 OA 
BRANCH  15  17
HETATM   17  C   UNL     1      -9.171   6.831  69.475  1.00  0.00    -0.147 A  
HETATM   18  N   UNL     1      -9.945   7.411  70.367  1.00  0.00    -0.188 NA 
HETATM   19  C   UNL     1     -10.250   6.419  71.274  1.00  0.00    -0.200 A  
HETATM   20  H   UNL     1     -10.253   8.383  70.384  1.00  0.00     0.000 HD 
HETATM   21  C   UNL     1     -11.096   6.455  72.395  1.00  0.00    -0.303 A  
HETATM   22  C   UNL     1     -11.326   5.268  73.103  1.00  0.00    -0.358 A  
HETATM   23  C   UNL     1     -10.717   4.074  72.716  1.00  0.00    -0.179 A  
HETATM   24  C   UNL     1      -9.835   4.025  71.628  1.00  0.00    -0.253 A  
HETATM   25  C   UNL     1      -9.627   5.222  70.934  1.00  0.00    -0.175 A  
HETATM   26  N   UNL     1      -8.867   5.543  69.839  1.00  0.00    -0.125 NA 
ENDBRANCH  15  17
ENDBRANCH  14  15
ENDBRANCH   7  14
TORSDOF 5
ENDMDL
MODEL      135
REMARK 921   NORMALIZED FREE ENERGY PREDICTED BY IDOCK:   -5.13 KCAL/MOL
REMARK 922        TOTAL FREE ENERGY PREDICTED BY IDOCK:   -7.46 KCAL/MOL
REMARK 923 INTER-LIGAND FREE ENERGY PREDICTED BY IDOCK:   -6.67 KCAL/MOL
REMARK 924 INTRA-LIGAND FREE ENERGY PREDICTED BY IDOCK:   -0.80 KCAL/MOL
REMARK 927      BINDING AFFINITY PREDICTED BY RF-SCORE:    0.00 PKD
ROOT
HETATM    1  C   UNL     1      -8.040   7.379  70.267  1.00  0.00    -0.116 C  
HETATM    2  C   UNL     1      -8.749   7.940  69.070  1.00  0.00    -0.138 A  
HETATM    3  C   UNL     1      -8.400   7.565  67.755  1.00  0.00    -0.119 A  
HETATM    4  C   UNL     1      -9.212   7.957  66.691  1.00  0.00    -0.221 A  
HETATM    5  N   UNL     1     -10.583   9.254  68.179  1.00  0.00    -0.218 NA 
HETATM    6  C   UNL     1     -10.287   8.775  66.950  1.00  0.00    -0.274 A  
HETATM    7  C   UNL     1      -9.807   8.856  69.223  1.00  0.00    -0.176 A  
ENDROOT
BRANCH   3   8
HETATM    8  O   UNL     1      -7.350   6.764  67.376  1.00  0.00    -0.090 OA 
BRANCH   8   9
HETATM    9  C   UNL     1      -7.588   5.873  66.273  1.00  0.00    -0.094 C  
HETATM   10  C   UNL     1      -7.961   4.457  66.709  1.00  0.00    -0.098 C  
HETATM   11  F   UNL     1      -6.967   3.584  66.416  1.00  0.00    -0.053 F  
HETATM   12  F   UNL     1      -9.065   4.033  66.047  1.00  0.00    -0.122 F  
HETATM   13  F   UNL     1      -8.220   4.354  68.030  1.00  0.00    -0.091 F  
ENDBRANCH   8   9
ENDBRANCH   3   8
BRANCH   7  14
HETATM   14  C   UNL     1     -10.166   9.507  70.549  1.00  0.00    -0.287 C  
BRANCH  14  15
HETATM   15  S   UNL     1     -11.942   9.496  70.853  1.00  0.00    -0.281 S  
HETATM   16  O   UNL     1     -12.309   8.763  72.112  1.00  0.00    -0.352 OA 
BRANCH  15  17
HETATM   17  C   UNL     1     -12.230  11.176  71.184  1.00  0.00    -0.282 A  
HETATM   18  N   UNL     1     -11.732  12.193  70.514  1.00  0.00    -0.482 NA 
HETATM   19  C   UNL     1     -12.424  13.295  70.969  1.00  0.00    -0.336 A  
HETATM   20  H   UNL     1     -10.995  12.172  69.810  1.00  0.00     0.000 HD 
HETATM   21  C   UNL     1     -12.355  14.635  70.553  1.00  0.00    -0.400 A  
HETATM   22  C   UNL     1     -13.252  15.559  71.106  1.00  0.00    -0.576 A  
HETATM   23  C   UNL     1     -14.188  15.163  72.063  1.00  0.00    -0.673 A  
HETATM   24  C   UNL     1     -14.244  13.841  72.524  1.00  0.00    -0.384 A  
HETATM   25  C   UNL     1     -13.342  12.937  71.952  1.00  0.00    -0.435 A  
HETATM   26  N   UNL     1     -13.123  11.597  72.137  1.00  0.00    -0.367 NA 
ENDBRANCH  15  17
ENDBRANCH  14  15
ENDBRANCH   7  14
TORSDOF 5
ENDMDL
MODEL      136
REMARK 921   NORMALIZED FREE ENERGY PREDICTED BY IDOCK:   -5.12 KCAL/MOL
REMARK 922        TOTAL FREE ENERGY PREDICTED BY IDOCK:   -7.45 KCAL/MOL
REMARK 923 INTER-LIGAND FREE ENERGY PREDICTED BY IDOCK:   -6.75 KCAL/MOL
REMARK 924 INTRA-LIGAND FREE ENERGY PREDICTED BY IDOCK:   -0.70 KCAL/MOL
REMARK 927      BINDING AFFINITY PREDICTED BY RF-SCORE:    0.00 PKD
ROOT
HETATM    1  C   UNL     1      -8.032  10.710  68.097  1.00  0.00    -0.113 C  
HETATM    2  C   UNL     1      -9.457  11.103  68.355  1.00  0.00    -0.189 A  
HETATM    3  C   UNL     1     -10.425  10.163  68.768  1.00  0.00    -0.204 A  
HETATM    4  C   UNL     1     -11.679  10.606  69.186  1.00  0.00    -0.324 A  
HETATM    5  N   UNL     1     -11.106  12.865  68.597  1.00  0.00    -0.257 NA 
HETATM    6  C   UNL     1     -11.964  11.950  69.100  1.00  0.00    -0.276 A  
HETATM    7  C   UNL     1      -9.874  12.439  68.209  1.00  0.00    -0.224 A  
ENDROOT
BRANCH   3   8
HETATM    8  O   UNL     1     -10.259   8.803  68.884  1.00  0.00    -0.197 OA 
BRANCH   8   9
HETATM    9  C   UNL     1     -10.461   8.242  70.192  1.00  0.00    -0.225 C  
HETATM   10  C   UNL     1     -11.177   6.893  70.167  1.00  0.00    -0.313 C  
HETATM   11  F   UNL     1     -12.426   6.999  70.682  1.00  0.00    -0.382 F  
HETATM   12  F   UNL     1     -10.513   5.990  70.930  1.00  0.00    -0.238 F  
HETATM   13  F   UNL     1     -11.289   6.368  68.929  1.00  0.00    -0.364 F  
ENDBRANCH   8   9
ENDBRANCH   3   8
BRANCH   7  14
HETATM   14  C   UNL     1      -9.010  13.522  67.583  1.00  0.00    -0.200 C  
BRANCH  14  15
HETATM   15  S   UNL     1      -8.021  14.397  68.810  1.00  0.00    -0.107 S  
HETATM   16  O   UNL     1      -6.555  14.395  68.482  1.00  0.00    -0.083 OA 
BRANCH  15  17
HETATM   17  C   UNL     1      -8.559  16.030  68.562  1.00  0.00    -0.190 A  
HETATM   18  N   UNL     1      -7.826  17.115  68.697  1.00  0.00    -0.256 NA 
HETATM   19  C   UNL     1      -8.589  18.130  68.161  1.00  0.00    -0.274 A  
HETATM   20  H   UNL     1      -6.896  17.189  69.109  1.00  0.00     0.000 HD 
HETATM   21  C   UNL     1      -8.277  19.488  67.978  1.00  0.00    -0.352 A  
HETATM   22  C   UNL     1      -9.194  20.304  67.302  1.00  0.00    -0.523 A  
HETATM   23  C   UNL     1     -10.402  19.786  66.832  1.00  0.00    -0.601 A  
HETATM   24  C   UNL     1     -10.752  18.445  67.043  1.00  0.00    -0.330 A  
HETATM   25  C   UNL     1      -9.817  17.651  67.715  1.00  0.00    -0.292 A  
HETATM   26  N   UNL     1      -9.807  16.328  68.075  1.00  0.00    -0.233 NA 
ENDBRANCH  15  17
ENDBRANCH  14  15
ENDBRANCH   7  14
TORSDOF 5
ENDMDL
MODEL      137
REMARK 921   NORMALIZED FREE ENERGY PREDICTED BY IDOCK:   -5.12 KCAL/MOL
REMARK 922        TOTAL FREE ENERGY PREDICTED BY IDOCK:   -7.44 KCAL/MOL
REMARK 923 INTER-LIGAND FREE ENERGY PREDICTED BY IDOCK:   -6.52 KCAL/MOL
REMARK 924 INTRA-LIGAND FREE ENERGY PREDICTED BY IDOCK:   -0.93 KCAL/MOL
REMARK 927      BINDING AFFINITY PREDICTED BY RF-SCORE:    0.00 PKD
ROOT
HETATM    1  C   UNL     1      -8.174   8.392  69.836  1.00  0.00    -0.122 C  
HETATM    2  C   UNL     1      -9.227   9.425  69.564  1.00  0.00    -0.182 A  
HETATM    3  C   UNL     1      -9.229  10.192  68.380  1.00  0.00    -0.133 A  
HETATM    4  C   UNL     1     -10.331  10.993  68.081  1.00  0.00    -0.204 A  
HETATM    5  N   UNL     1     -11.332  10.452  70.198  1.00  0.00    -0.300 NA 
HETATM    6  C   UNL     1     -11.352  11.076  69.000  1.00  0.00    -0.277 A  
HETATM    7  C   UNL     1     -10.269   9.652  70.484  1.00  0.00    -0.287 A  
ENDROOT
BRANCH   3   8
HETATM    8  O   UNL     1      -8.266  10.198  67.399  1.00  0.00    -0.114 OA 
BRANCH   8   9
HETATM    9  C   UNL     1      -8.661  10.714  66.116  1.00  0.00    -0.159 C  
HETATM   10  C   UNL     1      -9.208   9.642  65.176  1.00  0.00    -0.246 C  
HETATM   11  F   UNL     1      -8.354   9.418  64.148  1.00  0.00    -0.131 F  
HETATM   12  F   UNL     1     -10.382  10.046  64.630  1.00  0.00    -0.381 F  
HETATM   13  F   UNL     1      -9.435   8.459  65.785  1.00  0.00    -0.251 F  
ENDBRANCH   8   9
ENDBRANCH   3   8
BRANCH   7  14
HETATM   14  C   UNL     1     -10.296   9.057  71.882  1.00  0.00    -0.287 C  
BRANCH  14  15
HETATM   15  S   UNL     1     -11.598   7.826  72.073  1.00  0.00    -0.319 S  
HETATM   16  O   UNL     1     -12.971   8.399  71.866  1.00  0.00    -0.329 OA 
BRANCH  15  17
HETATM   17  C   UNL     1     -11.296   6.813  70.694  1.00  0.00    -0.334 A  
HETATM   18  N   UNL     1     -11.580   7.105  69.443  1.00  0.00    -0.471 NA 
HETATM   19  C   UNL     1     -10.943   6.137  68.696  1.00  0.00    -0.336 A  
HETATM   20  H   UNL     1     -12.148   7.879  69.099  1.00  0.00     0.000 HD 
HETATM   21  C   UNL     1     -10.847   5.995  67.302  1.00  0.00    -0.403 A  
HETATM   22  C   UNL     1     -10.041   4.973  66.783  1.00  0.00    -0.270 A  
HETATM   23  C   UNL     1      -9.357   4.101  67.631  1.00  0.00    -0.208 A  
HETATM   24  C   UNL     1      -9.475   4.197  69.024  1.00  0.00    -0.244 A  
HETATM   25  C   UNL     1     -10.281   5.229  69.516  1.00  0.00    -0.268 A  
HETATM   26  N   UNL     1     -10.608   5.630  70.786  1.00  0.00    -0.263 NA 
ENDBRANCH  15  17
ENDBRANCH  14  15
ENDBRANCH   7  14
TORSDOF 5
ENDMDL
MODEL      138
REMARK 921   NORMALIZED FREE ENERGY PREDICTED BY IDOCK:   -5.10 KCAL/MOL
REMARK 922        TOTAL FREE ENERGY PREDICTED BY IDOCK:   -7.42 KCAL/MOL
REMARK 923 INTER-LIGAND FREE ENERGY PREDICTED BY IDOCK:   -6.65 KCAL/MOL
REMARK 924 INTRA-LIGAND FREE ENERGY PREDICTED BY IDOCK:   -0.77 KCAL/MOL
REMARK 927      BINDING AFFINITY PREDICTED BY RF-SCORE:    0.00 PKD
ROOT
HETATM    1  C   UNL     1     -10.490   8.189  67.095  1.00  0.00    -0.396 C  
HETATM    2  C   UNL     1      -9.626   8.803  66.034  1.00  0.00    -0.297 A  
HETATM    3  C   UNL     1      -8.483   8.146  65.532  1.00  0.00    -0.159 A  
HETATM    4  C   UNL     1      -7.828   8.661  64.414  1.00  0.00    -0.138 A  
HETATM    5  N   UNL     1      -9.287  10.572  64.408  1.00  0.00    -0.238 NA 
HETATM    6  C   UNL     1      -8.271   9.851  63.883  1.00  0.00    -0.156 A  
HETATM    7  C   UNL     1      -9.942  10.061  65.486  1.00  0.00    -0.296 A  
ENDROOT
BRANCH   3   8
HETATM    8  O   UNL     1      -7.945   6.964  65.984  1.00  0.00    -0.099 OA 
BRANCH   8   9
HETATM    9  C   UNL     1      -8.356   5.769  65.301  1.00  0.00    -0.146 C  
HETATM   10  C   UNL     1      -8.971   4.722  66.229  1.00  0.00    -0.119 C  
HETATM   11  F   UNL     1      -8.155   3.647  66.352  1.00  0.00    -0.095 F  
HETATM   12  F   UNL     1     -10.143   4.270  65.721  1.00  0.00    -0.187 F  
HETATM   13  F   UNL     1      -9.223   5.189  67.470  1.00  0.00    -0.112 F  
ENDBRANCH   8   9
ENDBRANCH   3   8
BRANCH   7  14
HETATM   14  C   UNL     1     -11.014  10.977  66.054  1.00  0.00    -0.067 C  
BRANCH  14  15
HETATM   15  S   UNL     1     -11.437  12.312  64.921  1.00  0.00    -0.329 S  
HETATM   16  O   UNL     1     -12.920  12.528  64.809  1.00  0.00    -0.827 OA 
BRANCH  15  17
HETATM   17  C   UNL     1     -10.824  13.686  65.789  1.00  0.00    -0.273 A  
HETATM   18  N   UNL     1      -9.947  14.557  65.339  1.00  0.00    -0.477 NA 
HETATM   19  C   UNL     1      -9.960  15.585  66.257  1.00  0.00    -0.293 A  
HETATM   20  H   UNL     1      -9.379  14.487  64.495  1.00  0.00     0.000 HD 
HETATM   21  C   UNL     1      -9.270  16.809  66.247  1.00  0.00    -0.313 A  
HETATM   22  C   UNL     1      -9.540  17.743  67.255  1.00  0.00    -0.272 A  
HETATM   23  C   UNL     1     -10.465  17.461  68.263  1.00  0.00    -0.385 A  
HETATM   24  C   UNL     1     -11.130  16.229  68.317  1.00  0.00    -0.346 A  
HETATM   25  C   UNL     1     -10.847  15.317  67.295  1.00  0.00    -0.318 A  
HETATM   26  N   UNL     1     -11.307  14.056  67.020  1.00  0.00    -0.316 NA 
ENDBRANCH  15  17
ENDBRANCH  14  15
ENDBRANCH   7  14
TORSDOF 5
ENDMDL
MODEL      139
REMARK 921   NORMALIZED FREE ENERGY PREDICTED BY IDOCK:   -5.10 KCAL/MOL
REMARK 922        TOTAL FREE ENERGY PREDICTED BY IDOCK:   -7.42 KCAL/MOL
REMARK 923 INTER-LIGAND FREE ENERGY PREDICTED BY IDOCK:   -6.68 KCAL/MOL
REMARK 924 INTRA-LIGAND FREE ENERGY PREDICTED BY IDOCK:   -0.74 KCAL/MOL
REMARK 927      BINDING AFFINITY PREDICTED BY RF-SCORE:    0.00 PKD
ROOT
HETATM    1  C   UNL     1     -11.551  15.091  64.704  1.00  0.00    -0.386 C  
HETATM    2  C   UNL     1     -11.285  14.960  66.174  1.00  0.00    -0.325 A  
HETATM    3  C   UNL     1     -10.779  16.033  66.938  1.00  0.00    -0.262 A  
HETATM    4  C   UNL     1     -10.736  15.927  68.328  1.00  0.00    -0.291 A  
HETATM    5  N   UNL     1     -11.488  13.647  68.205  1.00  0.00    -0.292 NA 
HETATM    6  C   UNL     1     -11.112  14.738  68.909  1.00  0.00    -0.252 A  
HETATM    7  C   UNL     1     -11.552  13.754  66.850  1.00  0.00    -0.370 A  
ENDROOT
BRANCH   3   8
HETATM    8  O   UNL     1     -10.366  17.257  66.470  1.00  0.00    -0.321 OA 
BRANCH   8   9
HETATM    9  C   UNL     1      -9.441  17.982  67.298  1.00  0.00    -0.260 C  
HETATM   10  C   UNL     1      -9.825  19.448  67.493  1.00  0.00    -0.346 C  
HETATM   11  F   UNL     1      -8.956  20.265  66.851  1.00  0.00    -0.377 F  
HETATM   12  F   UNL     1      -9.778  19.778  68.807  1.00  0.00    -0.412 F  
HETATM   13  F   UNL     1     -11.066  19.741  67.049  1.00  0.00    -0.572 F  
ENDBRANCH   8   9
ENDBRANCH   3   8
BRANCH   7  14
HETATM   14  C   UNL     1     -11.906  12.457  66.140  1.00  0.00    -0.376 C  
BRANCH  14  15
HETATM   15  S   UNL     1     -10.455  11.638  65.455  1.00  0.00    -0.283 S  
HETATM   16  O   UNL     1      -9.191  12.421  65.672  1.00  0.00    -0.036 OA 
BRANCH  15  17
HETATM   17  C   UNL     1     -10.337  10.253  66.497  1.00  0.00    -0.211 A  
HETATM   18  N   UNL     1      -9.424   9.307  66.427  1.00  0.00    -0.198 NA 
HETATM   19  C   UNL     1      -9.577   8.576  67.584  1.00  0.00    -0.153 A  
HETATM   20  H   UNL     1      -8.750   9.149  65.678  1.00  0.00     0.000 HD 
HETATM   21  C   UNL     1      -8.827   7.491  68.069  1.00  0.00    -0.127 A  
HETATM   22  C   UNL     1      -9.121   6.984  69.342  1.00  0.00    -0.145 A  
HETATM   23  C   UNL     1     -10.148   7.533  70.111  1.00  0.00    -0.195 A  
HETATM   24  C   UNL     1     -10.937   8.586  69.629  1.00  0.00    -0.093 A  
HETATM   25  C   UNL     1     -10.620   9.077  68.358  1.00  0.00    -0.154 A  
HETATM   26  N   UNL     1     -11.148  10.083  67.591  1.00  0.00    -0.239 NA 
ENDBRANCH  15  17
ENDBRANCH  14  15
ENDBRANCH   7  14
TORSDOF 5
ENDMDL
MODEL      140
REMARK 921   NORMALIZED FREE ENERGY PREDICTED BY IDOCK:   -5.10 KCAL/MOL
REMARK 922        TOTAL FREE ENERGY PREDICTED BY IDOCK:   -7.42 KCAL/MOL
REMARK 923 INTER-LIGAND FREE ENERGY PREDICTED BY IDOCK:   -6.37 KCAL/MOL
REMARK 924 INTRA-LIGAND FREE ENERGY PREDICTED BY IDOCK:   -1.05 KCAL/MOL
REMARK 927      BINDING AFFINITY PREDICTED BY RF-SCORE:    0.00 PKD
ROOT
HETATM    1  C   UNL     1     -10.597   9.092  67.153  1.00  0.00    -0.286 C  
HETATM    2  C   UNL     1      -9.451   9.949  67.600  1.00  0.00    -0.167 A  
HETATM    3  C   UNL     1      -8.365   9.419  68.330  1.00  0.00    -0.119 A  
HETATM    4  C   UNL     1      -7.235  10.205  68.550  1.00  0.00    -0.080 A  
HETATM    5  N   UNL     1      -8.316  12.092  67.525  1.00  0.00    -0.156 NA 
HETATM    6  C   UNL     1      -7.249  11.513  68.120  1.00  0.00    -0.080 A  
HETATM    7  C   UNL     1      -9.412  11.322  67.289  1.00  0.00    -0.173 A  
ENDROOT
BRANCH   3   8
HETATM    8  O   UNL     1      -8.244   8.139  68.815  1.00  0.00    -0.121 OA 
BRANCH   8   9
HETATM    9  C   UNL     1      -8.551   7.948  70.206  1.00  0.00    -0.137 C  
HETATM   10  C   UNL     1      -9.885   7.241  70.440  1.00  0.00    -0.183 C  
HETATM   11  F   UNL     1     -10.794   8.089  70.977  1.00  0.00    -0.224 F  
HETATM   12  F   UNL     1      -9.732   6.221  71.320  1.00  0.00    -0.175 F  
HETATM   13  F   UNL     1     -10.421   6.724  69.314  1.00  0.00    -0.184 F  
ENDBRANCH   8   9
ENDBRANCH   3   8
BRANCH   7  14
HETATM   14  C   UNL     1     -10.587  12.078  66.691  1.00  0.00    -0.232 C  
BRANCH  14  15
HETATM   15  S   UNL     1     -10.428  13.860  66.905  1.00  0.00    -0.277 S  
HETATM   16  O   UNL     1     -11.153  14.638  65.844  1.00  0.00    -0.325 OA 
BRANCH  15  17
HETATM   17  C   UNL     1     -11.336  14.097  68.367  1.00  0.00    -0.287 A  
HETATM   18  N   UNL     1     -11.960  13.162  69.051  1.00  0.00    -0.308 NA 
HETATM   19  C   UNL     1     -12.313  13.763  70.239  1.00  0.00    -0.337 A  
HETATM   20  H   UNL     1     -12.142  12.200  68.764  1.00  0.00     0.000 HD 
HETATM   21  C   UNL     1     -12.940  13.217  71.372  1.00  0.00    -0.386 A  
HETATM   22  C   UNL     1     -13.094  14.020  72.510  1.00  0.00    -0.547 A  
HETATM   23  C   UNL     1     -12.649  15.343  72.517  1.00  0.00    -0.475 A  
HETATM   24  C   UNL     1     -12.063  15.921  71.383  1.00  0.00    -0.508 A  
HETATM   25  C   UNL     1     -11.915  15.096  70.263  1.00  0.00    -0.319 A  
HETATM   26  N   UNL     1     -11.384  15.305  69.017  1.00  0.00    -0.280 NA 
ENDBRANCH  15  17
ENDBRANCH  14  15
ENDBRANCH   7  14
TORSDOF 5
ENDMDL
MODEL      141
REMARK 921   NORMALIZED FREE ENERGY PREDICTED BY IDOCK:   -5.09 KCAL/MOL
REMARK 922        TOTAL FREE ENERGY PREDICTED BY IDOCK:   -7.41 KCAL/MOL
REMARK 923 INTER-LIGAND FREE ENERGY PREDICTED BY IDOCK:   -6.45 KCAL/MOL
REMARK 924 INTRA-LIGAND FREE ENERGY PREDICTED BY IDOCK:   -0.95 KCAL/MOL
REMARK 927      BINDING AFFINITY PREDICTED BY RF-SCORE:    0.00 PKD
ROOT
HETATM    1  C   UNL     1     -10.711   6.715  68.216  1.00  0.00    -0.317 C  
HETATM    2  C   UNL     1     -10.573   6.052  69.554  1.00  0.00    -0.363 A  
HETATM    3  C   UNL     1     -10.000   4.769  69.693  1.00  0.00    -0.227 A  
HETATM    4  C   UNL     1      -9.713   4.280  70.967  1.00  0.00    -0.260 A  
HETATM    5  N   UNL     1     -10.736   6.209  71.969  1.00  0.00    -0.225 NA 
HETATM    6  C   UNL     1     -10.078   5.032  72.059  1.00  0.00    -0.196 A  
HETATM    7  C   UNL     1     -10.999   6.701  70.728  1.00  0.00    -0.270 A  
ENDROOT
BRANCH   3   8
HETATM    8  O   UNL     1      -9.605   3.927  68.682  1.00  0.00    -0.159 OA 
BRANCH   8   9
HETATM    9  C   UNL     1      -8.239   3.482  68.714  1.00  0.00    -0.068 C  
HETATM   10  C   UNL     1      -7.311   4.314  67.831  1.00  0.00    -0.068 C  
HETATM   11  F   UNL     1      -6.886   3.596  66.764  1.00  0.00    -0.049 F  
HETATM   12  F   UNL     1      -6.204   4.682  68.522  1.00  0.00    -0.027 F  
HETATM   13  F   UNL     1      -7.885   5.442  67.363  1.00  0.00    -0.096 F  
ENDBRANCH   8   9
ENDBRANCH   3   8
BRANCH   7  14
HETATM   14  C   UNL     1     -11.811   7.986  70.727  1.00  0.00    -0.162 C  
BRANCH  14  15
HETATM   15  S   UNL     1     -10.829   9.411  71.229  1.00  0.00    -0.349 S  
HETATM   16  O   UNL     1      -9.360   9.218  70.982  1.00  0.00    -0.259 OA 
BRANCH  15  17
HETATM   17  C   UNL     1     -11.352  10.595  70.070  1.00  0.00    -0.324 A  
HETATM   18  N   UNL     1     -11.660  11.848  70.329  1.00  0.00    -0.531 NA 
HETATM   19  C   UNL     1     -11.767  12.452  69.095  1.00  0.00    -0.322 A  
HETATM   20  H   UNL     1     -11.792  12.279  71.244  1.00  0.00     0.000 HD 
HETATM   21  C   UNL     1     -12.009  13.797  68.770  1.00  0.00    -0.400 A  
HETATM   22  C   UNL     1     -11.962  14.184  67.424  1.00  0.00    -0.439 A  
HETATM   23  C   UNL     1     -11.695  13.251  66.420  1.00  0.00    -0.418 A  
HETATM   24  C   UNL     1     -11.495  11.897  66.718  1.00  0.00    -0.384 A  
HETATM   25  C   UNL     1     -11.541  11.538  68.070  1.00  0.00    -0.300 A  
HETATM   26  N   UNL     1     -11.378  10.343  68.721  1.00  0.00    -0.240 NA 
ENDBRANCH  15  17
ENDBRANCH  14  15
ENDBRANCH   7  14
TORSDOF 5
ENDMDL
MODEL      142
REMARK 921   NORMALIZED FREE ENERGY PREDICTED BY IDOCK:   -5.09 KCAL/MOL
REMARK 922        TOTAL FREE ENERGY PREDICTED BY IDOCK:   -7.40 KCAL/MOL
REMARK 923 INTER-LIGAND FREE ENERGY PREDICTED BY IDOCK:   -6.64 KCAL/MOL
REMARK 924 INTRA-LIGAND FREE ENERGY PREDICTED BY IDOCK:   -0.77 KCAL/MOL
REMARK 927      BINDING AFFINITY PREDICTED BY RF-SCORE:    0.00 PKD
ROOT
HETATM    1  C   UNL     1      -8.445  15.244  68.685  1.00  0.00    -0.168 C  
HETATM    2  C   UNL     1      -9.637  14.422  68.294  1.00  0.00    -0.211 A  
HETATM    3  C   UNL     1      -9.597  13.011  68.282  1.00  0.00    -0.213 A  
HETATM    4  C   UNL     1     -10.778  12.291  68.107  1.00  0.00    -0.241 A  
HETATM    5  N   UNL     1     -11.999  14.330  67.748  1.00  0.00    -0.370 NA 
HETATM    6  C   UNL     1     -11.941  12.985  67.864  1.00  0.00    -0.291 A  
HETATM    7  C   UNL     1     -10.852  15.037  67.940  1.00  0.00    -0.280 A  
ENDROOT
BRANCH   3   8
HETATM    8  O   UNL     1      -8.498  12.215  68.502  1.00  0.00    -0.151 OA 
BRANCH   8   9
HETATM    9  C   UNL     1      -7.731  11.847  67.343  1.00  0.00    -0.158 C  
HETATM   10  C   UNL     1      -6.236  11.712  67.626  1.00  0.00    -0.068 C  
HETATM   11  F   UNL     1      -5.539  12.707  67.025  1.00  0.00    -0.113 F  
HETATM   12  F   UNL     1      -5.763  10.544  67.127  1.00  0.00    -0.041 F  
HETATM   13  F   UNL     1      -5.934  11.739  68.942  1.00  0.00    -0.047 F  
ENDBRANCH   8   9
ENDBRANCH   3   8
BRANCH   7  14
HETATM   14  C   UNL     1     -10.998  16.533  67.712  1.00  0.00    -0.252 C  
BRANCH  14  15
HETATM   15  S   UNL     1     -10.450  17.027  66.068  1.00  0.00    -0.201 S  
HETATM   16  O   UNL     1      -8.979  17.325  66.013  1.00  0.00    -0.486 OA 
BRANCH  15  17
HETATM   17  C   UNL     1     -10.664  15.543  65.191  1.00  0.00    -0.440 A  
HETATM   18  N   UNL     1      -9.803  14.549  65.130  1.00  0.00    -0.516 NA 
HETATM   19  C   UNL     1     -10.496  13.511  64.546  1.00  0.00    -0.407 A  
HETATM   20  H   UNL     1      -8.834  14.547  65.447  1.00  0.00     0.000 HD 
HETATM   21  C   UNL     1     -10.094  12.188  64.298  1.00  0.00    -0.317 A  
HETATM   22  C   UNL     1     -11.032  11.283  63.785  1.00  0.00    -0.381 A  
HETATM   23  C   UNL     1     -12.340  11.688  63.510  1.00  0.00    -0.349 A  
HETATM   24  C   UNL     1     -12.750  13.013  63.708  1.00  0.00    -0.159 A  
HETATM   25  C   UNL     1     -11.795  13.894  64.226  1.00  0.00    -0.412 A  
HETATM   26  N   UNL     1     -11.839  15.223  64.559  1.00  0.00    -0.364 NA 
ENDBRANCH  15  17
ENDBRANCH  14  15
ENDBRANCH   7  14
TORSDOF 5
ENDMDL
MODEL      143
REMARK 921   NORMALIZED FREE ENERGY PREDICTED BY IDOCK:   -5.08 KCAL/MOL
REMARK 922        TOTAL FREE ENERGY PREDICTED BY IDOCK:   -7.40 KCAL/MOL
REMARK 923 INTER-LIGAND FREE ENERGY PREDICTED BY IDOCK:   -6.30 KCAL/MOL
REMARK 924 INTRA-LIGAND FREE ENERGY PREDICTED BY IDOCK:   -1.09 KCAL/MOL
REMARK 927      BINDING AFFINITY PREDICTED BY RF-SCORE:    0.00 PKD
ROOT
HETATM    1  C   UNL     1     -11.523   5.402  72.901  1.00  0.00    -0.340 C  
HETATM    2  C   UNL     1     -11.026   5.491  71.489  1.00  0.00    -0.220 A  
HETATM    3  C   UNL     1     -10.010   4.641  71.002  1.00  0.00    -0.200 A  
HETATM    4  C   UNL     1      -9.721   4.625  69.638  1.00  0.00    -0.283 A  
HETATM    5  N   UNL     1     -11.274   6.421  69.262  1.00  0.00    -0.378 NA 
HETATM    6  C   UNL     1     -10.382   5.508  68.816  1.00  0.00    -0.201 A  
HETATM    7  C   UNL     1     -11.574   6.424  70.589  1.00  0.00    -0.347 A  
ENDROOT
BRANCH   3   8
HETATM    8  O   UNL     1      -9.279   3.729  71.726  1.00  0.00    -0.106 OA 
BRANCH   8   9
HETATM    9  C   UNL     1      -7.852   3.906  71.727  1.00  0.00    -0.070 C  
HETATM   10  C   UNL     1      -7.352   4.786  72.871  1.00  0.00    -0.085 C  
HETATM   11  F   UNL     1      -6.892   5.971  72.403  1.00  0.00    -0.066 F  
HETATM   12  F   UNL     1      -6.317   4.188  73.511  1.00  0.00    -0.031 F  
HETATM   13  F   UNL     1      -8.299   5.051  73.797  1.00  0.00    -0.104 F  
ENDBRANCH   8   9
ENDBRANCH   3   8
BRANCH   7  14
HETATM   14  C   UNL     1     -12.524   7.535  71.008  1.00  0.00    -0.212 C  
BRANCH  14  15
HETATM   15  S   UNL     1     -11.654   8.932  71.743  1.00  0.00    -0.372 S  
HETATM   16  O   UNL     1     -10.290   8.562  72.251  1.00  0.00    -0.311 OA 
BRANCH  15  17
HETATM   17  C   UNL     1     -11.385   9.924  70.342  1.00  0.00    -0.307 A  
HETATM   18  N   UNL     1     -11.055   9.495  69.143  1.00  0.00    -0.425 NA 
HETATM   19  C   UNL     1     -11.198  10.592  68.320  1.00  0.00    -0.291 A  
HETATM   20  H   UNL     1     -10.758   8.556  68.878  1.00  0.00     0.000 HD 
HETATM   21  C   UNL     1     -11.046  10.696  66.927  1.00  0.00    -0.162 A  
HETATM   22  C   UNL     1     -11.357  11.913  66.305  1.00  0.00    -0.394 A  
HETATM   23  C   UNL     1     -11.795  13.007  67.053  1.00  0.00    -0.437 A  
HETATM   24  C   UNL     1     -11.910  12.938  68.448  1.00  0.00    -0.357 A  
HETATM   25  C   UNL     1     -11.600  11.710  69.043  1.00  0.00    -0.316 A  
HETATM   26  N   UNL     1     -11.613  11.277  70.343  1.00  0.00    -0.288 NA 
ENDBRANCH  15  17
ENDBRANCH  14  15
ENDBRANCH   7  14
TORSDOF 5
ENDMDL
MODEL      144
REMARK 921   NORMALIZED FREE ENERGY PREDICTED BY IDOCK:   -5.08 KCAL/MOL
REMARK 922        TOTAL FREE ENERGY PREDICTED BY IDOCK:   -7.39 KCAL/MOL
REMARK 923 INTER-LIGAND FREE ENERGY PREDICTED BY IDOCK:   -6.54 KCAL/MOL
REMARK 924 INTRA-LIGAND FREE ENERGY PREDICTED BY IDOCK:   -0.86 KCAL/MOL
REMARK 927      BINDING AFFINITY PREDICTED BY RF-SCORE:    0.00 PKD
ROOT
HETATM    1  C   UNL     1     -11.562  11.594  68.323  1.00  0.00    -0.378 C  
HETATM    2  C   UNL     1     -10.759  12.836  68.069  1.00  0.00    -0.246 A  
HETATM    3  C   UNL     1     -11.072  14.064  68.689  1.00  0.00    -0.264 A  
HETATM    4  C   UNL     1     -10.186  15.135  68.578  1.00  0.00    -0.231 A  
HETATM    5  N   UNL     1      -8.796  13.865  67.084  1.00  0.00    -0.219 NA 
HETATM    6  C   UNL     1      -9.067  14.985  67.791  1.00  0.00    -0.180 A  
HETATM    7  C   UNL     1      -9.647  12.810  67.207  1.00  0.00    -0.208 A  
ENDROOT
BRANCH   3   8
HETATM    8  O   UNL     1     -12.159  14.334  69.486  1.00  0.00    -0.313 OA 
BRANCH   8   9
HETATM    9  C   UNL     1     -12.009  15.404  70.434  1.00  0.00    -0.354 C  
HETATM   10  C   UNL     1     -12.608  15.088  71.803  1.00  0.00    -0.341 C  
HETATM   11  F   UNL     1     -13.708  15.844  72.036  1.00  0.00    -0.518 F  
HETATM   12  F   UNL     1     -11.720  15.374  72.786  1.00  0.00    -0.457 F  
HETATM   13  F   UNL     1     -12.964  13.794  71.947  1.00  0.00    -0.384 F  
ENDBRANCH   8   9
ENDBRANCH   3   8
BRANCH   7  14
HETATM   14  C   UNL     1      -9.304  11.628  66.316  1.00  0.00    -0.216 C  
BRANCH  14  15
HETATM   15  S   UNL     1      -7.852  10.734  66.900  1.00  0.00    -0.136 S  
HETATM   16  O   UNL     1      -6.965  11.577  67.771  1.00  0.00    -0.071 OA 
BRANCH  15  17
HETATM   17  C   UNL     1      -8.588   9.571  67.961  1.00  0.00    -0.120 A  
HETATM   18  N   UNL     1      -8.735   9.696  69.263  1.00  0.00    -0.147 NA 
HETATM   19  C   UNL     1      -9.578   8.669  69.628  1.00  0.00    -0.170 A  
HETATM   20  H   UNL     1      -8.317  10.400  69.871  1.00  0.00     0.000 HD 
HETATM   21  C   UNL     1     -10.129   8.361  70.882  1.00  0.00    -0.234 A  
HETATM   22  C   UNL     1     -11.056   7.314  70.972  1.00  0.00    -0.281 A  
HETATM   23  C   UNL     1     -11.416   6.578  69.841  1.00  0.00    -0.467 A  
HETATM   24  C   UNL     1     -10.845   6.840  68.589  1.00  0.00    -0.277 A  
HETATM   25  C   UNL     1      -9.927   7.894  68.526  1.00  0.00    -0.187 A  
HETATM   26  N   UNL     1      -9.201   8.435  67.497  1.00  0.00    -0.139 NA 
ENDBRANCH  15  17
ENDBRANCH  14  15
ENDBRANCH   7  14
TORSDOF 5
ENDMDL
MODEL      145
REMARK 921   NORMALIZED FREE ENERGY PREDICTED BY IDOCK:   -5.06 KCAL/MOL
REMARK 922        TOTAL FREE ENERGY PREDICTED BY IDOCK:   -7.37 KCAL/MOL
REMARK 923 INTER-LIGAND FREE ENERGY PREDICTED BY IDOCK:   -6.66 KCAL/MOL
REMARK 924 INTRA-LIGAND FREE ENERGY PREDICTED BY IDOCK:   -0.71 KCAL/MOL
REMARK 927      BINDING AFFINITY PREDICTED BY RF-SCORE:    0.00 PKD
ROOT
HETATM    1  C   UNL     1     -10.186  13.976  68.874  1.00  0.00    -0.159 C  
HETATM    2  C   UNL     1     -10.292  14.396  67.438  1.00  0.00    -0.252 A  
HETATM    3  C   UNL     1     -10.362  13.453  66.390  1.00  0.00    -0.288 A  
HETATM    4  C   UNL     1     -10.658  13.884  65.098  1.00  0.00    -0.391 A  
HETATM    5  N   UNL     1     -10.609  16.176  65.820  1.00  0.00    -0.346 NA 
HETATM    6  C   UNL     1     -10.788  15.234  64.867  1.00  0.00    -0.425 A  
HETATM    7  C   UNL     1     -10.341  15.758  67.088  1.00  0.00    -0.291 A  
ENDROOT
BRANCH   3   8
HETATM    8  O   UNL     1     -10.240  12.089  66.498  1.00  0.00    -0.202 OA 
BRANCH   8   9
HETATM    9  C   UNL     1     -11.376  11.382  67.023  1.00  0.00    -0.236 C  
HETATM   10  C   UNL     1     -11.027  10.457  68.188  1.00  0.00    -0.281 C  
HETATM   11  F   UNL     1     -11.147   9.157  67.826  1.00  0.00    -0.267 F  
HETATM   12  F   UNL     1     -11.881  10.657  69.222  1.00  0.00    -0.308 F  
HETATM   13  F   UNL     1      -9.775  10.637  68.659  1.00  0.00    -0.150 F  
ENDBRANCH   8   9
ENDBRANCH   3   8
BRANCH   7  14
HETATM   14  C   UNL     1     -10.077  16.887  68.071  1.00  0.00    -0.293 C  
BRANCH  14  15
HETATM   15  S   UNL     1     -10.396  18.507  67.350  1.00  0.00    -0.417 S  
HETATM   16  O   UNL     1     -10.634  19.566  68.388  1.00  0.00    -0.330 OA 
BRANCH  15  17
HETATM   17  C   UNL     1      -8.845  18.868  66.654  1.00  0.00    -0.316 A  
HETATM   18  N   UNL     1      -7.937  17.988  66.291  1.00  0.00    -0.396 NA 
HETATM   19  C   UNL     1      -7.006  18.710  65.575  1.00  0.00    -0.160 A  
HETATM   20  H   UNL     1      -7.924  16.989  66.494  1.00  0.00     0.000 HD 
HETATM   21  C   UNL     1      -5.859  18.271  64.894  1.00  0.00    -0.076 A  
HETATM   22  C   UNL     1      -5.126  19.199  64.142  1.00  0.00    -0.241 A  
HETATM   23  C   UNL     1      -5.516  20.538  64.080  1.00  0.00    -0.244 A  
HETATM   24  C   UNL     1      -6.632  21.005  64.788  1.00  0.00    -0.085 A  
HETATM   25  C   UNL     1      -7.349  20.057  65.527  1.00  0.00    -0.247 A  
HETATM   26  N   UNL     1      -8.472  20.142  66.307  1.00  0.00    -0.263 NA 
ENDBRANCH  15  17
ENDBRANCH  14  15
ENDBRANCH   7  14
TORSDOF 5
ENDMDL
MODEL      146
REMARK 921   NORMALIZED FREE ENERGY PREDICTED BY IDOCK:   -5.06 KCAL/MOL
REMARK 922        TOTAL FREE ENERGY PREDICTED BY IDOCK:   -7.36 KCAL/MOL
REMARK 923 INTER-LIGAND FREE ENERGY PREDICTED BY IDOCK:   -6.42 KCAL/MOL
REMARK 924 INTRA-LIGAND FREE ENERGY PREDICTED BY IDOCK:   -0.94 KCAL/MOL
REMARK 927      BINDING AFFINITY PREDICTED BY RF-SCORE:    0.00 PKD
ROOT
HETATM    1  C   UNL     1      -7.159   6.245  69.644  1.00  0.00    -0.073 C  
HETATM    2  C   UNL     1      -8.657   6.309  69.697  1.00  0.00    -0.133 A  
HETATM    3  C   UNL     1      -9.413   6.911  68.669  1.00  0.00    -0.134 A  
HETATM    4  C   UNL     1     -10.801   6.772  68.665  1.00  0.00    -0.277 A  
HETATM    5  N   UNL     1     -10.720   5.634  70.780  1.00  0.00    -0.264 NA 
HETATM    6  C   UNL     1     -11.400   6.119  69.718  1.00  0.00    -0.382 A  
HETATM    7  C   UNL     1      -9.364   5.749  70.778  1.00  0.00    -0.163 A  
ENDROOT
BRANCH   3   8
HETATM    8  O   UNL     1      -8.929   7.593  67.578  1.00  0.00    -0.126 OA 
BRANCH   8   9
HETATM    9  C   UNL     1      -9.904   8.081  66.642  1.00  0.00    -0.252 C  
HETATM   10  C   UNL     1      -9.980   9.605  66.587  1.00  0.00    -0.236 C  
HETATM   11  F   UNL     1     -11.147  10.050  67.110  1.00  0.00    -0.321 F  
HETATM   12  F   UNL     1      -9.937  10.035  65.302  1.00  0.00    -0.332 F  
HETATM   13  F   UNL     1      -8.975  10.216  67.249  1.00  0.00    -0.133 F  
ENDBRANCH   8   9
ENDBRANCH   3   8
BRANCH   7  14
HETATM   14  C   UNL     1      -8.695   5.248  72.048  1.00  0.00    -0.130 C  
BRANCH  14  15
HETATM   15  S   UNL     1      -8.348   6.584  73.205  1.00  0.00    -0.116 S  
HETATM   16  O   UNL     1      -7.029   7.253  72.939  1.00  0.00    -0.067 OA 
BRANCH  15  17
HETATM   17  C   UNL     1      -9.564   7.738  72.750  1.00  0.00    -0.221 A  
HETATM   18  N   UNL     1      -9.432   8.686  71.847  1.00  0.00    -0.278 NA 
HETATM   19  C   UNL     1     -10.706   9.173  71.651  1.00  0.00    -0.371 A  
HETATM   20  H   UNL     1      -8.573   8.993  71.390  1.00  0.00     0.000 HD 
HETATM   21  C   UNL     1     -11.167  10.147  70.750  1.00  0.00    -0.414 A  
HETATM   22  C   UNL     1     -12.545  10.391  70.669  1.00  0.00    -0.435 A  
HETATM   23  C   UNL     1     -13.443   9.694  71.479  1.00  0.00    -0.430 A  
HETATM   24  C   UNL     1     -13.000   8.751  72.416  1.00  0.00    -0.442 A  
HETATM   25  C   UNL     1     -11.621   8.522  72.472  1.00  0.00    -0.306 A  
HETATM   26  N   UNL     1     -10.848   7.683  73.231  1.00  0.00    -0.385 NA 
ENDBRANCH  15  17
ENDBRANCH  14  15
ENDBRANCH   7  14
TORSDOF 5
ENDMDL
MODEL      147
REMARK 921   NORMALIZED FREE ENERGY PREDICTED BY IDOCK:   -5.04 KCAL/MOL
REMARK 922        TOTAL FREE ENERGY PREDICTED BY IDOCK:   -7.34 KCAL/MOL
REMARK 923 INTER-LIGAND FREE ENERGY PREDICTED BY IDOCK:   -6.76 KCAL/MOL
REMARK 924 INTRA-LIGAND FREE ENERGY PREDICTED BY IDOCK:   -0.58 KCAL/MOL
REMARK 927      BINDING AFFINITY PREDICTED BY RF-SCORE:    0.00 PKD
ROOT
HETATM    1  C   UNL     1     -11.293   8.435  71.432  1.00  0.00    -0.317 C  
HETATM    2  C   UNL     1     -10.980   8.098  70.004  1.00  0.00    -0.199 A  
HETATM    3  C   UNL     1     -11.024   6.771  69.526  1.00  0.00    -0.279 A  
HETATM    4  C   UNL     1     -10.921   6.530  68.156  1.00  0.00    -0.365 A  
HETATM    5  N   UNL     1     -10.523   8.865  67.748  1.00  0.00    -0.246 NA 
HETATM    6  C   UNL     1     -10.692   7.596  67.316  1.00  0.00    -0.274 A  
HETATM    7  C   UNL     1     -10.645   9.108  69.082  1.00  0.00    -0.208 A  
ENDROOT
BRANCH   3   8
HETATM    8  O   UNL     1     -11.236   5.633  70.267  1.00  0.00    -0.243 OA 
BRANCH   8   9
HETATM    9  C   UNL     1     -10.104   5.115  70.985  1.00  0.00    -0.227 C  
HETATM   10  C   UNL     1      -9.520   3.848  70.363  1.00  0.00    -0.181 C  
HETATM   11  F   UNL     1      -9.750   2.771  71.153  1.00  0.00    -0.208 F  
HETATM   12  F   UNL     1      -8.175   3.960  70.234  1.00  0.00    -0.056 F  
HETATM   13  F   UNL     1     -10.020   3.572  69.140  1.00  0.00    -0.189 F  
ENDBRANCH   8   9
ENDBRANCH   3   8
BRANCH   7  14
HETATM   14  C   UNL     1     -10.361  10.546  69.481  1.00  0.00    -0.221 C  
BRANCH  14  15
HETATM   15  S   UNL     1     -11.867  11.529  69.601  1.00  0.00    -0.365 S  
HETATM   16  O   UNL     1     -12.095  12.074  70.982  1.00  0.00    -0.245 OA 
BRANCH  15  17
HETATM   17  C   UNL     1     -11.446  12.897  68.616  1.00  0.00    -0.308 A  
HETATM   18  N   UNL     1     -10.394  13.671  68.777  1.00  0.00    -0.346 NA 
HETATM   19  C   UNL     1     -10.341  14.443  67.637  1.00  0.00    -0.237 A  
HETATM   20  H   UNL     1      -9.756  13.695  69.572  1.00  0.00     0.000 HD 
HETATM   21  C   UNL     1      -9.387  15.395  67.239  1.00  0.00    -0.218 A  
HETATM   22  C   UNL     1      -9.502  15.972  65.967  1.00  0.00    -0.384 A  
HETATM   23  C   UNL     1     -10.551  15.624  65.115  1.00  0.00    -0.449 A  
HETATM   24  C   UNL     1     -11.538  14.711  65.510  1.00  0.00    -0.335 A  
HETATM   25  C   UNL     1     -11.397  14.144  66.781  1.00  0.00    -0.343 A  
HETATM   26  N   UNL     1     -12.138  13.226  67.478  1.00  0.00    -0.314 NA 
ENDBRANCH  15  17
ENDBRANCH  14  15
ENDBRANCH   7  14
TORSDOF 5
ENDMDL
MODEL      148
REMARK 921   NORMALIZED FREE ENERGY PREDICTED BY IDOCK:   -5.00 KCAL/MOL
REMARK 922        TOTAL FREE ENERGY PREDICTED BY IDOCK:   -7.29 KCAL/MOL
REMARK 923 INTER-LIGAND FREE ENERGY PREDICTED BY IDOCK:   -6.64 KCAL/MOL
REMARK 924 INTRA-LIGAND FREE ENERGY PREDICTED BY IDOCK:   -0.65 KCAL/MOL
REMARK 927      BINDING AFFINITY PREDICTED BY RF-SCORE:    0.00 PKD
ROOT
HETATM    1  C   UNL     1     -12.669   9.533  71.587  1.00  0.00    -0.478 C  
HETATM    2  C   UNL     1     -11.218   9.317  71.272  1.00  0.00    -0.425 A  
HETATM    3  C   UNL     1     -10.586   9.969  70.191  1.00  0.00    -0.296 A  
HETATM    4  C   UNL     1      -9.200   9.894  70.058  1.00  0.00    -0.224 A  
HETATM    5  N   UNL     1      -9.079   8.373  71.915  1.00  0.00    -0.199 NA 
HETATM    6  C   UNL     1      -8.497   9.108  70.942  1.00  0.00    -0.201 A  
HETATM    7  C   UNL     1     -10.428   8.461  72.062  1.00  0.00    -0.314 A  
ENDROOT
BRANCH   3   8
HETATM    8  O   UNL     1     -11.183  10.768  69.245  1.00  0.00    -0.230 OA 
BRANCH   8   9
HETATM    9  C   UNL     1     -11.103  10.318  67.882  1.00  0.00    -0.276 C  
HETATM   10  C   UNL     1     -10.753  11.432  66.897  1.00  0.00    -0.265 C  
HETATM   11  F   UNL     1     -11.810  11.725  66.103  1.00  0.00    -0.387 F  
HETATM   12  F   UNL     1      -9.745  11.040  66.080  1.00  0.00    -0.218 F  
HETATM   13  F   UNL     1     -10.362  12.576  67.498  1.00  0.00    -0.212 F  
ENDBRANCH   8   9
ENDBRANCH   3   8
BRANCH   7  14
HETATM   14  C   UNL     1     -11.000   7.540  73.127  1.00  0.00    -0.367 C  
BRANCH  14  15
HETATM   15  S   UNL     1     -10.487   5.829  72.893  1.00  0.00    -0.229 S  
HETATM   16  O   UNL     1     -11.574   4.847  73.229  1.00  0.00    -0.336 OA 
BRANCH  15  17
HETATM   17  C   UNL     1     -10.315   5.771  71.165  1.00  0.00    -0.227 A  
HETATM   18  N   UNL     1     -11.256   6.039  70.285  1.00  0.00    -0.350 NA 
HETATM   19  C   UNL     1     -10.603   6.108  69.074  1.00  0.00    -0.279 A  
HETATM   20  H   UNL     1     -12.252   6.167  70.460  1.00  0.00     0.000 HD 
HETATM   21  C   UNL     1     -11.101   6.432  67.800  1.00  0.00    -0.376 A  
HETATM   22  C   UNL     1     -10.200   6.540  66.732  1.00  0.00    -0.257 A  
HETATM   23  C   UNL     1      -8.835   6.316  66.922  1.00  0.00    -0.115 A  
HETATM   24  C   UNL     1      -8.324   5.948  68.173  1.00  0.00    -0.115 A  
HETATM   25  C   UNL     1      -9.243   5.853  69.224  1.00  0.00    -0.122 A  
HETATM   26  N   UNL     1      -9.109   5.544  70.552  1.00  0.00    -0.145 NA 
ENDBRANCH  15  17
ENDBRANCH  14  15
ENDBRANCH   7  14
TORSDOF 5
ENDMDL
MODEL      149
REMARK 921   NORMALIZED FREE ENERGY PREDICTED BY IDOCK:   -4.99 KCAL/MOL
REMARK 922        TOTAL FREE ENERGY PREDICTED BY IDOCK:   -7.28 KCAL/MOL
REMARK 923 INTER-LIGAND FREE ENERGY PREDICTED BY IDOCK:   -6.74 KCAL/MOL
REMARK 924 INTRA-LIGAND FREE ENERGY PREDICTED BY IDOCK:   -0.53 KCAL/MOL
REMARK 927      BINDING AFFINITY PREDICTED BY RF-SCORE:    0.00 PKD
ROOT
HETATM    1  C   UNL     1     -10.489   6.550  71.610  1.00  0.00    -0.241 C  
HETATM    2  C   UNL     1     -10.287   7.367  70.368  1.00  0.00    -0.215 A  
HETATM    3  C   UNL     1      -9.580   6.867  69.255  1.00  0.00    -0.149 A  
HETATM    4  C   UNL     1      -9.589   7.582  68.057  1.00  0.00    -0.156 A  
HETATM    5  N   UNL     1     -10.805   9.371  69.103  1.00  0.00    -0.196 NA 
HETATM    6  C   UNL     1     -10.221   8.804  68.025  1.00  0.00    -0.213 A  
HETATM    7  C   UNL     1     -10.818   8.667  70.267  1.00  0.00    -0.235 A  
ENDROOT
BRANCH   3   8
HETATM    8  O   UNL     1      -8.907   5.672  69.172  1.00  0.00    -0.110 OA 
BRANCH   8   9
HETATM    9  C   UNL     1      -9.705   4.479  69.260  1.00  0.00    -0.190 C  
HETATM   10  C   UNL     1      -9.236   3.516  70.350  1.00  0.00    -0.149 C  
HETATM   11  F   UNL     1      -8.703   2.395  69.808  1.00  0.00    -0.082 F  
HETATM   12  F   UNL     1     -10.283   3.123  71.116  1.00  0.00    -0.174 F  
HETATM   13  F   UNL     1      -8.311   4.051  71.175  1.00  0.00    -0.068 F  
ENDBRANCH   8   9
ENDBRANCH   3   8
BRANCH   7  14
HETATM   14  C   UNL     1     -11.425   9.418  71.442  1.00  0.00    -0.379 C  
BRANCH  14  15
HETATM   15  S   UNL     1     -13.165   9.804  71.176  1.00  0.00    -0.266 S  
HETATM   16  O   UNL     1     -14.038   9.354  72.312  1.00  0.00    -0.374 OA 
BRANCH  15  17
HETATM   17  C   UNL     1     -13.133  11.539  71.264  1.00  0.00    -0.184 A  
HETATM   18  N   UNL     1     -13.783  12.282  72.134  1.00  0.00    -0.368 NA 
HETATM   19  C   UNL     1     -13.263  13.549  71.981  1.00  0.00    -0.439 A  
HETATM   20  H   UNL     1     -14.513  11.985  72.781  1.00  0.00     0.000 HD 
HETATM   21  C   UNL     1     -13.537  14.725  72.699  1.00  0.00    -0.565 A  
HETATM   22  C   UNL     1     -12.786  15.875  72.418  1.00  0.00    -0.516 A  
HETATM   23  C   UNL     1     -11.795  15.861  71.435  1.00  0.00    -0.524 A  
HETATM   24  C   UNL     1     -11.537  14.711  70.678  1.00  0.00    -0.305 A  
HETATM   25  C   UNL     1     -12.296  13.575  70.981  1.00  0.00    -0.338 A  
HETATM   26  N   UNL     1     -12.307  12.301  70.476  1.00  0.00    -0.306 NA 
ENDBRANCH  15  17
ENDBRANCH  14  15
ENDBRANCH   7  14
TORSDOF 5
ENDMDL
MODEL      150
REMARK 921   NORMALIZED FREE ENERGY PREDICTED BY IDOCK:   -4.99 KCAL/MOL
REMARK 922        TOTAL FREE ENERGY PREDICTED BY IDOCK:   -7.27 KCAL/MOL
REMARK 923 INTER-LIGAND FREE ENERGY PREDICTED BY IDOCK:   -6.44 KCAL/MOL
REMARK 924 INTRA-LIGAND FREE ENERGY PREDICTED BY IDOCK:   -0.83 KCAL/MOL
REMARK 927      BINDING AFFINITY PREDICTED BY RF-SCORE:    0.00 PKD
ROOT
HETATM    1  C   UNL     1      -7.802  15.818  67.164  1.00  0.00    -0.247 C  
HETATM    2  C   UNL     1      -8.767  16.960  67.293  1.00  0.00    -0.207 A  
HETATM    3  C   UNL     1      -8.368  18.298  67.085  1.00  0.00    -0.245 A  
HETATM    4  C   UNL     1      -9.335  19.301  67.020  1.00  0.00    -0.373 A  
HETATM    5  N   UNL     1     -11.055  17.715  67.571  1.00  0.00    -0.066 NA 
HETATM    6  C   UNL     1     -10.649  18.963  67.249  1.00  0.00    -0.456 A  
HETATM    7  C   UNL     1     -10.118  16.730  67.613  1.00  0.00    -0.275 A  
ENDROOT
BRANCH   3   8
HETATM    8  O   UNL     1      -7.092  18.754  66.856  1.00  0.00    -0.202 OA 
BRANCH   8   9
HETATM    9  C   UNL     1      -6.666  19.887  67.632  1.00  0.00    -0.239 C  
HETATM   10  C   UNL     1      -6.359  19.542  69.088  1.00  0.00    -0.300 C  
HETATM   11  F   UNL     1      -7.282  20.084  69.918  1.00  0.00    -0.334 F  
HETATM   12  F   UNL     1      -5.157  20.052  69.452  1.00  0.00    -0.187 F  
HETATM   13  F   UNL     1      -6.322  18.214  69.328  1.00  0.00    -0.219 F  
ENDBRANCH   8   9
ENDBRANCH   3   8
BRANCH   7  14
HETATM   14  C   UNL     1     -10.654  15.379  68.061  1.00  0.00    -0.263 C  
BRANCH  14  15
HETATM   15  S   UNL     1     -11.318  14.422  66.686  1.00  0.00    -0.364 S  
HETATM   16  O   UNL     1     -10.670  14.765  65.375  1.00  0.00    -0.322 OA 
BRANCH  15  17
HETATM   17  C   UNL     1     -10.751  12.830  67.090  1.00  0.00    -0.245 A  
HETATM   18  N   UNL     1     -10.520  12.376  68.304  1.00  0.00    -0.219 NA 
HETATM   19  C   UNL     1     -10.337  11.020  68.149  1.00  0.00    -0.182 A  
HETATM   20  H   UNL     1     -10.485  12.912  69.171  1.00  0.00     0.000 HD 
HETATM   21  C   UNL     1     -10.126  10.024  69.118  1.00  0.00    -0.219 A  
HETATM   22  C   UNL     1     -10.076   8.685  68.708  1.00  0.00    -0.210 A  
HETATM   23  C   UNL     1     -10.218   8.343  67.362  1.00  0.00    -0.328 A  
HETATM   24  C   UNL     1     -10.384   9.323  66.374  1.00  0.00    -0.238 A  
HETATM   25  C   UNL     1     -10.436  10.651  66.811  1.00  0.00    -0.247 A  
HETATM   26  N   UNL     1     -10.601  11.841  66.151  1.00  0.00    -0.251 NA 
ENDBRANCH  15  17
ENDBRANCH  14  15
ENDBRANCH   7  14
TORSDOF 5
ENDMDL
MODEL      151
REMARK 921   NORMALIZED FREE ENERGY PREDICTED BY IDOCK:   -4.98 KCAL/MOL
REMARK 922        TOTAL FREE ENERGY PREDICTED BY IDOCK:   -7.27 KCAL/MOL
REMARK 923 INTER-LIGAND FREE ENERGY PREDICTED BY IDOCK:   -6.43 KCAL/MOL
REMARK 924 INTRA-LIGAND FREE ENERGY PREDICTED BY IDOCK:   -0.84 KCAL/MOL
REMARK 927      BINDING AFFINITY PREDICTED BY RF-SCORE:    0.00 PKD
ROOT
HETATM    1  C   UNL     1     -10.605   7.455  72.554  1.00  0.00    -0.304 C  
HETATM    2  C   UNL     1     -10.461   6.878  71.177  1.00  0.00    -0.234 A  
HETATM    3  C   UNL     1      -9.882   5.610  70.959  1.00  0.00    -0.178 A  
HETATM    4  C   UNL     1      -9.950   5.032  69.691  1.00  0.00    -0.311 A  
HETATM    5  N   UNL     1     -10.965   7.024  68.809  1.00  0.00    -0.148 NA 
HETATM    6  C   UNL     1     -10.509   5.760  68.666  1.00  0.00    -0.229 A  
HETATM    7  C   UNL     1     -10.920   7.583  70.049  1.00  0.00    -0.240 A  
ENDROOT
BRANCH   3   8
HETATM    8  O   UNL     1      -9.290   4.799  71.898  1.00  0.00    -0.134 OA 
BRANCH   8   9
HETATM    9  C   UNL     1      -9.988   3.587  72.230  1.00  0.00    -0.166 C  
HETATM   10  C   UNL     1     -10.582   3.597  73.638  1.00  0.00    -0.198 C  
HETATM   11  F   UNL     1      -9.928   2.728  74.445  1.00  0.00    -0.118 F  
HETATM   12  F   UNL     1     -11.879   3.204  73.606  1.00  0.00    -0.290 F  
HETATM   13  F   UNL     1     -10.544   4.811  74.226  1.00  0.00    -0.252 F  
ENDBRANCH   8   9
ENDBRANCH   3   8
BRANCH   7  14
HETATM   14  C   UNL     1     -11.380   9.031  70.095  1.00  0.00    -0.121 C  
BRANCH  14  15
HETATM   15  S   UNL     1     -10.083  10.173  69.584  1.00  0.00    -0.221 S  
HETATM   16  O   UNL     1      -8.790   9.477  69.268  1.00  0.00    -0.136 OA 
BRANCH  15  17
HETATM   17  C   UNL     1     -10.711  10.720  68.060  1.00  0.00    -0.228 A  
HETATM   18  N   UNL     1     -11.600  11.674  67.887  1.00  0.00    -0.457 NA 
HETATM   19  C   UNL     1     -11.597  11.925  66.532  1.00  0.00    -0.255 A  
HETATM   20  H   UNL     1     -12.169  12.130  68.600  1.00  0.00     0.000 HD 
HETATM   21  C   UNL     1     -12.301  12.892  65.794  1.00  0.00    -0.437 A  
HETATM   22  C   UNL     1     -12.039  13.016  64.423  1.00  0.00    -0.473 A  
HETATM   23  C   UNL     1     -11.109  12.187  63.795  1.00  0.00    -0.505 A  
HETATM   24  C   UNL     1     -10.428  11.187  64.503  1.00  0.00    -0.415 A  
HETATM   25  C   UNL     1     -10.703  11.088  65.871  1.00  0.00    -0.160 A  
HETATM   26  N   UNL     1     -10.228  10.265  66.858  1.00  0.00    -0.220 NA 
ENDBRANCH  15  17
ENDBRANCH  14  15
ENDBRANCH   7  14
TORSDOF 5
ENDMDL
MODEL      152
REMARK 921   NORMALIZED FREE ENERGY PREDICTED BY IDOCK:   -4.98 KCAL/MOL
REMARK 922        TOTAL FREE ENERGY PREDICTED BY IDOCK:   -7.27 KCAL/MOL
REMARK 923 INTER-LIGAND FREE ENERGY PREDICTED BY IDOCK:   -6.11 KCAL/MOL
REMARK 924 INTRA-LIGAND FREE ENERGY PREDICTED BY IDOCK:   -1.16 KCAL/MOL
REMARK 927      BINDING AFFINITY PREDICTED BY RF-SCORE:    0.00 PKD
ROOT
HETATM    1  C   UNL     1     -10.859   7.073  68.505  1.00  0.00    -0.187 C  
HETATM    2  C   UNL     1     -10.615   6.058  69.582  1.00  0.00    -0.367 A  
HETATM    3  C   UNL     1      -9.714   4.986  69.404  1.00  0.00    -0.184 A  
HETATM    4  C   UNL     1      -9.372   4.188  70.495  1.00  0.00    -0.211 A  
HETATM    5  N   UNL     1     -10.951   5.357  71.879  1.00  0.00    -0.195 NA 
HETATM    6  C   UNL     1      -9.995   4.419  71.700  1.00  0.00    -0.186 A  
HETATM    7  C   UNL     1     -11.271   6.152  70.823  1.00  0.00    -0.306 A  
ENDROOT
BRANCH   3   8
HETATM    8  O   UNL     1      -9.043   4.655  68.252  1.00  0.00    -0.110 OA 
BRANCH   8   9
HETATM    9  C   UNL     1      -9.751   3.831  67.310  1.00  0.00    -0.097 C  
HETATM   10  C   UNL     1      -9.963   4.506  65.956  1.00  0.00    -0.248 C  
HETATM   11  F   UNL     1     -11.271   4.802  65.762  1.00  0.00    -0.310 F  
HETATM   12  F   UNL     1      -9.596   3.673  64.950  1.00  0.00    -0.141 F  
HETATM   13  F   UNL     1      -9.259   5.648  65.810  1.00  0.00    -0.157 F  
ENDBRANCH   8   9
ENDBRANCH   3   8
BRANCH   7  14
HETATM   14  C   UNL     1     -12.410   7.121  71.097  1.00  0.00    -0.364 C  
BRANCH  14  15
HETATM   15  S   UNL     1     -11.886   8.518  72.108  1.00  0.00    -0.384 S  
HETATM   16  O   UNL     1     -10.666   8.213  72.930  1.00  0.00    -0.352 OA 
BRANCH  15  17
HETATM   17  C   UNL     1     -11.365   9.633  70.882  1.00  0.00    -0.360 A  
HETATM   18  N   UNL     1     -10.118   9.890  70.550  1.00  0.00    -0.371 NA 
HETATM   19  C   UNL     1     -10.202  10.625  69.388  1.00  0.00    -0.192 A  
HETATM   20  H   UNL     1      -9.272   9.606  71.045  1.00  0.00     0.000 HD 
HETATM   21  C   UNL     1      -9.179  11.111  68.555  1.00  0.00    -0.183 A  
HETATM   22  C   UNL     1      -9.531  11.747  67.358  1.00  0.00    -0.174 A  
HETATM   23  C   UNL     1     -10.871  11.911  67.001  1.00  0.00    -0.303 A  
HETATM   24  C   UNL     1     -11.907  11.473  67.838  1.00  0.00    -0.255 A  
HETATM   25  C   UNL     1     -11.528  10.837  69.025  1.00  0.00    -0.298 A  
HETATM   26  N   UNL     1     -12.245  10.278  70.050  1.00  0.00    -0.176 NA 
ENDBRANCH  15  17
ENDBRANCH  14  15
ENDBRANCH   7  14
TORSDOF 5
ENDMDL
MODEL      153
REMARK 921   NORMALIZED FREE ENERGY PREDICTED BY IDOCK:   -4.98 KCAL/MOL
REMARK 922        TOTAL FREE ENERGY PREDICTED BY IDOCK:   -7.27 KCAL/MOL
REMARK 923 INTER-LIGAND FREE ENERGY PREDICTED BY IDOCK:   -6.47 KCAL/MOL
REMARK 924 INTRA-LIGAND FREE ENERGY PREDICTED BY IDOCK:   -0.79 KCAL/MOL
REMARK 927      BINDING AFFINITY PREDICTED BY RF-SCORE:    0.00 PKD
ROOT
HETATM    1  C   UNL     1      -8.456  15.150  69.871  1.00  0.00     0.198 C  
HETATM    2  C   UNL     1      -9.113  15.289  68.529  1.00  0.00    -0.192 A  
HETATM    3  C   UNL     1     -10.387  15.877  68.382  1.00  0.00    -0.240 A  
HETATM    4  C   UNL     1     -10.868  16.164  67.104  1.00  0.00    -0.216 A  
HETATM    5  N   UNL     1      -8.947  15.110  66.116  1.00  0.00    -0.246 NA 
HETATM    6  C   UNL     1     -10.115  15.783  66.017  1.00  0.00    -0.337 A  
HETATM    7  C   UNL     1      -8.464  14.848  67.360  1.00  0.00    -0.195 A  
ENDROOT
BRANCH   3   8
HETATM    8  O   UNL     1     -11.228  16.289  69.387  1.00  0.00    -0.324 OA 
BRANCH   8   9
HETATM    9  C   UNL     1     -12.351  15.437  69.674  1.00  0.00    -0.217 C  
HETATM   10  C   UNL     1     -12.407  14.980  71.131  1.00  0.00    -0.327 C  
HETATM   11  F   UNL     1     -12.146  13.655  71.232  1.00  0.00    -0.401 F  
HETATM   12  F   UNL     1     -13.648  15.177  71.640  1.00  0.00    -0.379 F  
HETATM   13  F   UNL     1     -11.536  15.631  71.931  1.00  0.00    -0.403 F  
ENDBRANCH   8   9
ENDBRANCH   3   8
BRANCH   7  14
HETATM   14  C   UNL     1      -7.190  14.020  67.371  1.00  0.00    -0.095 C  
BRANCH  14  15
HETATM   15  S   UNL     1      -7.519  12.268  67.638  1.00  0.00    -0.146 S  
HETATM   16  O   UNL     1      -7.915  11.963  69.055  1.00  0.00    -0.015 OA 
BRANCH  15  17
HETATM   17  C   UNL     1      -8.957  12.056  66.688  1.00  0.00    -0.204 A  
HETATM   18  N   UNL     1     -10.173  12.422  67.033  1.00  0.00    -0.219 NA 
HETATM   19  C   UNL     1     -10.926  12.286  65.887  1.00  0.00    -0.302 A  
HETATM   20  H   UNL     1     -10.490  12.738  67.950  1.00  0.00     0.000 HD 
HETATM   21  C   UNL     1     -12.276  12.600  65.655  1.00  0.00    -0.474 A  
HETATM   22  C   UNL     1     -12.784  12.469  64.356  1.00  0.00    -0.447 A  
HETATM   23  C   UNL     1     -11.973  12.021  63.312  1.00  0.00    -0.477 A  
HETATM   24  C   UNL     1     -10.637  11.660  63.531  1.00  0.00    -0.496 A  
HETATM   25  C   UNL     1     -10.153  11.805  64.835  1.00  0.00    -0.259 A  
HETATM   26  N   UNL     1      -8.927  11.575  65.403  1.00  0.00    -0.059 NA 
ENDBRANCH  15  17
ENDBRANCH  14  15
ENDBRANCH   7  14
TORSDOF 5
ENDMDL
MODEL      154
REMARK 921   NORMALIZED FREE ENERGY PREDICTED BY IDOCK:   -4.98 KCAL/MOL
REMARK 922        TOTAL FREE ENERGY PREDICTED BY IDOCK:   -7.26 KCAL/MOL
REMARK 923 INTER-LIGAND FREE ENERGY PREDICTED BY IDOCK:   -6.31 KCAL/MOL
REMARK 924 INTRA-LIGAND FREE ENERGY PREDICTED BY IDOCK:   -0.95 KCAL/MOL
REMARK 927      BINDING AFFINITY PREDICTED BY RF-SCORE:    0.00 PKD
ROOT
HETATM    1  C   UNL     1     -10.698   6.445  67.859  1.00  0.00    -0.372 C  
HETATM    2  C   UNL     1      -9.377   7.155  67.875  1.00  0.00    -0.128 A  
HETATM    3  C   UNL     1      -8.299   6.703  68.667  1.00  0.00    -0.123 A  
HETATM    4  C   UNL     1      -7.037   7.273  68.499  1.00  0.00    -0.085 A  
HETATM    5  N   UNL     1      -7.933   8.863  66.936  1.00  0.00    -0.101 NA 
HETATM    6  C   UNL     1      -6.901   8.324  67.621  1.00  0.00    -0.070 A  
HETATM    7  C   UNL     1      -9.162   8.296  67.080  1.00  0.00    -0.152 A  
ENDROOT
BRANCH   3   8
HETATM    8  O   UNL     1      -8.318   5.675  69.578  1.00  0.00    -0.101 OA 
BRANCH   8   9
HETATM    9  C   UNL     1      -8.902   5.963  70.859  1.00  0.00    -0.138 C  
HETATM   10  C   UNL     1      -9.961   4.947  71.284  1.00  0.00    -0.201 C  
HETATM   11  F   UNL     1     -11.197   5.502  71.271  1.00  0.00    -0.299 F  
HETATM   12  F   UNL     1      -9.732   4.528  72.553  1.00  0.00    -0.157 F  
HETATM   13  F   UNL     1      -9.997   3.850  70.498  1.00  0.00    -0.256 F  
ENDBRANCH   8   9
ENDBRANCH   3   8
BRANCH   7  14
HETATM   14  C   UNL     1     -10.272   9.018  66.333  1.00  0.00    -0.227 C  
BRANCH  14  15
HETATM   15  S   UNL     1     -10.083  10.809  66.401  1.00  0.00    -0.233 S  
HETATM   16  O   UNL     1     -10.683  11.500  65.209  1.00  0.00    -0.280 OA 
BRANCH  15  17
HETATM   17  C   UNL     1     -11.117  11.198  67.742  1.00  0.00    -0.285 A  
HETATM   18  N   UNL     1     -11.633  10.339  68.595  1.00  0.00    -0.548 NA 
HETATM   19  C   UNL     1     -12.158  11.113  69.607  1.00  0.00    -0.336 A  
HETATM   20  H   UNL     1     -11.641   9.322  68.524  1.00  0.00     0.000 HD 
HETATM   21  C   UNL     1     -12.769  10.725  70.811  1.00  0.00    -0.451 A  
HETATM   22  C   UNL     1     -13.126  11.716  71.735  1.00  0.00    -0.487 A  
HETATM   23  C   UNL     1     -12.896  13.065  71.462  1.00  0.00    -0.386 A  
HETATM   24  C   UNL     1     -12.330  13.477  70.248  1.00  0.00    -0.370 A  
HETATM   25  C   UNL     1     -11.977  12.468  69.346  1.00  0.00    -0.256 A  
HETATM   26  N   UNL     1     -11.399  12.491  68.103  1.00  0.00    -0.272 NA 
ENDBRANCH  15  17
ENDBRANCH  14  15
ENDBRANCH   7  14
TORSDOF 5
ENDMDL
MODEL      155
REMARK 921   NORMALIZED FREE ENERGY PREDICTED BY IDOCK:   -4.92 KCAL/MOL
REMARK 922        TOTAL FREE ENERGY PREDICTED BY IDOCK:   -7.19 KCAL/MOL
REMARK 923 INTER-LIGAND FREE ENERGY PREDICTED BY IDOCK:   -6.32 KCAL/MOL
REMARK 924 INTRA-LIGAND FREE ENERGY PREDICTED BY IDOCK:   -0.87 KCAL/MOL
REMARK 927      BINDING AFFINITY PREDICTED BY RF-SCORE:    0.00 PKD
ROOT
HETATM    1  C   UNL     1      -9.123  13.006  66.551  1.00  0.00    -0.136 C  
HETATM    2  C   UNL     1      -9.237  11.540  66.258  1.00  0.00    -0.222 A  
HETATM    3  C   UNL     1      -9.521  11.059  64.962  1.00  0.00    -0.233 A  
HETATM    4  C   UNL     1      -9.421   9.693  64.698  1.00  0.00    -0.221 A  
HETATM    5  N   UNL     1      -8.971   9.251  67.018  1.00  0.00    -0.125 NA 
HETATM    6  C   UNL     1      -9.130   8.842  65.740  1.00  0.00    -0.212 A  
HETATM    7  C   UNL     1      -9.046  10.585  67.275  1.00  0.00    -0.143 A  
ENDROOT
BRANCH   3   8
HETATM    8  O   UNL     1      -9.831  11.809  63.853  1.00  0.00    -0.287 OA 
BRANCH   8   9
HETATM    9  C   UNL     1     -11.207  11.805  63.439  1.00  0.00    -0.352 C  
HETATM   10  C   UNL     1     -11.958  13.079  63.821  1.00  0.00    -0.518 C  
HETATM   11  F   UNL     1     -12.875  12.829  64.786  1.00  0.00    -0.512 F  
HETATM   12  F   UNL     1     -12.634  13.568  62.752  1.00  0.00    -0.364 F  
HETATM   13  F   UNL     1     -11.149  14.063  64.269  1.00  0.00    -0.369 F  
ENDBRANCH   8   9
ENDBRANCH   3   8
BRANCH   7  14
HETATM   14  C   UNL     1      -8.934  10.941  68.749  1.00  0.00    -0.164 C  
BRANCH  14  15
HETATM   15  S   UNL     1      -7.735   9.909  69.609  1.00  0.00    -0.166 S  
HETATM   16  O   UNL     1      -6.906  10.682  70.594  1.00  0.00    -0.303 OA 
BRANCH  15  17
HETATM   17  C   UNL     1      -8.787   8.907  70.561  1.00  0.00    -0.192 A  
HETATM   18  N   UNL     1      -9.985   9.235  70.995  1.00  0.00    -0.292 NA 
HETATM   19  C   UNL     1     -10.527   8.062  71.473  1.00  0.00    -0.217 A  
HETATM   20  H   UNL     1     -10.419  10.158  70.980  1.00  0.00     0.000 HD 
HETATM   21  C   UNL     1     -11.808   7.808  71.991  1.00  0.00    -0.351 A  
HETATM   22  C   UNL     1     -12.155   6.490  72.313  1.00  0.00    -0.236 A  
HETATM   23  C   UNL     1     -11.244   5.447  72.140  1.00  0.00    -0.197 A  
HETATM   24  C   UNL     1      -9.946   5.684  71.667  1.00  0.00    -0.222 A  
HETATM   25  C   UNL     1      -9.627   7.008  71.347  1.00  0.00    -0.162 A  
HETATM   26  N   UNL     1      -8.492   7.599  70.854  1.00  0.00    -0.123 NA 
ENDBRANCH  15  17
ENDBRANCH  14  15
ENDBRANCH   7  14
TORSDOF 5
ENDMDL
MODEL      156
REMARK 921   NORMALIZED FREE ENERGY PREDICTED BY IDOCK:   -4.90 KCAL/MOL
REMARK 922        TOTAL FREE ENERGY PREDICTED BY IDOCK:   -7.16 KCAL/MOL
REMARK 923 INTER-LIGAND FREE ENERGY PREDICTED BY IDOCK:   -6.51 KCAL/MOL
REMARK 924 INTRA-LIGAND FREE ENERGY PREDICTED BY IDOCK:   -0.65 KCAL/MOL
REMARK 927      BINDING AFFINITY PREDICTED BY RF-SCORE:    0.00 PKD
ROOT
HETATM    1  C   UNL     1     -10.783   9.567  68.278  1.00  0.00    -0.241 C  
HETATM    2  C   UNL     1     -11.349  10.369  69.413  1.00  0.00    -0.310 A  
HETATM    3  C   UNL     1     -11.387  11.779  69.381  1.00  0.00    -0.272 A  
HETATM    4  C   UNL     1     -12.098  12.470  70.362  1.00  0.00    -0.380 A  
HETATM    5  N   UNL     1     -12.556  10.413  71.517  1.00  0.00    -0.414 NA 
HETATM    6  C   UNL     1     -12.672  11.753  71.386  1.00  0.00    -0.308 A  
HETATM    7  C   UNL     1     -11.882   9.733  70.550  1.00  0.00    -0.240 A  
ENDROOT
BRANCH   3   8
HETATM    8  O   UNL     1     -10.844  12.599  68.420  1.00  0.00    -0.226 OA 
BRANCH   8   9
HETATM    9  C   UNL     1     -10.725  13.991  68.757  1.00  0.00    -0.259 C  
HETATM   10  C   UNL     1     -11.538  14.906  67.843  1.00  0.00    -0.344 C  
HETATM   11  F   UNL     1     -10.724  15.649  67.055  1.00  0.00    -0.298 F  
HETATM   12  F   UNL     1     -12.273  15.777  68.578  1.00  0.00    -0.310 F  
HETATM   13  F   UNL     1     -12.391  14.239  67.038  1.00  0.00    -0.442 F  
ENDBRANCH   8   9
ENDBRANCH   3   8
BRANCH   7  14
HETATM   14  C   UNL     1     -11.735   8.245  70.823  1.00  0.00    -0.202 C  
BRANCH  14  15
HETATM   15  S   UNL     1     -10.492   7.904  72.082  1.00  0.00    -0.271 S  
HETATM   16  O   UNL     1     -11.088   7.717  73.449  1.00  0.00    -0.337 OA 
BRANCH  15  17
HETATM   17  C   UNL     1      -9.945   6.331  71.586  1.00  0.00    -0.179 A  
HETATM   18  N   UNL     1     -10.020   5.226  72.297  1.00  0.00    -0.172 NA 
HETATM   19  C   UNL     1      -9.705   4.214  71.417  1.00  0.00    -0.181 A  
HETATM   20  H   UNL     1     -10.258   5.138  73.285  1.00  0.00     0.000 HD 
HETATM   21  C   UNL     1      -9.695   2.823  71.614  1.00  0.00    -0.226 A  
HETATM   22  C   UNL     1      -9.441   1.989  70.516  1.00  0.00    -0.171 A  
HETATM   23  C   UNL     1      -9.188   2.526  69.253  1.00  0.00    -0.196 A  
HETATM   24  C   UNL     1      -9.149   3.911  69.045  1.00  0.00    -0.198 A  
HETATM   25  C   UNL     1      -9.412   4.721  70.155  1.00  0.00    -0.175 A  
HETATM   26  N   UNL     1      -9.476   6.080  70.321  1.00  0.00    -0.161 NA 
ENDBRANCH  15  17
ENDBRANCH  14  15
ENDBRANCH   7  14
TORSDOF 5
ENDMDL
MODEL      157
REMARK 921   NORMALIZED FREE ENERGY PREDICTED BY IDOCK:   -4.90 KCAL/MOL
REMARK 922        TOTAL FREE ENERGY PREDICTED BY IDOCK:   -7.16 KCAL/MOL
REMARK 923 INTER-LIGAND FREE ENERGY PREDICTED BY IDOCK:   -6.47 KCAL/MOL
REMARK 924 INTRA-LIGAND FREE ENERGY PREDICTED BY IDOCK:   -0.69 KCAL/MOL
REMARK 927      BINDING AFFINITY PREDICTED BY RF-SCORE:    0.00 PKD
ROOT
HETATM    1  C   UNL     1     -10.527  12.427  68.181  1.00  0.00    -0.228 C  
HETATM    2  C   UNL     1      -9.036  12.546  68.069  1.00  0.00    -0.192 A  
HETATM    3  C   UNL     1      -8.404  13.784  67.825  1.00  0.00    -0.180 A  
HETATM    4  C   UNL     1      -7.017  13.880  67.927  1.00  0.00    -0.165 A  
HETATM    5  N   UNL     1      -6.854  11.511  68.299  1.00  0.00    -0.063 NA 
HETATM    6  C   UNL     1      -6.295  12.736  68.179  1.00  0.00    -0.088 A  
HETATM    7  C   UNL     1      -8.209  11.417  68.223  1.00  0.00    -0.150 A  
ENDROOT
BRANCH   3   8
HETATM    8  O   UNL     1      -9.016  14.985  67.555  1.00  0.00    -0.173 OA 
BRANCH   8   9
HETATM    9  C   UNL     1      -9.191  15.880  68.666  1.00  0.00    -0.209 C  
HETATM   10  C   UNL     1     -10.634  16.348  68.846  1.00  0.00    -0.307 C  
HETATM   11  F   UNL     1     -10.757  17.663  68.545  1.00  0.00    -0.341 F  
HETATM   12  F   UNL     1     -11.021  16.202  70.137  1.00  0.00    -0.285 F  
HETATM   13  F   UNL     1     -11.516  15.669  68.082  1.00  0.00    -0.323 F  
ENDBRANCH   8   9
ENDBRANCH   3   8
BRANCH   7  14
HETATM   14  C   UNL     1      -8.739   9.994  68.289  1.00  0.00    -0.119 C  
BRANCH  14  15
HETATM   15  S   UNL     1      -8.251   9.157  69.808  1.00  0.00    -0.143 S  
HETATM   16  O   UNL     1      -7.480  10.049  70.739  1.00  0.00    -0.298 OA 
BRANCH  15  17
HETATM   17  C   UNL     1      -9.799   8.914  70.560  1.00  0.00    -0.200 A  
HETATM   18  N   UNL     1     -10.658   9.856  70.883  1.00  0.00    -0.350 NA 
HETATM   19  C   UNL     1     -11.818   9.186  71.208  1.00  0.00    -0.327 A  
HETATM   20  H   UNL     1     -10.501  10.864  70.891  1.00  0.00     0.000 HD 
HETATM   21  C   UNL     1     -13.080   9.692  71.561  1.00  0.00    -0.488 A  
HETATM   22  C   UNL     1     -14.139   8.793  71.742  1.00  0.00    -0.468 A  
HETATM   23  C   UNL     1     -13.946   7.419  71.591  1.00  0.00    -0.523 A  
HETATM   24  C   UNL     1     -12.685   6.890  71.282  1.00  0.00    -0.368 A  
HETATM   25  C   UNL     1     -11.646   7.809  71.101  1.00  0.00    -0.281 A  
HETATM   26  N   UNL     1     -10.321   7.664  70.783  1.00  0.00    -0.202 NA 
ENDBRANCH  15  17
ENDBRANCH  14  15
ENDBRANCH   7  14
TORSDOF 5
ENDMDL
MODEL      158
REMARK 921   NORMALIZED FREE ENERGY PREDICTED BY IDOCK:   -4.89 KCAL/MOL
REMARK 922        TOTAL FREE ENERGY PREDICTED BY IDOCK:   -7.14 KCAL/MOL
REMARK 923 INTER-LIGAND FREE ENERGY PREDICTED BY IDOCK:   -6.17 KCAL/MOL
REMARK 924 INTRA-LIGAND FREE ENERGY PREDICTED BY IDOCK:   -0.97 KCAL/MOL
REMARK 927      BINDING AFFINITY PREDICTED BY RF-SCORE:    0.00 PKD
ROOT
HETATM    1  C   UNL     1     -11.665   6.416  70.271  1.00  0.00    -0.389 C  
HETATM    2  C   UNL     1     -10.558   5.879  69.413  1.00  0.00    -0.379 A  
HETATM    3  C   UNL     1      -9.846   4.712  69.761  1.00  0.00    -0.226 A  
HETATM    4  C   UNL     1      -8.967   4.142  68.840  1.00  0.00    -0.162 A  
HETATM    5  N   UNL     1      -9.329   5.971  67.324  1.00  0.00    -0.113 NA 
HETATM    6  C   UNL     1      -8.757   4.789  67.644  1.00  0.00    -0.103 A  
HETATM    7  C   UNL     1     -10.203   6.519  68.210  1.00  0.00    -0.172 A  
ENDROOT
BRANCH   3   8
HETATM    8  O   UNL     1      -9.964   3.988  70.924  1.00  0.00    -0.183 OA 
BRANCH   8   9
HETATM    9  C   UNL     1      -8.890   4.115  71.871  1.00  0.00    -0.114 C  
HETATM   10  C   UNL     1      -9.221   5.042  73.039  1.00  0.00    -0.123 C  
HETATM   11  F   UNL     1      -8.492   6.182  72.973  1.00  0.00    -0.118 F  
HETATM   12  F   UNL     1      -8.913   4.447  74.218  1.00  0.00    -0.103 F  
HETATM   13  F   UNL     1     -10.524   5.392  73.094  1.00  0.00    -0.191 F  
ENDBRANCH   8   9
ENDBRANCH   3   8
BRANCH   7  14
HETATM   14  C   UNL     1     -10.733   7.883  67.800  1.00  0.00    -0.119 C  
BRANCH  14  15
HETATM   15  S   UNL     1      -9.681   9.225  68.383  1.00  0.00    -0.157 S  
HETATM   16  O   UNL     1      -9.139  10.065  67.262  1.00  0.00    -0.137 OA 
BRANCH  15  17
HETATM   17  C   UNL     1     -10.844  10.222  69.202  1.00  0.00    -0.233 A  
HETATM   18  N   UNL     1     -11.665   9.831  70.153  1.00  0.00    -0.417 NA 
HETATM   19  C   UNL     1     -12.203  10.994  70.661  1.00  0.00    -0.385 A  
HETATM   20  H   UNL     1     -11.860   8.876  70.451  1.00  0.00     0.000 HD 
HETATM   21  C   UNL     1     -13.087  11.181  71.737  1.00  0.00    -0.536 A  
HETATM   22  C   UNL     1     -13.404  12.488  72.128  1.00  0.00    -0.540 A  
HETATM   23  C   UNL     1     -12.868  13.587  71.455  1.00  0.00    -0.440 A  
HETATM   24  C   UNL     1     -12.020  13.423  70.351  1.00  0.00    -0.358 A  
HETATM   25  C   UNL     1     -11.714  12.108  69.985  1.00  0.00    -0.252 A  
HETATM   26  N   UNL     1     -10.927  11.576  68.996  1.00  0.00    -0.224 NA 
ENDBRANCH  15  17
ENDBRANCH  14  15
ENDBRANCH   7  14
TORSDOF 5
ENDMDL
MODEL      159
REMARK 921   NORMALIZED FREE ENERGY PREDICTED BY IDOCK:   -4.87 KCAL/MOL
REMARK 922        TOTAL FREE ENERGY PREDICTED BY IDOCK:   -7.13 KCAL/MOL
REMARK 923 INTER-LIGAND FREE ENERGY PREDICTED BY IDOCK:   -6.06 KCAL/MOL
REMARK 924 INTRA-LIGAND FREE ENERGY PREDICTED BY IDOCK:   -1.06 KCAL/MOL
REMARK 927      BINDING AFFINITY PREDICTED BY RF-SCORE:    0.00 PKD
ROOT
HETATM    1  C   UNL     1      -9.696   4.179  69.799  1.00  0.00    -0.278 C  
HETATM    2  C   UNL     1     -10.472   5.251  70.506  1.00  0.00    -0.312 A  
HETATM    3  C   UNL     1     -10.686   5.218  71.900  1.00  0.00    -0.185 A  
HETATM    4  C   UNL     1     -11.237   6.329  72.537  1.00  0.00    -0.316 A  
HETATM    5  N   UNL     1     -11.560   7.417  70.419  1.00  0.00    -0.230 NA 
HETATM    6  C   UNL     1     -11.637   7.397  71.768  1.00  0.00    -0.272 A  
HETATM    7  C   UNL     1     -11.002   6.344  69.795  1.00  0.00    -0.356 A  
ENDROOT
BRANCH   3   8
HETATM    8  O   UNL     1     -10.339   4.208  72.766  1.00  0.00    -0.166 OA 
BRANCH   8   9
HETATM    9  C   UNL     1      -9.293   4.501  73.707  1.00  0.00    -0.117 C  
HETATM   10  C   UNL     1      -8.036   3.658  73.496  1.00  0.00    -0.079 C  
HETATM   11  F   UNL     1      -7.872   2.773  74.508  1.00  0.00    -0.051 F  
HETATM   12  F   UNL     1      -6.934   4.448  73.483  1.00  0.00    -0.056 F  
HETATM   13  F   UNL     1      -8.046   2.962  72.340  1.00  0.00    -0.055 F  
ENDBRANCH   8   9
ENDBRANCH   3   8
BRANCH   7  14
HETATM   14  C   UNL     1     -11.032   6.421  68.277  1.00  0.00    -0.312 C  
BRANCH  14  15
HETATM   15  S   UNL     1      -9.618   7.322  67.615  1.00  0.00    -0.140 S  
HETATM   16  O   UNL     1      -9.176   6.802  66.277  1.00  0.00    -0.163 OA 
BRANCH  15  17
HETATM   17  C   UNL     1     -10.333   8.875  67.307  1.00  0.00    -0.280 A  
HETATM   18  N   UNL     1     -11.042   9.583  68.160  1.00  0.00    -0.503 NA 
HETATM   19  C   UNL     1     -11.176  10.822  67.571  1.00  0.00    -0.274 A  
HETATM   20  H   UNL     1     -11.412   9.281  69.061  1.00  0.00     0.000 HD 
HETATM   21  C   UNL     1     -11.779  11.991  68.064  1.00  0.00    -0.398 A  
HETATM   22  C   UNL     1     -11.688  13.166  67.307  1.00  0.00    -0.425 A  
HETATM   23  C   UNL     1     -11.025  13.177  66.079  1.00  0.00    -0.295 A  
HETATM   24  C   UNL     1     -10.455  12.012  65.549  1.00  0.00    -0.307 A  
HETATM   25  C   UNL     1     -10.555  10.853  66.327  1.00  0.00    -0.214 A  
HETATM   26  N   UNL     1     -10.113   9.569  66.144  1.00  0.00    -0.281 NA 
ENDBRANCH  15  17
ENDBRANCH  14  15
ENDBRANCH   7  14
TORSDOF 5
ENDMDL
MODEL      160
REMARK 921   NORMALIZED FREE ENERGY PREDICTED BY IDOCK:   -4.87 KCAL/MOL
REMARK 922        TOTAL FREE ENERGY PREDICTED BY IDOCK:   -7.13 KCAL/MOL
REMARK 923 INTER-LIGAND FREE ENERGY PREDICTED BY IDOCK:   -5.67 KCAL/MOL
REMARK 924 INTRA-LIGAND FREE ENERGY PREDICTED BY IDOCK:   -1.46 KCAL/MOL
REMARK 927      BINDING AFFINITY PREDICTED BY RF-SCORE:    0.00 PKD
ROOT
HETATM    1  C   UNL     1     -11.158  10.650  69.742  1.00  0.00    -0.358 C  
HETATM    2  C   UNL     1     -10.198   9.762  70.477  1.00  0.00    -0.321 A  
HETATM    3  C   UNL     1      -8.840   9.664  70.104  1.00  0.00    -0.231 A  
HETATM    4  C   UNL     1      -7.948   8.985  70.932  1.00  0.00    -0.194 A  
HETATM    5  N   UNL     1      -9.750   8.322  72.377  1.00  0.00    -0.275 NA 
HETATM    6  C   UNL     1      -8.439   8.353  72.052  1.00  0.00    -0.183 A  
HETATM    7  C   UNL     1     -10.622   9.002  71.583  1.00  0.00    -0.364 A  
ENDROOT
BRANCH   3   8
HETATM    8  O   UNL     1      -8.241  10.241  69.010  1.00  0.00    -0.118 OA 
BRANCH   8   9
HETATM    9  C   UNL     1      -7.328   9.415  68.268  1.00  0.00    -0.078 C  
HETATM   10  C   UNL     1      -8.021   8.511  67.250  1.00  0.00    -0.102 C  
HETATM   11  F   UNL     1      -7.944   7.212  67.626  1.00  0.00    -0.106 F  
HETATM   12  F   UNL     1      -7.414   8.607  66.042  1.00  0.00    -0.080 F  
HETATM   13  F   UNL     1      -9.325   8.808  67.070  1.00  0.00    -0.153 F  
ENDBRANCH   8   9
ENDBRANCH   3   8
BRANCH   7  14
HETATM   14  C   UNL     1     -12.080   8.844  71.982  1.00  0.00    -0.371 C  
BRANCH  14  15
HETATM   15  S   UNL     1     -12.637   7.135  71.857  1.00  0.00    -0.253 S  
HETATM   16  O   UNL     1     -14.044   7.021  71.341  1.00  0.00    -0.317 OA 
BRANCH  15  17
HETATM   17  C   UNL     1     -11.617   6.549  70.579  1.00  0.00    -0.393 A  
HETATM   18  N   UNL     1     -10.730   5.582  70.679  1.00  0.00    -0.260 NA 
HETATM   19  C   UNL     1     -10.357   5.304  69.383  1.00  0.00    -0.243 A  
HETATM   20  H   UNL     1     -10.391   5.136  71.532  1.00  0.00     0.000 HD 
HETATM   21  C   UNL     1      -9.490   4.315  68.889  1.00  0.00    -0.236 A  
HETATM   22  C   UNL     1      -9.358   4.165  67.502  1.00  0.00    -0.204 A  
HETATM   23  C   UNL     1     -10.062   4.990  66.624  1.00  0.00    -0.276 A  
HETATM   24  C   UNL     1     -10.898   6.012  67.095  1.00  0.00    -0.414 A  
HETATM   25  C   UNL     1     -11.015   6.136  68.483  1.00  0.00    -0.320 A  
HETATM   26  N   UNL     1     -11.735   6.985  69.283  1.00  0.00     0.184 NA 
ENDBRANCH  15  17
ENDBRANCH  14  15
ENDBRANCH   7  14
TORSDOF 5
ENDMDL
MODEL      161
REMARK 921   NORMALIZED FREE ENERGY PREDICTED BY IDOCK:   -4.87 KCAL/MOL
REMARK 922        TOTAL FREE ENERGY PREDICTED BY IDOCK:   -7.12 KCAL/MOL
REMARK 923 INTER-LIGAND FREE ENERGY PREDICTED BY IDOCK:   -5.95 KCAL/MOL
REMARK 924 INTRA-LIGAND FREE ENERGY PREDICTED BY IDOCK:   -1.17 KCAL/MOL
REMARK 927      BINDING AFFINITY PREDICTED BY RF-SCORE:    0.00 PKD
ROOT
HETATM    1  C   UNL     1      -7.615   8.321  66.454  1.00  0.00    -0.091 C  
HETATM    2  C   UNL     1      -8.148   8.575  67.833  1.00  0.00    -0.115 A  
HETATM    3  C   UNL     1      -8.303   7.535  68.774  1.00  0.00    -0.129 A  
HETATM    4  C   UNL     1      -8.611   7.846  70.098  1.00  0.00    -0.134 A  
HETATM    5  N   UNL     1      -8.820  10.172  69.530  1.00  0.00    -0.193 NA 
HETATM    6  C   UNL     1      -8.840   9.162  70.428  1.00  0.00    -0.220 A  
HETATM    7  C   UNL     1      -8.498   9.875  68.242  1.00  0.00    -0.111 A  
ENDROOT
BRANCH   3   8
HETATM    8  O   UNL     1      -8.110   6.191  68.559  1.00  0.00    -0.106 OA 
BRANCH   8   9
HETATM    9  C   UNL     1      -9.283   5.361  68.599  1.00  0.00    -0.117 C  
HETATM   10  C   UNL     1      -9.729   4.876  67.220  1.00  0.00    -0.170 C  
HETATM   11  F   UNL     1     -10.894   5.463  66.855  1.00  0.00    -0.293 F  
HETATM   12  F   UNL     1      -9.951   3.539  67.237  1.00  0.00    -0.211 F  
HETATM   13  F   UNL     1      -8.825   5.122  66.248  1.00  0.00    -0.117 F  
ENDBRANCH   8   9
ENDBRANCH   3   8
BRANCH   7  14
HETATM   14  C   UNL     1      -8.579  11.059  67.292  1.00  0.00    -0.130 C  
BRANCH  14  15
HETATM   15  S   UNL     1     -10.194  11.190  66.504  1.00  0.00    -0.238 S  
HETATM   16  O   UNL     1     -10.613   9.917  65.827  1.00  0.00    -0.060 OA 
BRANCH  15  17
HETATM   17  C   UNL     1     -11.225  11.348  67.894  1.00  0.00    -0.288 A  
HETATM   18  N   UNL     1     -11.816  10.363  68.534  1.00  0.00    -0.735 NA 
HETATM   19  C   UNL     1     -12.307  10.931  69.690  1.00  0.00    -0.221 A  
HETATM   20  H   UNL     1     -11.894   9.389  68.241  1.00  0.00     0.000 HD 
HETATM   21  C   UNL     1     -12.968  10.333  70.776  1.00  0.00    -0.408 A  
HETATM   22  C   UNL     1     -13.274  11.119  71.894  1.00  0.00    -0.488 A  
HETATM   23  C   UNL     1     -12.946  12.476  71.926  1.00  0.00    -0.406 A  
HETATM   24  C   UNL     1     -12.328  13.102  70.836  1.00  0.00    -0.393 A  
HETATM   25  C   UNL     1     -12.027  12.293  69.735  1.00  0.00    -0.295 A  
HETATM   26  N   UNL     1     -11.424  12.547  68.530  1.00  0.00    -0.280 NA 
ENDBRANCH  15  17
ENDBRANCH  14  15
ENDBRANCH   7  14
TORSDOF 5
ENDMDL
MODEL      162
REMARK 921   NORMALIZED FREE ENERGY PREDICTED BY IDOCK:   -4.84 KCAL/MOL
REMARK 922        TOTAL FREE ENERGY PREDICTED BY IDOCK:   -7.08 KCAL/MOL
REMARK 923 INTER-LIGAND FREE ENERGY PREDICTED BY IDOCK:   -6.20 KCAL/MOL
REMARK 924 INTRA-LIGAND FREE ENERGY PREDICTED BY IDOCK:   -0.88 KCAL/MOL
REMARK 927      BINDING AFFINITY PREDICTED BY RF-SCORE:    0.00 PKD
ROOT
HETATM    1  C   UNL     1      -7.554   9.837  70.301  1.00  0.00    -0.184 C  
HETATM    2  C   UNL     1      -8.632   9.500  69.313  1.00  0.00    -0.149 A  
HETATM    3  C   UNL     1      -9.959   9.244  69.717  1.00  0.00    -0.199 A  
HETATM    4  C   UNL     1     -10.962   9.133  68.755  1.00  0.00    -0.011 A  
HETATM    5  N   UNL     1      -9.332   9.313  66.998  1.00  0.00    -0.140 NA 
HETATM    6  C   UNL     1     -10.608   9.190  67.426  1.00  0.00    -0.244 A  
HETATM    7  C   UNL     1      -8.354   9.444  67.934  1.00  0.00    -0.115 A  
ENDROOT
BRANCH   3   8
HETATM    8  O   UNL     1     -10.427   9.157  71.007  1.00  0.00    -0.246 OA 
BRANCH   8   9
HETATM    9  C   UNL     1     -11.685   8.485  71.189  1.00  0.00    -0.281 C  
HETATM   10  C   UNL     1     -12.800   9.409  71.675  1.00  0.00    -0.378 C  
HETATM   11  F   UNL     1     -13.147   9.117  72.952  1.00  0.00    -0.464 F  
HETATM   12  F   UNL     1     -13.913   9.246  70.919  1.00  0.00    -0.346 F  
HETATM   13  F   UNL     1     -12.470  10.717  71.630  1.00  0.00    -0.445 F  
ENDBRANCH   8   9
ENDBRANCH   3   8
BRANCH   7  14
HETATM   14  C   UNL     1      -6.947   9.495  67.360  1.00  0.00    -0.084 C  
BRANCH  14  15
HETATM   15  S   UNL     1      -6.340  11.184  67.196  1.00  0.00    -0.095 S  
HETATM   16  O   UNL     1      -5.603  11.412  65.907  1.00  0.00    -0.213 OA 
BRANCH  15  17
HETATM   17  C   UNL     1      -7.835  12.056  67.045  1.00  0.00    -0.138 A  
HETATM   18  N   UNL     1      -8.579  12.135  65.962  1.00  0.00    -0.382 NA 
HETATM   19  C   UNL     1      -9.762  12.704  66.382  1.00  0.00    -0.258 A  
HETATM   20  H   UNL     1      -8.335  11.839  65.018  1.00  0.00     0.000 HD 
HETATM   21  C   UNL     1     -10.941  12.961  65.663  1.00  0.00    -0.297 A  
HETATM   22  C   UNL     1     -12.056  13.455  66.353  1.00  0.00    -0.464 A  
HETATM   23  C   UNL     1     -11.997  13.703  67.725  1.00  0.00    -0.387 A  
HETATM   24  C   UNL     1     -10.818  13.496  68.453  1.00  0.00    -0.286 A  
HETATM   25  C   UNL     1      -9.721  12.997  67.742  1.00  0.00    -0.218 A  
HETATM   26  N   UNL     1      -8.444  12.664  68.114  1.00  0.00    -0.172 NA 
ENDBRANCH  15  17
ENDBRANCH  14  15
ENDBRANCH   7  14
TORSDOF 5
ENDMDL
MODEL      163
REMARK 921   NORMALIZED FREE ENERGY PREDICTED BY IDOCK:   -4.84 KCAL/MOL
REMARK 922        TOTAL FREE ENERGY PREDICTED BY IDOCK:   -7.08 KCAL/MOL
REMARK 923 INTER-LIGAND FREE ENERGY PREDICTED BY IDOCK:   -5.91 KCAL/MOL
REMARK 924 INTRA-LIGAND FREE ENERGY PREDICTED BY IDOCK:   -1.17 KCAL/MOL
REMARK 927      BINDING AFFINITY PREDICTED BY RF-SCORE:    0.00 PKD
ROOT
HETATM    1  C   UNL     1     -11.859  13.111  67.816  1.00  0.00    -0.392 C  
HETATM    2  C   UNL     1     -11.365  14.247  66.970  1.00  0.00    -0.354 A  
HETATM    3  C   UNL     1     -11.888  14.499  65.683  1.00  0.00    -0.326 A  
HETATM    4  C   UNL     1     -11.543  15.676  65.020  1.00  0.00    -0.079 A  
HETATM    5  N   UNL     1     -10.016  16.254  66.782  1.00  0.00    -0.252 NA 
HETATM    6  C   UNL     1     -10.629  16.520  65.608  1.00  0.00    -0.304 A  
HETATM    7  C   UNL     1     -10.366  15.118  67.444  1.00  0.00    -0.244 A  
ENDROOT
BRANCH   3   8
HETATM    8  O   UNL     1     -12.795  13.729  64.995  1.00  0.00    -0.693 OA 
BRANCH   8   9
HETATM    9  C   UNL     1     -12.397  13.284  63.687  1.00  0.00    -0.382 C  
HETATM   10  C   UNL     1     -11.428  12.104  63.718  1.00  0.00    -0.465 C  
HETATM   11  F   UNL     1     -10.194  12.480  63.304  1.00  0.00    -0.391 F  
HETATM   12  F   UNL     1     -11.845  11.128  62.874  1.00  0.00    -0.113 F  
HETATM   13  F   UNL     1     -11.298  11.549  64.941  1.00  0.00    -0.351 F  
ENDBRANCH   8   9
ENDBRANCH   3   8
BRANCH   7  14
HETATM   14  C   UNL     1      -9.567  14.865  68.712  1.00  0.00    -0.214 C  
BRANCH  14  15
HETATM   15  S   UNL     1      -7.803  14.702  68.384  1.00  0.00    -0.140 S  
HETATM   16  O   UNL     1      -6.971  14.787  69.632  1.00  0.00    -0.163 OA 
BRANCH  15  17
HETATM   17  C   UNL     1      -7.716  13.044  67.871  1.00  0.00    -0.145 A  
HETATM   18  N   UNL     1      -7.508  12.625  66.641  1.00  0.00    -0.247 NA 
HETATM   19  C   UNL     1      -7.271  11.272  66.760  1.00  0.00    -0.142 A  
HETATM   20  H   UNL     1      -7.518  13.180  65.785  1.00  0.00     0.000 HD 
HETATM   21  C   UNL     1      -6.923  10.331  65.777  1.00  0.00    -0.128 A  
HETATM   22  C   UNL     1      -6.628   9.020  66.175  1.00  0.00    -0.066 A  
HETATM   23  C   UNL     1      -6.691   8.649  67.519  1.00  0.00    -0.066 A  
HETATM   24  C   UNL     1      -7.079   9.561  68.510  1.00  0.00    -0.070 A  
HETATM   25  C   UNL     1      -7.363  10.864  68.087  1.00  0.00    -0.089 A  
HETATM   26  N   UNL     1      -7.746  11.997  68.757  1.00  0.00    -0.095 NA 
ENDBRANCH  15  17
ENDBRANCH  14  15
ENDBRANCH   7  14
TORSDOF 5
ENDMDL
MODEL      164
REMARK 921   NORMALIZED FREE ENERGY PREDICTED BY IDOCK:   -4.81 KCAL/MOL
REMARK 922        TOTAL FREE ENERGY PREDICTED BY IDOCK:   -7.04 KCAL/MOL
REMARK 923 INTER-LIGAND FREE ENERGY PREDICTED BY IDOCK:   -6.37 KCAL/MOL
REMARK 924 INTRA-LIGAND FREE ENERGY PREDICTED BY IDOCK:   -0.68 KCAL/MOL
REMARK 927      BINDING AFFINITY PREDICTED BY RF-SCORE:    0.00 PKD
ROOT
HETATM    1  C   UNL     1      -9.026  14.269  67.497  1.00  0.00    -0.197 C  
HETATM    2  C   UNL     1     -10.140  14.385  68.495  1.00  0.00    -0.244 A  
HETATM    3  C   UNL     1     -10.555  15.634  69.004  1.00  0.00    -0.234 A  
HETATM    4  C   UNL     1     -11.716  15.712  69.772  1.00  0.00    -0.368 A  
HETATM    5  N   UNL     1     -11.946  13.320  69.715  1.00  0.00    -0.327 NA 
HETATM    6  C   UNL     1     -12.379  14.547  70.082  1.00  0.00    -0.342 A  
HETATM    7  C   UNL     1     -10.826  13.242  68.947  1.00  0.00    -0.210 A  
ENDROOT
BRANCH   3   8
HETATM    8  O   UNL     1      -9.971  16.856  68.772  1.00  0.00    -0.248 OA 
BRANCH   8   9
HETATM    9  C   UNL     1     -10.733  17.794  67.992  1.00  0.00    -0.308 C  
HETATM   10  C   UNL     1      -9.973  19.083  67.685  1.00  0.00    -0.351 C  
HETATM   11  F   UNL     1     -10.507  20.131  68.357  1.00  0.00    -0.536 F  
HETATM   12  F   UNL     1     -10.059  19.379  66.364  1.00  0.00    -0.373 F  
HETATM   13  F   UNL     1      -8.662  19.021  67.998  1.00  0.00    -0.297 F  
ENDBRANCH   8   9
ENDBRANCH   3   8
BRANCH   7  14
HETATM   14  C   UNL     1     -10.372  11.822  68.651  1.00  0.00    -0.214 C  
BRANCH  14  15
HETATM   15  S   UNL     1     -11.344  11.057  67.341  1.00  0.00    -0.136 S  
HETATM   16  O   UNL     1     -11.941  12.064  66.399  1.00  0.00    -0.611 OA 
BRANCH  15  17
HETATM   17  C   UNL     1     -10.099  10.246  66.439  1.00  0.00    -0.234 A  
HETATM   18  N   UNL     1      -9.877   8.950  66.421  1.00  0.00    -0.265 NA 
HETATM   19  C   UNL     1      -8.978   8.756  65.395  1.00  0.00    -0.160 A  
HETATM   20  H   UNL     1     -10.282   8.241  67.032  1.00  0.00     0.000 HD 
HETATM   21  C   UNL     1      -8.443   7.562  64.881  1.00  0.00     0.029 A  
HETATM   22  C   UNL     1      -7.621   7.625  63.749  1.00  0.00    -0.118 A  
HETATM   23  C   UNL     1      -7.323   8.849  63.148  1.00  0.00    -0.098 A  
HETATM   24  C   UNL     1      -7.809  10.055  63.670  1.00  0.00    -0.151 A  
HETATM   25  C   UNL     1      -8.633   9.964  64.797  1.00  0.00    -0.178 A  
HETATM   26  N   UNL     1      -9.287  10.904  65.550  1.00  0.00    -0.198 NA 
ENDBRANCH  15  17
ENDBRANCH  14  15
ENDBRANCH   7  14
TORSDOF 5
ENDMDL
MODEL      165
REMARK 921   NORMALIZED FREE ENERGY PREDICTED BY IDOCK:   -4.80 KCAL/MOL
REMARK 922        TOTAL FREE ENERGY PREDICTED BY IDOCK:   -7.03 KCAL/MOL
REMARK 923 INTER-LIGAND FREE ENERGY PREDICTED BY IDOCK:   -6.53 KCAL/MOL
REMARK 924 INTRA-LIGAND FREE ENERGY PREDICTED BY IDOCK:   -0.50 KCAL/MOL
REMARK 927      BINDING AFFINITY PREDICTED BY RF-SCORE:    0.00 PKD
ROOT
HETATM    1  C   UNL     1      -9.121  13.908  67.795  1.00  0.00    -0.191 C  
HETATM    2  C   UNL     1      -9.913  13.595  66.560  1.00  0.00    -0.288 A  
HETATM    3  C   UNL     1     -10.696  14.574  65.911  1.00  0.00    -0.305 A  
HETATM    4  C   UNL     1     -11.251  14.292  64.663  1.00  0.00    -0.370 A  
HETATM    5  N   UNL     1     -10.449  12.030  64.786  1.00  0.00    -0.281 NA 
HETATM    6  C   UNL     1     -11.088  13.030  64.140  1.00  0.00    -0.401 A  
HETATM    7  C   UNL     1      -9.886  12.307  65.993  1.00  0.00    -0.248 A  
ENDROOT
BRANCH   3   8
HETATM    8  O   UNL     1     -10.936  15.857  66.339  1.00  0.00    -0.247 OA 
BRANCH   8   9
HETATM    9  C   UNL     1     -10.005  16.863  65.905  1.00  0.00    -0.252 C  
HETATM   10  C   UNL     1     -10.327  18.257  66.441  1.00  0.00    -0.400 C  
HETATM   11  F   UNL     1     -10.746  19.074  65.445  1.00  0.00    -0.506 F  
HETATM   12  F   UNL     1      -9.218  18.826  66.975  1.00  0.00    -0.274 F  
HETATM   13  F   UNL     1     -11.279  18.256  67.398  1.00  0.00    -0.336 F  
ENDBRANCH   8   9
ENDBRANCH   3   8
BRANCH   7  14
HETATM   14  C   UNL     1      -9.259  11.103  66.678  1.00  0.00    -0.175 C  
BRANCH  14  15
HETATM   15  S   UNL     1     -10.318  10.427  67.969  1.00  0.00    -0.193 S  
HETATM   16  O   UNL     1     -11.778  10.502  67.620  1.00  0.00    -0.401 OA 
BRANCH  15  17
HETATM   17  C   UNL     1      -9.899   8.743  67.890  1.00  0.00    -0.169 A  
HETATM   18  N   UNL     1      -9.414   8.019  68.875  1.00  0.00    -0.151 NA 
HETATM   19  C   UNL     1      -9.477   6.717  68.428  1.00  0.00    -0.126 A  
HETATM   20  H   UNL     1      -9.066   8.349  69.776  1.00  0.00     0.000 HD 
HETATM   21  C   UNL     1      -9.157   5.521  69.092  1.00  0.00    -0.127 A  
HETATM   22  C   UNL     1      -9.415   4.304  68.448  1.00  0.00    -0.215 A  
HETATM   23  C   UNL     1      -9.965   4.275  67.166  1.00  0.00    -0.152 A  
HETATM   24  C   UNL     1     -10.251   5.456  66.468  1.00  0.00    -0.287 A  
HETATM   25  C   UNL     1      -9.990   6.658  67.135  1.00  0.00    -0.160 A  
HETATM   26  N   UNL     1     -10.155   7.972  66.784  1.00  0.00    -0.277 NA 
ENDBRANCH  15  17
ENDBRANCH  14  15
ENDBRANCH   7  14
TORSDOF 5
ENDMDL
MODEL      166
REMARK 921   NORMALIZED FREE ENERGY PREDICTED BY IDOCK:   -4.76 KCAL/MOL
REMARK 922        TOTAL FREE ENERGY PREDICTED BY IDOCK:   -6.98 KCAL/MOL
REMARK 923 INTER-LIGAND FREE ENERGY PREDICTED BY IDOCK:   -6.52 KCAL/MOL
REMARK 924 INTRA-LIGAND FREE ENERGY PREDICTED BY IDOCK:   -0.46 KCAL/MOL
REMARK 927      BINDING AFFINITY PREDICTED BY RF-SCORE:    0.00 PKD
ROOT
HETATM    1  C   UNL     1     -10.426  14.362  68.853  1.00  0.00    -0.246 C  
HETATM    2  C   UNL     1      -9.144  15.135  68.767  1.00  0.00    -0.200 A  
HETATM    3  C   UNL     1      -9.129  16.543  68.674  1.00  0.00    -0.239 A  
HETATM    4  C   UNL     1      -7.920  17.228  68.797  1.00  0.00    -0.250 A  
HETATM    5  N   UNL     1      -6.721  15.147  68.892  1.00  0.00    -0.105 NA 
HETATM    6  C   UNL     1      -6.761  16.497  68.920  1.00  0.00    -0.179 A  
HETATM    7  C   UNL     1      -7.901  14.476  68.795  1.00  0.00    -0.145 A  
ENDROOT
BRANCH   3   8
HETATM    8  O   UNL     1     -10.216  17.374  68.541  1.00  0.00    -0.324 OA 
BRANCH   8   9
HETATM    9  C   UNL     1      -9.954  18.703  68.060  1.00  0.00    -0.351 C  
HETATM   10  C   UNL     1     -10.082  18.833  66.543  1.00  0.00    -0.397 C  
HETATM   11  F   UNL     1      -8.872  19.038  65.971  1.00  0.00    -0.310 F  
HETATM   12  F   UNL     1     -10.853  19.902  66.224  1.00  0.00    -0.548 F  
HETATM   13  F   UNL     1     -10.634  17.750  65.957  1.00  0.00    -0.365 F  
ENDBRANCH   8   9
ENDBRANCH   3   8
BRANCH   7  14
HETATM   14  C   UNL     1      -7.751  12.966  68.690  1.00  0.00    -0.067 C  
BRANCH  14  15
HETATM   15  S   UNL     1      -7.271  12.443  67.034  1.00  0.00     0.078 S  
HETATM   16  O   UNL     1      -6.844  11.004  66.982  1.00  0.00    -0.093 OA 
BRANCH  15  17
HETATM   17  C   UNL     1      -8.800  12.512  66.212  1.00  0.00     0.067 A  
HETATM   18  N   UNL     1      -9.516  13.595  66.000  1.00  0.00    -0.488 NA 
HETATM   19  C   UNL     1     -10.495  13.208  65.111  1.00  0.00    -0.324 A  
HETATM   20  H   UNL     1      -9.377  14.521  66.405  1.00  0.00     0.000 HD 
HETATM   21  C   UNL     1     -11.495  13.972  64.486  1.00  0.00    -0.380 A  
HETATM   22  C   UNL     1     -12.311  13.357  63.527  1.00  0.00    -0.398 A  
HETATM   23  C   UNL     1     -12.148  12.009  63.206  1.00  0.00    -0.509 A  
HETATM   24  C   UNL     1     -11.186  11.218  63.850  1.00  0.00    -0.237 A  
HETATM   25  C   UNL     1     -10.381  11.857  64.799  1.00  0.00    -0.281 A  
HETATM   26  N   UNL     1      -9.353  11.420  65.593  1.00  0.00    -0.227 NA 
ENDBRANCH  15  17
ENDBRANCH  14  15
ENDBRANCH   7  14
TORSDOF 5
ENDMDL
MODEL      167
REMARK 921   NORMALIZED FREE ENERGY PREDICTED BY IDOCK:   -4.74 KCAL/MOL
REMARK 922        TOTAL FREE ENERGY PREDICTED BY IDOCK:   -6.96 KCAL/MOL
REMARK 923 INTER-LIGAND FREE ENERGY PREDICTED BY IDOCK:   -6.47 KCAL/MOL
REMARK 924 INTRA-LIGAND FREE ENERGY PREDICTED BY IDOCK:   -0.49 KCAL/MOL
REMARK 927      BINDING AFFINITY PREDICTED BY RF-SCORE:    0.00 PKD
ROOT
HETATM    1  C   UNL     1      -8.693  14.273  67.326  1.00  0.00    -0.230 C  
HETATM    2  C   UNL     1      -9.843  14.403  66.371  1.00  0.00    -0.309 A  
HETATM    3  C   UNL     1     -10.238  15.653  65.848  1.00  0.00    -0.351 A  
HETATM    4  C   UNL     1     -11.177  15.701  64.819  1.00  0.00    -0.391 A  
HETATM    5  N   UNL     1     -11.494  13.323  64.960  1.00  0.00    -0.299 NA 
HETATM    6  C   UNL     1     -11.757  14.525  64.401  1.00  0.00    -0.367 A  
HETATM    7  C   UNL     1     -10.562  13.269  65.950  1.00  0.00    -0.281 A  
ENDROOT
BRANCH   3   8
HETATM    8  O   UNL     1      -9.740  16.887  66.192  1.00  0.00    -0.300 OA 
BRANCH   8   9
HETATM    9  C   UNL     1     -10.687  17.966  66.259  1.00  0.00    -0.116 C  
HETATM   10  C   UNL     1     -10.057  19.339  66.037  1.00  0.00    -0.387 C  
HETATM   11  F   UNL     1     -10.063  20.065  67.181  1.00  0.00    -0.468 F  
HETATM   12  F   UNL     1     -10.767  20.044  65.122  1.00  0.00    -0.508 F  
HETATM   13  F   UNL     1      -8.782  19.279  65.597  1.00  0.00    -0.154 F  
ENDBRANCH   8   9
ENDBRANCH   3   8
BRANCH   7  14
HETATM   14  C   UNL     1     -10.392  11.891  66.570  1.00  0.00    -0.216 C  
BRANCH  14  15
HETATM   15  S   UNL     1     -11.091  11.801  68.228  1.00  0.00    -0.263 S  
HETATM   16  O   UNL     1     -12.534  11.383  68.227  1.00  0.00    -0.314 OA 
BRANCH  15  17
HETATM   17  C   UNL     1     -10.209  10.455  68.883  1.00  0.00    -0.205 A  
HETATM   18  N   UNL     1      -9.197   9.840  68.310  1.00  0.00    -0.129 NA 
HETATM   19  C   UNL     1      -8.672   9.025  69.289  1.00  0.00    -0.138 A  
HETATM   20  H   UNL     1      -8.871   9.944  67.349  1.00  0.00     0.000 HD 
HETATM   21  C   UNL     1      -7.541   8.194  69.255  1.00  0.00    -0.095 A  
HETATM   22  C   UNL     1      -7.149   7.541  70.432  1.00  0.00    -0.059 A  
HETATM   23  C   UNL     1      -7.875   7.699  71.613  1.00  0.00    -0.089 A  
HETATM   24  C   UNL     1      -9.033   8.489  71.658  1.00  0.00    -0.285 A  
HETATM   25  C   UNL     1      -9.398   9.133  70.471  1.00  0.00    -0.240 A  
HETATM   26  N   UNL     1     -10.430   9.976  70.150  1.00  0.00    -0.279 NA 
ENDBRANCH  15  17
ENDBRANCH  14  15
ENDBRANCH   7  14
TORSDOF 5
ENDMDL
MODEL      168
REMARK 921   NORMALIZED FREE ENERGY PREDICTED BY IDOCK:   -4.74 KCAL/MOL
REMARK 922        TOTAL FREE ENERGY PREDICTED BY IDOCK:   -6.95 KCAL/MOL
REMARK 923 INTER-LIGAND FREE ENERGY PREDICTED BY IDOCK:   -6.17 KCAL/MOL
REMARK 924 INTRA-LIGAND FREE ENERGY PREDICTED BY IDOCK:   -0.78 KCAL/MOL
REMARK 927      BINDING AFFINITY PREDICTED BY RF-SCORE:    0.00 PKD
ROOT
HETATM    1  C   UNL     1     -11.384   8.432  70.740  1.00  0.00    -0.290 C  
HETATM    2  C   UNL     1     -10.807   7.064  70.954  1.00  0.00    -0.268 A  
HETATM    3  C   UNL     1     -10.305   6.656  72.208  1.00  0.00    -0.197 A  
HETATM    4  C   UNL     1      -9.964   5.319  72.410  1.00  0.00    -0.219 A  
HETATM    5  N   UNL     1     -10.408   4.829  70.099  1.00  0.00    -0.197 NA 
HETATM    6  C   UNL     1     -10.047   4.451  71.345  1.00  0.00    -0.140 A  
HETATM    7  C   UNL     1     -10.763   6.128  69.903  1.00  0.00    -0.301 A  
ENDROOT
BRANCH   3   8
HETATM    8  O   UNL     1     -10.168   7.431  73.335  1.00  0.00    -0.293 OA 
BRANCH   8   9
HETATM    9  C   UNL     1      -8.910   7.342  74.025  1.00  0.00    -0.233 C  
HETATM   10  C   UNL     1      -7.788   8.121  73.342  1.00  0.00    -0.174 C  
HETATM   11  F   UNL     1      -6.868   7.279  72.812  1.00  0.00    -0.065 F  
HETATM   12  F   UNL     1      -7.136   8.899  74.241  1.00  0.00    -0.174 F  
HETATM   13  F   UNL     1      -8.222   8.928  72.351  1.00  0.00    -0.161 F  
ENDBRANCH   8   9
ENDBRANCH   3   8
BRANCH   7  14
HETATM   14  C   UNL     1     -11.075   6.476  68.457  1.00  0.00    -0.265 C  
BRANCH  14  15
HETATM   15  S   UNL     1      -9.635   7.117  67.585  1.00  0.00    -0.133 S  
HETATM   16  O   UNL     1      -9.343   6.366  66.317  1.00  0.00    -0.161 OA 
BRANCH  15  17
HETATM   17  C   UNL     1     -10.218   8.676  67.088  1.00  0.00    -0.283 A  
HETATM   18  N   UNL     1     -11.007   9.465  67.786  1.00  0.00    -0.499 NA 
HETATM   19  C   UNL     1     -10.992  10.669  67.115  1.00  0.00    -0.247 A  
HETATM   20  H   UNL     1     -11.518   9.237  68.638  1.00  0.00     0.000 HD 
HETATM   21  C   UNL     1     -11.601  11.891  67.446  1.00  0.00    -0.367 A  
HETATM   22  C   UNL     1     -11.343  13.011  66.646  1.00  0.00    -0.366 A  
HETATM   23  C   UNL     1     -10.509  12.917  65.530  1.00  0.00    -0.305 A  
HETATM   24  C   UNL     1      -9.927  11.698  65.156  1.00  0.00    -0.297 A  
HETATM   25  C   UNL     1     -10.197  10.596  65.975  1.00  0.00    -0.247 A  
HETATM   26  N   UNL     1      -9.798   9.286  65.933  1.00  0.00    -0.290 NA 
ENDBRANCH  15  17
ENDBRANCH  14  15
ENDBRANCH   7  14
TORSDOF 5
ENDMDL
MODEL      169
REMARK 921   NORMALIZED FREE ENERGY PREDICTED BY IDOCK:   -4.73 KCAL/MOL
REMARK 922        TOTAL FREE ENERGY PREDICTED BY IDOCK:   -6.94 KCAL/MOL
REMARK 923 INTER-LIGAND FREE ENERGY PREDICTED BY IDOCK:   -6.87 KCAL/MOL
REMARK 924 INTRA-LIGAND FREE ENERGY PREDICTED BY IDOCK:   -0.07 KCAL/MOL
REMARK 927      BINDING AFFINITY PREDICTED BY RF-SCORE:    0.00 PKD
ROOT
HETATM    1  C   UNL     1     -11.774  14.879  71.221  1.00  0.00    -0.382 C  
HETATM    2  C   UNL     1     -11.706  14.409  69.798  1.00  0.00    -0.361 A  
HETATM    3  C   UNL     1     -11.791  13.041  69.461  1.00  0.00    -0.323 A  
HETATM    4  C   UNL     1     -11.922  12.669  68.124  1.00  0.00    -0.274 A  
HETATM    5  N   UNL     1     -11.676  14.959  67.435  1.00  0.00    -0.339 NA 
HETATM    6  C   UNL     1     -11.877  13.651  67.160  1.00  0.00    -0.396 A  
HETATM    7  C   UNL     1     -11.570  15.328  68.741  1.00  0.00    -0.362 A  
ENDROOT
BRANCH   3   8
HETATM    8  O   UNL     1     -11.834  11.977  70.331  1.00  0.00    -0.322 OA 
BRANCH   8   9
HETATM    9  C   UNL     1     -11.850  10.666  69.741  1.00  0.00    -0.304 C  
HETATM   10  C   UNL     1     -10.490  10.230  69.200  1.00  0.00    -0.224 C  
HETATM   11  F   UNL     1     -10.502  10.179  67.846  1.00  0.00    -0.197 F  
HETATM   12  F   UNL     1     -10.185   8.983  69.637  1.00  0.00    -0.184 F  
HETATM   13  F   UNL     1      -9.479  11.045  69.570  1.00  0.00    -0.114 F  
ENDBRANCH   8   9
ENDBRANCH   3   8
BRANCH   7  14
HETATM   14  C   UNL     1     -11.266  16.803  68.947  1.00  0.00    -0.113 C  
BRANCH  14  15
HETATM   15  S   UNL     1     -10.476  17.543  67.506  1.00  0.00    -0.336 S  
HETATM   16  O   UNL     1     -11.066  18.876  67.143  1.00  0.00    -0.321 OA 
BRANCH  15  17
HETATM   17  C   UNL     1      -8.894  17.882  68.137  1.00  0.00    -0.265 A  
HETATM   18  N   UNL     1      -8.388  19.077  68.358  1.00  0.00    -0.336 NA 
HETATM   19  C   UNL     1      -7.237  18.850  69.081  1.00  0.00    -0.248 A  
HETATM   20  H   UNL     1      -8.767  19.976  68.060  1.00  0.00     0.000 HD 
HETATM   21  C   UNL     1      -6.335  19.767  69.646  1.00  0.00    -0.378 A  
HETATM   22  C   UNL     1      -5.286  19.280  70.436  1.00  0.00    -0.221 A  
HETATM   23  C   UNL     1      -5.127  17.909  70.649  1.00  0.00    -0.269 A  
HETATM   24  C   UNL     1      -5.989  16.975  70.059  1.00  0.00    -0.184 A  
HETATM   25  C   UNL     1      -7.031  17.488  69.279  1.00  0.00    -0.172 A  
HETATM   26  N   UNL     1      -8.050  16.894  68.581  1.00  0.00    -0.244 NA 
ENDBRANCH  15  17
ENDBRANCH  14  15
ENDBRANCH   7  14
TORSDOF 5
ENDMDL
MODEL      170
REMARK 921   NORMALIZED FREE ENERGY PREDICTED BY IDOCK:   -4.69 KCAL/MOL
REMARK 922        TOTAL FREE ENERGY PREDICTED BY IDOCK:   -6.89 KCAL/MOL
REMARK 923 INTER-LIGAND FREE ENERGY PREDICTED BY IDOCK:   -5.94 KCAL/MOL
REMARK 924 INTRA-LIGAND FREE ENERGY PREDICTED BY IDOCK:   -0.96 KCAL/MOL
REMARK 927      BINDING AFFINITY PREDICTED BY RF-SCORE:    0.00 PKD
ROOT
HETATM    1  C   UNL     1      -9.185   4.139  71.748  1.00  0.00    -0.181 C  
HETATM    2  C   UNL     1      -9.784   5.015  70.687  1.00  0.00    -0.266 A  
HETATM    3  C   UNL     1      -9.274   5.045  69.372  1.00  0.00    -0.108 A  
HETATM    4  C   UNL     1      -9.981   5.719  68.376  1.00  0.00    -0.193 A  
HETATM    5  N   UNL     1     -11.569   6.506  69.999  1.00  0.00    -0.417 NA 
HETATM    6  C   UNL     1     -11.117   6.411  68.730  1.00  0.00    -0.326 A  
HETATM    7  C   UNL     1     -10.895   5.832  70.970  1.00  0.00    -0.247 A  
ENDROOT
BRANCH   3   8
HETATM    8  O   UNL     1      -8.151   4.405  68.906  1.00  0.00    -0.072 OA 
BRANCH   8   9
HETATM    9  C   UNL     1      -8.093   4.156  67.492  1.00  0.00    -0.095 C  
HETATM   10  C   UNL     1      -8.420   2.712  67.118  1.00  0.00    -0.099 C  
HETATM   11  F   UNL     1      -7.317   2.069  66.664  1.00  0.00    -0.052 F  
HETATM   12  F   UNL     1      -9.334   2.677  66.117  1.00  0.00    -0.145 F  
HETATM   13  F   UNL     1      -8.920   1.992  68.144  1.00  0.00    -0.109 F  
ENDBRANCH   8   9
ENDBRANCH   3   8
BRANCH   7  14
HETATM   14  C   UNL     1     -11.430   6.062  72.374  1.00  0.00    -0.308 C  
BRANCH  14  15
HETATM   15  S   UNL     1     -10.501   7.330  73.256  1.00  0.00    -0.389 S  
HETATM   16  O   UNL     1      -9.055   6.967  73.437  1.00  0.00    -0.132 OA 
BRANCH  15  17
HETATM   17  C   UNL     1     -10.523   8.621  72.094  1.00  0.00    -0.340 A  
HETATM   18  N   UNL     1      -9.560   8.917  71.248  1.00  0.00    -0.253 NA 
HETATM   19  C   UNL     1     -10.116   9.828  70.377  1.00  0.00    -0.252 A  
HETATM   20  H   UNL     1      -8.608   8.551  71.238  1.00  0.00     0.000 HD 
HETATM   21  C   UNL     1      -9.565  10.432  69.234  1.00  0.00    -0.226 A  
HETATM   22  C   UNL     1     -10.383  11.252  68.446  1.00  0.00    -0.207 A  
HETATM   23  C   UNL     1     -11.715  11.482  68.794  1.00  0.00    -0.397 A  
HETATM   24  C   UNL     1     -12.271  10.926  69.953  1.00  0.00    -0.408 A  
HETATM   25  C   UNL     1     -11.436  10.106  70.720  1.00  0.00    -0.357 A  
HETATM   26  N   UNL     1     -11.634   9.397  71.876  1.00  0.00    -0.355 NA 
ENDBRANCH  15  17
ENDBRANCH  14  15
ENDBRANCH   7  14
TORSDOF 5
ENDMDL
MODEL      171
REMARK 921   NORMALIZED FREE ENERGY PREDICTED BY IDOCK:   -4.68 KCAL/MOL
REMARK 922        TOTAL FREE ENERGY PREDICTED BY IDOCK:   -6.87 KCAL/MOL
REMARK 923 INTER-LIGAND FREE ENERGY PREDICTED BY IDOCK:   -5.76 KCAL/MOL
REMARK 924 INTRA-LIGAND FREE ENERGY PREDICTED BY IDOCK:   -1.12 KCAL/MOL
REMARK 927      BINDING AFFINITY PREDICTED BY RF-SCORE:    0.00 PKD
ROOT
HETATM    1  C   UNL     1      -9.617  10.605  63.420  1.00  0.00    -0.373 C  
HETATM    2  C   UNL     1      -9.458  10.836  64.893  1.00  0.00    -0.288 A  
HETATM    3  C   UNL     1      -9.136   9.786  65.781  1.00  0.00    -0.177 A  
HETATM    4  C   UNL     1      -8.804  10.081  67.102  1.00  0.00    -0.142 A  
HETATM    5  N   UNL     1      -9.307  12.403  66.738  1.00  0.00    -0.216 NA 
HETATM    6  C   UNL     1      -8.886  11.388  67.525  1.00  0.00    -0.146 A  
HETATM    7  C   UNL     1      -9.610  12.123  65.442  1.00  0.00    -0.096 A  
ENDROOT
BRANCH   3   8
HETATM    8  O   UNL     1      -9.033   8.450  65.476  1.00  0.00    -0.171 OA 
BRANCH   8   9
HETATM    9  C   UNL     1      -7.799   7.804  65.830  1.00  0.00    -0.102 C  
HETATM   10  C   UNL     1      -6.847   7.630  64.648  1.00  0.00    -0.051 C  
HETATM   11  F   UNL     1      -6.732   6.323  64.308  1.00  0.00    -0.035 F  
HETATM   12  F   UNL     1      -5.604   8.061  64.974  1.00  0.00    -0.040 F  
HETATM   13  F   UNL     1      -7.232   8.307  63.546  1.00  0.00    -0.083 F  
ENDBRANCH   8   9
ENDBRANCH   3   8
BRANCH   7  14
HETATM   14  C   UNL     1     -10.148  13.309  64.658  1.00  0.00    -0.225 C  
BRANCH  14  15
HETATM   15  S   UNL     1     -11.935  13.476  64.819  1.00  0.00    -0.413 S  
HETATM   16  O   UNL     1     -12.650  12.157  64.729  1.00  0.00    -0.473 OA 
BRANCH  15  17
HETATM   17  C   UNL     1     -12.071  13.975  66.478  1.00  0.00    -0.459 A  
HETATM   18  N   UNL     1     -12.357  13.196  67.499  1.00  0.00    -0.140 NA 
HETATM   19  C   UNL     1     -12.108  13.964  68.615  1.00  0.00    -0.302 A  
HETATM   20  H   UNL     1     -12.692  12.233  67.471  1.00  0.00     0.000 HD 
HETATM   21  C   UNL     1     -12.176  13.622  69.976  1.00  0.00    -0.395 A  
HETATM   22  C   UNL     1     -11.763  14.563  70.929  1.00  0.00    -0.308 A  
HETATM   23  C   UNL     1     -11.307  15.823  70.539  1.00  0.00    -0.400 A  
HETATM   24  C   UNL     1     -11.273  16.200  69.190  1.00  0.00    -0.336 A  
HETATM   25  C   UNL     1     -11.685  15.241  68.259  1.00  0.00    -0.301 A  
HETATM   26  N   UNL     1     -11.767  15.247  66.891  1.00  0.00    -0.087 NA 
ENDBRANCH  15  17
ENDBRANCH  14  15
ENDBRANCH   7  14
TORSDOF 5
ENDMDL
MODEL      172
REMARK 921   NORMALIZED FREE ENERGY PREDICTED BY IDOCK:   -4.68 KCAL/MOL
REMARK 922        TOTAL FREE ENERGY PREDICTED BY IDOCK:   -6.87 KCAL/MOL
REMARK 923 INTER-LIGAND FREE ENERGY PREDICTED BY IDOCK:   -5.74 KCAL/MOL
REMARK 924 INTRA-LIGAND FREE ENERGY PREDICTED BY IDOCK:   -1.13 KCAL/MOL
REMARK 927      BINDING AFFINITY PREDICTED BY RF-SCORE:    0.00 PKD
ROOT
HETATM    1  C   UNL     1     -11.166   6.116  69.828  1.00  0.00    -0.494 C  
HETATM    2  C   UNL     1     -10.353   4.996  70.407  1.00  0.00    -0.297 A  
HETATM    3  C   UNL     1      -9.637   4.096  69.589  1.00  0.00    -0.207 A  
HETATM    4  C   UNL     1      -8.742   3.200  70.173  1.00  0.00    -0.127 A  
HETATM    5  N   UNL     1      -9.406   3.924  72.367  1.00  0.00    -0.115 NA 
HETATM    6  C   UNL     1      -8.649   3.163  71.546  1.00  0.00    -0.069 A  
HETATM    7  C   UNL     1     -10.265   4.815  71.800  1.00  0.00    -0.188 A  
ENDROOT
BRANCH   3   8
HETATM    8  O   UNL     1      -9.656   4.033  68.217  1.00  0.00    -0.163 OA 
BRANCH   8   9
HETATM    9  C   UNL     1      -8.389   4.164  67.550  1.00  0.00    -0.098 C  
HETATM   10  C   UNL     1      -8.179   5.538  66.916  1.00  0.00    -0.105 C  
HETATM   11  F   UNL     1      -8.199   5.454  65.564  1.00  0.00    -0.108 F  
HETATM   12  F   UNL     1      -6.967   6.038  67.261  1.00  0.00    -0.060 F  
HETATM   13  F   UNL     1      -9.108   6.446  67.283  1.00  0.00    -0.118 F  
ENDBRANCH   8   9
ENDBRANCH   3   8
BRANCH   7  14
HETATM   14  C   UNL     1     -11.129   5.568  72.799  1.00  0.00    -0.291 C  
BRANCH  14  15
HETATM   15  S   UNL     1     -10.221   6.886  73.627  1.00  0.00    -0.367 S  
HETATM   16  O   UNL     1      -8.739   6.640  73.654  1.00  0.00    -0.121 OA 
BRANCH  15  17
HETATM   17  C   UNL     1     -10.461   8.199  72.514  1.00  0.00    -0.339 A  
HETATM   18  N   UNL     1      -9.591   8.629  71.626  1.00  0.00    -0.248 NA 
HETATM   19  C   UNL     1     -10.300   9.494  70.821  1.00  0.00    -0.306 A  
HETATM   20  H   UNL     1      -8.605   8.377  71.549  1.00  0.00     0.000 HD 
HETATM   21  C   UNL     1      -9.892  10.190  69.671  1.00  0.00    -0.254 A  
HETATM   22  C   UNL     1     -10.845  10.933  68.960  1.00  0.00    -0.275 A  
HETATM   23  C   UNL     1     -12.171  10.995  69.391  1.00  0.00    -0.329 A  
HETATM   24  C   UNL     1     -12.588  10.345  70.560  1.00  0.00    -0.384 A  
HETATM   25  C   UNL     1     -11.619   9.606  71.248  1.00  0.00    -0.393 A  
HETATM   26  N   UNL     1     -11.664   8.846  72.388  1.00  0.00    -0.281 NA 
ENDBRANCH  15  17
ENDBRANCH  14  15
ENDBRANCH   7  14
TORSDOF 5
ENDMDL
MODEL      173
REMARK 921   NORMALIZED FREE ENERGY PREDICTED BY IDOCK:   -4.67 KCAL/MOL
REMARK 922        TOTAL FREE ENERGY PREDICTED BY IDOCK:   -6.86 KCAL/MOL
REMARK 923 INTER-LIGAND FREE ENERGY PREDICTED BY IDOCK:   -5.98 KCAL/MOL
REMARK 924 INTRA-LIGAND FREE ENERGY PREDICTED BY IDOCK:   -0.88 KCAL/MOL
REMARK 927      BINDING AFFINITY PREDICTED BY RF-SCORE:    0.00 PKD
ROOT
HETATM    1  C   UNL     1      -7.269  12.716  67.540  1.00  0.00    -0.155 C  
HETATM    2  C   UNL     1      -8.478  11.844  67.380  1.00  0.00    -0.166 A  
HETATM    3  C   UNL     1      -9.767  12.386  67.188  1.00  0.00    -0.207 A  
HETATM    4  C   UNL     1     -10.824  11.542  66.847  1.00  0.00    -0.331 A  
HETATM    5  N   UNL     1      -9.402   9.620  67.090  1.00  0.00    -0.137 NA 
HETATM    6  C   UNL     1     -10.592  10.187  66.793  1.00  0.00    -0.169 A  
HETATM    7  C   UNL     1      -8.363  10.441  67.401  1.00  0.00    -0.121 A  
ENDROOT
BRANCH   3   8
HETATM    8  O   UNL     1     -10.118  13.714  67.226  1.00  0.00    -0.235 OA 
BRANCH   8   9
HETATM    9  C   UNL     1     -10.243  14.308  68.529  1.00  0.00    -0.245 C  
HETATM   10  C   UNL     1     -11.692  14.466  68.985  1.00  0.00    -0.310 C  
HETATM   11  F   UNL     1     -12.048  15.773  69.020  1.00  0.00    -0.378 F  
HETATM   12  F   UNL     1     -11.848  13.984  70.243  1.00  0.00    -0.323 F  
HETATM   13  F   UNL     1     -12.576  13.822  68.195  1.00  0.00    -0.247 F  
ENDBRANCH   8   9
ENDBRANCH   3   8
BRANCH   7  14
HETATM   14  C   UNL     1      -7.089   9.711  67.796  1.00  0.00    -0.081 C  
BRANCH  14  15
HETATM   15  S   UNL     1      -7.024   9.364  69.563  1.00  0.00    -0.057 S  
HETATM   16  O   UNL     1      -6.842  10.605  70.390  1.00  0.00    -0.280 OA 
BRANCH  15  17
HETATM   17  C   UNL     1      -8.653   8.836  69.854  1.00  0.00    -0.133 A  
HETATM   18  N   UNL     1      -9.152   7.658  69.546  1.00  0.00    -0.147 NA 
HETATM   19  C   UNL     1     -10.373   7.609  70.182  1.00  0.00    -0.217 A  
HETATM   20  H   UNL     1      -8.727   6.937  68.963  1.00  0.00     0.000 HD 
HETATM   21  C   UNL     1     -11.306   6.561  70.258  1.00  0.00    -0.456 A  
HETATM   22  C   UNL     1     -12.438   6.724  71.067  1.00  0.00    -0.318 A  
HETATM   23  C   UNL     1     -12.646   7.909  71.776  1.00  0.00    -0.353 A  
HETATM   24  C   UNL     1     -11.751   8.983  71.680  1.00  0.00    -0.431 A  
HETATM   25  C   UNL     1     -10.627   8.792  70.869  1.00  0.00    -0.220 A  
HETATM   26  N   UNL     1      -9.557   9.591  70.559  1.00  0.00    -0.262 NA 
ENDBRANCH  15  17
ENDBRANCH  14  15
ENDBRANCH   7  14
TORSDOF 5
ENDMDL
MODEL      174
REMARK 921   NORMALIZED FREE ENERGY PREDICTED BY IDOCK:   -4.65 KCAL/MOL
REMARK 922        TOTAL FREE ENERGY PREDICTED BY IDOCK:   -6.84 KCAL/MOL
REMARK 923 INTER-LIGAND FREE ENERGY PREDICTED BY IDOCK:   -6.69 KCAL/MOL
REMARK 924 INTRA-LIGAND FREE ENERGY PREDICTED BY IDOCK:   -0.14 KCAL/MOL
REMARK 927      BINDING AFFINITY PREDICTED BY RF-SCORE:    0.00 PKD
ROOT
HETATM    1  C   UNL     1     -12.013  13.126  68.470  1.00  0.00    -0.324 C  
HETATM    2  C   UNL     1     -10.756  13.915  68.690  1.00  0.00    -0.272 A  
HETATM    3  C   UNL     1     -10.778  15.206  69.260  1.00  0.00    -0.250 A  
HETATM    4  C   UNL     1      -9.578  15.815  69.627  1.00  0.00    -0.233 A  
HETATM    5  N   UNL     1      -8.331  13.988  68.689  1.00  0.00    -0.138 NA 
HETATM    6  C   UNL     1      -8.398  15.169  69.341  1.00  0.00    -0.195 A  
HETATM    7  C   UNL     1      -9.500  13.379  68.348  1.00  0.00    -0.176 A  
ENDROOT
BRANCH   3   8
HETATM    8  O   UNL     1     -11.889  15.949  69.579  1.00  0.00    -0.345 OA 
BRANCH   8   9
HETATM    9  C   UNL     1     -12.693  15.465  70.668  1.00  0.00    -0.437 C  
HETATM   10  C   UNL     1     -12.165  15.878  72.041  1.00  0.00    -0.490 C  
HETATM   11  F   UNL     1     -11.682  14.806  72.715  1.00  0.00    -0.367 F  
HETATM   12  F   UNL     1     -13.163  16.399  72.795  1.00  0.00    -0.456 F  
HETATM   13  F   UNL     1     -11.182  16.801  71.981  1.00  0.00    -0.211 F  
ENDBRANCH   8   9
ENDBRANCH   3   8
BRANCH   7  14
HETATM   14  C   UNL     1      -9.325  12.098  67.549  1.00  0.00    -0.181 C  
BRANCH  14  15
HETATM   15  S   UNL     1      -8.313  10.887  68.419  1.00  0.00    -0.142 S  
HETATM   16  O   UNL     1      -7.314  11.523  69.343  1.00  0.00    -0.065 OA 
BRANCH  15  17
HETATM   17  C   UNL     1      -9.501  10.144  69.446  1.00  0.00    -0.224 A  
HETATM   18  N   UNL     1      -9.262   9.518  70.578  1.00  0.00    -0.261 NA 
HETATM   19  C   UNL     1     -10.501   9.327  71.150  1.00  0.00    -0.331 A  
HETATM   20  H   UNL     1      -8.357   9.234  70.952  1.00  0.00     0.000 HD 
HETATM   21  C   UNL     1     -10.842   8.771  72.395  1.00  0.00    -0.225 A  
HETATM   22  C   UNL     1     -12.184   8.789  72.796  1.00  0.00    -0.056 A  
HETATM   23  C   UNL     1     -13.170   9.334  71.972  1.00  0.00    -0.519 A  
HETATM   24  C   UNL     1     -12.859   9.853  70.708  1.00  0.00    -0.290 A  
HETATM   25  C   UNL     1     -11.511   9.828  70.334  1.00  0.00    -0.280 A  
HETATM   26  N   UNL     1     -10.849  10.253  69.211  1.00  0.00    -0.224 NA 
ENDBRANCH  15  17
ENDBRANCH  14  15
ENDBRANCH   7  14
TORSDOF 5
ENDMDL
MODEL      175
REMARK 921   NORMALIZED FREE ENERGY PREDICTED BY IDOCK:   -4.64 KCAL/MOL
REMARK 922        TOTAL FREE ENERGY PREDICTED BY IDOCK:   -6.83 KCAL/MOL
REMARK 923 INTER-LIGAND FREE ENERGY PREDICTED BY IDOCK:   -6.27 KCAL/MOL
REMARK 924 INTRA-LIGAND FREE ENERGY PREDICTED BY IDOCK:   -0.55 KCAL/MOL
REMARK 927      BINDING AFFINITY PREDICTED BY RF-SCORE:    0.00 PKD
ROOT
HETATM    1  C   UNL     1      -8.346  13.037  67.146  1.00  0.00    -0.153 C  
HETATM    2  C   UNL     1      -9.672  12.422  67.486  1.00  0.00    -0.191 A  
HETATM    3  C   UNL     1      -9.822  11.031  67.670  1.00  0.00    -0.172 A  
HETATM    4  C   UNL     1     -11.020  10.530  68.177  1.00  0.00    -0.330 A  
HETATM    5  N   UNL     1     -11.992  12.728  68.126  1.00  0.00    -0.308 NA 
HETATM    6  C   UNL     1     -12.056  11.407  68.404  1.00  0.00    -0.048 A  
HETATM    7  C   UNL     1     -10.817  13.224  67.652  1.00  0.00    -0.258 A  
ENDROOT
BRANCH   3   8
HETATM    8  O   UNL     1      -8.866  10.064  67.469  1.00  0.00    -0.128 OA 
BRANCH   8   9
HETATM    9  C   UNL     1      -8.696   9.102  68.523  1.00  0.00    -0.129 C  
HETATM   10  C   UNL     1      -8.908   7.660  68.065  1.00  0.00    -0.127 C  
HETATM   11  F   UNL     1     -10.042   7.145  68.600  1.00  0.00    -0.155 F  
HETATM   12  F   UNL     1      -7.885   6.875  68.485  1.00  0.00    -0.107 F  
HETATM   13  F   UNL     1      -8.992   7.529  66.725  1.00  0.00    -0.123 F  
ENDBRANCH   8   9
ENDBRANCH   3   8
BRANCH   7  14
HETATM   14  C   UNL     1     -10.864  14.701  67.295  1.00  0.00    -0.305 C  
BRANCH  14  15
HETATM   15  S   UNL     1     -11.482  15.710  68.654  1.00  0.00    -0.383 S  
HETATM   16  O   UNL     1     -11.200  15.104  70.000  1.00  0.00    -0.247 OA 
BRANCH  15  17
HETATM   17  C   UNL     1     -10.441  17.096  68.533  1.00  0.00    -0.377 A  
HETATM   18  N   UNL     1      -9.244  17.213  69.066  1.00  0.00    -0.194 NA 
HETATM   19  C   UNL     1      -8.712  18.353  68.503  1.00  0.00    -0.315 A  
HETATM   20  H   UNL     1      -8.804  16.595  69.747  1.00  0.00     0.000 HD 
HETATM   21  C   UNL     1      -7.436  18.920  68.655  1.00  0.00    -0.355 A  
HETATM   22  C   UNL     1      -7.099  20.038  67.880  1.00  0.00    -0.319 A  
HETATM   23  C   UNL     1      -8.016  20.591  66.985  1.00  0.00    -0.333 A  
HETATM   24  C   UNL     1      -9.309  20.068  66.850  1.00  0.00    -0.515 A  
HETATM   25  C   UNL     1      -9.618  18.949  67.630  1.00  0.00    -0.308 A  
HETATM   26  N   UNL     1     -10.746  18.179  67.747  1.00  0.00    -0.392 NA 
ENDBRANCH  15  17
ENDBRANCH  14  15
ENDBRANCH   7  14
TORSDOF 5
ENDMDL
MODEL      176
REMARK 921   NORMALIZED FREE ENERGY PREDICTED BY IDOCK:   -4.60 KCAL/MOL
REMARK 922        TOTAL FREE ENERGY PREDICTED BY IDOCK:   -6.77 KCAL/MOL
REMARK 923 INTER-LIGAND FREE ENERGY PREDICTED BY IDOCK:   -6.00 KCAL/MOL
REMARK 924 INTRA-LIGAND FREE ENERGY PREDICTED BY IDOCK:   -0.77 KCAL/MOL
REMARK 927      BINDING AFFINITY PREDICTED BY RF-SCORE:    0.00 PKD
ROOT
HETATM    1  C   UNL     1     -11.424  11.057  68.748  1.00  0.00    -0.372 C  
HETATM    2  C   UNL     1     -11.204  11.102  67.265  1.00  0.00    -0.347 A  
HETATM    3  C   UNL     1     -11.575  12.222  66.491  1.00  0.00    -0.377 A  
HETATM    4  C   UNL     1     -11.173  12.301  65.158  1.00  0.00    -0.369 A  
HETATM    5  N   UNL     1     -10.229  10.094  65.285  1.00  0.00    -0.267 NA 
HETATM    6  C   UNL     1     -10.496  11.235  64.611  1.00  0.00    -0.325 A  
HETATM    7  C   UNL     1     -10.600  10.023  66.592  1.00  0.00    -0.125 A  
ENDROOT
BRANCH   3   8
HETATM    8  O   UNL     1     -12.256  13.335  66.923  1.00  0.00    -0.350 OA 
BRANCH   8   9
HETATM    9  C   UNL     1     -11.456  14.453  67.345  1.00  0.00    -0.358 C  
HETATM   10  C   UNL     1     -11.729  14.883  68.785  1.00  0.00    -0.325 C  
HETATM   11  F   UNL     1     -12.349  16.087  68.821  1.00  0.00    -0.287 F  
HETATM   12  F   UNL     1     -10.564  15.021  69.466  1.00  0.00    -0.229 F  
HETATM   13  F   UNL     1     -12.494  14.008  69.470  1.00  0.00    -0.369 F  
ENDBRANCH   8   9
ENDBRANCH   3   8
BRANCH   7  14
HETATM   14  C   UNL     1     -10.329   8.676  67.243  1.00  0.00    -0.296 C  
BRANCH  14  15
HETATM   15  S   UNL     1      -8.570   8.294  67.310  1.00  0.00    -0.124 S  
HETATM   16  O   UNL     1      -7.783   9.317  68.079  1.00  0.00    -0.088 OA 
BRANCH  15  17
HETATM   17  C   UNL     1      -8.581   6.866  68.299  1.00  0.00    -0.125 A  
HETATM   18  N   UNL     1      -8.837   6.820  69.589  1.00  0.00    -0.143 NA 
HETATM   19  C   UNL     1      -8.979   5.480  69.878  1.00  0.00    -0.127 A  
HETATM   20  H   UNL     1      -8.914   7.605  70.235  1.00  0.00     0.000 HD 
HETATM   21  C   UNL     1      -9.324   4.853  71.086  1.00  0.00    -0.204 A  
HETATM   22  C   UNL     1      -9.511   3.464  71.095  1.00  0.00    -0.224 A  
HETATM   23  C   UNL     1      -9.343   2.712  69.931  1.00  0.00    -0.191 A  
HETATM   24  C   UNL     1      -8.955   3.312  68.725  1.00  0.00    -0.186 A  
HETATM   25  C   UNL     1      -8.781   4.700  68.743  1.00  0.00    -0.093 A  
HETATM   26  N   UNL     1      -8.431   5.606  67.775  1.00  0.00    -0.103 NA 
ENDBRANCH  15  17
ENDBRANCH  14  15
ENDBRANCH   7  14
TORSDOF 5
ENDMDL
MODEL      177
REMARK 921   NORMALIZED FREE ENERGY PREDICTED BY IDOCK:   -4.60 KCAL/MOL
REMARK 922        TOTAL FREE ENERGY PREDICTED BY IDOCK:   -6.77 KCAL/MOL
REMARK 923 INTER-LIGAND FREE ENERGY PREDICTED BY IDOCK:   -6.57 KCAL/MOL
REMARK 924 INTRA-LIGAND FREE ENERGY PREDICTED BY IDOCK:   -0.20 KCAL/MOL
REMARK 927      BINDING AFFINITY PREDICTED BY RF-SCORE:    0.00 PKD
ROOT
HETATM    1  C   UNL     1      -8.258  15.167  69.819  1.00  0.00     0.027 C  
HETATM    2  C   UNL     1      -8.743  15.681  68.496  1.00  0.00    -0.182 A  
HETATM    3  C   UNL     1      -7.980  15.541  67.317  1.00  0.00    -0.203 A  
HETATM    4  C   UNL     1      -8.553  15.854  66.086  1.00  0.00    -0.276 A  
HETATM    5  N   UNL     1     -10.544  16.637  67.181  1.00  0.00    -0.299 NA 
HETATM    6  C   UNL     1      -9.827  16.375  66.066  1.00  0.00    -0.335 A  
HETATM    7  C   UNL     1      -9.996  16.313  68.384  1.00  0.00    -0.234 A  
ENDROOT
BRANCH   3   8
HETATM    8  O   UNL     1      -6.702  15.044  67.215  1.00  0.00    -0.278 OA 
BRANCH   8   9
HETATM    9  C   UNL     1      -6.325  14.042  68.174  1.00  0.00    -0.128 C  
HETATM   10  C   UNL     1      -6.860  12.651  67.838  1.00  0.00    -0.112 C  
HETATM   11  F   UNL     1      -7.815  12.273  68.721  1.00  0.00    -0.123 F  
HETATM   12  F   UNL     1      -5.867  11.731  67.916  1.00  0.00    -0.043 F  
HETATM   13  F   UNL     1      -7.391  12.566  66.599  1.00  0.00    -0.013 F  
ENDBRANCH   8   9
ENDBRANCH   3   8
BRANCH   7  14
HETATM   14  C   UNL     1     -10.841  16.717  69.581  1.00  0.00    -0.282 C  
BRANCH  14  15
HETATM   15  S   UNL     1     -11.790  15.334  70.242  1.00  0.00    -0.348 S  
HETATM   16  O   UNL     1     -13.223  15.693  70.515  1.00  0.00    -0.434 OA 
BRANCH  15  17
HETATM   17  C   UNL     1     -11.822  14.272  68.868  1.00  0.00    -0.336 A  
HETATM   18  N   UNL     1     -12.495  14.466  67.755  1.00  0.00    -0.526 NA 
HETATM   19  C   UNL     1     -12.023  13.512  66.880  1.00  0.00    -0.399 A  
HETATM   20  H   UNL     1     -13.212  15.170  67.578  1.00  0.00     0.000 HD 
HETATM   21  C   UNL     1     -12.338  13.298  65.527  1.00  0.00    -0.533 A  
HETATM   22  C   UNL     1     -11.631  12.317  64.819  1.00  0.00    -0.393 A  
HETATM   23  C   UNL     1     -10.644  11.554  65.444  1.00  0.00    -0.336 A  
HETATM   24  C   UNL     1     -10.346  11.721  66.803  1.00  0.00    -0.251 A  
HETATM   25  C   UNL     1     -11.061  12.710  67.486  1.00  0.00    -0.272 A  
HETATM   26  N   UNL     1     -11.027  13.156  68.782  1.00  0.00    -0.258 NA 
ENDBRANCH  15  17
ENDBRANCH  14  15
ENDBRANCH   7  14
TORSDOF 5
ENDMDL
MODEL      178
REMARK 921   NORMALIZED FREE ENERGY PREDICTED BY IDOCK:   -4.58 KCAL/MOL
REMARK 922        TOTAL FREE ENERGY PREDICTED BY IDOCK:   -6.74 KCAL/MOL
REMARK 923 INTER-LIGAND FREE ENERGY PREDICTED BY IDOCK:   -6.87 KCAL/MOL
REMARK 924 INTRA-LIGAND FREE ENERGY PREDICTED BY IDOCK:    0.13 KCAL/MOL
REMARK 927      BINDING AFFINITY PREDICTED BY RF-SCORE:    0.00 PKD
ROOT
HETATM    1  C   UNL     1      -8.681  14.292  68.657  1.00  0.00    -0.150 C  
HETATM    2  C   UNL     1      -9.919  13.816  67.955  1.00  0.00    -0.246 A  
HETATM    3  C   UNL     1     -11.073  14.622  67.853  1.00  0.00    -0.291 A  
HETATM    4  C   UNL     1     -12.121  14.220  67.026  1.00  0.00    -0.424 A  
HETATM    5  N   UNL     1     -10.998  12.146  66.566  1.00  0.00    -0.270 NA 
HETATM    6  C   UNL     1     -12.032  12.999  66.398  1.00  0.00    -0.402 A  
HETATM    7  C   UNL     1      -9.963  12.544  67.355  1.00  0.00    -0.207 A  
ENDROOT
BRANCH   3   8
HETATM    8  O   UNL     1     -11.278  15.848  68.439  1.00  0.00    -0.334 OA 
BRANCH   8   9
HETATM    9  C   UNL     1     -10.102  16.593  68.799  1.00  0.00    -0.270 C  
HETATM   10  C   UNL     1      -9.825  17.773  67.869  1.00  0.00    -0.306 C  
HETATM   11  F   UNL     1      -8.719  17.549  67.120  1.00  0.00    -0.220 F  
HETATM   12  F   UNL     1      -9.591  18.898  68.589  1.00  0.00    -0.341 F  
HETATM   13  F   UNL     1     -10.844  18.040  67.024  1.00  0.00    -0.355 F  
ENDBRANCH   8   9
ENDBRANCH   3   8
BRANCH   7  14
HETATM   14  C   UNL     1      -8.886  11.489  67.548  1.00  0.00    -0.155 C  
BRANCH  14  15
HETATM   15  S   UNL     1      -9.413   9.865  66.970  1.00  0.00    -0.165 S  
HETATM   16  O   UNL     1      -8.256   8.959  66.656  1.00  0.00    -0.109 OA 
BRANCH  15  17
HETATM   17  C   UNL     1     -10.138   9.223  68.412  1.00  0.00    -0.191 A  
HETATM   18  N   UNL     1     -10.936   8.179  68.477  1.00  0.00    -0.415 NA 
HETATM   19  C   UNL     1     -11.051   7.901  69.822  1.00  0.00    -0.075 A  
HETATM   20  H   UNL     1     -11.375   7.683  67.702  1.00  0.00     0.000 HD 
HETATM   21  C   UNL     1     -11.725   6.852  70.469  1.00  0.00    -0.401 A  
HETATM   22  C   UNL     1     -11.600   6.726  71.859  1.00  0.00    -0.330 A  
HETATM   23  C   UNL     1     -10.833   7.632  72.593  1.00  0.00    -0.395 A  
HETATM   24  C   UNL     1     -10.190   8.712  71.973  1.00  0.00    -0.407 A  
HETATM   25  C   UNL     1     -10.326   8.811  70.585  1.00  0.00    -0.209 A  
HETATM   26  N   UNL     1      -9.837   9.700  69.663  1.00  0.00    -0.201 NA 
ENDBRANCH  15  17
ENDBRANCH  14  15
ENDBRANCH   7  14
TORSDOF 5
ENDMDL
MODEL      179
REMARK 921   NORMALIZED FREE ENERGY PREDICTED BY IDOCK:   -4.56 KCAL/MOL
REMARK 922        TOTAL FREE ENERGY PREDICTED BY IDOCK:   -6.72 KCAL/MOL
REMARK 923 INTER-LIGAND FREE ENERGY PREDICTED BY IDOCK:   -5.86 KCAL/MOL
REMARK 924 INTRA-LIGAND FREE ENERGY PREDICTED BY IDOCK:   -0.86 KCAL/MOL
REMARK 927      BINDING AFFINITY PREDICTED BY RF-SCORE:    0.00 PKD
ROOT
HETATM    1  C   UNL     1     -11.053  10.351  68.559  1.00  0.00    -0.318 C  
HETATM    2  C   UNL     1     -10.464   9.045  68.116  1.00  0.00    -0.257 A  
HETATM    3  C   UNL     1     -10.694   7.846  68.824  1.00  0.00    -0.051 A  
HETATM    4  C   UNL     1     -10.294   6.631  68.268  1.00  0.00    -0.220 A  
HETATM    5  N   UNL     1      -9.259   7.784  66.430  1.00  0.00    -0.178 NA 
HETATM    6  C   UNL     1      -9.605   6.649  67.077  1.00  0.00    -0.150 A  
HETATM    7  C   UNL     1      -9.667   8.969  66.958  1.00  0.00    -0.189 A  
ENDROOT
BRANCH   3   8
HETATM    8  O   UNL     1     -11.359   7.707  70.019  1.00  0.00    -0.195 OA 
BRANCH   8   9
HETATM    9  C   UNL     1     -10.549   7.442  71.177  1.00  0.00    -0.222 C  
HETATM   10  C   UNL     1     -10.601   8.558  72.219  1.00  0.00    -0.338 C  
HETATM   11  F   UNL     1      -9.417   9.212  72.287  1.00  0.00    -0.310 F  
HETATM   12  F   UNL     1     -10.837   8.043  73.451  1.00  0.00    -0.387 F  
HETATM   13  F   UNL     1     -11.561   9.475  71.976  1.00  0.00    -0.442 F  
ENDBRANCH   8   9
ENDBRANCH   3   8
BRANCH   7  14
HETATM   14  C   UNL     1      -9.165  10.191  66.206  1.00  0.00    -0.157 C  
BRANCH  14  15
HETATM   15  S   UNL     1      -7.799  11.000  67.058  1.00  0.00    -0.144 S  
HETATM   16  O   UNL     1      -6.497  10.869  66.320  1.00  0.00    -0.120 OA 
BRANCH  15  17
HETATM   17  C   UNL     1      -8.260  12.668  66.909  1.00  0.00    -0.044 A  
HETATM   18  N   UNL     1      -9.164  13.150  66.084  1.00  0.00    -0.466 NA 
HETATM   19  C   UNL     1      -9.365  14.451  66.493  1.00  0.00    -0.278 A  
HETATM   20  H   UNL     1      -9.618  12.667  65.309  1.00  0.00     0.000 HD 
HETATM   21  C   UNL     1     -10.270  15.414  66.016  1.00  0.00    -0.343 A  
HETATM   22  C   UNL     1     -10.356  16.644  66.681  1.00  0.00    -0.296 A  
HETATM   23  C   UNL     1      -9.550  16.918  67.787  1.00  0.00    -0.249 A  
HETATM   24  C   UNL     1      -8.610  15.989  68.251  1.00  0.00    -0.179 A  
HETATM   25  C   UNL     1      -8.548  14.766  67.574  1.00  0.00    -0.187 A  
HETATM   26  N   UNL     1      -7.785  13.642  67.751  1.00  0.00    -0.147 NA 
ENDBRANCH  15  17
ENDBRANCH  14  15
ENDBRANCH   7  14
TORSDOF 5
ENDMDL
MODEL      180
REMARK 921   NORMALIZED FREE ENERGY PREDICTED BY IDOCK:   -4.55 KCAL/MOL
REMARK 922        TOTAL FREE ENERGY PREDICTED BY IDOCK:   -6.70 KCAL/MOL
REMARK 923 INTER-LIGAND FREE ENERGY PREDICTED BY IDOCK:   -5.73 KCAL/MOL
REMARK 924 INTRA-LIGAND FREE ENERGY PREDICTED BY IDOCK:   -0.98 KCAL/MOL
REMARK 927      BINDING AFFINITY PREDICTED BY RF-SCORE:    0.00 PKD
ROOT
HETATM    1  C   UNL     1      -7.717   8.633  70.031  1.00  0.00    -0.080 C  
HETATM    2  C   UNL     1      -8.691   8.271  68.949  1.00  0.00    -0.137 A  
HETATM    3  C   UNL     1      -9.783   7.410  69.189  1.00  0.00    -0.165 A  
HETATM    4  C   UNL     1     -10.768   7.261  68.213  1.00  0.00    -0.174 A  
HETATM    5  N   UNL     1      -9.507   8.631  66.693  1.00  0.00    -0.189 NA 
HETATM    6  C   UNL     1     -10.598   7.896  67.004  1.00  0.00    -0.311 A  
HETATM    7  C   UNL     1      -8.554   8.797  67.650  1.00  0.00    -0.128 A  
ENDROOT
BRANCH   3   8
HETATM    8  O   UNL     1     -10.052   6.719  70.346  1.00  0.00    -0.182 OA 
BRANCH   8   9
HETATM    9  C   UNL     1     -10.630   5.412  70.194  1.00  0.00    -0.274 C  
HETATM   10  C   UNL     1      -9.600   4.328  69.881  1.00  0.00    -0.209 C  
HETATM   11  F   UNL     1      -9.743   3.877  68.611  1.00  0.00    -0.222 F  
HETATM   12  F   UNL     1      -9.773   3.260  70.698  1.00  0.00    -0.230 F  
HETATM   13  F   UNL     1      -8.324   4.743  70.027  1.00  0.00    -0.067 F  
ENDBRANCH   8   9
ENDBRANCH   3   8
BRANCH   7  14
HETATM   14  C   UNL     1      -7.331   9.569  67.184  1.00  0.00    -0.088 C  
BRANCH  14  15
HETATM   15  S   UNL     1      -7.470  11.333  67.523  1.00  0.00    -0.112 S  
HETATM   16  O   UNL     1      -6.221  12.090  67.171  1.00  0.00    -0.136 OA 
BRANCH  15  17
HETATM   17  C   UNL     1      -8.655  11.802  66.344  1.00  0.00    -0.113 A  
HETATM   18  N   UNL     1      -8.729  11.365  65.105  1.00  0.00    -0.387 NA 
HETATM   19  C   UNL     1      -9.949  11.809  64.641  1.00  0.00    -0.243 A  
HETATM   20  H   UNL     1      -8.035  10.817  64.597  1.00  0.00     0.000 HD 
HETATM   21  C   UNL     1     -10.580  11.577  63.408  1.00  0.00    -0.460 A  
HETATM   22  C   UNL     1     -11.883  12.056  63.218  1.00  0.00    -0.450 A  
HETATM   23  C   UNL     1     -12.540  12.762  64.227  1.00  0.00    -0.405 A  
HETATM   24  C   UNL     1     -11.912  13.043  65.448  1.00  0.00    -0.457 A  
HETATM   25  C   UNL     1     -10.614  12.549  65.614  1.00  0.00    -0.269 A  
HETATM   26  N   UNL     1      -9.721  12.610  66.651  1.00  0.00    -0.243 NA 
ENDBRANCH  15  17
ENDBRANCH  14  15
ENDBRANCH   7  14
TORSDOF 5
ENDMDL
MODEL      181
REMARK 921   NORMALIZED FREE ENERGY PREDICTED BY IDOCK:   -4.53 KCAL/MOL
REMARK 922        TOTAL FREE ENERGY PREDICTED BY IDOCK:   -6.69 KCAL/MOL
REMARK 923 INTER-LIGAND FREE ENERGY PREDICTED BY IDOCK:   -5.82 KCAL/MOL
REMARK 924 INTRA-LIGAND FREE ENERGY PREDICTED BY IDOCK:   -0.87 KCAL/MOL
REMARK 927      BINDING AFFINITY PREDICTED BY RF-SCORE:    0.00 PKD
ROOT
HETATM    1  C   UNL     1     -11.305  11.218  67.492  1.00  0.00    -0.360 C  
HETATM    2  C   UNL     1     -10.150  12.173  67.437  1.00  0.00    -0.208 A  
HETATM    3  C   UNL     1     -10.259  13.437  66.818  1.00  0.00    -0.259 A  
HETATM    4  C   UNL     1      -9.228  14.365  66.965  1.00  0.00    -0.246 A  
HETATM    5  N   UNL     1      -7.902  12.745  68.145  1.00  0.00    -0.137 NA 
HETATM    6  C   UNL     1      -8.092  13.985  67.642  1.00  0.00    -0.174 A  
HETATM    7  C   UNL     1      -8.914  11.844  68.023  1.00  0.00    -0.185 A  
ENDROOT
BRANCH   3   8
HETATM    8  O   UNL     1     -11.334  13.921  66.111  1.00  0.00    -0.310 OA 
BRANCH   8   9
HETATM    9  C   UNL     1     -11.143  14.105  64.698  1.00  0.00    -0.371 C  
HETATM   10  C   UNL     1     -11.760  12.991  63.855  1.00  0.00    -0.468 C  
HETATM   11  F   UNL     1     -10.797  12.235  63.274  1.00  0.00    -0.444 F  
HETATM   12  F   UNL     1     -12.506  13.515  62.851  1.00  0.00    -0.521 F  
HETATM   13  F   UNL     1     -12.559  12.164  64.561  1.00  0.00    -0.485 F  
ENDBRANCH   8   9
ENDBRANCH   3   8
BRANCH   7  14
HETATM   14  C   UNL     1      -8.578  10.456  68.546  1.00  0.00    -0.134 C  
BRANCH  14  15
HETATM   15  S   UNL     1      -8.058   9.341  67.230  1.00  0.00    -0.113 S  
HETATM   16  O   UNL     1      -6.607   9.501  66.874  1.00  0.00    -0.066 OA 
BRANCH  15  17
HETATM   17  C   UNL     1      -8.181   7.806  68.033  1.00  0.00    -0.123 A  
HETATM   18  N   UNL     1      -7.991   7.586  69.316  1.00  0.00    -0.119 NA 
HETATM   19  C   UNL     1      -8.436   6.300  69.529  1.00  0.00    -0.129 A  
HETATM   20  H   UNL     1      -7.598   8.229  70.005  1.00  0.00     0.000 HD 
HETATM   21  C   UNL     1      -8.534   5.569  70.725  1.00  0.00    -0.122 A  
HETATM   22  C   UNL     1      -9.129   4.301  70.692  1.00  0.00    -0.175 A  
HETATM   23  C   UNL     1      -9.603   3.763  69.494  1.00  0.00    -0.230 A  
HETATM   24  C   UNL     1      -9.475   4.457  68.283  1.00  0.00    -0.210 A  
HETATM   25  C   UNL     1      -8.883   5.723  68.345  1.00  0.00    -0.109 A  
HETATM   26  N   UNL     1      -8.614   6.672  67.392  1.00  0.00    -0.119 NA 
ENDBRANCH  15  17
ENDBRANCH  14  15
ENDBRANCH   7  14
TORSDOF 5
ENDMDL
MODEL      182
REMARK 921   NORMALIZED FREE ENERGY PREDICTED BY IDOCK:   -4.53 KCAL/MOL
REMARK 922        TOTAL FREE ENERGY PREDICTED BY IDOCK:   -6.68 KCAL/MOL
REMARK 923 INTER-LIGAND FREE ENERGY PREDICTED BY IDOCK:   -6.04 KCAL/MOL
REMARK 924 INTRA-LIGAND FREE ENERGY PREDICTED BY IDOCK:   -0.64 KCAL/MOL
REMARK 927      BINDING AFFINITY PREDICTED BY RF-SCORE:    0.00 PKD
ROOT
HETATM    1  C   UNL     1      -9.957  15.471  69.455  1.00  0.00    -0.280 C  
HETATM    2  C   UNL     1     -10.222  14.623  68.246  1.00  0.00    -0.227 A  
HETATM    3  C   UNL     1     -11.403  13.862  68.114  1.00  0.00    -0.295 A  
HETATM    4  C   UNL     1     -11.695  13.251  66.895  1.00  0.00    -0.437 A  
HETATM    5  N   UNL     1      -9.576  13.955  66.005  1.00  0.00    -0.234 NA 
HETATM    6  C   UNL     1     -10.772  13.339  65.878  1.00  0.00    -0.275 A  
HETATM    7  C   UNL     1      -9.297  14.571  67.186  1.00  0.00    -0.218 A  
ENDROOT
BRANCH   3   8
HETATM    8  O   UNL     1     -12.387  13.695  69.059  1.00  0.00    -0.280 OA 
BRANCH   8   9
HETATM    9  C   UNL     1     -12.009  13.017  70.268  1.00  0.00    -0.285 C  
HETATM   10  C   UNL     1     -12.226  11.506  70.208  1.00  0.00    -0.332 C  
HETATM   11  F   UNL     1     -13.236  11.130  71.029  1.00  0.00    -0.389 F  
HETATM   12  F   UNL     1     -11.116  10.851  70.626  1.00  0.00    -0.330 F  
HETATM   13  F   UNL     1     -12.517  11.056  68.969  1.00  0.00    -0.383 F  
ENDBRANCH   8   9
ENDBRANCH   3   8
BRANCH   7  14
HETATM   14  C   UNL     1      -7.901  15.167  67.262  1.00  0.00    -0.211 C  
BRANCH  14  15
HETATM   15  S   UNL     1      -6.760  14.112  68.172  1.00  0.00    -0.143 S  
HETATM   16  O   UNL     1      -6.888  14.268  69.661  1.00  0.00    -0.133 OA 
BRANCH  15  17
HETATM   17  C   UNL     1      -7.402  12.540  67.805  1.00  0.00    -0.124 A  
HETATM   18  N   UNL     1      -8.457  11.985  68.363  1.00  0.00    -0.210 NA 
HETATM   19  C   UNL     1      -8.727  10.876  67.592  1.00  0.00    -0.127 A  
HETATM   20  H   UNL     1      -8.965  12.307  69.187  1.00  0.00     0.000 HD 
HETATM   21  C   UNL     1      -9.782   9.952  67.684  1.00  0.00    -0.183 A  
HETATM   22  C   UNL     1      -9.896   8.960  66.701  1.00  0.00    -0.332 A  
HETATM   23  C   UNL     1      -8.974   8.878  65.657  1.00  0.00    -0.249 A  
HETATM   24  C   UNL     1      -7.889   9.761  65.571  1.00  0.00    -0.120 A  
HETATM   25  C   UNL     1      -7.801  10.745  66.561  1.00  0.00    -0.145 A  
HETATM   26  N   UNL     1      -6.912  11.764  66.784  1.00  0.00    -0.096 NA 
ENDBRANCH  15  17
ENDBRANCH  14  15
ENDBRANCH   7  14
TORSDOF 5
ENDMDL
MODEL      183
REMARK 921   NORMALIZED FREE ENERGY PREDICTED BY IDOCK:   -4.53 KCAL/MOL
REMARK 922        TOTAL FREE ENERGY PREDICTED BY IDOCK:   -6.68 KCAL/MOL
REMARK 923 INTER-LIGAND FREE ENERGY PREDICTED BY IDOCK:   -5.87 KCAL/MOL
REMARK 924 INTRA-LIGAND FREE ENERGY PREDICTED BY IDOCK:   -0.81 KCAL/MOL
REMARK 927      BINDING AFFINITY PREDICTED BY RF-SCORE:    0.00 PKD
ROOT
HETATM    1  C   UNL     1     -10.933  11.858  67.880  1.00  0.00    -0.270 C  
HETATM    2  C   UNL     1      -9.686  12.667  67.681  1.00  0.00    -0.197 A  
HETATM    3  C   UNL     1      -9.681  14.072  67.819  1.00  0.00    -0.228 A  
HETATM    4  C   UNL     1      -8.466  14.757  67.822  1.00  0.00    -0.169 A  
HETATM    5  N   UNL     1      -7.284  12.720  67.345  1.00  0.00    -0.149 NA 
HETATM    6  C   UNL     1      -7.309  14.047  67.601  1.00  0.00    -0.175 A  
HETATM    7  C   UNL     1      -8.464  12.044  67.364  1.00  0.00    -0.170 A  
ENDROOT
BRANCH   3   8
HETATM    8  O   UNL     1     -10.768  14.885  68.033  1.00  0.00    -0.245 OA 
BRANCH   8   9
HETATM    9  C   UNL     1     -10.946  15.380  69.370  1.00  0.00    -0.276 C  
HETATM   10  C   UNL     1     -12.191  14.825  70.061  1.00  0.00    -0.333 C  
HETATM   11  F   UNL     1     -13.125  15.793  70.225  1.00  0.00    -0.398 F  
HETATM   12  F   UNL     1     -11.880  14.366  71.298  1.00  0.00    -0.362 F  
HETATM   13  F   UNL     1     -12.769  13.808  69.387  1.00  0.00    -0.278 F  
ENDBRANCH   8   9
ENDBRANCH   3   8
BRANCH   7  14
HETATM   14  C   UNL     1      -8.347  10.576  66.987  1.00  0.00    -0.128 C  
BRANCH  14  15
HETATM   15  S   UNL     1      -7.473   9.620  68.240  1.00  0.00    -0.077 S  
HETATM   16  O   UNL     1      -6.584  10.470  69.102  1.00  0.00    -0.049 OA 
BRANCH  15  17
HETATM   17  C   UNL     1      -8.792   9.131  69.259  1.00  0.00    -0.144 A  
HETATM   18  N   UNL     1      -9.822   8.399  68.893  1.00  0.00    -0.175 NA 
HETATM   19  C   UNL     1     -10.458   8.063  70.068  1.00  0.00    -0.228 A  
HETATM   20  H   UNL     1     -10.092   8.136  67.945  1.00  0.00     0.000 HD 
HETATM   21  C   UNL     1     -11.575   7.238  70.283  1.00  0.00    -0.208 A  
HETATM   22  C   UNL     1     -11.967   6.965  71.600  1.00  0.00    -0.379 A  
HETATM   23  C   UNL     1     -11.275   7.512  72.681  1.00  0.00    -0.399 A  
HETATM   24  C   UNL     1     -10.186   8.373  72.489  1.00  0.00    -0.369 A  
HETATM   25  C   UNL     1      -9.811   8.625  71.165  1.00  0.00    -0.222 A  
HETATM   26  N   UNL     1      -8.812   9.380  70.608  1.00  0.00    -0.238 NA 
ENDBRANCH  15  17
ENDBRANCH  14  15
ENDBRANCH   7  14
TORSDOF 5
ENDMDL
MODEL      184
REMARK 921   NORMALIZED FREE ENERGY PREDICTED BY IDOCK:   -4.53 KCAL/MOL
REMARK 922        TOTAL FREE ENERGY PREDICTED BY IDOCK:   -6.68 KCAL/MOL
REMARK 923 INTER-LIGAND FREE ENERGY PREDICTED BY IDOCK:   -5.77 KCAL/MOL
REMARK 924 INTRA-LIGAND FREE ENERGY PREDICTED BY IDOCK:   -0.91 KCAL/MOL
REMARK 927      BINDING AFFINITY PREDICTED BY RF-SCORE:    0.00 PKD
ROOT
HETATM    1  C   UNL     1      -8.729   9.404  69.354  1.00  0.00    -0.157 C  
HETATM    2  C   UNL     1     -10.054  10.073  69.574  1.00  0.00    -0.248 A  
HETATM    3  C   UNL     1     -10.560  11.037  68.676  1.00  0.00    -0.196 A  
HETATM    4  C   UNL     1     -11.874  11.482  68.814  1.00  0.00    -0.394 A  
HETATM    5  N   UNL     1     -12.126  10.199  70.830  1.00  0.00    -0.328 NA 
HETATM    6  C   UNL     1     -12.614  11.028  69.881  1.00  0.00    -0.136 A  
HETATM    7  C   UNL     1     -10.851   9.745  70.687  1.00  0.00    -0.329 A  
ENDROOT
BRANCH   3   8
HETATM    8  O   UNL     1      -9.914  11.568  67.586  1.00  0.00    -0.180 OA 
BRANCH   8   9
HETATM    9  C   UNL     1      -9.522  12.948  67.681  1.00  0.00    -0.197 C  
HETATM   10  C   UNL     1      -8.035  13.136  67.974  1.00  0.00    -0.156 C  
HETATM   11  F   UNL     1      -7.847  13.623  69.224  1.00  0.00    -0.008 F  
HETATM   12  F   UNL     1      -7.494  14.036  67.116  1.00  0.00    -0.187 F  
HETATM   13  F   UNL     1      -7.319  11.997  67.867  1.00  0.00    -0.081 F  
ENDBRANCH   8   9
ENDBRANCH   3   8
BRANCH   7  14
HETATM   14  C   UNL     1     -10.364   8.883  71.842  1.00  0.00    -0.337 C  
BRANCH  14  15
HETATM   15  S   UNL     1     -11.332   7.374  72.020  1.00  0.00    -0.275 S  
HETATM   16  O   UNL     1     -12.808   7.639  72.108  1.00  0.00    -0.241 OA 
BRANCH  15  17
HETATM   17  C   UNL     1     -11.077   6.635  70.468  1.00  0.00    -0.307 A  
HETATM   18  N   UNL     1     -11.657   6.985  69.340  1.00  0.00    -0.546 NA 
HETATM   19  C   UNL     1     -10.971   6.303  68.359  1.00  0.00    -0.325 A  
HETATM   20  H   UNL     1     -12.445   7.621  69.218  1.00  0.00     0.000 HD 
HETATM   21  C   UNL     1     -11.116   6.350  66.962  1.00  0.00    -0.405 A  
HETATM   22  C   UNL     1     -10.211   5.634  66.167  1.00  0.00    -0.093 A  
HETATM   23  C   UNL     1      -9.193   4.876  66.747  1.00  0.00    -0.122 A  
HETATM   24  C   UNL     1      -9.058   4.780  68.138  1.00  0.00    -0.141 A  
HETATM   25  C   UNL     1      -9.970   5.508  68.909  1.00  0.00    -0.174 A  
HETATM   26  N   UNL     1     -10.128   5.665  70.261  1.00  0.00    -0.204 NA 
ENDBRANCH  15  17
ENDBRANCH  14  15
ENDBRANCH   7  14
TORSDOF 5
ENDMDL
MODEL      185
REMARK 921   NORMALIZED FREE ENERGY PREDICTED BY IDOCK:   -4.52 KCAL/MOL
REMARK 922        TOTAL FREE ENERGY PREDICTED BY IDOCK:   -6.67 KCAL/MOL
REMARK 923 INTER-LIGAND FREE ENERGY PREDICTED BY IDOCK:   -5.95 KCAL/MOL
REMARK 924 INTRA-LIGAND FREE ENERGY PREDICTED BY IDOCK:   -0.72 KCAL/MOL
REMARK 927      BINDING AFFINITY PREDICTED BY RF-SCORE:    0.00 PKD
ROOT
HETATM    1  C   UNL     1      -7.325  12.158  66.937  1.00  0.00    -0.009 C  
HETATM    2  C   UNL     1      -8.647  11.516  67.241  1.00  0.00    -0.150 A  
HETATM    3  C   UNL     1      -9.865  12.212  67.089  1.00  0.00    -0.197 A  
HETATM    4  C   UNL     1     -11.070  11.519  67.190  1.00  0.00    -0.355 A  
HETATM    5  N   UNL     1      -9.895   9.512  67.796  1.00  0.00    -0.154 NA 
HETATM    6  C   UNL     1     -11.035  10.184  67.524  1.00  0.00    -0.255 A  
HETATM    7  C   UNL     1      -8.715  10.179  67.676  1.00  0.00    -0.121 A  
ENDROOT
BRANCH   3   8
HETATM    8  O   UNL     1     -10.023  13.539  66.767  1.00  0.00    -0.255 OA 
BRANCH   8   9
HETATM    9  C   UNL     1     -10.299  13.837  65.388  1.00  0.00    -0.333 C  
HETATM   10  C   UNL     1     -11.756  14.216  65.131  1.00  0.00    -0.361 C  
HETATM   11  F   UNL     1     -12.389  13.250  64.422  1.00  0.00    -0.407 F  
HETATM   12  F   UNL     1     -11.827  15.353  64.396  1.00  0.00    -0.422 F  
HETATM   13  F   UNL     1     -12.464  14.423  66.262  1.00  0.00    -0.441 F  
ENDBRANCH   8   9
ENDBRANCH   3   8
BRANCH   7  14
HETATM   14  C   UNL     1      -7.496   9.366  68.079  1.00  0.00    -0.080 C  
BRANCH  14  15
HETATM   15  S   UNL     1      -6.958   9.733  69.759  1.00  0.00    -0.104 S  
HETATM   16  O   UNL     1      -7.113  11.185  70.112  1.00  0.00    -0.079 OA 
BRANCH  15  17
HETATM   17  C   UNL     1      -8.164   8.891  70.682  1.00  0.00    -0.162 A  
HETATM   18  N   UNL     1      -8.956   7.940  70.235  1.00  0.00    -0.150 NA 
HETATM   19  C   UNL     1      -9.549   7.411  71.361  1.00  0.00    -0.159 A  
HETATM   20  H   UNL     1      -9.100   7.656  69.267  1.00  0.00     0.000 HD 
HETATM   21  C   UNL     1     -10.433   6.325  71.486  1.00  0.00    -0.266 A  
HETATM   22  C   UNL     1     -10.814   5.911  72.769  1.00  0.00    -0.289 A  
HETATM   23  C   UNL     1     -10.340   6.571  73.904  1.00  0.00    -0.356 A  
HETATM   24  C   UNL     1      -9.494   7.683  73.800  1.00  0.00    -0.300 A  
HETATM   25  C   UNL     1      -9.124   8.072  72.508  1.00  0.00    -0.209 A  
HETATM   26  N   UNL     1      -8.318   9.074  72.033  1.00  0.00    -0.334 NA 
ENDBRANCH  15  17
ENDBRANCH  14  15
ENDBRANCH   7  14
TORSDOF 5
ENDMDL
MODEL      186
REMARK 921   NORMALIZED FREE ENERGY PREDICTED BY IDOCK:   -4.48 KCAL/MOL
REMARK 922        TOTAL FREE ENERGY PREDICTED BY IDOCK:   -6.61 KCAL/MOL
REMARK 923 INTER-LIGAND FREE ENERGY PREDICTED BY IDOCK:   -6.12 KCAL/MOL
REMARK 924 INTRA-LIGAND FREE ENERGY PREDICTED BY IDOCK:   -0.49 KCAL/MOL
REMARK 927      BINDING AFFINITY PREDICTED BY RF-SCORE:    0.00 PKD
ROOT
HETATM    1  C   UNL     1     -11.157  10.622  67.269  1.00  0.00    -0.313 C  
HETATM    2  C   UNL     1      -9.789  11.044  67.719  1.00  0.00    -0.190 A  
HETATM    3  C   UNL     1      -9.150  12.185  67.190  1.00  0.00    -0.189 A  
HETATM    4  C   UNL     1      -7.974  12.649  67.777  1.00  0.00    -0.158 A  
HETATM    5  N   UNL     1      -7.939  10.760  69.262  1.00  0.00    -0.135 NA 
HETATM    6  C   UNL     1      -7.422  11.923  68.807  1.00  0.00    -0.100 A  
HETATM    7  C   UNL     1      -9.099  10.316  68.707  1.00  0.00    -0.159 A  
ENDROOT
BRANCH   3   8
HETATM    8  O   UNL     1      -9.599  12.980  66.162  1.00  0.00    -0.260 OA 
BRANCH   8   9
HETATM    9  C   UNL     1     -10.537  14.012  66.511  1.00  0.00    -0.279 C  
HETATM   10  C   UNL     1     -11.369  14.499  65.326  1.00  0.00    -0.353 C  
HETATM   11  F   UNL     1     -11.027  15.765  64.984  1.00  0.00    -0.357 F  
HETATM   12  F   UNL     1     -12.685  14.522  65.649  1.00  0.00    -0.393 F  
HETATM   13  F   UNL     1     -11.238  13.728  64.226  1.00  0.00    -0.370 F  
ENDBRANCH   8   9
ENDBRANCH   3   8
BRANCH   7  14
HETATM   14  C   UNL     1      -9.559   8.963  69.226  1.00  0.00    -0.162 C  
BRANCH  14  15
HETATM   15  S   UNL     1      -9.839   8.977  71.006  1.00  0.00    -0.301 S  
HETATM   16  O   UNL     1     -11.077   9.736  71.392  1.00  0.00    -0.359 OA 
BRANCH  15  17
HETATM   17  C   UNL     1     -10.202   7.302  71.294  1.00  0.00    -0.189 A  
HETATM   18  N   UNL     1      -9.598   6.273  70.740  1.00  0.00    -0.175 NA 
HETATM   19  C   UNL     1     -10.040   5.176  71.447  1.00  0.00    -0.200 A  
HETATM   20  H   UNL     1      -8.944   6.284  69.957  1.00  0.00     0.000 HD 
HETATM   21  C   UNL     1      -9.671   3.825  71.333  1.00  0.00    -0.242 A  
HETATM   22  C   UNL     1     -10.191   2.906  72.254  1.00  0.00    -0.180 A  
HETATM   23  C   UNL     1     -11.071   3.317  73.256  1.00  0.00    -0.230 A  
HETATM   24  C   UNL     1     -11.487   4.651  73.360  1.00  0.00    -0.335 A  
HETATM   25  C   UNL     1     -10.948   5.549  72.433  1.00  0.00    -0.255 A  
HETATM   26  N   UNL     1     -11.106   6.898  72.244  1.00  0.00    -0.241 NA 
ENDBRANCH  15  17
ENDBRANCH  14  15
ENDBRANCH   7  14
TORSDOF 5
ENDMDL
MODEL      187
REMARK 921   NORMALIZED FREE ENERGY PREDICTED BY IDOCK:   -4.47 KCAL/MOL
REMARK 922        TOTAL FREE ENERGY PREDICTED BY IDOCK:   -6.61 KCAL/MOL
REMARK 923 INTER-LIGAND FREE ENERGY PREDICTED BY IDOCK:   -5.82 KCAL/MOL
REMARK 924 INTRA-LIGAND FREE ENERGY PREDICTED BY IDOCK:   -0.78 KCAL/MOL
REMARK 927      BINDING AFFINITY PREDICTED BY RF-SCORE:    0.00 PKD
ROOT
HETATM    1  C   UNL     1     -11.793  11.428  70.609  1.00  0.00    -0.327 C  
HETATM    2  C   UNL     1     -11.199  10.408  69.683  1.00  0.00    -0.333 A  
HETATM    3  C   UNL     1     -10.498   9.283  70.167  1.00  0.00    -0.230 A  
HETATM    4  C   UNL     1     -10.139   8.265  69.284  1.00  0.00    -0.199 A  
HETATM    5  N   UNL     1     -10.967   9.547  67.427  1.00  0.00    -0.151 NA 
HETATM    6  C   UNL     1     -10.406   8.432  67.944  1.00  0.00    -0.221 A  
HETATM    7  C   UNL     1     -11.339  10.533  68.288  1.00  0.00    -0.264 A  
ENDROOT
BRANCH   3   8
HETATM    8  O   UNL     1     -10.168   9.015  71.474  1.00  0.00    -0.298 OA 
BRANCH   8   9
HETATM    9  C   UNL     1     -10.231   7.637  71.881  1.00  0.00    -0.193 C  
HETATM   10  C   UNL     1     -11.376   7.344  72.849  1.00  0.00    -0.273 C  
HETATM   11  F   UNL     1     -10.903   7.061  74.086  1.00  0.00    -0.336 F  
HETATM   12  F   UNL     1     -12.076   6.258  72.437  1.00  0.00    -0.332 F  
HETATM   13  F   UNL     1     -12.251   8.365  72.969  1.00  0.00    -0.410 F  
ENDBRANCH   8   9
ENDBRANCH   3   8
BRANCH   7  14
HETATM   14  C   UNL     1     -11.885  11.779  67.609  1.00  0.00    -0.171 C  
BRANCH  14  15
HETATM   15  S   UNL     1     -11.214  12.000  65.952  1.00  0.00    -0.328 S  
HETATM   16  O   UNL     1     -11.808  13.182  65.239  1.00  0.00    -0.330 OA 
BRANCH  15  17
HETATM   17  C   UNL     1      -9.575  12.445  66.319  1.00  0.00    -0.241 A  
HETATM   18  N   UNL     1      -9.159  13.641  66.675  1.00  0.00    -0.399 NA 
HETATM   19  C   UNL     1      -7.861  13.457  67.099  1.00  0.00    -0.019 A  
HETATM   20  H   UNL     1      -9.684  14.516  66.645  1.00  0.00     0.000 HD 
HETATM   21  C   UNL     1      -6.956  14.379  67.652  1.00  0.00    -0.203 A  
HETATM   22  C   UNL     1      -5.716  13.914  68.108  1.00  0.00    -0.123 A  
HETATM   23  C   UNL     1      -5.375  12.564  68.003  1.00  0.00    -0.078 A  
HETATM   24  C   UNL     1      -6.244  11.636  67.414  1.00  0.00    -0.101 A  
HETATM   25  C   UNL     1      -7.478  12.125  66.972  1.00  0.00    -0.086 A  
HETATM   26  N   UNL     1      -8.558  11.525  66.380  1.00  0.00    -0.177 NA 
ENDBRANCH  15  17
ENDBRANCH  14  15
ENDBRANCH   7  14
TORSDOF 5
ENDMDL
MODEL      188
REMARK 921   NORMALIZED FREE ENERGY PREDICTED BY IDOCK:   -4.47 KCAL/MOL
REMARK 922        TOTAL FREE ENERGY PREDICTED BY IDOCK:   -6.60 KCAL/MOL
REMARK 923 INTER-LIGAND FREE ENERGY PREDICTED BY IDOCK:   -6.16 KCAL/MOL
REMARK 924 INTRA-LIGAND FREE ENERGY PREDICTED BY IDOCK:   -0.45 KCAL/MOL
REMARK 927      BINDING AFFINITY PREDICTED BY RF-SCORE:    0.00 PKD
ROOT
HETATM    1  C   UNL     1      -7.236  12.594  67.474  1.00  0.00    -0.155 C  
HETATM    2  C   UNL     1      -8.611  12.126  67.102  1.00  0.00    -0.185 A  
HETATM    3  C   UNL     1      -8.930  10.754  67.006  1.00  0.00    -0.141 A  
HETATM    4  C   UNL     1     -10.261  10.367  66.854  1.00  0.00    -0.281 A  
HETATM    5  N   UNL     1     -10.938  12.667  66.678  1.00  0.00    -0.251 NA 
HETATM    6  C   UNL     1     -11.219  11.345  66.714  1.00  0.00    -0.252 A  
HETATM    7  C   UNL     1      -9.643  13.049  66.849  1.00  0.00    -0.243 A  
ENDROOT
BRANCH   3   8
HETATM    8  O   UNL     1      -8.062   9.695  67.121  1.00  0.00    -0.109 OA 
BRANCH   8   9
HETATM    9  C   UNL     1      -7.478   9.209  65.900  1.00  0.00    -0.094 C  
HETATM   10  C   UNL     1      -6.465   8.087  66.119  1.00  0.00    -0.046 C  
HETATM   11  F   UNL     1      -5.208   8.510  65.844  1.00  0.00    -0.029 F  
HETATM   12  F   UNL     1      -6.721   7.049  65.285  1.00  0.00    -0.046 F  
HETATM   13  F   UNL     1      -6.467   7.601  67.379  1.00  0.00    -0.050 F  
ENDBRANCH   8   9
ENDBRANCH   3   8
BRANCH   7  14
HETATM   14  C   UNL     1      -9.414  14.546  66.715  1.00  0.00    -0.269 C  
BRANCH  14  15
HETATM   15  S   UNL     1      -9.202  15.348  68.314  1.00  0.00    -0.192 S  
HETATM   16  O   UNL     1      -9.297  16.845  68.229  1.00  0.00    -0.233 OA 
BRANCH  15  17
HETATM   17  C   UNL     1     -10.642  14.829  69.135  1.00  0.00    -0.248 A  
HETATM   18  N   UNL     1     -10.841  13.646  69.677  1.00  0.00    -0.446 NA 
HETATM   19  C   UNL     1     -11.996  13.781  70.415  1.00  0.00    -0.315 A  
HETATM   20  H   UNL     1     -10.264  12.811  69.574  1.00  0.00     0.000 HD 
HETATM   21  C   UNL     1     -12.639  12.856  71.256  1.00  0.00    -0.352 A  
HETATM   22  C   UNL     1     -13.757  13.276  71.989  1.00  0.00    -0.519 A  
HETATM   23  C   UNL     1     -14.235  14.583  71.878  1.00  0.00    -0.622 A  
HETATM   24  C   UNL     1     -13.636  15.508  71.012  1.00  0.00    -0.377 A  
HETATM   25  C   UNL     1     -12.519  15.065  70.296  1.00  0.00    -0.337 A  
HETATM   26  N   UNL     1     -11.689  15.678  69.395  1.00  0.00    -0.364 NA 
ENDBRANCH  15  17
ENDBRANCH  14  15
ENDBRANCH   7  14
TORSDOF 5
ENDMDL
MODEL      189
REMARK 921   NORMALIZED FREE ENERGY PREDICTED BY IDOCK:   -4.46 KCAL/MOL
REMARK 922        TOTAL FREE ENERGY PREDICTED BY IDOCK:   -6.60 KCAL/MOL
REMARK 923 INTER-LIGAND FREE ENERGY PREDICTED BY IDOCK:   -5.62 KCAL/MOL
REMARK 924 INTRA-LIGAND FREE ENERGY PREDICTED BY IDOCK:   -0.98 KCAL/MOL
REMARK 927      BINDING AFFINITY PREDICTED BY RF-SCORE:    0.00 PKD
ROOT
HETATM    1  C   UNL     1      -8.185   4.554  71.474  1.00  0.00    -0.101 C  
HETATM    2  C   UNL     1      -9.224   5.256  70.651  1.00  0.00    -0.187 A  
HETATM    3  C   UNL     1      -8.967   5.676  69.328  1.00  0.00    -0.113 A  
HETATM    4  C   UNL     1     -10.018   6.142  68.538  1.00  0.00    -0.173 A  
HETATM    5  N   UNL     1     -11.525   5.984  70.404  1.00  0.00    -0.261 NA 
HETATM    6  C   UNL     1     -11.266   6.260  69.107  1.00  0.00    -0.371 A  
HETATM    7  C   UNL     1     -10.507   5.507  71.171  1.00  0.00    -0.236 A  
ENDROOT
BRANCH   3   8
HETATM    8  O   UNL     1      -7.767   5.615  68.660  1.00  0.00    -0.089 OA 
BRANCH   8   9
HETATM    9  C   UNL     1      -7.643   6.437  67.487  1.00  0.00    -0.100 C  
HETATM   10  C   UNL     1      -7.338   7.900  67.804  1.00  0.00    -0.096 C  
HETATM   11  F   UNL     1      -8.398   8.689  67.507  1.00  0.00    -0.115 F  
HETATM   12  F   UNL     1      -6.298   8.339  67.052  1.00  0.00    -0.051 F  
HETATM   13  F   UNL     1      -7.018   8.113  69.097  1.00  0.00    -0.054 F  
ENDBRANCH   8   9
ENDBRANCH   3   8
BRANCH   7  14
HETATM   14  C   UNL     1     -10.874   5.301  72.632  1.00  0.00    -0.253 C  
BRANCH  14  15
HETATM   15  S   UNL     1     -10.286   6.646  73.677  1.00  0.00    -0.343 S  
HETATM   16  O   UNL     1      -8.806   6.581  73.927  1.00  0.00    -0.126 OA 
BRANCH  15  17
HETATM   17  C   UNL     1     -10.528   8.008  72.627  1.00  0.00    -0.339 A  
HETATM   18  N   UNL     1      -9.659   8.481  71.760  1.00  0.00    -0.239 NA 
HETATM   19  C   UNL     1     -10.369   9.381  70.995  1.00  0.00    -0.312 A  
HETATM   20  H   UNL     1      -8.673   8.235  71.672  1.00  0.00     0.000 HD 
HETATM   21  C   UNL     1      -9.962  10.130  69.878  1.00  0.00    -0.250 A  
HETATM   22  C   UNL     1     -10.916  10.902  69.202  1.00  0.00    -0.290 A  
HETATM   23  C   UNL     1     -12.242  10.941  69.634  1.00  0.00    -0.354 A  
HETATM   24  C   UNL     1     -12.659  10.237  70.772  1.00  0.00    -0.442 A  
HETATM   25  C   UNL     1     -11.689   9.470  71.425  1.00  0.00    -0.393 A  
HETATM   26  N   UNL     1     -11.733   8.658  72.529  1.00  0.00    -0.329 NA 
ENDBRANCH  15  17
ENDBRANCH  14  15
ENDBRANCH   7  14
TORSDOF 5
ENDMDL
MODEL      190
REMARK 921   NORMALIZED FREE ENERGY PREDICTED BY IDOCK:   -4.46 KCAL/MOL
REMARK 922        TOTAL FREE ENERGY PREDICTED BY IDOCK:   -6.59 KCAL/MOL
REMARK 923 INTER-LIGAND FREE ENERGY PREDICTED BY IDOCK:   -5.85 KCAL/MOL
REMARK 924 INTRA-LIGAND FREE ENERGY PREDICTED BY IDOCK:   -0.74 KCAL/MOL
REMARK 927      BINDING AFFINITY PREDICTED BY RF-SCORE:    0.00 PKD
ROOT
HETATM    1  C   UNL     1      -8.780   9.462  70.231  1.00  0.00    -0.261 C  
HETATM    2  C   UNL     1      -9.936  10.155  69.573  1.00  0.00    -0.257 A  
HETATM    3  C   UNL     1     -11.182  10.302  70.220  1.00  0.00    -0.323 A  
HETATM    4  C   UNL     1     -12.158  11.121  69.655  1.00  0.00    -0.406 A  
HETATM    5  N   UNL     1     -10.773  11.484  67.724  1.00  0.00    -0.197 NA 
HETATM    6  C   UNL     1     -11.905  11.698  68.431  1.00  0.00    -0.278 A  
HETATM    7  C   UNL     1      -9.809  10.703  68.283  1.00  0.00    -0.163 A  
ENDROOT
BRANCH   3   8
HETATM    8  O   UNL     1     -11.550   9.769  71.433  1.00  0.00    -0.364 OA 
BRANCH   8   9
HETATM    9  C   UNL     1     -11.755   8.347  71.473  1.00  0.00    -0.290 C  
HETATM   10  C   UNL     1     -13.230   7.948  71.448  1.00  0.00    -0.245 C  
HETATM   11  F   UNL     1     -13.610   7.428  72.640  1.00  0.00     0.127 F  
HETATM   12  F   UNL     1     -13.444   6.988  70.515  1.00  0.00    -0.177 F  
HETATM   13  F   UNL     1     -14.058   8.975  71.166  1.00  0.00    -0.409 F  
ENDBRANCH   8   9
ENDBRANCH   3   8
BRANCH   7  14
HETATM   14  C   UNL     1      -8.609  10.456  67.382  1.00  0.00    -0.125 C  
BRANCH  14  15
HETATM   15  S   UNL     1      -7.239  11.564  67.756  1.00  0.00    -0.101 S  
HETATM   16  O   UNL     1      -6.101  11.427  66.785  1.00  0.00    -0.118 OA 
BRANCH  15  17
HETATM   17  C   UNL     1      -7.963  13.107  67.420  1.00  0.00    -0.171 A  
HETATM   18  N   UNL     1      -8.644  13.423  66.340  1.00  0.00    -0.378 NA 
HETATM   19  C   UNL     1      -9.225  14.640  66.626  1.00  0.00    -0.267 A  
HETATM   20  H   UNL     1      -8.726  12.885  65.477  1.00  0.00     0.000 HD 
HETATM   21  C   UNL     1     -10.114  15.414  65.862  1.00  0.00    -0.370 A  
HETATM   22  C   UNL     1     -10.652  16.577  66.429  1.00  0.00    -0.221 A  
HETATM   23  C   UNL     1     -10.303  16.971  67.722  1.00  0.00    -0.335 A  
HETATM   24  C   UNL     1      -9.385  16.237  68.485  1.00  0.00    -0.213 A  
HETATM   25  C   UNL     1      -8.866  15.078  67.898  1.00  0.00    -0.171 A  
HETATM   26  N   UNL     1      -7.982  14.127  68.338  1.00  0.00    -0.136 NA 
ENDBRANCH  15  17
ENDBRANCH  14  15
ENDBRANCH   7  14
TORSDOF 5
ENDMDL
MODEL      191
REMARK 921   NORMALIZED FREE ENERGY PREDICTED BY IDOCK:   -4.44 KCAL/MOL
REMARK 922        TOTAL FREE ENERGY PREDICTED BY IDOCK:   -6.57 KCAL/MOL
REMARK 923 INTER-LIGAND FREE ENERGY PREDICTED BY IDOCK:   -5.84 KCAL/MOL
REMARK 924 INTRA-LIGAND FREE ENERGY PREDICTED BY IDOCK:   -0.72 KCAL/MOL
REMARK 927      BINDING AFFINITY PREDICTED BY RF-SCORE:    0.00 PKD
ROOT
HETATM    1  C   UNL     1      -8.792   9.813  68.060  1.00  0.00    -0.119 C  
HETATM    2  C   UNL     1      -9.815  10.879  68.318  1.00  0.00    -0.179 A  
HETATM    3  C   UNL     1      -9.669  12.188  67.812  1.00  0.00    -0.197 A  
HETATM    4  C   UNL     1     -10.733  13.085  67.908  1.00  0.00    -0.249 A  
HETATM    5  N   UNL     1     -12.001  11.486  69.178  1.00  0.00    -0.330 NA 
HETATM    6  C   UNL     1     -11.870  12.688  68.575  1.00  0.00    -0.300 A  
HETATM    7  C   UNL     1     -10.973  10.600  69.067  1.00  0.00    -0.248 A  
ENDROOT
BRANCH   3   8
HETATM    8  O   UNL     1      -8.584  12.698  67.140  1.00  0.00    -0.189 OA 
BRANCH   8   9
HETATM    9  C   UNL     1      -8.236  14.063  67.425  1.00  0.00    -0.190 C  
HETATM   10  C   UNL     1      -7.470  14.231  68.736  1.00  0.00    -0.129 C  
HETATM   11  F   UNL     1      -8.229  14.865  69.662  1.00  0.00    -0.176 F  
HETATM   12  F   UNL     1      -6.366  14.994  68.544  1.00  0.00    -0.083 F  
HETATM   13  F   UNL     1      -7.063  13.062  69.272  1.00  0.00    -0.098 F  
ENDBRANCH   8   9
ENDBRANCH   3   8
BRANCH   7  14
HETATM   14  C   UNL     1     -11.179   9.309  69.843  1.00  0.00    -0.126 C  
BRANCH  14  15
HETATM   15  S   UNL     1     -12.019   9.584  71.413  1.00  0.00    -0.411 S  
HETATM   16  O   UNL     1     -13.512   9.470  71.298  1.00  0.00    -0.370 OA 
BRANCH  15  17
HETATM   17  C   UNL     1     -11.505   8.188  72.310  1.00  0.00    -0.371 A  
HETATM   18  N   UNL     1     -12.160   7.051  72.413  1.00  0.00    -0.494 NA 
HETATM   19  C   UNL     1     -11.268   6.177  72.995  1.00  0.00    -0.172 A  
HETATM   20  H   UNL     1     -13.119   6.859  72.126  1.00  0.00     0.000 HD 
HETATM   21  C   UNL     1     -11.406   4.808  73.279  1.00  0.00    -0.408 A  
HETATM   22  C   UNL     1     -10.300   4.109  73.781  1.00  0.00    -0.239 A  
HETATM   23  C   UNL     1      -9.086   4.760  74.010  1.00  0.00    -0.111 A  
HETATM   24  C   UNL     1      -8.940   6.134  73.776  1.00  0.00    -0.129 A  
HETATM   25  C   UNL     1     -10.057   6.807  73.270  1.00  0.00    -0.219 A  
HETATM   26  N   UNL     1     -10.275   8.112  72.913  1.00  0.00    -0.306 NA 
ENDBRANCH  15  17
ENDBRANCH  14  15
ENDBRANCH   7  14
TORSDOF 5
ENDMDL
MODEL      192
REMARK 921   NORMALIZED FREE ENERGY PREDICTED BY IDOCK:   -4.43 KCAL/MOL
REMARK 922        TOTAL FREE ENERGY PREDICTED BY IDOCK:   -6.56 KCAL/MOL
REMARK 923 INTER-LIGAND FREE ENERGY PREDICTED BY IDOCK:   -6.01 KCAL/MOL
REMARK 924 INTRA-LIGAND FREE ENERGY PREDICTED BY IDOCK:   -0.55 KCAL/MOL
REMARK 927      BINDING AFFINITY PREDICTED BY RF-SCORE:    0.00 PKD
ROOT
HETATM    1  C   UNL     1      -9.253   3.783  69.052  1.00  0.00    -0.221 C  
HETATM    2  C   UNL     1      -9.774   4.889  69.920  1.00  0.00    -0.276 A  
HETATM    3  C   UNL     1      -9.714   4.821  71.328  1.00  0.00    -0.178 A  
HETATM    4  C   UNL     1     -10.026   5.950  72.085  1.00  0.00    -0.196 A  
HETATM    5  N   UNL     1     -10.654   7.143  70.095  1.00  0.00    -0.223 NA 
HETATM    6  C   UNL     1     -10.469   7.078  71.432  1.00  0.00    -0.208 A  
HETATM    7  C   UNL     1     -10.330   6.051  69.351  1.00  0.00    -0.236 A  
ENDROOT
BRANCH   3   8
HETATM    8  O   UNL     1      -9.300   3.753  72.087  1.00  0.00    -0.114 OA 
BRANCH   8   9
HETATM    9  C   UNL     1     -10.235   2.672  72.238  1.00  0.00    -0.124 C  
HETATM   10  C   UNL     1     -10.824   2.573  73.644  1.00  0.00    -0.191 C  
HETATM   11  F   UNL     1     -10.369   1.468  74.282  1.00  0.00    -0.108 F  
HETATM   12  F   UNL     1     -12.174   2.464  73.585  1.00  0.00    -0.300 F  
HETATM   13  F   UNL     1     -10.540   3.640  74.420  1.00  0.00    -0.217 F  
ENDBRANCH   8   9
ENDBRANCH   3   8
BRANCH   7  14
HETATM   14  C   UNL     1     -10.647   6.190  67.871  1.00  0.00    -0.263 C  
BRANCH  14  15
HETATM   15  S   UNL     1      -9.176   6.532  66.890  1.00  0.00    -0.145 S  
HETATM   16  O   UNL     1      -9.141   5.752  65.606  1.00  0.00    -0.149 OA 
BRANCH  15  17
HETATM   17  C   UNL     1      -9.464   8.183  66.432  1.00  0.00    -0.218 A  
HETATM   18  N   UNL     1      -9.268   8.700  65.238  1.00  0.00    -0.434 NA 
HETATM   19  C   UNL     1      -9.861   9.943  65.285  1.00  0.00    -0.303 A  
HETATM   20  H   UNL     1      -8.783   8.274  64.448  1.00  0.00     0.000 HD 
HETATM   21  C   UNL     1     -10.016  10.905  64.272  1.00  0.00    -0.392 A  
HETATM   22  C   UNL     1     -10.762  12.059  64.548  1.00  0.00    -0.358 A  
HETATM   23  C   UNL     1     -11.329  12.261  65.807  1.00  0.00    -0.400 A  
HETATM   24  C   UNL     1     -11.149  11.336  66.844  1.00  0.00    -0.339 A  
HETATM   25  C   UNL     1     -10.405  10.190  66.542  1.00  0.00    -0.202 A  
HETATM   26  N   UNL     1     -10.048   9.091  67.279  1.00  0.00    -0.214 NA 
ENDBRANCH  15  17
ENDBRANCH  14  15
ENDBRANCH   7  14
TORSDOF 5
ENDMDL
MODEL      193
REMARK 921   NORMALIZED FREE ENERGY PREDICTED BY IDOCK:   -4.41 KCAL/MOL
REMARK 922        TOTAL FREE ENERGY PREDICTED BY IDOCK:   -6.53 KCAL/MOL
REMARK 923 INTER-LIGAND FREE ENERGY PREDICTED BY IDOCK:   -5.51 KCAL/MOL
REMARK 924 INTRA-LIGAND FREE ENERGY PREDICTED BY IDOCK:   -1.03 KCAL/MOL
REMARK 927      BINDING AFFINITY PREDICTED BY RF-SCORE:    0.00 PKD
ROOT
HETATM    1  C   UNL     1      -6.582   6.530  67.966  1.00  0.00    -0.062 C  
HETATM    2  C   UNL     1      -7.856   5.956  67.421  1.00  0.00    -0.102 A  
HETATM    3  C   UNL     1      -8.116   5.905  66.035  1.00  0.00    -0.115 A  
HETATM    4  C   UNL     1      -9.217   5.187  65.568  1.00  0.00    -0.144 A  
HETATM    5  N   UNL     1      -9.922   4.750  67.824  1.00  0.00    -0.140 NA 
HETATM    6  C   UNL     1     -10.070   4.620  66.487  1.00  0.00    -0.250 A  
HETATM    7  C   UNL     1      -8.837   5.430  68.283  1.00  0.00    -0.104 A  
ENDROOT
BRANCH   3   8
HETATM    8  O   UNL     1      -7.346   6.438  65.029  1.00  0.00    -0.070 OA 
BRANCH   8   9
HETATM    9  C   UNL     1      -8.004   7.345  64.129  1.00  0.00    -0.092 C  
HETATM   10  C   UNL     1      -8.061   8.780  64.649  1.00  0.00    -0.157 C  
HETATM   11  F   UNL     1      -9.330   9.129  64.967  1.00  0.00    -0.281 F  
HETATM   12  F   UNL     1      -7.644   9.646  63.693  1.00  0.00    -0.109 F  
HETATM   13  F   UNL     1      -7.293   8.985  65.740  1.00  0.00    -0.085 F  
ENDBRANCH   8   9
ENDBRANCH   3   8
BRANCH   7  14
HETATM   14  C   UNL     1      -8.797   5.592  69.794  1.00  0.00    -0.124 C  
BRANCH  14  15
HETATM   15  S   UNL     1     -10.393   5.248  70.557  1.00  0.00    -0.245 S  
HETATM   16  O   UNL     1     -10.266   4.497  71.852  1.00  0.00    -0.195 OA 
BRANCH  15  17
HETATM   17  C   UNL     1     -10.904   6.851  70.988  1.00  0.00    -0.241 A  
HETATM   18  N   UNL     1     -10.531   7.967  70.399  1.00  0.00    -0.214 NA 
HETATM   19  C   UNL     1     -11.369   8.936  70.905  1.00  0.00    -0.283 A  
HETATM   20  H   UNL     1      -9.784   8.088  69.715  1.00  0.00     0.000 HD 
HETATM   21  C   UNL     1     -11.468  10.299  70.579  1.00  0.00    -0.427 A  
HETATM   22  C   UNL     1     -12.488  11.060  71.167  1.00  0.00    -0.502 A  
HETATM   23  C   UNL     1     -13.381  10.482  72.070  1.00  0.00    -0.420 A  
HETATM   24  C   UNL     1     -13.273   9.136  72.443  1.00  0.00    -0.512 A  
HETATM   25  C   UNL     1     -12.250   8.398  71.838  1.00  0.00    -0.343 A  
HETATM   26  N   UNL     1     -11.862   7.087  71.942  1.00  0.00    -0.292 NA 
ENDBRANCH  15  17
ENDBRANCH  14  15
ENDBRANCH   7  14
TORSDOF 5
ENDMDL
MODEL      194
REMARK 921   NORMALIZED FREE ENERGY PREDICTED BY IDOCK:   -4.41 KCAL/MOL
REMARK 922        TOTAL FREE ENERGY PREDICTED BY IDOCK:   -6.53 KCAL/MOL
REMARK 923 INTER-LIGAND FREE ENERGY PREDICTED BY IDOCK:   -6.18 KCAL/MOL
REMARK 924 INTRA-LIGAND FREE ENERGY PREDICTED BY IDOCK:   -0.35 KCAL/MOL
REMARK 927      BINDING AFFINITY PREDICTED BY RF-SCORE:    0.00 PKD
ROOT
HETATM    1  C   UNL     1      -7.671  14.740  67.342  1.00  0.00    -0.230 C  
HETATM    2  C   UNL     1      -8.923  15.005  66.559  1.00  0.00    -0.310 A  
HETATM    3  C   UNL     1      -9.418  16.313  66.368  1.00  0.00    -0.294 A  
HETATM    4  C   UNL     1     -10.466  16.527  65.473  1.00  0.00    -0.320 A  
HETATM    5  N   UNL     1     -10.679  14.160  65.114  1.00  0.00    -0.363 NA 
HETATM    6  C   UNL     1     -11.045  15.437  64.865  1.00  0.00    -0.423 A  
HETATM    7  C   UNL     1      -9.642  13.949  65.970  1.00  0.00    -0.187 A  
ENDROOT
BRANCH   3   8
HETATM    8  O   UNL     1      -8.931  17.471  66.926  1.00  0.00    -0.237 OA 
BRANCH   8   9
HETATM    9  C   UNL     1      -8.847  17.507  68.360  1.00  0.00    -0.276 C  
HETATM   10  C   UNL     1     -10.004  18.260  69.015  1.00  0.00    -0.271 C  
HETATM   11  F   UNL     1      -9.576  19.422  69.564  1.00  0.00    -0.345 F  
HETATM   12  F   UNL     1     -10.539  17.524  70.020  1.00  0.00    -0.134 F  
HETATM   13  F   UNL     1     -11.004  18.556  68.157  1.00  0.00    -0.314 F  
ENDBRANCH   8   9
ENDBRANCH   3   8
BRANCH   7  14
HETATM   14  C   UNL     1      -9.355  12.482  66.249  1.00  0.00    -0.177 C  
BRANCH  14  15
HETATM   15  S   UNL     1     -10.125  11.395  65.036  1.00  0.00    -0.290 S  
HETATM   16  O   UNL     1      -9.336  11.299  63.761  1.00  0.00    -0.201 OA 
BRANCH  15  17
HETATM   17  C   UNL     1      -9.950   9.854  65.817  1.00  0.00    -0.277 A  
HETATM   18  N   UNL     1      -9.434   8.769  65.281  1.00  0.00    -0.427 NA 
HETATM   19  C   UNL     1      -9.274   7.892  66.332  1.00  0.00    -0.191 A  
HETATM   20  H   UNL     1      -9.203   8.610  64.301  1.00  0.00     0.000 HD 
HETATM   21  C   UNL     1      -8.703   6.608  66.354  1.00  0.00    -0.144 A  
HETATM   22  C   UNL     1      -8.559   5.956  67.585  1.00  0.00    -0.102 A  
HETATM   23  C   UNL     1      -8.986   6.560  68.769  1.00  0.00    -0.124 A  
HETATM   24  C   UNL     1      -9.598   7.820  68.765  1.00  0.00    -0.154 A  
HETATM   25  C   UNL     1      -9.725   8.452  67.523  1.00  0.00    -0.162 A  
HETATM   26  N   UNL     1     -10.241   9.664  67.145  1.00  0.00    -0.227 NA 
ENDBRANCH  15  17
ENDBRANCH  14  15
ENDBRANCH   7  14
TORSDOF 5
ENDMDL
MODEL      195
REMARK 921   NORMALIZED FREE ENERGY PREDICTED BY IDOCK:   -4.39 KCAL/MOL
REMARK 922        TOTAL FREE ENERGY PREDICTED BY IDOCK:   -6.50 KCAL/MOL
REMARK 923 INTER-LIGAND FREE ENERGY PREDICTED BY IDOCK:   -5.58 KCAL/MOL
REMARK 924 INTRA-LIGAND FREE ENERGY PREDICTED BY IDOCK:   -0.92 KCAL/MOL
REMARK 927      BINDING AFFINITY PREDICTED BY RF-SCORE:    0.00 PKD
ROOT
HETATM    1  C   UNL     1     -10.162  10.252  69.226  1.00  0.00    -0.244 C  
HETATM    2  C   UNL     1      -9.991  10.198  67.736  1.00  0.00    -0.198 A  
HETATM    3  C   UNL     1      -9.667  11.346  66.983  1.00  0.00    -0.190 A  
HETATM    4  C   UNL     1      -9.323  11.211  65.638  1.00  0.00    -0.243 A  
HETATM    5  N   UNL     1      -9.819   8.861  65.720  1.00  0.00    -0.156 NA 
HETATM    6  C   UNL     1      -9.396   9.964  65.062  1.00  0.00    -0.264 A  
HETATM    7  C   UNL     1     -10.133   8.985  67.038  1.00  0.00    -0.250 A  
ENDROOT
BRANCH   3   8
HETATM    8  O   UNL     1      -9.572  12.638  67.444  1.00  0.00    -0.187 OA 
BRANCH   8   9
HETATM    9  C   UNL     1     -10.195  13.654  66.640  1.00  0.00    -0.276 C  
HETATM   10  C   UNL     1     -11.679  13.842  66.945  1.00  0.00    -0.395 C  
HETATM   11  F   UNL     1     -12.444  13.409  65.914  1.00  0.00    -0.442 F  
HETATM   12  F   UNL     1     -11.963  15.156  67.120  1.00  0.00    -0.305 F  
HETATM   13  F   UNL     1     -12.084  13.192  68.057  1.00  0.00    -0.368 F  
ENDBRANCH   8   9
ENDBRANCH   3   8
BRANCH   7  14
HETATM   14  C   UNL     1     -10.673   7.712  67.671  1.00  0.00    -0.175 C  
BRANCH  14  15
HETATM   15  S   UNL     1      -9.356   6.577  68.144  1.00  0.00    -0.107 S  
HETATM   16  O   UNL     1      -9.595   5.938  69.483  1.00  0.00    -0.135 OA 
BRANCH  15  17
HETATM   17  C   UNL     1      -9.576   5.313  66.972  1.00  0.00    -0.142 A  
HETATM   18  N   UNL     1     -10.556   5.230  66.098  1.00  0.00    -0.522 NA 
HETATM   19  C   UNL     1     -10.181   4.223  65.235  1.00  0.00    -0.217 A  
HETATM   20  H   UNL     1     -11.408   5.789  66.066  1.00  0.00     0.000 HD 
HETATM   21  C   UNL     1     -10.814   3.753  64.072  1.00  0.00    -0.193 A  
HETATM   22  C   UNL     1     -10.167   2.780  63.300  1.00  0.00    -0.153 A  
HETATM   23  C   UNL     1      -8.924   2.273  63.682  1.00  0.00    -0.090 A  
HETATM   24  C   UNL     1      -8.295   2.696  64.860  1.00  0.00    -0.089 A  
HETATM   25  C   UNL     1      -8.959   3.672  65.611  1.00  0.00    -0.136 A  
HETATM   26  N   UNL     1      -8.649   4.320  66.778  1.00  0.00    -0.107 NA 
ENDBRANCH  15  17
ENDBRANCH  14  15
ENDBRANCH   7  14
TORSDOF 5
ENDMDL
MODEL      196
REMARK 921   NORMALIZED FREE ENERGY PREDICTED BY IDOCK:   -4.39 KCAL/MOL
REMARK 922        TOTAL FREE ENERGY PREDICTED BY IDOCK:   -6.50 KCAL/MOL
REMARK 923 INTER-LIGAND FREE ENERGY PREDICTED BY IDOCK:   -5.78 KCAL/MOL
REMARK 924 INTRA-LIGAND FREE ENERGY PREDICTED BY IDOCK:   -0.72 KCAL/MOL
REMARK 927      BINDING AFFINITY PREDICTED BY RF-SCORE:    0.00 PKD
ROOT
HETATM    1  C   UNL     1     -10.975  11.583  68.380  1.00  0.00    -0.267 C  
HETATM    2  C   UNL     1     -11.044  11.695  66.885  1.00  0.00    -0.365 A  
HETATM    3  C   UNL     1     -11.499  12.869  66.247  1.00  0.00    -0.348 A  
HETATM    4  C   UNL     1     -11.359  12.999  64.866  1.00  0.00    -0.332 A  
HETATM    5  N   UNL     1     -10.521  10.752  64.712  1.00  0.00    -0.311 NA 
HETATM    6  C   UNL     1     -10.855  11.935  64.153  1.00  0.00    -0.356 A  
HETATM    7  C   UNL     1     -10.636  10.628  66.063  1.00  0.00    -0.125 A  
ENDROOT
BRANCH   3   8
HETATM    8  O   UNL     1     -12.026  13.986  66.851  1.00  0.00    -0.407 OA 
BRANCH   8   9
HETATM    9  C   UNL     1     -11.117  15.072  67.096  1.00  0.00    -0.332 C  
HETATM   10  C   UNL     1     -11.027  15.465  68.569  1.00  0.00    -0.278 C  
HETATM   11  F   UNL     1     -11.585  16.681  68.780  1.00  0.00    -0.291 F  
HETATM   12  F   UNL     1      -9.731  15.555  68.957  1.00  0.00    -0.187 F  
HETATM   13  F   UNL     1     -11.634  14.587  69.396  1.00  0.00    -0.259 F  
ENDBRANCH   8   9
ENDBRANCH   3   8
BRANCH   7  14
HETATM   14  C   UNL     1     -10.314   9.239  66.590  1.00  0.00    -0.222 C  
BRANCH  14  15
HETATM   15  S   UNL     1      -8.754   8.611  65.944  1.00  0.00    -0.182 S  
HETATM   16  O   UNL     1      -7.586   8.940  66.828  1.00  0.00    -0.085 OA 
BRANCH  15  17
HETATM   17  C   UNL     1      -8.999   6.898  66.103  1.00  0.00    -0.134 A  
HETATM   18  N   UNL     1      -8.943   6.015  65.130  1.00  0.00    -0.369 NA 
HETATM   19  C   UNL     1      -8.949   4.789  65.759  1.00  0.00    -0.138 A  
HETATM   20  H   UNL     1      -8.904   6.197  64.127  1.00  0.00     0.000 HD 
HETATM   21  C   UNL     1      -8.835   3.498  65.214  1.00  0.00    -0.124 A  
HETATM   22  C   UNL     1      -8.758   2.404  66.086  1.00  0.00    -0.123 A  
HETATM   23  C   UNL     1      -8.808   2.586  67.469  1.00  0.00    -0.162 A  
HETATM   24  C   UNL     1      -8.965   3.860  68.031  1.00  0.00    -0.155 A  
HETATM   25  C   UNL     1      -9.034   4.936  67.140  1.00  0.00    -0.110 A  
HETATM   26  N   UNL     1      -9.165   6.288  67.321  1.00  0.00    -0.118 NA 
ENDBRANCH  15  17
ENDBRANCH  14  15
ENDBRANCH   7  14
TORSDOF 5
ENDMDL
MODEL      197
REMARK 921   NORMALIZED FREE ENERGY PREDICTED BY IDOCK:   -4.38 KCAL/MOL
REMARK 922        TOTAL FREE ENERGY PREDICTED BY IDOCK:   -6.49 KCAL/MOL
REMARK 923 INTER-LIGAND FREE ENERGY PREDICTED BY IDOCK:   -5.61 KCAL/MOL
REMARK 924 INTRA-LIGAND FREE ENERGY PREDICTED BY IDOCK:   -0.88 KCAL/MOL
REMARK 927      BINDING AFFINITY PREDICTED BY RF-SCORE:    0.00 PKD
ROOT
HETATM    1  C   UNL     1      -9.867  12.664  67.184  1.00  0.00    -0.212 C  
HETATM    2  C   UNL     1     -10.487  11.864  68.292  1.00  0.00    -0.221 A  
HETATM    3  C   UNL     1     -11.541  12.375  69.079  1.00  0.00    -0.311 A  
HETATM    4  C   UNL     1     -12.215  11.528  69.958  1.00  0.00    -0.354 A  
HETATM    5  N   UNL     1     -10.689   9.742  69.449  1.00  0.00    -0.220 NA 
HETATM    6  C   UNL     1     -11.770  10.233  70.095  1.00  0.00    -0.284 A  
HETATM    7  C   UNL     1     -10.043  10.558  68.573  1.00  0.00    -0.173 A  
ENDROOT
BRANCH   3   8
HETATM    8  O   UNL     1     -12.062  13.646  69.037  1.00  0.00    -0.344 OA 
BRANCH   8   9
HETATM    9  C   UNL     1     -11.491  14.604  69.943  1.00  0.00    -0.274 C  
HETATM   10  C   UNL     1     -12.402  14.942  71.121  1.00  0.00    -0.324 C  
HETATM   11  F   UNL     1     -12.866  16.211  71.025  1.00  0.00    -0.453 F  
HETATM   12  F   UNL     1     -11.717  14.860  72.288  1.00  0.00    -0.414 F  
HETATM   13  F   UNL     1     -13.471  14.123  71.224  1.00  0.00    -0.384 F  
ENDBRANCH   8   9
ENDBRANCH   3   8
BRANCH   7  14
HETATM   14  C   UNL     1      -8.796   9.946  67.957  1.00  0.00    -0.125 C  
BRANCH  14  15
HETATM   15  S   UNL     1      -7.336  10.197  68.983  1.00  0.00    -0.096 S  
HETATM   16  O   UNL     1      -7.330  11.535  69.666  1.00  0.00     0.033 OA 
BRANCH  15  17
HETATM   17  C   UNL     1      -7.613   9.028  70.238  1.00  0.00    -0.087 A  
HETATM   18  N   UNL     1      -7.843   9.293  71.506  1.00  0.00    -0.310 NA 
HETATM   19  C   UNL     1      -8.245   8.095  72.055  1.00  0.00    -0.149 A  
HETATM   20  H   UNL     1      -7.746  10.191  71.980  1.00  0.00     0.000 HD 
HETATM   21  C   UNL     1      -8.683   7.805  73.358  1.00  0.00    -0.283 A  
HETATM   22  C   UNL     1      -9.146   6.513  73.641  1.00  0.00    -0.146 A  
HETATM   23  C   UNL     1      -9.159   5.526  72.655  1.00  0.00    -0.140 A  
HETATM   24  C   UNL     1      -8.685   5.781  71.361  1.00  0.00    -0.133 A  
HETATM   25  C   UNL     1      -8.234   7.080  71.103  1.00  0.00    -0.113 A  
HETATM   26  N   UNL     1      -7.732   7.685  69.980  1.00  0.00    -0.091 NA 
ENDBRANCH  15  17
ENDBRANCH  14  15
ENDBRANCH   7  14
TORSDOF 5
ENDMDL
MODEL      198
REMARK 921   NORMALIZED FREE ENERGY PREDICTED BY IDOCK:   -4.35 KCAL/MOL
REMARK 922        TOTAL FREE ENERGY PREDICTED BY IDOCK:   -6.46 KCAL/MOL
REMARK 923 INTER-LIGAND FREE ENERGY PREDICTED BY IDOCK:   -5.40 KCAL/MOL
REMARK 924 INTRA-LIGAND FREE ENERGY PREDICTED BY IDOCK:   -1.05 KCAL/MOL
REMARK 927      BINDING AFFINITY PREDICTED BY RF-SCORE:    0.00 PKD
ROOT
HETATM    1  C   UNL     1     -10.848  15.102  70.108  1.00  0.00    -0.265 C  
HETATM    2  C   UNL     1     -10.935  14.772  68.648  1.00  0.00    -0.262 A  
HETATM    3  C   UNL     1     -11.129  13.450  68.194  1.00  0.00    -0.258 A  
HETATM    4  C   UNL     1     -11.402  13.220  66.846  1.00  0.00    -0.351 A  
HETATM    5  N   UNL     1     -11.086  15.551  66.355  1.00  0.00    -0.237 NA 
HETATM    6  C   UNL     1     -11.387  14.289  65.979  1.00  0.00    -0.335 A  
HETATM    7  C   UNL     1     -10.841  15.784  67.673  1.00  0.00    -0.310 A  
ENDROOT
BRANCH   3   8
HETATM    8  O   UNL     1     -11.155  12.309  68.960  1.00  0.00    -0.238 OA 
BRANCH   8   9
HETATM    9  C   UNL     1     -11.084  11.060  68.253  1.00  0.00    -0.257 C  
HETATM   10  C   UNL     1     -10.282   9.991  68.993  1.00  0.00    -0.203 C  
HETATM   11  F   UNL     1      -9.118   9.728  68.352  1.00  0.00    -0.122 F  
HETATM   12  F   UNL     1     -10.976   8.827  69.040  1.00  0.00    -0.205 F  
HETATM   13  F   UNL     1      -9.982  10.331  70.264  1.00  0.00    -0.282 F  
ENDBRANCH   8   9
ENDBRANCH   3   8
BRANCH   7  14
HETATM   14  C   UNL     1     -10.435  17.214  67.988  1.00  0.00    -0.369 C  
BRANCH  14  15
HETATM   15  S   UNL     1      -8.800  17.614  67.342  1.00  0.00    -0.237 S  
HETATM   16  O   UNL     1      -8.276  18.922  67.864  1.00  0.00    -0.267 OA 
BRANCH  15  17
HETATM   17  C   UNL     1      -7.838  16.383  68.100  1.00  0.00    -0.158 A  
HETATM   18  N   UNL     1      -7.153  16.513  69.216  1.00  0.00    -0.227 NA 
HETATM   19  C   UNL     1      -6.768  15.233  69.551  1.00  0.00    -0.172 A  
HETATM   20  H   UNL     1      -6.951  17.374  69.724  1.00  0.00     0.000 HD 
HETATM   21  C   UNL     1      -6.074  14.770  70.681  1.00  0.00    -0.113 A  
HETATM   22  C   UNL     1      -5.897  13.389  70.843  1.00  0.00    -0.127 A  
HETATM   23  C   UNL     1      -6.385  12.489  69.895  1.00  0.00    -0.039 A  
HETATM   24  C   UNL     1      -7.041  12.932  68.739  1.00  0.00    -0.096 A  
HETATM   25  C   UNL     1      -7.210  14.314  68.604  1.00  0.00    -0.125 A  
HETATM   26  N   UNL     1      -7.802  15.090  67.641  1.00  0.00    -0.152 NA 
ENDBRANCH  15  17
ENDBRANCH  14  15
ENDBRANCH   7  14
TORSDOF 5
ENDMDL
MODEL      199
REMARK 921   NORMALIZED FREE ENERGY PREDICTED BY IDOCK:   -4.35 KCAL/MOL
REMARK 922        TOTAL FREE ENERGY PREDICTED BY IDOCK:   -6.45 KCAL/MOL
REMARK 923 INTER-LIGAND FREE ENERGY PREDICTED BY IDOCK:   -6.05 KCAL/MOL
REMARK 924 INTRA-LIGAND FREE ENERGY PREDICTED BY IDOCK:   -0.41 KCAL/MOL
REMARK 927      BINDING AFFINITY PREDICTED BY RF-SCORE:    0.00 PKD
ROOT
HETATM    1  C   UNL     1     -10.632   8.590  67.590  1.00  0.00    -0.268 C  
HETATM    2  C   UNL     1      -9.695   9.089  66.530  1.00  0.00    -0.311 A  
HETATM    3  C   UNL     1      -8.612   8.311  66.067  1.00  0.00    -0.149 A  
HETATM    4  C   UNL     1      -7.893   8.731  64.949  1.00  0.00    -0.120 A  
HETATM    5  N   UNL     1      -9.160  10.772  64.867  1.00  0.00    -0.196 NA 
HETATM    6  C   UNL     1      -8.210   9.943  64.379  1.00  0.00    -0.164 A  
HETATM    7  C   UNL     1      -9.879  10.356  65.944  1.00  0.00    -0.235 A  
ENDROOT
BRANCH   3   8
HETATM    8  O   UNL     1      -8.198   7.097  66.559  1.00  0.00    -0.110 OA 
BRANCH   8   9
HETATM    9  C   UNL     1      -7.636   7.098  67.882  1.00  0.00    -0.111 C  
HETATM   10  C   UNL     1      -6.785   5.865  68.179  1.00  0.00    -0.058 C  
HETATM   11  F   UNL     1      -7.391   5.067  69.091  1.00  0.00    -0.053 F  
HETATM   12  F   UNL     1      -5.591   6.230  68.708  1.00  0.00    -0.009 F  
HETATM   13  F   UNL     1      -6.528   5.115  67.086  1.00  0.00    -0.041 F  
ENDBRANCH   8   9
ENDBRANCH   3   8
BRANCH   7  14
HETATM   14  C   UNL     1     -10.866  11.386  66.468  1.00  0.00    -0.283 C  
BRANCH  14  15
HETATM   15  S   UNL     1     -11.421  12.515  65.178  1.00  0.00    -0.341 S  
HETATM   16  O   UNL     1     -12.913  12.515  65.011  1.00  0.00    -0.779 OA 
BRANCH  15  17
HETATM   17  C   UNL     1     -11.025  14.049  65.892  1.00  0.00    -0.286 A  
HETATM   18  N   UNL     1     -11.590  14.574  66.958  1.00  0.00    -0.374 NA 
HETATM   19  C   UNL     1     -10.796  15.651  67.289  1.00  0.00    -0.298 A  
HETATM   20  H   UNL     1     -12.432  14.255  67.436  1.00  0.00     0.000 HD 
HETATM   21  C   UNL     1     -10.885  16.533  68.379  1.00  0.00    -0.348 A  
HETATM   22  C   UNL     1      -9.879  17.492  68.553  1.00  0.00    -0.330 A  
HETATM   23  C   UNL     1      -8.815  17.584  67.655  1.00  0.00    -0.228 A  
HETATM   24  C   UNL     1      -8.730  16.744  66.537  1.00  0.00    -0.310 A  
HETATM   25  C   UNL     1      -9.744  15.791  66.389  1.00  0.00    -0.282 A  
HETATM   26  N   UNL     1      -9.975  14.816  65.455  1.00  0.00    -0.361 NA 
ENDBRANCH  15  17
ENDBRANCH  14  15
ENDBRANCH   7  14
TORSDOF 5
ENDMDL
MODEL      200
REMARK 921   NORMALIZED FREE ENERGY PREDICTED BY IDOCK:   -4.35 KCAL/MOL
REMARK 922        TOTAL FREE ENERGY PREDICTED BY IDOCK:   -6.45 KCAL/MOL
REMARK 923 INTER-LIGAND FREE ENERGY PREDICTED BY IDOCK:   -5.71 KCAL/MOL
REMARK 924 INTRA-LIGAND FREE ENERGY PREDICTED BY IDOCK:   -0.74 KCAL/MOL
REMARK 927      BINDING AFFINITY PREDICTED BY RF-SCORE:    0.00 PKD
ROOT
HETATM    1  C   UNL     1      -7.264   6.589  69.104  1.00  0.00    -0.091 C  
HETATM    2  C   UNL     1      -8.550   6.651  68.334  1.00  0.00    -0.124 A  
HETATM    3  C   UNL     1      -8.747   5.904  67.153  1.00  0.00    -0.108 A  
HETATM    4  C   UNL     1     -10.019   5.841  66.585  1.00  0.00    -0.212 A  
HETATM    5  N   UNL     1     -10.852   7.405  68.209  1.00  0.00    -0.087 NA 
HETATM    6  C   UNL     1     -11.030   6.584  67.150  1.00  0.00    -0.408 A  
HETATM    7  C   UNL     1      -9.618   7.453  68.779  1.00  0.00    -0.147 A  
ENDROOT
BRANCH   3   8
HETATM    8  O   UNL     1      -7.816   5.136  66.497  1.00  0.00    -0.101 OA 
BRANCH   8   9
HETATM    9  C   UNL     1      -8.211   4.598  65.223  1.00  0.00    -0.117 C  
HETATM   10  C   UNL     1      -7.516   5.271  64.041  1.00  0.00    -0.059 C  
HETATM   11  F   UNL     1      -8.393   6.010  63.321  1.00  0.00    -0.117 F  
HETATM   12  F   UNL     1      -7.005   4.339  63.200  1.00  0.00    -0.039 F  
HETATM   13  F   UNL     1      -6.500   6.082  64.407  1.00  0.00    -0.030 F  
ENDBRANCH   8   9
ENDBRANCH   3   8
BRANCH   7  14
HETATM   14  C   UNL     1      -9.494   8.462  69.910  1.00  0.00    -0.166 C  
BRANCH  14  15
HETATM   15  S   UNL     1     -10.795   8.267  71.141  1.00  0.00    -0.242 S  
HETATM   16  O   UNL     1     -10.263   8.236  72.546  1.00  0.00    -0.286 OA 
BRANCH  15  17
HETATM   17  C   UNL     1     -11.626   9.784  70.984  1.00  0.00    -0.376 A  
HETATM   18  N   UNL     1     -12.481  10.291  71.845  1.00  0.00    -0.325 NA 
HETATM   19  C   UNL     1     -12.679  11.590  71.432  1.00  0.00    -0.364 A  
HETATM   20  H   UNL     1     -12.907   9.823  72.646  1.00  0.00     0.000 HD 
HETATM   21  C   UNL     1     -13.440  12.615  72.018  1.00  0.00    -0.516 A  
HETATM   22  C   UNL     1     -13.392  13.897  71.455  1.00  0.00    -0.406 A  
HETATM   23  C   UNL     1     -12.615  14.152  70.324  1.00  0.00    -0.367 A  
HETATM   24  C   UNL     1     -11.884  13.135  69.697  1.00  0.00    -0.390 A  
HETATM   25  C   UNL     1     -11.945  11.866  70.282  1.00  0.00    -0.330 A  
HETATM   26  N   UNL     1     -11.363  10.666  69.966  1.00  0.00    -0.302 NA 
ENDBRANCH  15  17
ENDBRANCH  14  15
ENDBRANCH   7  14
TORSDOF 5
ENDMDL
MODEL      201
REMARK 921   NORMALIZED FREE ENERGY PREDICTED BY IDOCK:   -4.33 KCAL/MOL
REMARK 922        TOTAL FREE ENERGY PREDICTED BY IDOCK:   -6.43 KCAL/MOL
REMARK 923 INTER-LIGAND FREE ENERGY PREDICTED BY IDOCK:   -5.44 KCAL/MOL
REMARK 924 INTRA-LIGAND FREE ENERGY PREDICTED BY IDOCK:   -0.99 KCAL/MOL
REMARK 927      BINDING AFFINITY PREDICTED BY RF-SCORE:    0.00 PKD
ROOT
HETATM    1  C   UNL     1      -6.894  11.410  68.566  1.00  0.00    -0.073 C  
HETATM    2  C   UNL     1      -8.243  11.927  68.163  1.00  0.00    -0.158 A  
HETATM    3  C   UNL     1      -9.384  11.097  68.146  1.00  0.00    -0.176 A  
HETATM    4  C   UNL     1     -10.644  11.664  67.958  1.00  0.00    -0.232 A  
HETATM    5  N   UNL     1      -9.649  13.821  67.596  1.00  0.00    -0.214 NA 
HETATM    6  C   UNL     1     -10.727  13.014  67.708  1.00  0.00    -0.229 A  
HETATM    7  C   UNL     1      -8.419  13.276  67.800  1.00  0.00    -0.181 A  
ENDROOT
BRANCH   3   8
HETATM    8  O   UNL     1      -9.422   9.742  68.372  1.00  0.00    -0.139 OA 
BRANCH   8   9
HETATM    9  C   UNL     1     -10.329   9.286  69.390  1.00  0.00    -0.215 C  
HETATM   10  C   UNL     1      -9.725   9.310  70.793  1.00  0.00    -0.282 C  
HETATM   11  F   UNL     1      -9.527   8.053  71.256  1.00  0.00    -0.153 F  
HETATM   12  F   UNL     1     -10.568   9.920  71.661  1.00  0.00    -0.274 F  
HETATM   13  F   UNL     1      -8.543   9.960  70.856  1.00  0.00    -0.115 F  
ENDBRANCH   8   9
ENDBRANCH   3   8
BRANCH   7  14
HETATM   14  C   UNL     1      -7.266  14.241  67.576  1.00  0.00    -0.176 C  
BRANCH  14  15
HETATM   15  S   UNL     1      -7.093  15.420  68.926  1.00  0.00    -0.143 S  
HETATM   16  O   UNL     1      -5.677  15.888  69.109  1.00  0.00    -0.111 OA 
BRANCH  15  17
HETATM   17  C   UNL     1      -7.962  16.782  68.287  1.00  0.00    -0.200 A  
HETATM   18  N   UNL     1      -9.260  16.843  68.080  1.00  0.00    -0.230 NA 
HETATM   19  C   UNL     1      -9.517  18.170  67.813  1.00  0.00    -0.268 A  
HETATM   20  H   UNL     1      -9.930  16.075  68.109  1.00  0.00     0.000 HD 
HETATM   21  C   UNL     1     -10.741  18.821  67.586  1.00  0.00    -0.449 A  
HETATM   22  C   UNL     1     -10.747  20.215  67.444  1.00  0.00    -0.239 A  
HETATM   23  C   UNL     1      -9.560  20.946  67.511  1.00  0.00    -0.358 A  
HETATM   24  C   UNL     1      -8.323  20.313  67.693  1.00  0.00    -0.322 A  
HETATM   25  C   UNL     1      -8.346  18.921  67.837  1.00  0.00    -0.281 A  
HETATM   26  N   UNL     1      -7.360  17.991  68.043  1.00  0.00    -0.226 NA 
ENDBRANCH  15  17
ENDBRANCH  14  15
ENDBRANCH   7  14
TORSDOF 5
ENDMDL
MODEL      202
REMARK 921   NORMALIZED FREE ENERGY PREDICTED BY IDOCK:   -4.33 KCAL/MOL
REMARK 922        TOTAL FREE ENERGY PREDICTED BY IDOCK:   -6.43 KCAL/MOL
REMARK 923 INTER-LIGAND FREE ENERGY PREDICTED BY IDOCK:   -5.67 KCAL/MOL
REMARK 924 INTRA-LIGAND FREE ENERGY PREDICTED BY IDOCK:   -0.76 KCAL/MOL
REMARK 927      BINDING AFFINITY PREDICTED BY RF-SCORE:    0.00 PKD
ROOT
HETATM    1  C   UNL     1     -11.078   6.518  68.847  1.00  0.00    -0.371 C  
HETATM    2  C   UNL     1     -10.744   5.598  69.983  1.00  0.00    -0.390 A  
HETATM    3  C   UNL     1      -9.972   4.432  69.794  1.00  0.00    -0.154 A  
HETATM    4  C   UNL     1      -9.522   3.719  70.905  1.00  0.00    -0.236 A  
HETATM    5  N   UNL     1     -10.759   5.167  72.371  1.00  0.00    -0.220 NA 
HETATM    6  C   UNL     1      -9.921   4.128  72.156  1.00  0.00    -0.174 A  
HETATM    7  C   UNL     1     -11.182   5.879  71.291  1.00  0.00    -0.211 A  
ENDROOT
BRANCH   3   8
HETATM    8  O   UNL     1      -9.523   3.923  68.599  1.00  0.00    -0.156 OA 
BRANCH   8   9
HETATM    9  C   UNL     1      -8.166   4.232  68.239  1.00  0.00    -0.088 C  
HETATM   10  C   UNL     1      -7.251   3.009  68.227  1.00  0.00    -0.049 C  
HETATM   11  F   UNL     1      -6.356   3.065  69.243  1.00  0.00    -0.026 F  
HETATM   12  F   UNL     1      -6.535   2.964  67.077  1.00  0.00    -0.033 F  
HETATM   13  F   UNL     1      -7.917   1.840  68.333  1.00  0.00    -0.055 F  
ENDBRANCH   8   9
ENDBRANCH   3   8
BRANCH   7  14
HETATM   14  C   UNL     1     -12.182   6.975  71.623  1.00  0.00    -0.357 C  
BRANCH  14  15
HETATM   15  S   UNL     1     -11.430   8.323  72.553  1.00  0.00    -0.346 S  
HETATM   16  O   UNL     1     -10.140   7.923  73.212  1.00  0.00    -0.313 OA 
BRANCH  15  17
HETATM   17  C   UNL     1     -10.988   9.404  71.267  1.00  0.00    -0.370 A  
HETATM   18  N   UNL     1      -9.889   9.341  70.546  1.00  0.00    -0.234 NA 
HETATM   19  C   UNL     1     -10.091  10.224  69.508  1.00  0.00    -0.235 A  
HETATM   20  H   UNL     1      -9.066   8.764  70.718  1.00  0.00     0.000 HD 
HETATM   21  C   UNL     1      -9.276  10.512  68.400  1.00  0.00    -0.154 A  
HETATM   22  C   UNL     1      -9.761  11.381  67.414  1.00  0.00    -0.196 A  
HETATM   23  C   UNL     1     -11.024  11.965  67.533  1.00  0.00    -0.299 A  
HETATM   24  C   UNL     1     -11.834  11.726  68.651  1.00  0.00    -0.369 A  
HETATM   25  C   UNL     1     -11.329  10.850  69.618  1.00  0.00    -0.292 A  
HETATM   26  N   UNL     1     -11.834  10.380  70.802  1.00  0.00    -0.340 NA 
ENDBRANCH  15  17
ENDBRANCH  14  15
ENDBRANCH   7  14
TORSDOF 5
ENDMDL
MODEL      203
REMARK 921   NORMALIZED FREE ENERGY PREDICTED BY IDOCK:   -4.31 KCAL/MOL
REMARK 922        TOTAL FREE ENERGY PREDICTED BY IDOCK:   -6.40 KCAL/MOL
REMARK 923 INTER-LIGAND FREE ENERGY PREDICTED BY IDOCK:   -5.35 KCAL/MOL
REMARK 924 INTRA-LIGAND FREE ENERGY PREDICTED BY IDOCK:   -1.06 KCAL/MOL
REMARK 927      BINDING AFFINITY PREDICTED BY RF-SCORE:    0.00 PKD
ROOT
HETATM    1  C   UNL     1     -10.508   7.030  68.072  1.00  0.00    -0.255 C  
HETATM    2  C   UNL     1     -10.482   6.069  69.223  1.00  0.00    -0.328 A  
HETATM    3  C   UNL     1      -9.816   4.827  69.141  1.00  0.00    -0.184 A  
HETATM    4  C   UNL     1      -9.650   4.059  70.293  1.00  0.00    -0.271 A  
HETATM    5  N   UNL     1     -10.969   5.621  71.557  1.00  0.00    -0.234 NA 
HETATM    6  C   UNL     1     -10.221   4.499  71.465  1.00  0.00    -0.125 A  
HETATM    7  C   UNL     1     -11.114   6.385  70.440  1.00  0.00    -0.339 A  
ENDROOT
BRANCH   3   8
HETATM    8  O   UNL     1      -9.218   4.283  68.030  1.00  0.00    -0.124 OA 
BRANCH   8   9
HETATM    9  C   UNL     1      -7.845   4.640  67.800  1.00  0.00    -0.086 C  
HETATM   10  C   UNL     1      -7.599   5.239  66.417  1.00  0.00    -0.088 C  
HETATM   11  F   UNL     1      -6.877   4.392  65.645  1.00  0.00    -0.051 F  
HETATM   12  F   UNL     1      -6.882   6.385  66.518  1.00  0.00    -0.054 F  
HETATM   13  F   UNL     1      -8.735   5.533  65.751  1.00  0.00    -0.130 F  
ENDBRANCH   8   9
ENDBRANCH   3   8
BRANCH   7  14
HETATM   14  C   UNL     1     -12.035   7.581  70.620  1.00  0.00    -0.133 C  
BRANCH  14  15
HETATM   15  S   UNL     1     -11.282   8.875  71.622  1.00  0.00    -0.369 S  
HETATM   16  O   UNL     1     -10.052   8.405  72.346  1.00  0.00    -0.287 OA 
BRANCH  15  17
HETATM   17  C   UNL     1     -10.718   9.960  70.388  1.00  0.00    -0.318 A  
HETATM   18  N   UNL     1      -9.463  10.153  70.042  1.00  0.00    -0.401 NA 
HETATM   19  C   UNL     1      -9.522  10.889  68.879  1.00  0.00    -0.172 A  
HETATM   20  H   UNL     1      -8.627   9.828  70.529  1.00  0.00     0.000 HD 
HETATM   21  C   UNL     1      -8.486  11.321  68.035  1.00  0.00    -0.138 A  
HETATM   22  C   UNL     1      -8.818  11.972  66.839  1.00  0.00    -0.197 A  
HETATM   23  C   UNL     1     -10.152  12.202  66.496  1.00  0.00    -0.229 A  
HETATM   24  C   UNL     1     -11.199  11.819  67.345  1.00  0.00    -0.357 A  
HETATM   25  C   UNL     1     -10.840  11.167  68.530  1.00  0.00    -0.203 A  
HETATM   26  N   UNL     1     -11.573  10.646  69.564  1.00  0.00    -0.275 NA 
ENDBRANCH  15  17
ENDBRANCH  14  15
ENDBRANCH   7  14
TORSDOF 5
ENDMDL
MODEL      204
REMARK 921   NORMALIZED FREE ENERGY PREDICTED BY IDOCK:   -4.30 KCAL/MOL
REMARK 922        TOTAL FREE ENERGY PREDICTED BY IDOCK:   -6.38 KCAL/MOL
REMARK 923 INTER-LIGAND FREE ENERGY PREDICTED BY IDOCK:   -5.79 KCAL/MOL
REMARK 924 INTRA-LIGAND FREE ENERGY PREDICTED BY IDOCK:   -0.59 KCAL/MOL
REMARK 927      BINDING AFFINITY PREDICTED BY RF-SCORE:    0.00 PKD
ROOT
HETATM    1  C   UNL     1      -7.275   7.835  65.390  1.00  0.00    -0.068 C  
HETATM    2  C   UNL     1      -8.539   7.194  65.882  1.00  0.00    -0.157 A  
HETATM    3  C   UNL     1      -8.811   5.826  65.668  1.00  0.00    -0.136 A  
HETATM    4  C   UNL     1      -9.897   5.232  66.311  1.00  0.00    -0.202 A  
HETATM    5  N   UNL     1     -10.567   7.361  67.202  1.00  0.00    -0.326 NA 
HETATM    6  C   UNL     1     -10.725   6.025  67.071  1.00  0.00    -0.337 A  
HETATM    7  C   UNL     1      -9.496   7.940  66.594  1.00  0.00    -0.211 A  
ENDROOT
BRANCH   3   8
HETATM    8  O   UNL     1      -8.065   4.942  64.925  1.00  0.00    -0.102 OA 
BRANCH   8   9
HETATM    9  C   UNL     1      -7.895   3.625  65.476  1.00  0.00    -0.089 C  
HETATM   10  C   UNL     1      -8.557   2.530  64.643  1.00  0.00    -0.092 C  
HETATM   11  F   UNL     1      -9.625   2.007  65.293  1.00  0.00    -0.095 F  
HETATM   12  F   UNL     1      -7.690   1.510  64.426  1.00  0.00    -0.055 F  
HETATM   13  F   UNL     1      -8.983   2.959  63.436  1.00  0.00    -0.091 F  
ENDBRANCH   8   9
ENDBRANCH   3   8
BRANCH   7  14
HETATM   14  C   UNL     1      -9.447   9.453  66.731  1.00  0.00    -0.165 C  
BRANCH  14  15
HETATM   15  S   UNL     1     -10.779  10.087  67.766  1.00  0.00    -0.280 S  
HETATM   16  O   UNL     1     -10.368  10.253  69.201  1.00  0.00    -0.196 OA 
BRANCH  15  17
HETATM   17  C   UNL     1     -10.949  11.696  67.134  1.00  0.00    -0.280 A  
HETATM   18  N   UNL     1     -10.007  12.614  67.090  1.00  0.00    -0.215 NA 
HETATM   19  C   UNL     1     -10.519  13.614  66.293  1.00  0.00    -0.291 A  
HETATM   20  H   UNL     1      -9.095  12.590  67.547  1.00  0.00     0.000 HD 
HETATM   21  C   UNL     1      -9.920  14.805  65.849  1.00  0.00    -0.351 A  
HETATM   22  C   UNL     1     -10.621  15.615  64.946  1.00  0.00    -0.344 A  
HETATM   23  C   UNL     1     -11.896  15.258  64.505  1.00  0.00    -0.298 A  
HETATM   24  C   UNL     1     -12.530  14.098  64.970  1.00  0.00    -0.434 A  
HETATM   25  C   UNL     1     -11.806  13.304  65.866  1.00  0.00    -0.393 A  
HETATM   26  N   UNL     1     -12.089  12.122  66.500  1.00  0.00    -0.582 NA 
ENDBRANCH  15  17
ENDBRANCH  14  15
ENDBRANCH   7  14
TORSDOF 5
ENDMDL
MODEL      205
REMARK 921   NORMALIZED FREE ENERGY PREDICTED BY IDOCK:   -4.29 KCAL/MOL
REMARK 922        TOTAL FREE ENERGY PREDICTED BY IDOCK:   -6.38 KCAL/MOL
REMARK 923 INTER-LIGAND FREE ENERGY PREDICTED BY IDOCK:   -5.62 KCAL/MOL
REMARK 924 INTRA-LIGAND FREE ENERGY PREDICTED BY IDOCK:   -0.76 KCAL/MOL
REMARK 927      BINDING AFFINITY PREDICTED BY RF-SCORE:    0.00 PKD
ROOT
HETATM    1  C   UNL     1     -11.708  10.383  70.507  1.00  0.00    -0.434 C  
HETATM    2  C   UNL     1     -10.402   9.653  70.401  1.00  0.00    -0.350 A  
HETATM    3  C   UNL     1      -9.501   9.888  69.341  1.00  0.00    -0.213 A  
HETATM    4  C   UNL     1      -8.221   9.337  69.391  1.00  0.00    -0.114 A  
HETATM    5  N   UNL     1      -8.779   8.158  71.410  1.00  0.00    -0.135 NA 
HETATM    6  C   UNL     1      -7.904   8.504  70.440  1.00  0.00    -0.089 A  
HETATM    7  C   UNL     1     -10.021   8.711  71.376  1.00  0.00    -0.254 A  
ENDROOT
BRANCH   3   8
HETATM    8  O   UNL     1      -9.708  10.689  68.243  1.00  0.00    -0.152 OA 
BRANCH   8   9
HETATM    9  C   UNL     1      -9.246  12.047  68.343  1.00  0.00    -0.160 C  
HETATM   10  C   UNL     1      -8.318  12.455  67.200  1.00  0.00    -0.181 C  
HETATM   11  F   UNL     1      -7.050  12.628  67.646  1.00  0.00    -0.088 F  
HETATM   12  F   UNL     1      -8.713  13.638  66.670  1.00  0.00    -0.215 F  
HETATM   13  F   UNL     1      -8.279  11.556  66.194  1.00  0.00    -0.165 F  
ENDBRANCH   8   9
ENDBRANCH   3   8
BRANCH   7  14
HETATM   14  C   UNL     1     -10.958   8.202  72.460  1.00  0.00    -0.369 C  
BRANCH  14  15
HETATM   15  S   UNL     1     -11.976   6.830  71.889  1.00  0.00    -0.331 S  
HETATM   16  O   UNL     1     -13.346   7.266  71.452  1.00  0.00    -0.383 OA 
BRANCH  15  17
HETATM   17  C   UNL     1     -11.137   6.380  70.436  1.00  0.00    -0.339 A  
HETATM   18  N   UNL     1     -10.120   5.549  70.355  1.00  0.00    -0.212 NA 
HETATM   19  C   UNL     1      -9.958   5.312  69.008  1.00  0.00    -0.189 A  
HETATM   20  H   UNL     1      -9.571   5.163  71.123  1.00  0.00     0.000 HD 
HETATM   21  C   UNL     1      -9.067   4.450  68.347  1.00  0.00    -0.165 A  
HETATM   22  C   UNL     1      -9.174   4.306  66.957  1.00  0.00    -0.163 A  
HETATM   23  C   UNL     1     -10.137   5.016  66.237  1.00  0.00    -0.275 A  
HETATM   24  C   UNL     1     -11.006   5.914  66.870  1.00  0.00    -0.304 A  
HETATM   25  C   UNL     1     -10.881   6.035  68.258  1.00  0.00    -0.284 A  
HETATM   26  N   UNL     1     -11.553   6.782  69.191  1.00  0.00    -0.051 NA 
ENDBRANCH  15  17
ENDBRANCH  14  15
ENDBRANCH   7  14
TORSDOF 5
ENDMDL
MODEL      206
REMARK 921   NORMALIZED FREE ENERGY PREDICTED BY IDOCK:   -4.28 KCAL/MOL
REMARK 922        TOTAL FREE ENERGY PREDICTED BY IDOCK:   -6.36 KCAL/MOL
REMARK 923 INTER-LIGAND FREE ENERGY PREDICTED BY IDOCK:   -5.86 KCAL/MOL
REMARK 924 INTRA-LIGAND FREE ENERGY PREDICTED BY IDOCK:   -0.50 KCAL/MOL
REMARK 927      BINDING AFFINITY PREDICTED BY RF-SCORE:    0.00 PKD
ROOT
HETATM    1  C   UNL     1      -8.929   8.967  70.856  1.00  0.00    -0.300 C  
HETATM    2  C   UNL     1     -10.273   9.558  70.547  1.00  0.00    -0.349 A  
HETATM    3  C   UNL     1     -11.395   9.324  71.370  1.00  0.00    -0.364 A  
HETATM    4  C   UNL     1     -12.566  10.050  71.157  1.00  0.00    -0.480 A  
HETATM    5  N   UNL     1     -11.608  11.076  69.206  1.00  0.00    -0.285 NA 
HETATM    6  C   UNL     1     -12.619  10.915  70.088  1.00  0.00    -0.234 A  
HETATM    7  C   UNL     1     -10.455  10.386  69.424  1.00  0.00    -0.238 A  
ENDROOT
BRANCH   3   8
HETATM    8  O   UNL     1     -11.463   8.482  72.455  1.00  0.00    -0.369 OA 
BRANCH   8   9
HETATM    9  C   UNL     1     -11.541   7.075  72.170  1.00  0.00    -0.282 C  
HETATM   10  C   UNL     1     -10.800   6.210  73.188  1.00  0.00    -0.254 C  
HETATM   11  F   UNL     1      -9.700   5.646  72.633  1.00  0.00    -0.156 F  
HETATM   12  F   UNL     1     -11.592   5.194  73.611  1.00  0.00    -0.323 F  
HETATM   13  F   UNL     1     -10.402   6.893  74.282  1.00  0.00    -0.364 F  
ENDBRANCH   8   9
ENDBRANCH   3   8
BRANCH   7  14
HETATM   14  C   UNL     1      -9.407  10.570  68.339  1.00  0.00    -0.158 C  
BRANCH  14  15
HETATM   15  S   UNL     1     -10.056  11.448  66.906  1.00  0.00    -0.219 S  
HETATM   16  O   UNL     1     -10.037  12.940  67.084  1.00  0.00    -0.237 OA 
BRANCH  15  17
HETATM   17  C   UNL     1      -8.834  11.097  65.723  1.00  0.00    -0.174 A  
HETATM   18  N   UNL     1      -7.545  10.973  65.956  1.00  0.00    -0.314 NA 
HETATM   19  C   UNL     1      -7.019  10.455  64.793  1.00  0.00    -0.032 A  
HETATM   20  H   UNL     1      -7.043  11.209  66.812  1.00  0.00     0.000 HD 
HETATM   21  C   UNL     1      -5.704  10.057  64.499  1.00  0.00    -0.112 A  
HETATM   22  C   UNL     1      -5.444   9.452  63.262  1.00  0.00    -0.075 A  
HETATM   23  C   UNL     1      -6.465   9.261  62.330  1.00  0.00    -0.093 A  
HETATM   24  C   UNL     1      -7.774   9.690  62.585  1.00  0.00    -0.117 A  
HETATM   25  C   UNL     1      -8.009  10.285  63.829  1.00  0.00    -0.128 A  
HETATM   26  N   UNL     1      -9.135  10.797  64.419  1.00  0.00    -0.204 NA 
ENDBRANCH  15  17
ENDBRANCH  14  15
ENDBRANCH   7  14
TORSDOF 5
ENDMDL
MODEL      207
REMARK 921   NORMALIZED FREE ENERGY PREDICTED BY IDOCK:   -4.28 KCAL/MOL
REMARK 922        TOTAL FREE ENERGY PREDICTED BY IDOCK:   -6.36 KCAL/MOL
REMARK 923 INTER-LIGAND FREE ENERGY PREDICTED BY IDOCK:   -5.36 KCAL/MOL
REMARK 924 INTRA-LIGAND FREE ENERGY PREDICTED BY IDOCK:   -0.99 KCAL/MOL
REMARK 927      BINDING AFFINITY PREDICTED BY RF-SCORE:    0.00 PKD
ROOT
HETATM    1  C   UNL     1      -7.081   7.880  69.194  1.00  0.00    -0.069 C  
HETATM    2  C   UNL     1      -8.319   8.144  68.389  1.00  0.00    -0.126 A  
HETATM    3  C   UNL     1      -8.931   7.137  67.612  1.00  0.00    -0.125 A  
HETATM    4  C   UNL     1     -10.182   7.372  67.044  1.00  0.00    -0.357 A  
HETATM    5  N   UNL     1     -10.136   9.647  67.820  1.00  0.00    -0.175 NA 
HETATM    6  C   UNL     1     -10.746   8.620  67.187  1.00  0.00    -0.129 A  
HETATM    7  C   UNL     1      -8.925   9.414  68.395  1.00  0.00    -0.128 A  
ENDROOT
BRANCH   3   8
HETATM    8  O   UNL     1      -8.461   5.864  67.392  1.00  0.00    -0.105 OA 
BRANCH   8   9
HETATM    9  C   UNL     1      -8.409   5.428  66.023  1.00  0.00    -0.120 C  
HETATM   10  C   UNL     1      -9.228   4.166  65.759  1.00  0.00    -0.148 C  
HETATM   11  F   UNL     1      -8.420   3.111  65.494  1.00  0.00    -0.095 F  
HETATM   12  F   UNL     1     -10.021   4.336  64.672  1.00  0.00    -0.168 F  
HETATM   13  F   UNL     1     -10.027   3.820  66.790  1.00  0.00    -0.231 F  
ENDBRANCH   8   9
ENDBRANCH   3   8
BRANCH   7  14
HETATM   14  C   UNL     1      -8.283  10.646  69.012  1.00  0.00    -0.151 C  
BRANCH  14  15
HETATM   15  S   UNL     1      -7.260  11.544  67.832  1.00  0.00    -0.091 S  
HETATM   16  O   UNL     1      -6.395  10.634  67.006  1.00  0.00    -0.065 OA 
BRANCH  15  17
HETATM   17  C   UNL     1      -8.470  12.157  66.748  1.00  0.00    -0.138 A  
HETATM   18  N   UNL     1      -8.746  11.687  65.550  1.00  0.00    -0.397 NA 
HETATM   19  C   UNL     1      -9.918  12.312  65.182  1.00  0.00    -0.215 A  
HETATM   20  H   UNL     1      -8.210  11.008  65.011  1.00  0.00     0.000 HD 
HETATM   21  C   UNL     1     -10.706  12.139  64.032  1.00  0.00    -0.432 A  
HETATM   22  C   UNL     1     -11.925  12.824  63.942  1.00  0.00    -0.554 A  
HETATM   23  C   UNL     1     -12.346  13.674  64.966  1.00  0.00    -0.462 A  
HETATM   24  C   UNL     1     -11.554  13.895  66.101  1.00  0.00    -0.371 A  
HETATM   25  C   UNL     1     -10.345  13.195  66.169  1.00  0.00    -0.284 A  
HETATM   26  N   UNL     1      -9.349  13.148  67.109  1.00  0.00    -0.227 NA 
ENDBRANCH  15  17
ENDBRANCH  14  15
ENDBRANCH   7  14
TORSDOF 5
ENDMDL
MODEL      208
REMARK 921   NORMALIZED FREE ENERGY PREDICTED BY IDOCK:   -4.27 KCAL/MOL
REMARK 922        TOTAL FREE ENERGY PREDICTED BY IDOCK:   -6.35 KCAL/MOL
REMARK 923 INTER-LIGAND FREE ENERGY PREDICTED BY IDOCK:   -5.56 KCAL/MOL
REMARK 924 INTRA-LIGAND FREE ENERGY PREDICTED BY IDOCK:   -0.80 KCAL/MOL
REMARK 927      BINDING AFFINITY PREDICTED BY RF-SCORE:    0.00 PKD
ROOT
HETATM    1  C   UNL     1     -10.671   9.598  67.386  1.00  0.00    -0.308 C  
HETATM    2  C   UNL     1     -11.093  10.664  68.354  1.00  0.00    -0.328 A  
HETATM    3  C   UNL     1     -11.354  11.987  67.937  1.00  0.00    -0.305 A  
HETATM    4  C   UNL     1     -11.932  12.887  68.831  1.00  0.00    -0.291 A  
HETATM    5  N   UNL     1     -11.804  11.259  70.595  1.00  0.00    -0.324 NA 
HETATM    6  C   UNL     1     -12.152  12.478  70.127  1.00  0.00    -0.292 A  
HETATM    7  C   UNL     1     -11.261  10.370  69.720  1.00  0.00    -0.293 A  
ENDROOT
BRANCH   3   8
HETATM    8  O   UNL     1     -11.166  12.509  66.680  1.00  0.00    -0.276 OA 
BRANCH   8   9
HETATM    9  C   UNL     1      -9.996  13.322  66.490  1.00  0.00    -0.280 C  
HETATM   10  C   UNL     1     -10.318  14.787  66.204  1.00  0.00    -0.304 C  
HETATM   11  F   UNL     1     -10.010  15.109  64.924  1.00  0.00    -0.354 F  
HETATM   12  F   UNL     1      -9.581  15.598  67.001  1.00  0.00    -0.213 F  
HETATM   13  F   UNL     1     -11.616  15.100  66.403  1.00  0.00    -0.327 F  
ENDBRANCH   8   9
ENDBRANCH   3   8
BRANCH   7  14
HETATM   14  C   UNL     1     -10.830   9.058  70.354  1.00  0.00    -0.246 C  
BRANCH  14  15
HETATM   15  S   UNL     1      -9.091   9.069  70.827  1.00  0.00    -0.260 S  
HETATM   16  O   UNL     1      -8.890   8.858  72.301  1.00  0.00    -0.397 OA 
BRANCH  15  17
HETATM   17  C   UNL     1      -8.533   7.613  70.061  1.00  0.00    -0.136 A  
HETATM   18  N   UNL     1      -9.245   6.826  69.282  1.00  0.00    -0.142 NA 
HETATM   19  C   UNL     1      -8.333   5.961  68.718  1.00  0.00    -0.105 A  
HETATM   20  H   UNL     1     -10.253   6.851  69.129  1.00  0.00     0.000 HD 
HETATM   21  C   UNL     1      -8.525   4.954  67.757  1.00  0.00    -0.104 A  
HETATM   22  C   UNL     1      -7.404   4.276  67.260  1.00  0.00    -0.069 A  
HETATM   23  C   UNL     1      -6.121   4.581  67.719  1.00  0.00    -0.031 A  
HETATM   24  C   UNL     1      -5.913   5.550  68.710  1.00  0.00    -0.024 A  
HETATM   25  C   UNL     1      -7.047   6.216  69.185  1.00  0.00    -0.070 A  
HETATM   26  N   UNL     1      -7.223   7.209  70.114  1.00  0.00    -0.076 NA 
ENDBRANCH  15  17
ENDBRANCH  14  15
ENDBRANCH   7  14
TORSDOF 5
ENDMDL
MODEL      209
REMARK 921   NORMALIZED FREE ENERGY PREDICTED BY IDOCK:   -4.26 KCAL/MOL
REMARK 922        TOTAL FREE ENERGY PREDICTED BY IDOCK:   -6.34 KCAL/MOL
REMARK 923 INTER-LIGAND FREE ENERGY PREDICTED BY IDOCK:   -5.15 KCAL/MOL
REMARK 924 INTRA-LIGAND FREE ENERGY PREDICTED BY IDOCK:   -1.18 KCAL/MOL
REMARK 927      BINDING AFFINITY PREDICTED BY RF-SCORE:    0.00 PKD
ROOT
HETATM    1  C   UNL     1      -7.612   9.501  67.990  1.00  0.00    -0.086 C  
HETATM    2  C   UNL     1      -8.457  10.012  66.860  1.00  0.00    -0.125 A  
HETATM    3  C   UNL     1      -8.313   9.525  65.544  1.00  0.00    -0.132 A  
HETATM    4  C   UNL     1      -9.248   9.882  64.573  1.00  0.00    -0.315 A  
HETATM    5  N   UNL     1     -10.339  11.356  66.127  1.00  0.00    -0.241 NA 
HETATM    6  C   UNL     1     -10.240  10.774  64.911  1.00  0.00    -0.320 A  
HETATM    7  C   UNL     1      -9.442  10.993  67.083  1.00  0.00    -0.164 A  
ENDROOT
BRANCH   3   8
HETATM    8  O   UNL     1      -7.362   8.643  65.089  1.00  0.00    -0.085 OA 
BRANCH   8   9
HETATM    9  C   UNL     1      -7.843   7.500  64.362  1.00  0.00    -0.128 C  
HETATM   10  C   UNL     1      -7.779   6.202  65.165  1.00  0.00    -0.097 C  
HETATM   11  F   UNL     1      -6.836   5.368  64.662  1.00  0.00    -0.043 F  
HETATM   12  F   UNL     1      -8.962   5.544  65.095  1.00  0.00    -0.159 F  
HETATM   13  F   UNL     1      -7.501   6.393  66.472  1.00  0.00    -0.079 F  
ENDBRANCH   8   9
ENDBRANCH   3   8
BRANCH   7  14
HETATM   14  C   UNL     1      -9.583  11.757  68.390  1.00  0.00    -0.191 C  
BRANCH  14  15
HETATM   15  S   UNL     1     -11.129  11.380  69.235  1.00  0.00    -0.247 S  
HETATM   16  O   UNL     1     -12.285  11.232  68.287  1.00  0.00    -0.611 OA 
BRANCH  15  17
HETATM   17  C   UNL     1     -10.798   9.782  69.830  1.00  0.00    -0.257 A  
HETATM   18  N   UNL     1     -11.297   8.661  69.356  1.00  0.00    -0.370 NA 
HETATM   19  C   UNL     1     -10.569   7.661  69.963  1.00  0.00    -0.238 A  
HETATM   20  H   UNL     1     -12.058   8.555  68.684  1.00  0.00     0.000 HD 
HETATM   21  C   UNL     1     -10.626   6.269  69.778  1.00  0.00    -0.323 A  
HETATM   22  C   UNL     1      -9.693   5.463  70.444  1.00  0.00    -0.254 A  
HETATM   23  C   UNL     1      -8.735   6.026  71.288  1.00  0.00    -0.136 A  
HETATM   24  C   UNL     1      -8.689   7.407  71.521  1.00  0.00    -0.122 A  
HETATM   25  C   UNL     1      -9.627   8.190  70.839  1.00  0.00    -0.162 A  
HETATM   26  N   UNL     1      -9.866   9.539  70.807  1.00  0.00    -0.270 NA 
ENDBRANCH  15  17
ENDBRANCH  14  15
ENDBRANCH   7  14
TORSDOF 5
ENDMDL
MODEL      210
REMARK 921   NORMALIZED FREE ENERGY PREDICTED BY IDOCK:   -4.24 KCAL/MOL
REMARK 922        TOTAL FREE ENERGY PREDICTED BY IDOCK:   -6.31 KCAL/MOL
REMARK 923 INTER-LIGAND FREE ENERGY PREDICTED BY IDOCK:   -5.34 KCAL/MOL
REMARK 924 INTRA-LIGAND FREE ENERGY PREDICTED BY IDOCK:   -0.97 KCAL/MOL
REMARK 927      BINDING AFFINITY PREDICTED BY RF-SCORE:    0.00 PKD
ROOT
HETATM    1  C   UNL     1     -10.392  12.481  67.885  1.00  0.00    -0.219 C  
HETATM    2  C   UNL     1      -9.286  13.480  68.060  1.00  0.00    -0.213 A  
HETATM    3  C   UNL     1      -9.541  14.811  68.452  1.00  0.00    -0.213 A  
HETATM    4  C   UNL     1      -8.475  15.643  68.793  1.00  0.00    -0.192 A  
HETATM    5  N   UNL     1      -6.906  13.934  68.165  1.00  0.00    -0.106 NA 
HETATM    6  C   UNL     1      -7.194  15.161  68.653  1.00  0.00    -0.118 A  
HETATM    7  C   UNL     1      -7.944  13.112  67.852  1.00  0.00    -0.158 A  
ENDROOT
BRANCH   3   8
HETATM    8  O   UNL     1     -10.771  15.403  68.617  1.00  0.00    -0.232 OA 
BRANCH   8   9
HETATM    9  C   UNL     1     -10.966  16.149  69.830  1.00  0.00    -0.362 C  
HETATM   10  C   UNL     1     -11.756  15.385  70.890  1.00  0.00    -0.354 C  
HETATM   11  F   UNL     1     -12.982  15.934  71.068  1.00  0.00    -0.501 F  
HETATM   12  F   UNL     1     -11.122  15.444  72.087  1.00  0.00    -0.469 F  
HETATM   13  F   UNL     1     -11.932  14.081  70.592  1.00  0.00    -0.348 F  
ENDBRANCH   8   9
ENDBRANCH   3   8
BRANCH   7  14
HETATM   14  C   UNL     1      -7.524  11.786  67.239  1.00  0.00    -0.151 C  
BRANCH  14  15
HETATM   15  S   UNL     1      -6.863  10.646  68.468  1.00  0.00    -0.067 S  
HETATM   16  O   UNL     1      -7.154  11.081  69.876  1.00  0.00    -0.115 OA 
BRANCH  15  17
HETATM   17  C   UNL     1      -7.859   9.250  68.189  1.00  0.00    -0.095 A  
HETATM   18  N   UNL     1      -9.155   9.169  68.401  1.00  0.00    -0.133 NA 
HETATM   19  C   UNL     1      -9.540   7.985  67.810  1.00  0.00    -0.151 A  
HETATM   20  H   UNL     1      -9.746   9.836  68.896  1.00  0.00     0.000 HD 
HETATM   21  C   UNL     1     -10.821   7.426  67.670  1.00  0.00    -0.220 A  
HETATM   22  C   UNL     1     -10.964   6.249  66.923  1.00  0.00    -0.404 A  
HETATM   23  C   UNL     1      -9.856   5.632  66.340  1.00  0.00    -0.184 A  
HETATM   24  C   UNL     1      -8.564   6.149  66.505  1.00  0.00    -0.126 A  
HETATM   25  C   UNL     1      -8.449   7.328  67.250  1.00  0.00    -0.118 A  
HETATM   26  N   UNL     1      -7.378   8.110  67.595  1.00  0.00    -0.091 NA 
ENDBRANCH  15  17
ENDBRANCH  14  15
ENDBRANCH   7  14
TORSDOF 5
ENDMDL
MODEL      211
REMARK 921   NORMALIZED FREE ENERGY PREDICTED BY IDOCK:   -4.22 KCAL/MOL
REMARK 922        TOTAL FREE ENERGY PREDICTED BY IDOCK:   -6.28 KCAL/MOL
REMARK 923 INTER-LIGAND FREE ENERGY PREDICTED BY IDOCK:   -5.39 KCAL/MOL
REMARK 924 INTRA-LIGAND FREE ENERGY PREDICTED BY IDOCK:   -0.89 KCAL/MOL
REMARK 927      BINDING AFFINITY PREDICTED BY RF-SCORE:    0.00 PKD
ROOT
HETATM    1  C   UNL     1     -11.028   5.867  69.436  1.00  0.00    -0.421 C  
HETATM    2  C   UNL     1     -10.949   7.340  69.708  1.00  0.00    -0.235 A  
HETATM    3  C   UNL     1     -11.265   7.882  70.972  1.00  0.00    -0.269 A  
HETATM    4  C   UNL     1     -10.988   9.223  71.233  1.00  0.00    -0.421 A  
HETATM    5  N   UNL     1     -10.289   9.550  68.957  1.00  0.00    -0.199 NA 
HETATM    6  C   UNL     1     -10.491  10.003  70.215  1.00  0.00    -0.272 A  
HETATM    7  C   UNL     1     -10.537   8.237  68.704  1.00  0.00    -0.108 A  
ENDROOT
BRANCH   3   8
HETATM    8  O   UNL     1     -11.772   7.207  72.056  1.00  0.00    -0.273 OA 
BRANCH   8   9
HETATM    9  C   UNL     1     -10.910   7.092  73.201  1.00  0.00    -0.335 C  
HETATM   10  C   UNL     1     -10.295   5.703  73.359  1.00  0.00    -0.222 C  
HETATM   11  F   UNL     1     -10.809   5.066  74.439  1.00  0.00    -0.316 F  
HETATM   12  F   UNL     1      -8.957   5.797  73.559  1.00  0.00    -0.128 F  
HETATM   13  F   UNL     1     -10.486   4.907  72.285  1.00  0.00    -0.240 F  
ENDBRANCH   8   9
ENDBRANCH   3   8
BRANCH   7  14
HETATM   14  C   UNL     1     -10.358   7.839  67.248  1.00  0.00    -0.301 C  
BRANCH  14  15
HETATM   15  S   UNL     1      -8.667   7.332  66.884  1.00  0.00    -0.131 S  
HETATM   16  O   UNL     1      -7.857   7.086  68.125  1.00  0.00    -0.114 OA 
BRANCH  15  17
HETATM   17  C   UNL     1      -8.939   5.768  66.179  1.00  0.00    -0.149 A  
HETATM   18  N   UNL     1      -9.985   5.412  65.465  1.00  0.00    -0.377 NA 
HETATM   19  C   UNL     1      -9.648   4.192  64.919  1.00  0.00    -0.178 A  
HETATM   20  H   UNL     1     -10.857   5.926  65.342  1.00  0.00     0.000 HD 
HETATM   21  C   UNL     1     -10.359   3.382  64.019  1.00  0.00    -0.220 A  
HETATM   22  C   UNL     1      -9.745   2.225  63.524  1.00  0.00    -0.119 A  
HETATM   23  C   UNL     1      -8.456   1.871  63.926  1.00  0.00    -0.081 A  
HETATM   24  C   UNL     1      -7.746   2.640  64.857  1.00  0.00    -0.077 A  
HETATM   25  C   UNL     1      -8.380   3.794  65.332  1.00  0.00    -0.105 A  
HETATM   26  N   UNL     1      -7.995   4.772  66.212  1.00  0.00    -0.103 NA 
ENDBRANCH  15  17
ENDBRANCH  14  15
ENDBRANCH   7  14
TORSDOF 5
ENDMDL
MODEL      212
REMARK 921   NORMALIZED FREE ENERGY PREDICTED BY IDOCK:   -4.20 KCAL/MOL
REMARK 922        TOTAL FREE ENERGY PREDICTED BY IDOCK:   -6.26 KCAL/MOL
REMARK 923 INTER-LIGAND FREE ENERGY PREDICTED BY IDOCK:   -5.59 KCAL/MOL
REMARK 924 INTRA-LIGAND FREE ENERGY PREDICTED BY IDOCK:   -0.68 KCAL/MOL
REMARK 927      BINDING AFFINITY PREDICTED BY RF-SCORE:    0.00 PKD
ROOT
HETATM    1  C   UNL     1      -9.768  16.692  67.877  1.00  0.00    -0.244 C  
HETATM    2  C   UNL     1      -8.696  15.644  67.831  1.00  0.00    -0.166 A  
HETATM    3  C   UNL     1      -7.348  15.970  67.566  1.00  0.00    -0.163 A  
HETATM    4  C   UNL     1      -6.362  14.998  67.729  1.00  0.00    -0.176 A  
HETATM    5  N   UNL     1      -8.036  13.340  68.207  1.00  0.00    -0.139 NA 
HETATM    6  C   UNL     1      -6.746  13.719  68.063  1.00  0.00    -0.139 A  
HETATM    7  C   UNL     1      -9.000  14.291  68.070  1.00  0.00    -0.183 A  
ENDROOT
BRANCH   3   8
HETATM    8  O   UNL     1      -6.850  17.202  67.218  1.00  0.00    -0.145 OA 
BRANCH   8   9
HETATM    9  C   UNL     1      -7.327  17.762  65.983  1.00  0.00    -0.272 C  
HETATM   10  C   UNL     1      -7.748  19.226  66.105  1.00  0.00    -0.290 C  
HETATM   11  F   UNL     1      -9.091  19.355  65.983  1.00  0.00    -0.347 F  
HETATM   12  F   UNL     1      -7.190  19.963  65.113  1.00  0.00    -0.307 F  
HETATM   13  F   UNL     1      -7.388  19.791  67.277  1.00  0.00    -0.248 F  
ENDBRANCH   8   9
ENDBRANCH   3   8
BRANCH   7  14
HETATM   14  C   UNL     1     -10.419  13.756  68.170  1.00  0.00    -0.249 C  
BRANCH  14  15
HETATM   15  S   UNL     1     -11.007  13.090  66.602  1.00  0.00    -0.285 S  
HETATM   16  O   UNL     1     -10.035  13.311  65.478  1.00  0.00    -0.273 OA 
BRANCH  15  17
HETATM   17  C   UNL     1     -10.966  11.385  66.933  1.00  0.00    -0.299 A  
HETATM   18  N   UNL     1     -10.652  10.437  66.076  1.00  0.00    -0.124 NA 
HETATM   19  C   UNL     1     -10.512   9.298  66.839  1.00  0.00    -0.214 A  
HETATM   20  H   UNL     1     -10.536  10.526  65.067  1.00  0.00     0.000 HD 
HETATM   21  C   UNL     1     -10.118   8.004  66.458  1.00  0.00    -0.270 A  
HETATM   22  C   UNL     1      -9.947   7.032  67.453  1.00  0.00    -0.217 A  
HETATM   23  C   UNL     1     -10.177   7.335  68.796  1.00  0.00    -0.188 A  
HETATM   24  C   UNL     1     -10.613   8.606  69.192  1.00  0.00    -0.193 A  
HETATM   25  C   UNL     1     -10.771   9.559  68.180  1.00  0.00    -0.197 A  
HETATM   26  N   UNL     1     -11.154  10.875  68.194  1.00  0.00    -0.257 NA 
ENDBRANCH  15  17
ENDBRANCH  14  15
ENDBRANCH   7  14
TORSDOF 5
ENDMDL
MODEL      213
REMARK 921   NORMALIZED FREE ENERGY PREDICTED BY IDOCK:   -4.19 KCAL/MOL
REMARK 922        TOTAL FREE ENERGY PREDICTED BY IDOCK:   -6.25 KCAL/MOL
REMARK 923 INTER-LIGAND FREE ENERGY PREDICTED BY IDOCK:   -4.98 KCAL/MOL
REMARK 924 INTRA-LIGAND FREE ENERGY PREDICTED BY IDOCK:   -1.27 KCAL/MOL
REMARK 927      BINDING AFFINITY PREDICTED BY RF-SCORE:    0.00 PKD
ROOT
HETATM    1  C   UNL     1      -7.504   8.235  69.123  1.00  0.00    -0.086 C  
HETATM    2  C   UNL     1      -8.737   7.496  68.693  1.00  0.00    -0.128 A  
HETATM    3  C   UNL     1      -9.955   7.610  69.397  1.00  0.00    -0.180 A  
HETATM    4  C   UNL     1     -11.117   7.066  68.850  1.00  0.00    -0.102 A  
HETATM    5  N   UNL     1      -9.855   6.124  67.035  1.00  0.00    -0.139 NA 
HETATM    6  C   UNL     1     -11.022   6.357  67.675  1.00  0.00    -0.349 A  
HETATM    7  C   UNL     1      -8.722   6.671  67.553  1.00  0.00    -0.118 A  
ENDROOT
BRANCH   3   8
HETATM    8  O   UNL     1     -10.168   8.281  70.577  1.00  0.00    -0.194 OA 
BRANCH   8   9
HETATM    9  C   UNL     1     -10.306   9.709  70.486  1.00  0.00    -0.295 C  
HETATM   10  C   UNL     1     -11.760  10.178  70.482  1.00  0.00    -0.322 C  
HETATM   11  F   UNL     1     -12.104  10.673  69.269  1.00  0.00    -0.338 F  
HETATM   12  F   UNL     1     -11.938  11.178  71.380  1.00  0.00    -0.343 F  
HETATM   13  F   UNL     1     -12.639   9.200  70.789  1.00  0.00    -0.264 F  
ENDBRANCH   8   9
ENDBRANCH   3   8
BRANCH   7  14
HETATM   14  C   UNL     1      -7.451   6.289  66.812  1.00  0.00    -0.087 C  
BRANCH  14  15
HETATM   15  S   UNL     1      -7.436   6.913  65.122  1.00  0.00    -0.101 S  
HETATM   16  O   UNL     1      -8.403   6.190  64.228  1.00  0.00    -0.089 OA 
BRANCH  15  17
HETATM   17  C   UNL     1      -8.103   8.501  65.352  1.00  0.00    -0.127 A  
HETATM   18  N   UNL     1      -9.376   8.823  65.277  1.00  0.00    -0.445 NA 
HETATM   19  C   UNL     1      -9.450  10.107  65.773  1.00  0.00    -0.208 A  
HETATM   20  H   UNL     1     -10.143   8.248  64.929  1.00  0.00     0.000 HD 
HETATM   21  C   UNL     1     -10.572  10.924  65.991  1.00  0.00    -0.254 A  
HETATM   22  C   UNL     1     -10.390  12.166  66.614  1.00  0.00    -0.233 A  
HETATM   23  C   UNL     1      -9.118  12.594  66.998  1.00  0.00    -0.215 A  
HETATM   24  C   UNL     1      -7.980  11.815  66.750  1.00  0.00    -0.116 A  
HETATM   25  C   UNL     1      -8.190  10.577  66.132  1.00  0.00    -0.151 A  
HETATM   26  N   UNL     1      -7.341   9.567  65.759  1.00  0.00    -0.095 NA 
ENDBRANCH  15  17
ENDBRANCH  14  15
ENDBRANCH   7  14
TORSDOF 5
ENDMDL
MODEL      214
REMARK 921   NORMALIZED FREE ENERGY PREDICTED BY IDOCK:   -4.19 KCAL/MOL
REMARK 922        TOTAL FREE ENERGY PREDICTED BY IDOCK:   -6.25 KCAL/MOL
REMARK 923 INTER-LIGAND FREE ENERGY PREDICTED BY IDOCK:   -5.98 KCAL/MOL
REMARK 924 INTRA-LIGAND FREE ENERGY PREDICTED BY IDOCK:   -0.27 KCAL/MOL
REMARK 927      BINDING AFFINITY PREDICTED BY RF-SCORE:    0.00 PKD
ROOT
HETATM    1  C   UNL     1      -9.014  13.685  66.776  1.00  0.00    -0.196 C  
HETATM    2  C   UNL     1      -8.085  12.509  66.838  1.00  0.00    -0.039 A  
HETATM    3  C   UNL     1      -8.491  11.218  66.439  1.00  0.00    -0.169 A  
HETATM    4  C   UNL     1      -7.541  10.203  66.325  1.00  0.00    -0.111 A  
HETATM    5  N   UNL     1      -5.840  11.662  67.194  1.00  0.00    -0.106 NA 
HETATM    6  C   UNL     1      -6.243  10.473  66.693  1.00  0.00    -0.079 A  
HETATM    7  C   UNL     1      -6.759  12.661  67.285  1.00  0.00    -0.100 A  
ENDROOT
BRANCH   3   8
HETATM    8  O   UNL     1      -9.754  10.830  66.060  1.00  0.00    -0.200 OA 
BRANCH   8   9
HETATM    9  C   UNL     1      -9.918  10.427  64.690  1.00  0.00    -0.338 C  
HETATM   10  C   UNL     1     -10.497  11.527  63.801  1.00  0.00    -0.405 C  
HETATM   11  F   UNL     1     -11.757  11.219  63.411  1.00  0.00    -0.446 F  
HETATM   12  F   UNL     1      -9.758  11.661  62.672  1.00  0.00    -0.366 F  
HETATM   13  F   UNL     1     -10.538  12.735  64.402  1.00  0.00    -0.301 F  
ENDBRANCH   8   9
ENDBRANCH   3   8
BRANCH   7  14
HETATM   14  C   UNL     1      -6.234  13.932  67.933  1.00  0.00    -0.158 C  
BRANCH  14  15
HETATM   15  S   UNL     1      -7.248  14.454  69.328  1.00  0.00    -0.072 S  
HETATM   16  O   UNL     1      -6.438  14.729  70.563  1.00  0.00    -0.152 OA 
BRANCH  15  17
HETATM   17  C   UNL     1      -7.801  16.003  68.770  1.00  0.00    -0.190 A  
HETATM   18  N   UNL     1      -7.222  16.747  67.851  1.00  0.00    -0.145 NA 
HETATM   19  C   UNL     1      -8.135  17.739  67.567  1.00  0.00    -0.223 A  
HETATM   20  H   UNL     1      -6.299  16.617  67.439  1.00  0.00     0.000 HD 
HETATM   21  C   UNL     1      -8.076  18.770  66.614  1.00  0.00    -0.286 A  
HETATM   22  C   UNL     1      -9.194  19.596  66.445  1.00  0.00    -0.448 A  
HETATM   23  C   UNL     1     -10.342  19.413  67.218  1.00  0.00    -0.554 A  
HETATM   24  C   UNL     1     -10.406  18.420  68.204  1.00  0.00    -0.393 A  
HETATM   25  C   UNL     1      -9.279  17.605  68.349  1.00  0.00    -0.288 A  
HETATM   26  N   UNL     1      -8.993  16.549  69.175  1.00  0.00    -0.219 NA 
ENDBRANCH  15  17
ENDBRANCH  14  15
ENDBRANCH   7  14
TORSDOF 5
ENDMDL
MODEL      215
REMARK 921   NORMALIZED FREE ENERGY PREDICTED BY IDOCK:   -4.17 KCAL/MOL
REMARK 922        TOTAL FREE ENERGY PREDICTED BY IDOCK:   -6.22 KCAL/MOL
REMARK 923 INTER-LIGAND FREE ENERGY PREDICTED BY IDOCK:   -5.47 KCAL/MOL
REMARK 924 INTRA-LIGAND FREE ENERGY PREDICTED BY IDOCK:   -0.75 KCAL/MOL
REMARK 927      BINDING AFFINITY PREDICTED BY RF-SCORE:    0.00 PKD
ROOT
HETATM    1  C   UNL     1      -6.191  10.177  67.094  1.00  0.00    -0.062 C  
HETATM    2  C   UNL     1      -7.625  10.257  66.660  1.00  0.00    -0.110 A  
HETATM    3  C   UNL     1      -7.993  10.219  65.298  1.00  0.00    -0.148 A  
HETATM    4  C   UNL     1      -9.339  10.097  64.954  1.00  0.00    -0.310 A  
HETATM    5  N   UNL     1      -9.974  10.260  67.266  1.00  0.00    -0.182 NA 
HETATM    6  C   UNL     1     -10.279  10.103  65.959  1.00  0.00    -0.218 A  
HETATM    7  C   UNL     1      -8.660  10.357  67.608  1.00  0.00    -0.118 A  
ENDROOT
BRANCH   3   8
HETATM    8  O   UNL     1      -7.149  10.216  64.214  1.00  0.00    -0.130 OA 
BRANCH   8   9
HETATM    9  C   UNL     1      -7.478   9.312  63.146  1.00  0.00    -0.106 C  
HETATM   10  C   UNL     1      -6.997   7.883  63.394  1.00  0.00    -0.076 C  
HETATM   11  F   UNL     1      -5.990   7.558  62.548  1.00  0.00    -0.053 F  
HETATM   12  F   UNL     1      -8.001   7.000  63.167  1.00  0.00    -0.110 F  
HETATM   13  F   UNL     1      -6.557   7.676  64.653  1.00  0.00    -0.043 F  
ENDBRANCH   8   9
ENDBRANCH   3   8
BRANCH   7  14
HETATM   14  C   UNL     1      -8.420  10.610  69.088  1.00  0.00    -0.128 C  
BRANCH  14  15
HETATM   15  S   UNL     1      -8.360   9.080  70.038  1.00  0.00    -0.158 S  
HETATM   16  O   UNL     1      -7.687   9.252  71.370  1.00  0.00    -0.334 OA 
BRANCH  15  17
HETATM   17  C   UNL     1     -10.045   8.844  70.387  1.00  0.00    -0.196 A  
HETATM   18  N   UNL     1     -10.683   7.693  70.380  1.00  0.00    -0.232 NA 
HETATM   19  C   UNL     1     -11.908   7.959  70.952  1.00  0.00    -0.229 A  
HETATM   20  H   UNL     1     -10.345   6.798  70.028  1.00  0.00     0.000 HD 
HETATM   21  C   UNL     1     -12.965   7.087  71.261  1.00  0.00    -0.357 A  
HETATM   22  C   UNL     1     -14.076   7.592  71.948  1.00  0.00    -0.444 A  
HETATM   23  C   UNL     1     -14.143   8.939  72.308  1.00  0.00    -0.512 A  
HETATM   24  C   UNL     1     -13.121   9.836  71.971  1.00  0.00    -0.546 A  
HETATM   25  C   UNL     1     -12.020   9.305  71.290  1.00  0.00    -0.340 A  
HETATM   26  N   UNL     1     -10.856   9.861  70.826  1.00  0.00    -0.323 NA 
ENDBRANCH  15  17
ENDBRANCH  14  15
ENDBRANCH   7  14
TORSDOF 5
ENDMDL
MODEL      216
REMARK 921   NORMALIZED FREE ENERGY PREDICTED BY IDOCK:   -4.14 KCAL/MOL
REMARK 922        TOTAL FREE ENERGY PREDICTED BY IDOCK:   -6.18 KCAL/MOL
REMARK 923 INTER-LIGAND FREE ENERGY PREDICTED BY IDOCK:   -5.53 KCAL/MOL
REMARK 924 INTRA-LIGAND FREE ENERGY PREDICTED BY IDOCK:   -0.65 KCAL/MOL
REMARK 927      BINDING AFFINITY PREDICTED BY RF-SCORE:    0.00 PKD
ROOT
HETATM    1  C   UNL     1      -8.701   5.592  66.193  1.00  0.00    -0.136 C  
HETATM    2  C   UNL     1      -8.380   6.860  66.928  1.00  0.00    -0.114 A  
HETATM    3  C   UNL     1      -8.285   6.899  68.336  1.00  0.00    -0.120 A  
HETATM    4  C   UNL     1      -7.792   8.045  68.959  1.00  0.00    -0.109 A  
HETATM    5  N   UNL     1      -7.687   9.183  66.845  1.00  0.00    -0.097 NA 
HETATM    6  C   UNL     1      -7.494   9.141  68.182  1.00  0.00    -0.083 A  
HETATM    7  C   UNL     1      -8.146   8.059  66.230  1.00  0.00    -0.112 A  
ENDROOT
BRANCH   3   8
HETATM    8  O   UNL     1      -8.562   5.877  69.212  1.00  0.00    -0.111 OA 
BRANCH   8   9
HETATM    9  C   UNL     1      -9.939   5.480  69.320  1.00  0.00    -0.196 C  
HETATM   10  C   UNL     1     -10.476   5.540  70.749  1.00  0.00    -0.260 C  
HETATM   11  F   UNL     1     -10.708   4.295  71.230  1.00  0.00    -0.065 F  
HETATM   12  F   UNL     1     -11.659   6.201  70.783  1.00  0.00    -0.379 F  
HETATM   13  F   UNL     1      -9.642   6.162  71.609  1.00  0.00    -0.154 F  
ENDBRANCH   8   9
ENDBRANCH   3   8
BRANCH   7  14
HETATM   14  C   UNL     1      -8.407   8.227  64.742  1.00  0.00    -0.119 C  
BRANCH  14  15
HETATM   15  S   UNL     1      -7.900   9.848  64.141  1.00  0.00    -0.146 S  
HETATM   16  O   UNL     1      -7.726   9.884  62.649  1.00  0.00    -0.118 OA 
BRANCH  15  17
HETATM   17  C   UNL     1      -9.327  10.782  64.472  1.00  0.00    -0.236 A  
HETATM   18  N   UNL     1      -9.687  11.254  65.647  1.00  0.00    -0.220 NA 
HETATM   19  C   UNL     1     -10.723  12.123  65.380  1.00  0.00    -0.284 A  
HETATM   20  H   UNL     1      -9.286  11.027  66.557  1.00  0.00     0.000 HD 
HETATM   21  C   UNL     1     -11.442  12.958  66.251  1.00  0.00    -0.395 A  
HETATM   22  C   UNL     1     -12.388  13.839  65.711  1.00  0.00    -0.523 A  
HETATM   23  C   UNL     1     -12.627  13.878  64.336  1.00  0.00    -0.213 A  
HETATM   24  C   UNL     1     -11.953  13.022  63.455  1.00  0.00    -0.592 A  
HETATM   25  C   UNL     1     -11.009  12.157  64.019  1.00  0.00    -0.380 A  
HETATM   26  N   UNL     1     -10.169  11.217  63.480  1.00  0.00    -0.366 NA 
ENDBRANCH  15  17
ENDBRANCH  14  15
ENDBRANCH   7  14
TORSDOF 5
ENDMDL
MODEL      217
REMARK 921   NORMALIZED FREE ENERGY PREDICTED BY IDOCK:   -4.12 KCAL/MOL
REMARK 922        TOTAL FREE ENERGY PREDICTED BY IDOCK:   -6.16 KCAL/MOL
REMARK 923 INTER-LIGAND FREE ENERGY PREDICTED BY IDOCK:   -5.55 KCAL/MOL
REMARK 924 INTRA-LIGAND FREE ENERGY PREDICTED BY IDOCK:   -0.61 KCAL/MOL
REMARK 927      BINDING AFFINITY PREDICTED BY RF-SCORE:    0.00 PKD
ROOT
HETATM    1  C   UNL     1     -10.623  10.295  69.308  1.00  0.00    -0.254 C  
HETATM    2  C   UNL     1     -10.147  10.103  67.898  1.00  0.00    -0.207 A  
HETATM    3  C   UNL     1     -10.781  10.733  66.806  1.00  0.00    -0.231 A  
HETATM    4  C   UNL     1     -10.186  10.685  65.545  1.00  0.00    -0.329 A  
HETATM    5  N   UNL     1      -8.466   9.230  66.382  1.00  0.00    -0.121 NA 
HETATM    6  C   UNL     1      -9.036   9.946  65.388  1.00  0.00    -0.196 A  
HETATM    7  C   UNL     1      -9.030   9.293  67.619  1.00  0.00    -0.119 A  
ENDROOT
BRANCH   3   8
HETATM    8  O   UNL     1     -11.930  11.485  66.840  1.00  0.00    -0.516 OA 
BRANCH   8   9
HETATM    9  C   UNL     1     -11.797  12.877  66.507  1.00  0.00    -0.407 C  
HETATM   10  C   UNL     1     -12.402  13.236  65.152  1.00  0.00    -0.466 C  
HETATM   11  F   UNL     1     -11.434  13.550  64.258  1.00  0.00    -0.357 F  
HETATM   12  F   UNL     1     -13.202  14.324  65.264  1.00  0.00    -0.455 F  
HETATM   13  F   UNL     1     -13.146  12.244  64.617  1.00  0.00    -0.543 F  
ENDBRANCH   8   9
ENDBRANCH   3   8
BRANCH   7  14
HETATM   14  C   UNL     1      -8.367   8.394  68.651  1.00  0.00    -0.120 C  
BRANCH  14  15
HETATM   15  S   UNL     1      -7.474   7.027  67.889  1.00  0.00    -0.101 S  
HETATM   16  O   UNL     1      -5.987   7.239  67.883  1.00  0.00    -0.031 OA 
BRANCH  15  17
HETATM   17  C   UNL     1      -7.766   5.761  69.043  1.00  0.00    -0.090 A  
HETATM   18  N   UNL     1      -7.727   5.883  70.352  1.00  0.00    -0.094 NA 
HETATM   19  C   UNL     1      -8.263   4.710  70.837  1.00  0.00    -0.089 A  
HETATM   20  H   UNL     1      -7.376   6.675  70.892  1.00  0.00     0.000 HD 
HETATM   21  C   UNL     1      -8.528   4.323  72.161  1.00  0.00    -0.111 A  
HETATM   22  C   UNL     1      -9.185   3.106  72.388  1.00  0.00    -0.147 A  
HETATM   23  C   UNL     1      -9.557   2.284  71.322  1.00  0.00    -0.221 A  
HETATM   24  C   UNL     1      -9.262   2.630  69.997  1.00  0.00    -0.202 A  
HETATM   25  C   UNL     1      -8.611   3.853  69.798  1.00  0.00    -0.065 A  
HETATM   26  N   UNL     1      -8.190   4.510  68.671  1.00  0.00    -0.081 NA 
ENDBRANCH  15  17
ENDBRANCH  14  15
ENDBRANCH   7  14
TORSDOF 5
ENDMDL
MODEL      218
REMARK 921   NORMALIZED FREE ENERGY PREDICTED BY IDOCK:   -4.09 KCAL/MOL
REMARK 922        TOTAL FREE ENERGY PREDICTED BY IDOCK:   -6.11 KCAL/MOL
REMARK 923 INTER-LIGAND FREE ENERGY PREDICTED BY IDOCK:   -5.38 KCAL/MOL
REMARK 924 INTRA-LIGAND FREE ENERGY PREDICTED BY IDOCK:   -0.74 KCAL/MOL
REMARK 927      BINDING AFFINITY PREDICTED BY RF-SCORE:    0.00 PKD
ROOT
HETATM    1  C   UNL     1      -8.021   6.588  66.901  1.00  0.00    -0.112 C  
HETATM    2  C   UNL     1      -8.584   7.549  67.905  1.00  0.00    -0.121 A  
HETATM    3  C   UNL     1      -9.535   7.148  68.867  1.00  0.00    -0.142 A  
HETATM    4  C   UNL     1      -9.879   8.020  69.899  1.00  0.00    -0.186 A  
HETATM    5  N   UNL     1      -8.522   9.749  68.926  1.00  0.00    -0.123 NA 
HETATM    6  C   UNL     1      -9.341   9.287  69.897  1.00  0.00    -0.198 A  
HETATM    7  C   UNL     1      -8.166   8.893  67.929  1.00  0.00    -0.110 A  
ENDROOT
BRANCH   3   8
HETATM    8  O   UNL     1     -10.144   5.919  68.965  1.00  0.00    -0.158 OA 
BRANCH   8   9
HETATM    9  C   UNL     1     -10.599   5.531  70.271  1.00  0.00    -0.287 C  
HETATM   10  C   UNL     1      -9.641   4.582  70.989  1.00  0.00    -0.178 C  
HETATM   11  F   UNL     1     -10.177   3.342  71.095  1.00  0.00    -0.199 F  
HETATM   12  F   UNL     1      -9.402   5.016  72.251  1.00  0.00    -0.142 F  
HETATM   13  F   UNL     1      -8.446   4.460  70.373  1.00  0.00    -0.073 F  
ENDBRANCH   8   9
ENDBRANCH   3   8
BRANCH   7  14
HETATM   14  C   UNL     1      -7.309   9.524  66.844  1.00  0.00    -0.087 C  
BRANCH  14  15
HETATM   15  S   UNL     1      -7.173  11.310  67.037  1.00  0.00    -0.136 S  
HETATM   16  O   UNL     1      -6.070  11.900  66.206  1.00  0.00    -0.068 OA 
BRANCH  15  17
HETATM   17  C   UNL     1      -8.654  11.834  66.295  1.00  0.00    -0.062 A  
HETATM   18  N   UNL     1      -9.249  12.992  66.488  1.00  0.00    -0.379 NA 
HETATM   19  C   UNL     1     -10.227  13.058  65.520  1.00  0.00    -0.285 A  
HETATM   20  H   UNL     1      -9.033  13.690  67.200  1.00  0.00     0.000 HD 
HETATM   21  C   UNL     1     -11.120  14.098  65.213  1.00  0.00    -0.331 A  
HETATM   22  C   UNL     1     -11.956  13.961  64.097  1.00  0.00    -0.464 A  
HETATM   23  C   UNL     1     -11.917  12.808  63.312  1.00  0.00    -0.522 A  
HETATM   24  C   UNL     1     -11.066  11.740  63.626  1.00  0.00    -0.518 A  
HETATM   25  C   UNL     1     -10.238  11.905  64.742  1.00  0.00    -0.276 A  
HETATM   26  N   UNL     1      -9.291  11.103  65.324  1.00  0.00    -0.220 NA 
ENDBRANCH  15  17
ENDBRANCH  14  15
ENDBRANCH   7  14
TORSDOF 5
ENDMDL
MODEL      219
REMARK 921   NORMALIZED FREE ENERGY PREDICTED BY IDOCK:   -4.08 KCAL/MOL
REMARK 922        TOTAL FREE ENERGY PREDICTED BY IDOCK:   -6.10 KCAL/MOL
REMARK 923 INTER-LIGAND FREE ENERGY PREDICTED BY IDOCK:   -5.28 KCAL/MOL
REMARK 924 INTRA-LIGAND FREE ENERGY PREDICTED BY IDOCK:   -0.82 KCAL/MOL
REMARK 927      BINDING AFFINITY PREDICTED BY RF-SCORE:    0.00 PKD
ROOT
HETATM    1  C   UNL     1      -8.103   8.649  71.656  1.00  0.00    -0.183 C  
HETATM    2  C   UNL     1      -8.912   8.148  70.496  1.00  0.00    -0.145 A  
HETATM    3  C   UNL     1      -9.118   6.769  70.273  1.00  0.00    -0.153 A  
HETATM    4  C   UNL     1     -10.034   6.359  69.305  1.00  0.00    -0.178 A  
HETATM    5  N   UNL     1     -10.386   8.640  68.634  1.00  0.00    -0.198 NA 
HETATM    6  C   UNL     1     -10.649   7.318  68.533  1.00  0.00    -0.175 A  
HETATM    7  C   UNL     1      -9.510   9.046  69.592  1.00  0.00    -0.171 A  
ENDROOT
BRANCH   3   8
HETATM    8  O   UNL     1      -8.557   5.727  70.971  1.00  0.00    -0.127 OA 
BRANCH   8   9
HETATM    9  C   UNL     1      -9.038   5.517  72.309  1.00  0.00    -0.142 C  
HETATM   10  C   UNL     1     -10.147   4.470  72.396  1.00  0.00    -0.183 C  
HETATM   11  F   UNL     1     -11.333   5.047  72.706  1.00  0.00    -0.289 F  
HETATM   12  F   UNL     1      -9.877   3.575  73.378  1.00  0.00    -0.120 F  
HETATM   13  F   UNL     1     -10.317   3.774  71.253  1.00  0.00    -0.186 F  
ENDBRANCH   8   9
ENDBRANCH   3   8
BRANCH   7  14
HETATM   14  C   UNL     1      -9.218  10.538  69.577  1.00  0.00    -0.048 C  
BRANCH  14  15
HETATM   15  S   UNL     1      -7.861  10.955  68.467  1.00  0.00    -0.134 S  
HETATM   16  O   UNL     1      -7.059   9.753  68.057  1.00  0.00    -0.077 OA 
BRANCH  15  17
HETATM   17  C   UNL     1      -8.736  11.446  67.049  1.00  0.00    -0.160 A  
HETATM   18  N   UNL     1      -9.226  10.645  66.127  1.00  0.00    -0.167 NA 
HETATM   19  C   UNL     1     -10.036  11.447  65.352  1.00  0.00    -0.261 A  
HETATM   20  H   UNL     1      -9.046   9.648  66.010  1.00  0.00     0.000 HD 
HETATM   21  C   UNL     1     -10.863  11.109  64.267  1.00  0.00    -0.354 A  
HETATM   22  C   UNL     1     -11.681  12.100  63.709  1.00  0.00    -0.576 A  
HETATM   23  C   UNL     1     -11.667  13.404  64.208  1.00  0.00    -0.455 A  
HETATM   24  C   UNL     1     -10.817  13.773  65.259  1.00  0.00    -0.326 A  
HETATM   25  C   UNL     1     -10.015  12.763  65.802  1.00  0.00    -0.251 A  
HETATM   26  N   UNL     1      -9.101  12.749  66.823  1.00  0.00    -0.221 NA 
ENDBRANCH  15  17
ENDBRANCH  14  15
ENDBRANCH   7  14
TORSDOF 5
ENDMDL
MODEL      220
REMARK 921   NORMALIZED FREE ENERGY PREDICTED BY IDOCK:   -4.06 KCAL/MOL
REMARK 922        TOTAL FREE ENERGY PREDICTED BY IDOCK:   -6.07 KCAL/MOL
REMARK 923 INTER-LIGAND FREE ENERGY PREDICTED BY IDOCK:   -5.27 KCAL/MOL
REMARK 924 INTRA-LIGAND FREE ENERGY PREDICTED BY IDOCK:   -0.80 KCAL/MOL
REMARK 927      BINDING AFFINITY PREDICTED BY RF-SCORE:    0.00 PKD
ROOT
HETATM    1  C   UNL     1      -9.842   7.319  69.125  1.00  0.00    -0.166 C  
HETATM    2  C   UNL     1      -8.892   8.468  68.956  1.00  0.00    -0.145 A  
HETATM    3  C   UNL     1      -7.732   8.363  68.158  1.00  0.00    -0.103 A  
HETATM    4  C   UNL     1      -6.990   9.508  67.870  1.00  0.00    -0.079 A  
HETATM    5  N   UNL     1      -8.398  10.815  69.314  1.00  0.00    -0.110 NA 
HETATM    6  C   UNL     1      -7.366  10.698  68.449  1.00  0.00    -0.091 A  
HETATM    7  C   UNL     1      -9.138   9.705  69.580  1.00  0.00    -0.199 A  
ENDROOT
BRANCH   3   8
HETATM    8  O   UNL     1      -7.256   7.232  67.539  1.00  0.00    -0.085 OA 
BRANCH   8   9
HETATM    9  C   UNL     1      -7.022   7.326  66.123  1.00  0.00    -0.065 C  
HETATM   10  C   UNL     1      -8.249   6.978  65.283  1.00  0.00    -0.128 C  
HETATM   11  F   UNL     1      -8.068   5.808  64.624  1.00  0.00    -0.107 F  
HETATM   12  F   UNL     1      -8.464   7.929  64.342  1.00  0.00    -0.132 F  
HETATM   13  F   UNL     1      -9.382   6.867  66.009  1.00  0.00    -0.189 F  
ENDBRANCH   8   9
ENDBRANCH   3   8
BRANCH   7  14
HETATM   14  C   UNL     1     -10.225   9.916  70.622  1.00  0.00    -0.133 C  
BRANCH  14  15
HETATM   15  S   UNL     1     -11.867  10.000  69.885  1.00  0.00    -0.003 S  
HETATM   16  O   UNL     1     -12.860  10.706  70.763  1.00  0.00    -0.360 OA 
BRANCH  15  17
HETATM   17  C   UNL     1     -11.573  11.069  68.549  1.00  0.00    -0.310 A  
HETATM   18  N   UNL     1     -11.481  10.720  67.284  1.00  0.00    -0.413 NA 
HETATM   19  C   UNL     1     -11.499  11.906  66.582  1.00  0.00    -0.314 A  
HETATM   20  H   UNL     1     -11.411   9.776  66.904  1.00  0.00     0.000 HD 
HETATM   21  C   UNL     1     -11.496  12.131  65.196  1.00  0.00    -0.376 A  
HETATM   22  C   UNL     1     -11.629  13.444  64.726  1.00  0.00    -0.367 A  
HETATM   23  C   UNL     1     -11.748  14.513  65.615  1.00  0.00    -0.335 A  
HETATM   24  C   UNL     1     -11.708  14.316  67.002  1.00  0.00    -0.427 A  
HETATM   25  C   UNL     1     -11.580  12.995  67.445  1.00  0.00    -0.356 A  
HETATM   26  N   UNL     1     -11.525  12.433  68.694  1.00  0.00    -0.278 NA 
ENDBRANCH  15  17
ENDBRANCH  14  15
ENDBRANCH   7  14
TORSDOF 5
ENDMDL
MODEL      221
REMARK 921   NORMALIZED FREE ENERGY PREDICTED BY IDOCK:   -4.02 KCAL/MOL
REMARK 922        TOTAL FREE ENERGY PREDICTED BY IDOCK:   -6.02 KCAL/MOL
REMARK 923 INTER-LIGAND FREE ENERGY PREDICTED BY IDOCK:   -4.88 KCAL/MOL
REMARK 924 INTRA-LIGAND FREE ENERGY PREDICTED BY IDOCK:   -1.14 KCAL/MOL
REMARK 927      BINDING AFFINITY PREDICTED BY RF-SCORE:    0.00 PKD
ROOT
HETATM    1  C   UNL     1      -7.973   8.819  69.174  1.00  0.00    -0.109 C  
HETATM    2  C   UNL     1      -8.776   7.890  68.312  1.00  0.00    -0.130 A  
HETATM    3  C   UNL     1     -10.079   7.483  68.670  1.00  0.00    -0.184 A  
HETATM    4  C   UNL     1     -10.858   6.783  67.749  1.00  0.00    -0.339 A  
HETATM    5  N   UNL     1      -9.013   6.701  66.211  1.00  0.00    -0.152 NA 
HETATM    6  C   UNL     1     -10.296   6.435  66.542  1.00  0.00    -0.080 A  
HETATM    7  C   UNL     1      -8.257   7.403  67.098  1.00  0.00    -0.118 A  
ENDROOT
BRANCH   3   8
HETATM    8  O   UNL     1     -10.739   7.761  69.843  1.00  0.00    -0.243 OA 
BRANCH   8   9
HETATM    9  C   UNL     1     -11.495   6.686  70.425  1.00  0.00    -0.386 C  
HETATM   10  C   UNL     1     -10.786   6.013  71.598  1.00  0.00    -0.251 C  
HETATM   11  F   UNL     1     -10.397   4.757  71.271  1.00  0.00    -0.263 F  
HETATM   12  F   UNL     1     -11.625   5.901  72.657  1.00  0.00    -0.306 F  
HETATM   13  F   UNL     1      -9.693   6.683  72.020  1.00  0.00    -0.154 F  
ENDBRANCH   8   9
ENDBRANCH   3   8
BRANCH   7  14
HETATM   14  C   UNL     1      -6.808   7.584  66.674  1.00  0.00    -0.066 C  
BRANCH  14  15
HETATM   15  S   UNL     1      -6.665   8.416  65.082  1.00  0.00    -0.064 S  
HETATM   16  O   UNL     1      -7.156   7.572  63.941  1.00  0.00    -0.056 OA 
BRANCH  15  17
HETATM   17  C   UNL     1      -7.836   9.686  65.269  1.00  0.00    -0.115 A  
HETATM   18  N   UNL     1      -9.045   9.705  64.751  1.00  0.00    -0.225 NA 
HETATM   19  C   UNL     1      -9.680  10.763  65.365  1.00  0.00    -0.245 A  
HETATM   20  H   UNL     1      -9.430   9.074  64.049  1.00  0.00     0.000 HD 
HETATM   21  C   UNL     1     -11.008  11.206  65.247  1.00  0.00    -0.153 A  
HETATM   22  C   UNL     1     -11.445  12.253  66.070  1.00  0.00    -0.434 A  
HETATM   23  C   UNL     1     -10.576  12.857  66.980  1.00  0.00    -0.261 A  
HETATM   24  C   UNL     1      -9.236  12.461  67.082  1.00  0.00    -0.199 A  
HETATM   25  C   UNL     1      -8.827  11.410  66.254  1.00  0.00    -0.195 A  
HETATM   26  N   UNL     1      -7.630  10.762  66.095  1.00  0.00    -0.145 NA 
ENDBRANCH  15  17
ENDBRANCH  14  15
ENDBRANCH   7  14
TORSDOF 5
ENDMDL
MODEL      222
REMARK 921   NORMALIZED FREE ENERGY PREDICTED BY IDOCK:   -4.00 KCAL/MOL
REMARK 922        TOTAL FREE ENERGY PREDICTED BY IDOCK:   -6.00 KCAL/MOL
REMARK 923 INTER-LIGAND FREE ENERGY PREDICTED BY IDOCK:   -5.32 KCAL/MOL
REMARK 924 INTRA-LIGAND FREE ENERGY PREDICTED BY IDOCK:   -0.69 KCAL/MOL
REMARK 927      BINDING AFFINITY PREDICTED BY RF-SCORE:    0.00 PKD
ROOT
HETATM    1  C   UNL     1     -10.657   8.281  67.310  1.00  0.00    -0.335 C  
HETATM    2  C   UNL     1     -10.702   8.433  68.802  1.00  0.00    -0.086 A  
HETATM    3  C   UNL     1     -10.602   9.696  69.425  1.00  0.00    -0.225 A  
HETATM    4  C   UNL     1     -10.847   9.809  70.793  1.00  0.00    -0.403 A  
HETATM    5  N   UNL     1     -11.081   7.424  70.975  1.00  0.00    -0.252 NA 
HETATM    6  C   UNL     1     -11.096   8.664  71.513  1.00  0.00    -0.288 A  
HETATM    7  C   UNL     1     -10.864   7.312  69.637  1.00  0.00    -0.222 A  
ENDROOT
BRANCH   3   8
HETATM    8  O   UNL     1     -10.350  10.901  68.813  1.00  0.00    -0.181 OA 
BRANCH   8   9
HETATM    9  C   UNL     1     -11.485  11.751  68.577  1.00  0.00    -0.296 C  
HETATM   10  C   UNL     1     -11.290  12.707  67.402  1.00  0.00    -0.313 C  
HETATM   11  F   UNL     1     -11.184  13.987  67.834  1.00  0.00    -0.253 F  
HETATM   12  F   UNL     1     -12.362  12.661  66.573  1.00  0.00    -0.430 F  
HETATM   13  F   UNL     1     -10.196  12.432  66.662  1.00  0.00    -0.220 F  
ENDBRANCH   8   9
ENDBRANCH   3   8
BRANCH   7  14
HETATM   14  C   UNL     1     -10.786   5.878  69.138  1.00  0.00    -0.336 C  
BRANCH  14  15
HETATM   15  S   UNL     1      -9.085   5.318  68.941  1.00  0.00    -0.115 S  
HETATM   16  O   UNL     1      -8.841   3.975  69.568  1.00  0.00    -0.079 OA 
BRANCH  15  17
HETATM   17  C   UNL     1      -9.021   5.057  67.225  1.00  0.00    -0.113 A  
HETATM   18  N   UNL     1      -7.932   5.011  66.489  1.00  0.00    -0.107 NA 
HETATM   19  C   UNL     1      -8.348   4.539  65.263  1.00  0.00    -0.121 A  
HETATM   20  H   UNL     1      -6.984   5.268  66.765  1.00  0.00     0.000 HD 
HETATM   21  C   UNL     1      -7.596   4.227  64.117  1.00  0.00    -0.071 A  
HETATM   22  C   UNL     1      -8.250   3.653  63.019  1.00  0.00    -0.081 A  
HETATM   23  C   UNL     1      -9.624   3.408  63.052  1.00  0.00    -0.100 A  
HETATM   24  C   UNL     1     -10.399   3.752  64.167  1.00  0.00    -0.260 A  
HETATM   25  C   UNL     1      -9.721   4.318  65.252  1.00  0.00    -0.197 A  
HETATM   26  N   UNL     1     -10.136   4.752  66.485  1.00  0.00    -0.236 NA 
ENDBRANCH  15  17
ENDBRANCH  14  15
ENDBRANCH   7  14
TORSDOF 5
ENDMDL
MODEL      223
REMARK 921   NORMALIZED FREE ENERGY PREDICTED BY IDOCK:   -4.00 KCAL/MOL
REMARK 922        TOTAL FREE ENERGY PREDICTED BY IDOCK:   -6.00 KCAL/MOL
REMARK 923 INTER-LIGAND FREE ENERGY PREDICTED BY IDOCK:   -4.68 KCAL/MOL
REMARK 924 INTRA-LIGAND FREE ENERGY PREDICTED BY IDOCK:   -1.32 KCAL/MOL
REMARK 927      BINDING AFFINITY PREDICTED BY RF-SCORE:    0.00 PKD
ROOT
HETATM    1  C   UNL     1     -11.146   6.337  68.784  1.00  0.00    -0.424 C  
HETATM    2  C   UNL     1     -10.055   7.259  69.242  1.00  0.00    -0.183 A  
HETATM    3  C   UNL     1      -9.844   7.541  70.609  1.00  0.00    -0.179 A  
HETATM    4  C   UNL     1      -8.702   8.240  70.998  1.00  0.00    -0.169 A  
HETATM    5  N   UNL     1      -8.086   8.568  68.698  1.00  0.00    -0.120 NA 
HETATM    6  C   UNL     1      -7.855   8.712  70.022  1.00  0.00    -0.103 A  
HETATM    7  C   UNL     1      -9.187   7.866  68.315  1.00  0.00    -0.137 A  
ENDROOT
BRANCH   3   8
HETATM    8  O   UNL     1     -10.622   7.133  71.666  1.00  0.00    -0.208 OA 
BRANCH   8   9
HETATM    9  C   UNL     1     -11.117   8.166  72.534  1.00  0.00    -0.377 C  
HETATM   10  C   UNL     1     -12.415   8.802  72.039  1.00  0.00    -0.386 C  
HETATM   11  F   UNL     1     -12.205  10.079  71.637  1.00  0.00    -0.416 F  
HETATM   12  F   UNL     1     -13.329   8.851  73.039  1.00  0.00    -0.445 F  
HETATM   13  F   UNL     1     -12.980   8.136  71.010  1.00  0.00    -0.247 F  
ENDBRANCH   8   9
ENDBRANCH   3   8
BRANCH   7  14
HETATM   14  C   UNL     1      -9.406   7.825  66.811  1.00  0.00    -0.180 C  
BRANCH  14  15
HETATM   15  S   UNL     1      -8.124   6.885  65.963  1.00  0.00    -0.126 S  
HETATM   16  O   UNL     1      -6.782   7.559  66.015  1.00  0.00    -0.048 OA 
BRANCH  15  17
HETATM   17  C   UNL     1      -7.996   5.496  66.998  1.00  0.00    -0.102 A  
HETATM   18  N   UNL     1      -7.155   5.352  68.000  1.00  0.00    -0.065 NA 
HETATM   19  C   UNL     1      -7.585   4.226  68.668  1.00  0.00    -0.063 A  
HETATM   20  H   UNL     1      -6.359   5.945  68.232  1.00  0.00     0.000 HD 
HETATM   21  C   UNL     1      -7.103   3.645  69.853  1.00  0.00    -0.042 A  
HETATM   22  C   UNL     1      -7.789   2.550  70.393  1.00  0.00    -0.047 A  
HETATM   23  C   UNL     1      -8.922   2.033  69.763  1.00  0.00    -0.145 A  
HETATM   24  C   UNL     1      -9.393   2.569  68.557  1.00  0.00    -0.254 A  
HETATM   25  C   UNL     1      -8.694   3.666  68.042  1.00  0.00    -0.105 A  
HETATM   26  N   UNL     1      -8.870   4.440  66.925  1.00  0.00    -0.112 NA 
ENDBRANCH  15  17
ENDBRANCH  14  15
ENDBRANCH   7  14
TORSDOF 5
ENDMDL
MODEL      224
REMARK 921   NORMALIZED FREE ENERGY PREDICTED BY IDOCK:   -3.97 KCAL/MOL
REMARK 922        TOTAL FREE ENERGY PREDICTED BY IDOCK:   -5.96 KCAL/MOL
REMARK 923 INTER-LIGAND FREE ENERGY PREDICTED BY IDOCK:   -5.26 KCAL/MOL
REMARK 924 INTRA-LIGAND FREE ENERGY PREDICTED BY IDOCK:   -0.70 KCAL/MOL
REMARK 927      BINDING AFFINITY PREDICTED BY RF-SCORE:    0.00 PKD
ROOT
HETATM    1  C   UNL     1     -11.072   6.545  67.666  1.00  0.00    -0.380 C  
HETATM    2  C   UNL     1     -10.460   5.387  68.397  1.00  0.00    -0.191 A  
HETATM    3  C   UNL     1      -9.861   4.308  67.713  1.00  0.00    -0.074 A  
HETATM    4  C   UNL     1      -9.133   3.358  68.429  1.00  0.00    -0.206 A  
HETATM    5  N   UNL     1      -9.755   4.406  70.501  1.00  0.00    -0.202 NA 
HETATM    6  C   UNL     1      -9.094   3.457  69.801  1.00  0.00    -0.129 A  
HETATM    7  C   UNL     1     -10.448   5.347  69.804  1.00  0.00    -0.307 A  
ENDROOT
BRANCH   3   8
HETATM    8  O   UNL     1      -9.842   4.100  66.354  1.00  0.00    -0.210 OA 
BRANCH   8   9
HETATM    9  C   UNL     1      -8.551   3.906  65.753  1.00  0.00    -0.111 C  
HETATM   10  C   UNL     1      -8.540   2.816  64.682  1.00  0.00    -0.094 C  
HETATM   11  F   UNL     1      -7.837   1.735  65.100  1.00  0.00    -0.067 F  
HETATM   12  F   UNL     1      -7.935   3.266  63.555  1.00  0.00    -0.075 F  
HETATM   13  F   UNL     1      -9.774   2.393  64.335  1.00  0.00    -0.142 F  
ENDBRANCH   8   9
ENDBRANCH   3   8
BRANCH   7  14
HETATM   14  C   UNL     1     -11.222   6.323  70.676  1.00  0.00    -0.337 C  
BRANCH  14  15
HETATM   15  S   UNL     1     -10.133   7.439  71.579  1.00  0.00    -0.184 S  
HETATM   16  O   UNL     1      -8.696   7.003  71.541  1.00  0.00    -0.121 OA 
BRANCH  15  17
HETATM   17  C   UNL     1     -10.222   8.861  70.586  1.00  0.00    -0.217 A  
HETATM   18  N   UNL     1      -9.496   9.104  69.516  1.00  0.00    -0.162 NA 
HETATM   19  C   UNL     1     -10.081  10.205  68.929  1.00  0.00    -0.200 A  
HETATM   20  H   UNL     1      -8.677   8.589  69.191  1.00  0.00     0.000 HD 
HETATM   21  C   UNL     1      -9.765  10.857  67.725  1.00  0.00    -0.183 A  
HETATM   22  C   UNL     1     -10.590  11.901  67.288  1.00  0.00    -0.261 A  
HETATM   23  C   UNL     1     -11.698  12.300  68.038  1.00  0.00    -0.417 A  
HETATM   24  C   UNL     1     -12.006  11.692  69.263  1.00  0.00    -0.382 A  
HETATM   25  C   UNL     1     -11.169  10.649  69.673  1.00  0.00    -0.289 A  
HETATM   26  N   UNL     1     -11.172   9.833  70.775  1.00  0.00    -0.320 NA 
ENDBRANCH  15  17
ENDBRANCH  14  15
ENDBRANCH   7  14
TORSDOF 5
ENDMDL
MODEL      225
REMARK 921   NORMALIZED FREE ENERGY PREDICTED BY IDOCK:   -3.94 KCAL/MOL
REMARK 922        TOTAL FREE ENERGY PREDICTED BY IDOCK:   -5.92 KCAL/MOL
REMARK 923 INTER-LIGAND FREE ENERGY PREDICTED BY IDOCK:   -5.23 KCAL/MOL
REMARK 924 INTRA-LIGAND FREE ENERGY PREDICTED BY IDOCK:   -0.70 KCAL/MOL
REMARK 927      BINDING AFFINITY PREDICTED BY RF-SCORE:    0.00 PKD
ROOT
HETATM    1  C   UNL     1      -9.204   9.391  71.073  1.00  0.00    -0.181 C  
HETATM    2  C   UNL     1     -10.699   9.428  70.957  1.00  0.00    -0.407 A  
HETATM    3  C   UNL     1     -11.497   8.305  71.264  1.00  0.00    -0.274 A  
HETATM    4  C   UNL     1     -12.883   8.445  71.333  1.00  0.00    -0.262 A  
HETATM    5  N   UNL     1     -12.716  10.727  70.597  1.00  0.00    -0.343 NA 
HETATM    6  C   UNL     1     -13.438   9.663  71.012  1.00  0.00    -0.163 A  
HETATM    7  C   UNL     1     -11.362  10.601  70.549  1.00  0.00    -0.267 A  
ENDROOT
BRANCH   3   8
HETATM    8  O   UNL     1     -11.058   7.044  71.589  1.00  0.00    -0.229 OA 
BRANCH   8   9
HETATM    9  C   UNL     1     -11.041   6.077  70.526  1.00  0.00    -0.314 C  
HETATM   10  C   UNL     1      -9.683   5.959  69.836  1.00  0.00    -0.165 C  
HETATM   11  F   UNL     1      -9.738   6.450  68.575  1.00  0.00    -0.131 F  
HETATM   12  F   UNL     1      -9.314   4.659  69.736  1.00  0.00    -0.145 F  
HETATM   13  F   UNL     1      -8.694   6.609  70.486  1.00  0.00    -0.136 F  
ENDBRANCH   8   9
ENDBRANCH   3   8
BRANCH   7  14
HETATM   14  C   UNL     1     -10.643  11.820  69.996  1.00  0.00     0.958 C  
BRANCH  14  15
HETATM   15  S   UNL     1     -10.241  11.638  68.249  1.00  0.00    -0.204 S  
HETATM   16  O   UNL     1     -11.403  11.142  67.436  1.00  0.00    -0.377 OA 
BRANCH  15  17
HETATM   17  C   UNL     1     -10.017  13.298  67.788  1.00  0.00    -0.223 A  
HETATM   18  N   UNL     1     -10.040  13.770  66.560  1.00  0.00    -0.279 NA 
HETATM   19  C   UNL     1     -10.071  15.140  66.704  1.00  0.00    -0.264 A  
HETATM   20  H   UNL     1     -10.037  13.238  65.690  1.00  0.00     0.000 HD 
HETATM   21  C   UNL     1     -10.172  16.145  65.728  1.00  0.00    -0.397 A  
HETATM   22  C   UNL     1     -10.294  17.478  66.143  1.00  0.00    -0.330 A  
HETATM   23  C   UNL     1     -10.300  17.807  67.500  1.00  0.00    -0.371 A  
HETATM   24  C   UNL     1     -10.156  16.825  68.489  1.00  0.00    -0.281 A  
HETATM   25  C   UNL     1     -10.041  15.502  68.048  1.00  0.00    -0.223 A  
HETATM   26  N   UNL     1      -9.907  14.309  68.709  1.00  0.00    -0.217 NA 
ENDBRANCH  15  17
ENDBRANCH  14  15
ENDBRANCH   7  14
TORSDOF 5
ENDMDL
MODEL      226
REMARK 921   NORMALIZED FREE ENERGY PREDICTED BY IDOCK:   -3.88 KCAL/MOL
REMARK 922        TOTAL FREE ENERGY PREDICTED BY IDOCK:   -5.85 KCAL/MOL
REMARK 923 INTER-LIGAND FREE ENERGY PREDICTED BY IDOCK:   -4.99 KCAL/MOL
REMARK 924 INTRA-LIGAND FREE ENERGY PREDICTED BY IDOCK:   -0.86 KCAL/MOL
REMARK 927      BINDING AFFINITY PREDICTED BY RF-SCORE:    0.00 PKD
ROOT
HETATM    1  C   UNL     1      -6.198  10.244  69.203  1.00  0.00    -0.040 C  
HETATM    2  C   UNL     1      -7.346   9.403  68.727  1.00  0.00    -0.074 A  
HETATM    3  C   UNL     1      -8.078   9.732  67.566  1.00  0.00    -0.114 A  
HETATM    4  C   UNL     1      -9.001   8.820  67.055  1.00  0.00    -0.151 A  
HETATM    5  N   UNL     1      -8.641   7.362  68.931  1.00  0.00    -0.129 NA 
HETATM    6  C   UNL     1      -9.233   7.657  67.752  1.00  0.00    -0.136 A  
HETATM    7  C   UNL     1      -7.723   8.238  69.422  1.00  0.00    -0.102 A  
ENDROOT
BRANCH   3   8
HETATM    8  O   UNL     1      -7.942  10.862  66.796  1.00  0.00    -0.131 OA 
BRANCH   8   9
HETATM    9  C   UNL     1      -9.111  11.685  66.651  1.00  0.00    -0.194 C  
HETATM   10  C   UNL     1      -9.221  12.773  67.718  1.00  0.00    -0.199 C  
HETATM   11  F   UNL     1     -10.247  12.516  68.566  1.00  0.00    -0.215 F  
HETATM   12  F   UNL     1      -9.477  13.974  67.145  1.00  0.00    -0.210 F  
HETATM   13  F   UNL     1      -8.102  12.911  68.460  1.00  0.00    -0.141 F  
ENDBRANCH   8   9
ENDBRANCH   3   8
BRANCH   7  14
HETATM   14  C   UNL     1      -7.171   7.861  70.787  1.00  0.00    -0.053 C  
BRANCH  14  15
HETATM   15  S   UNL     1      -8.156   6.585  71.590  1.00  0.00    -0.108 S  
HETATM   16  O   UNL     1      -7.654   6.245  72.965  1.00  0.00    -0.095 OA 
BRANCH  15  17
HETATM   17  C   UNL     1      -9.655   7.429  71.830  1.00  0.00    -0.151 A  
HETATM   18  N   UNL     1      -9.839   8.727  71.715  1.00  0.00    -0.298 NA 
HETATM   19  C   UNL     1     -11.206   8.898  71.745  1.00  0.00    -0.362 A  
HETATM   20  H   UNL     1      -9.126   9.449  71.623  1.00  0.00     0.000 HD 
HETATM   21  C   UNL     1     -11.970  10.067  71.592  1.00  0.00    -0.369 A  
HETATM   22  C   UNL     1     -13.366   9.960  71.553  1.00  0.00    -0.462 A  
HETATM   23  C   UNL     1     -13.992   8.719  71.678  1.00  0.00    -0.450 A  
HETATM   24  C   UNL     1     -13.252   7.546  71.875  1.00  0.00    -0.291 A  
HETATM   25  C   UNL     1     -11.859   7.680  71.905  1.00  0.00    -0.294 A  
HETATM   26  N   UNL     1     -10.841   6.775  72.056  1.00  0.00    -0.222 NA 
ENDBRANCH  15  17
ENDBRANCH  14  15
ENDBRANCH   7  14
TORSDOF 5
ENDMDL
MODEL      227
REMARK 921   NORMALIZED FREE ENERGY PREDICTED BY IDOCK:   -3.88 KCAL/MOL
REMARK 922        TOTAL FREE ENERGY PREDICTED BY IDOCK:   -5.84 KCAL/MOL
REMARK 923 INTER-LIGAND FREE ENERGY PREDICTED BY IDOCK:   -5.11 KCAL/MOL
REMARK 924 INTRA-LIGAND FREE ENERGY PREDICTED BY IDOCK:   -0.73 KCAL/MOL
REMARK 927      BINDING AFFINITY PREDICTED BY RF-SCORE:    0.00 PKD
ROOT
HETATM    1  C   UNL     1     -10.922   6.367  68.769  1.00  0.00    -0.404 C  
HETATM    2  C   UNL     1     -10.211   7.680  68.906  1.00  0.00    -0.217 A  
HETATM    3  C   UNL     1     -10.411   8.521  70.022  1.00  0.00    -0.223 A  
HETATM    4  C   UNL     1      -9.585   9.630  70.203  1.00  0.00    -0.300 A  
HETATM    5  N   UNL     1      -8.511   9.209  68.095  1.00  0.00    -0.124 NA 
HETATM    6  C   UNL     1      -8.651   9.920  69.236  1.00  0.00    -0.167 A  
HETATM    7  C   UNL     1      -9.300   8.113  67.925  1.00  0.00    -0.134 A  
ENDROOT
BRANCH   3   8
HETATM    8  O   UNL     1     -11.315   8.340  71.042  1.00  0.00    -0.261 OA 
BRANCH   8   9
HETATM    9  C   UNL     1     -11.532   9.462  71.914  1.00  0.00    -0.238 C  
HETATM   10  C   UNL     1     -12.702  10.345  71.483  1.00  0.00    -0.459 C  
HETATM   11  F   UNL     1     -12.263  11.547  71.038  1.00  0.00    -0.433 F  
HETATM   12  F   UNL     1     -13.521  10.591  72.535  1.00  0.00    -0.440 F  
HETATM   13  F   UNL     1     -13.455   9.797  70.506  1.00  0.00    -0.267 F  
ENDBRANCH   8   9
ENDBRANCH   3   8
BRANCH   7  14
HETATM   14  C   UNL     1      -9.127   7.425  66.581  1.00  0.00    -0.154 C  
BRANCH  14  15
HETATM   15  S   UNL     1      -7.622   6.436  66.511  1.00  0.00    -0.096 S  
HETATM   16  O   UNL     1      -7.290   5.793  67.827  1.00  0.00    -0.074 OA 
BRANCH  15  17
HETATM   17  C   UNL     1      -8.126   5.143  65.467  1.00  0.00    -0.117 A  
HETATM   18  N   UNL     1      -8.180   3.868  65.785  1.00  0.00    -0.104 NA 
HETATM   19  C   UNL     1      -8.863   3.269  64.749  1.00  0.00    -0.119 A  
HETATM   20  H   UNL     1      -7.798   3.419  66.618  1.00  0.00     0.000 HD 
HETATM   21  C   UNL     1      -9.270   1.933  64.594  1.00  0.00    -0.132 A  
HETATM   22  C   UNL     1     -10.057   1.594  63.486  1.00  0.00    -0.130 A  
HETATM   23  C   UNL     1     -10.421   2.557  62.544  1.00  0.00    -0.127 A  
HETATM   24  C   UNL     1      -9.989   3.886  62.656  1.00  0.00    -0.155 A  
HETATM   25  C   UNL     1      -9.209   4.200  63.774  1.00  0.00    -0.141 A  
HETATM   26  N   UNL     1      -8.638   5.366  64.213  1.00  0.00    -0.094 NA 
ENDBRANCH  15  17
ENDBRANCH  14  15
ENDBRANCH   7  14
TORSDOF 5
ENDMDL
MODEL      228
REMARK 921   NORMALIZED FREE ENERGY PREDICTED BY IDOCK:   -3.88 KCAL/MOL
REMARK 922        TOTAL FREE ENERGY PREDICTED BY IDOCK:   -5.84 KCAL/MOL
REMARK 923 INTER-LIGAND FREE ENERGY PREDICTED BY IDOCK:   -4.63 KCAL/MOL
REMARK 924 INTRA-LIGAND FREE ENERGY PREDICTED BY IDOCK:   -1.21 KCAL/MOL
REMARK 927      BINDING AFFINITY PREDICTED BY RF-SCORE:    0.00 PKD
ROOT
HETATM    1  C   UNL     1      -7.073   8.947  67.779  1.00  0.00    -0.079 C  
HETATM    2  C   UNL     1      -8.338   9.718  67.546  1.00  0.00    -0.114 A  
HETATM    3  C   UNL     1      -8.737  10.121  66.254  1.00  0.00    -0.141 A  
HETATM    4  C   UNL     1     -10.010  10.658  66.064  1.00  0.00    -0.295 A  
HETATM    5  N   UNL     1     -10.419  10.596  68.432  1.00  0.00    -0.177 NA 
HETATM    6  C   UNL     1     -10.811  10.857  67.165  1.00  0.00    -0.280 A  
HETATM    7  C   UNL     1      -9.186  10.052  68.619  1.00  0.00    -0.152 A  
ENDROOT
BRANCH   3   8
HETATM    8  O   UNL     1      -8.023   9.982  65.088  1.00  0.00    -0.133 OA 
BRANCH   8   9
HETATM    9  C   UNL     1      -8.519   9.020  64.142  1.00  0.00    -0.170 C  
HETATM   10  C   UNL     1      -7.536   7.886  63.860  1.00  0.00    -0.110 C  
HETATM   11  F   UNL     1      -7.047   7.974  62.599  1.00  0.00    -0.082 F  
HETATM   12  F   UNL     1      -8.157   6.685  63.957  1.00  0.00    -0.116 F  
HETATM   13  F   UNL     1      -6.484   7.865  64.706  1.00  0.00    -0.047 F  
ENDBRANCH   8   9
ENDBRANCH   3   8
BRANCH   7  14
HETATM   14  C   UNL     1      -8.802   9.868  70.079  1.00  0.00    -0.160 C  
BRANCH  14  15
HETATM   15  S   UNL     1      -9.950   8.789  70.953  1.00  0.00    -0.244 S  
HETATM   16  O   UNL     1     -11.304   9.413  71.139  1.00  0.00    -0.291 OA 
BRANCH  15  17
HETATM   17  C   UNL     1     -10.170   7.525  69.781  1.00  0.00    -0.211 A  
HETATM   18  N   UNL     1     -10.974   7.566  68.741  1.00  0.00    -0.426 NA 
HETATM   19  C   UNL     1     -10.629   6.470  67.979  1.00  0.00    -0.251 A  
HETATM   20  H   UNL     1     -11.696   8.258  68.540  1.00  0.00     0.000 HD 
HETATM   21  C   UNL     1     -11.113   6.058  66.727  1.00  0.00    -0.201 A  
HETATM   22  C   UNL     1     -10.516   4.953  66.105  1.00  0.00    -0.346 A  
HETATM   23  C   UNL     1      -9.470   4.264  66.721  1.00  0.00    -0.202 A  
HETATM   24  C   UNL     1      -9.003   4.631  67.989  1.00  0.00    -0.131 A  
HETATM   25  C   UNL     1      -9.612   5.740  68.586  1.00  0.00    -0.127 A  
HETATM   26  N   UNL     1      -9.410   6.382  69.780  1.00  0.00    -0.146 NA 
ENDBRANCH  15  17
ENDBRANCH  14  15
ENDBRANCH   7  14
TORSDOF 5
ENDMDL
MODEL      229
REMARK 921   NORMALIZED FREE ENERGY PREDICTED BY IDOCK:   -3.87 KCAL/MOL
REMARK 922        TOTAL FREE ENERGY PREDICTED BY IDOCK:   -5.83 KCAL/MOL
REMARK 923 INTER-LIGAND FREE ENERGY PREDICTED BY IDOCK:   -4.74 KCAL/MOL
REMARK 924 INTRA-LIGAND FREE ENERGY PREDICTED BY IDOCK:   -1.10 KCAL/MOL
REMARK 927      BINDING AFFINITY PREDICTED BY RF-SCORE:    0.00 PKD
ROOT
HETATM    1  C   UNL     1     -11.566  11.545  69.679  1.00  0.00    -0.403 C  
HETATM    2  C   UNL     1     -11.055  10.368  68.903  1.00  0.00    -0.296 A  
HETATM    3  C   UNL     1     -10.550   9.216  69.544  1.00  0.00    -0.223 A  
HETATM    4  C   UNL     1     -10.273   8.076  68.790  1.00  0.00    -0.220 A  
HETATM    5  N   UNL     1     -10.784   9.260  66.762  1.00  0.00    -0.125 NA 
HETATM    6  C   UNL     1     -10.419   8.140  67.423  1.00  0.00    -0.285 A  
HETATM    7  C   UNL     1     -11.077  10.368  67.496  1.00  0.00    -0.267 A  
ENDROOT
BRANCH   3   8
HETATM    8  O   UNL     1     -10.354   9.041  70.893  1.00  0.00    -0.215 OA 
BRANCH   8   9
HETATM    9  C   UNL     1      -9.636   7.860  71.289  1.00  0.00    -0.157 C  
HETATM   10  C   UNL     1      -8.158   8.118  71.576  1.00  0.00    -0.119 C  
HETATM   11  F   UNL     1      -7.374   7.545  70.631  1.00  0.00    -0.064 F  
HETATM   12  F   UNL     1      -7.805   7.570  72.765  1.00  0.00    -0.093 F  
HETATM   13  F   UNL     1      -7.843   9.430  71.629  1.00  0.00    -0.040 F  
ENDBRANCH   8   9
ENDBRANCH   3   8
BRANCH   7  14
HETATM   14  C   UNL     1     -11.398  11.599  66.663  1.00  0.00    -0.270 C  
BRANCH  14  15
HETATM   15  S   UNL     1     -10.091  11.982  65.483  1.00  0.00    -0.255 S  
HETATM   16  O   UNL     1     -10.348  13.255  64.728  1.00  0.00    -0.358 OA 
BRANCH  15  17
HETATM   17  C   UNL     1      -8.770  12.328  66.557  1.00  0.00    -0.084 A  
HETATM   18  N   UNL     1      -8.382  13.524  66.946  1.00  0.00    -0.407 NA 
HETATM   19  C   UNL     1      -7.486  13.294  67.968  1.00  0.00    -0.138 A  
HETATM   20  H   UNL     1      -8.680  14.425  66.574  1.00  0.00     0.000 HD 
HETATM   21  C   UNL     1      -6.812  14.208  68.795  1.00  0.00    -0.101 A  
HETATM   22  C   UNL     1      -6.027  13.713  69.845  1.00  0.00    -0.131 A  
HETATM   23  C   UNL     1      -5.902  12.340  70.060  1.00  0.00    -0.152 A  
HETATM   24  C   UNL     1      -6.531  11.411  69.220  1.00  0.00    -0.096 A  
HETATM   25  C   UNL     1      -7.313  11.930  68.183  1.00  0.00    -0.092 A  
HETATM   26  N   UNL     1      -8.068  11.341  67.203  1.00  0.00    -0.143 NA 
ENDBRANCH  15  17
ENDBRANCH  14  15
ENDBRANCH   7  14
TORSDOF 5
ENDMDL
MODEL      230
REMARK 921   NORMALIZED FREE ENERGY PREDICTED BY IDOCK:   -3.86 KCAL/MOL
REMARK 922        TOTAL FREE ENERGY PREDICTED BY IDOCK:   -5.82 KCAL/MOL
REMARK 923 INTER-LIGAND FREE ENERGY PREDICTED BY IDOCK:   -4.73 KCAL/MOL
REMARK 924 INTRA-LIGAND FREE ENERGY PREDICTED BY IDOCK:   -1.09 KCAL/MOL
REMARK 927      BINDING AFFINITY PREDICTED BY RF-SCORE:    0.00 PKD
ROOT
HETATM    1  C   UNL     1      -8.195   8.443  68.811  1.00  0.00    -0.119 C  
HETATM    2  C   UNL     1      -8.428   9.126  67.496  1.00  0.00    -0.116 A  
HETATM    3  C   UNL     1      -7.448   9.947  66.900  1.00  0.00    -0.092 A  
HETATM    4  C   UNL     1      -7.630  10.397  65.593  1.00  0.00    -0.150 A  
HETATM    5  N   UNL     1      -9.823   9.414  65.532  1.00  0.00    -0.252 NA 
HETATM    6  C   UNL     1      -8.810  10.095  64.952  1.00  0.00    -0.190 A  
HETATM    7  C   UNL     1      -9.639   8.954  66.800  1.00  0.00    -0.202 A  
ENDROOT
BRANCH   3   8
HETATM    8  O   UNL     1      -6.243  10.322  67.444  1.00  0.00    -0.057 OA 
BRANCH   8   9
HETATM    9  C   UNL     1      -5.992  11.734  67.537  1.00  0.00    -0.089 C  
HETATM   10  C   UNL     1      -6.539  12.363  68.817  1.00  0.00    -0.088 C  
HETATM   11  F   UNL     1      -7.586  13.179  68.546  1.00  0.00    -0.112 F  
HETATM   12  F   UNL     1      -5.590  13.127  69.412  1.00  0.00    -0.073 F  
HETATM   13  F   UNL     1      -6.953  11.455  69.726  1.00  0.00    -0.125 F  
ENDBRANCH   8   9
ENDBRANCH   3   8
BRANCH   7  14
HETATM   14  C   UNL     1     -10.859   8.271  67.396  1.00  0.00    -0.035 C  
BRANCH  14  15
HETATM   15  S   UNL     1     -10.851   6.492  67.110  1.00  0.00    -0.405 S  
HETATM   16  O   UNL     1      -9.568   6.010  66.494  1.00  0.00    -0.153 OA 
BRANCH  15  17
HETATM   17  C   UNL     1     -10.845   5.897  68.742  1.00  0.00    -0.283 A  
HETATM   18  N   UNL     1     -10.098   4.918  69.206  1.00  0.00    -0.203 NA 
HETATM   19  C   UNL     1     -10.247   4.972  70.574  1.00  0.00    -0.246 A  
HETATM   20  H   UNL     1      -9.531   4.261  68.669  1.00  0.00     0.000 HD 
HETATM   21  C   UNL     1      -9.627   4.208  71.577  1.00  0.00    -0.238 A  
HETATM   22  C   UNL     1      -9.870   4.533  72.918  1.00  0.00    -0.185 A  
HETATM   23  C   UNL     1     -10.722   5.585  73.256  1.00  0.00    -0.314 A  
HETATM   24  C   UNL     1     -11.386   6.331  72.273  1.00  0.00    -0.337 A  
HETATM   25  C   UNL     1     -11.122   5.990  70.942  1.00  0.00    -0.284 A  
HETATM   26  N   UNL     1     -11.562   6.496  69.747  1.00  0.00    -0.382 NA 
ENDBRANCH  15  17
ENDBRANCH  14  15
ENDBRANCH   7  14
TORSDOF 5
ENDMDL
MODEL      231
REMARK 921   NORMALIZED FREE ENERGY PREDICTED BY IDOCK:   -3.86 KCAL/MOL
REMARK 922        TOTAL FREE ENERGY PREDICTED BY IDOCK:   -5.82 KCAL/MOL
REMARK 923 INTER-LIGAND FREE ENERGY PREDICTED BY IDOCK:   -5.21 KCAL/MOL
REMARK 924 INTRA-LIGAND FREE ENERGY PREDICTED BY IDOCK:   -0.61 KCAL/MOL
REMARK 927      BINDING AFFINITY PREDICTED BY RF-SCORE:    0.00 PKD
ROOT
HETATM    1  C   UNL     1      -7.389   9.502  67.521  1.00  0.00    -0.090 C  
HETATM    2  C   UNL     1      -8.062   9.025  68.774  1.00  0.00    -0.105 A  
HETATM    3  C   UNL     1      -7.873   7.717  69.269  1.00  0.00    -0.116 A  
HETATM    4  C   UNL     1      -8.356   7.385  70.534  1.00  0.00    -0.132 A  
HETATM    5  N   UNL     1      -9.387   9.546  70.738  1.00  0.00    -0.217 NA 
HETATM    6  C   UNL     1      -9.082   8.324  71.229  1.00  0.00    -0.160 A  
HETATM    7  C   UNL     1      -8.899   9.882  69.513  1.00  0.00    -0.197 A  
ENDROOT
BRANCH   3   8
HETATM    8  O   UNL     1      -7.178   6.698  68.664  1.00  0.00    -0.080 OA 
BRANCH   8   9
HETATM    9  C   UNL     1      -7.933   5.526  68.313  1.00  0.00    -0.096 C  
HETATM   10  C   UNL     1      -7.173   4.223  68.553  1.00  0.00    -0.056 C  
HETATM   11  F   UNL     1      -6.851   3.628  67.379  1.00  0.00    -0.049 F  
HETATM   12  F   UNL     1      -7.945   3.345  69.239  1.00  0.00    -0.051 F  
HETATM   13  F   UNL     1      -6.032   4.389  69.255  1.00  0.00    -0.019 F  
ENDBRANCH   8   9
ENDBRANCH   3   8
BRANCH   7  14
HETATM   14  C   UNL     1      -9.360  11.241  69.011  1.00  0.00     0.000 C  
BRANCH  14  15
HETATM   15  S   UNL     1     -11.075  11.216  68.460  1.00  0.00    -0.270 S  
HETATM   16  O   UNL     1     -11.771   9.925  68.787  1.00  0.00     0.096 OA 
BRANCH  15  17
HETATM   17  C   UNL     1     -11.775  12.410  69.510  1.00  0.00    -0.322 A  
HETATM   18  N   UNL     1     -12.566  12.171  70.534  1.00  0.00    -0.164 NA 
HETATM   19  C   UNL     1     -12.660  13.372  71.202  1.00  0.00    -0.345 A  
HETATM   20  H   UNL     1     -13.014  11.288  70.780  1.00  0.00     0.000 HD 
HETATM   21  C   UNL     1     -13.317  13.685  72.403  1.00  0.00    -0.641 A  
HETATM   22  C   UNL     1     -13.170  14.972  72.937  1.00  0.00    -0.585 A  
HETATM   23  C   UNL     1     -12.398  15.933  72.283  1.00  0.00    -0.567 A  
HETATM   24  C   UNL     1     -11.770  15.657  71.062  1.00  0.00    -0.444 A  
HETATM   25  C   UNL     1     -11.928  14.363  70.554  1.00  0.00    -0.325 A  
HETATM   26  N   UNL     1     -11.458  13.742  69.425  1.00  0.00    -0.277 NA 
ENDBRANCH  15  17
ENDBRANCH  14  15
ENDBRANCH   7  14
TORSDOF 5
ENDMDL
MODEL      232
REMARK 921   NORMALIZED FREE ENERGY PREDICTED BY IDOCK:   -3.80 KCAL/MOL
REMARK 922        TOTAL FREE ENERGY PREDICTED BY IDOCK:   -5.75 KCAL/MOL
REMARK 923 INTER-LIGAND FREE ENERGY PREDICTED BY IDOCK:   -4.84 KCAL/MOL
REMARK 924 INTRA-LIGAND FREE ENERGY PREDICTED BY IDOCK:   -0.91 KCAL/MOL
REMARK 927      BINDING AFFINITY PREDICTED BY RF-SCORE:    0.00 PKD
ROOT
HETATM    1  C   UNL     1     -10.835   8.371  69.709  1.00  0.00    -0.184 C  
HETATM    2  C   UNL     1      -9.853   7.401  69.120  1.00  0.00    -0.168 A  
HETATM    3  C   UNL     1      -9.251   6.389  69.898  1.00  0.00    -0.152 A  
HETATM    4  C   UNL     1      -8.502   5.394  69.269  1.00  0.00    -0.099 A  
HETATM    5  N   UNL     1      -8.761   6.499  67.151  1.00  0.00    -0.111 NA 
HETATM    6  C   UNL     1      -8.303   5.480  67.910  1.00  0.00    -0.099 A  
HETATM    7  C   UNL     1      -9.510   7.460  67.756  1.00  0.00    -0.140 A  
ENDROOT
BRANCH   3   8
HETATM    8  O   UNL     1      -9.370   6.208  71.255  1.00  0.00    -0.158 OA 
BRANCH   8   9
HETATM    9  C   UNL     1      -8.166   6.343  72.029  1.00  0.00    -0.109 C  
HETATM   10  C   UNL     1      -7.983   7.737  72.625  1.00  0.00    -0.112 C  
HETATM   11  F   UNL     1      -6.955   8.387  72.029  1.00  0.00    -0.068 F  
HETATM   12  F   UNL     1      -7.683   7.652  73.944  1.00  0.00    -0.126 F  
HETATM   13  F   UNL     1      -9.080   8.517  72.511  1.00  0.00    -0.266 F  
ENDBRANCH   8   9
ENDBRANCH   3   8
BRANCH   7  14
HETATM   14  C   UNL     1      -9.914   8.604  66.840  1.00  0.00    -0.260 C  
BRANCH  14  15
HETATM   15  S   UNL     1      -8.510   9.275  65.932  1.00  0.00    -0.138 S  
HETATM   16  O   UNL     1      -8.415   8.738  64.532  1.00  0.00    -0.171 OA 
BRANCH  15  17
HETATM   17  C   UNL     1      -8.988  10.937  65.769  1.00  0.00    -0.193 A  
HETATM   18  N   UNL     1      -9.708  11.442  64.789  1.00  0.00    -0.246 NA 
HETATM   19  C   UNL     1     -10.041  12.712  65.209  1.00  0.00    -0.253 A  
HETATM   20  H   UNL     1      -9.964  10.992  63.911  1.00  0.00     0.000 HD 
HETATM   21  C   UNL     1     -10.854  13.678  64.593  1.00  0.00    -0.416 A  
HETATM   22  C   UNL     1     -11.128  14.866  65.283  1.00  0.00    -0.382 A  
HETATM   23  C   UNL     1     -10.593  15.097  66.551  1.00  0.00    -0.304 A  
HETATM   24  C   UNL     1      -9.743  14.167  67.164  1.00  0.00    -0.248 A  
HETATM   25  C   UNL     1      -9.490  12.987  66.457  1.00  0.00    -0.245 A  
HETATM   26  N   UNL     1      -8.744  11.873  66.742  1.00  0.00    -0.191 NA 
ENDBRANCH  15  17
ENDBRANCH  14  15
ENDBRANCH   7  14
TORSDOF 5
ENDMDL
MODEL      233
REMARK 921   NORMALIZED FREE ENERGY PREDICTED BY IDOCK:   -3.79 KCAL/MOL
REMARK 922        TOTAL FREE ENERGY PREDICTED BY IDOCK:   -5.73 KCAL/MOL
REMARK 923 INTER-LIGAND FREE ENERGY PREDICTED BY IDOCK:   -6.12 KCAL/MOL
REMARK 924 INTRA-LIGAND FREE ENERGY PREDICTED BY IDOCK:    0.39 KCAL/MOL
REMARK 927      BINDING AFFINITY PREDICTED BY RF-SCORE:    0.00 PKD
ROOT
HETATM    1  C   UNL     1     -13.096  10.008  71.283  1.00  0.00    -0.493 C  
HETATM    2  C   UNL     1     -11.825  10.168  70.502  1.00  0.00    -0.408 A  
HETATM    3  C   UNL     1     -10.939   9.089  70.294  1.00  0.00    -0.244 A  
HETATM    4  C   UNL     1      -9.878   9.234  69.400  1.00  0.00    -0.177 A  
HETATM    5  N   UNL     1     -10.432  11.550  69.077  1.00  0.00    -0.183 NA 
HETATM    6  C   UNL     1      -9.677  10.461  68.810  1.00  0.00    -0.183 A  
HETATM    7  C   UNL     1     -11.481  11.408  69.931  1.00  0.00    -0.273 A  
ENDROOT
BRANCH   3   8
HETATM    8  O   UNL     1     -11.032   7.828  70.832  1.00  0.00    -0.241 OA 
BRANCH   8   9
HETATM    9  C   UNL     1      -9.954   7.415  71.689  1.00  0.00    -0.176 C  
HETATM   10  C   UNL     1     -10.303   7.478  73.174  1.00  0.00    -0.347 C  
HETATM   11  F   UNL     1      -9.613   8.466  73.792  1.00  0.00    -0.195 F  
HETATM   12  F   UNL     1      -9.964   6.318  73.789  1.00  0.00    -0.158 F  
HETATM   13  F   UNL     1     -11.616   7.688  73.408  1.00  0.00    -0.312 F  
ENDBRANCH   8   9
ENDBRANCH   3   8
BRANCH   7  14
HETATM   14  C   UNL     1     -12.220  12.702  70.230  1.00  0.00    -0.271 C  
BRANCH  14  15
HETATM   15  S   UNL     1     -11.536  14.101  69.325  1.00  0.00    -0.309 S  
HETATM   16  O   UNL     1     -10.100  14.371  69.676  1.00  0.00     0.058 OA 
BRANCH  15  17
HETATM   17  C   UNL     1     -11.516  13.468  67.707  1.00  0.00    -0.315 A  
HETATM   18  N   UNL     1     -12.401  12.644  67.188  1.00  0.00    -0.272 NA 
HETATM   19  C   UNL     1     -12.122  12.624  65.839  1.00  0.00    -0.396 A  
HETATM   20  H   UNL     1     -13.134  12.131  67.678  1.00  0.00     0.000 HD 
HETATM   21  C   UNL     1     -12.791  11.968  64.792  1.00  0.00     0.301 A  
HETATM   22  C   UNL     1     -12.369  12.197  63.476  1.00  0.00    -0.682 A  
HETATM   23  C   UNL     1     -11.295  13.046  63.205  1.00  0.00    -0.038 A  
HETATM   24  C   UNL     1     -10.586  13.675  64.237  1.00  0.00    -0.245 A  
HETATM   25  C   UNL     1     -11.031  13.435  65.542  1.00  0.00    -0.283 A  
HETATM   26  N   UNL     1     -10.606  13.880  66.766  1.00  0.00    -0.276 NA 
ENDBRANCH  15  17
ENDBRANCH  14  15
ENDBRANCH   7  14
TORSDOF 5
ENDMDL
MODEL      234
REMARK 921   NORMALIZED FREE ENERGY PREDICTED BY IDOCK:   -3.73 KCAL/MOL
REMARK 922        TOTAL FREE ENERGY PREDICTED BY IDOCK:   -5.65 KCAL/MOL
REMARK 923 INTER-LIGAND FREE ENERGY PREDICTED BY IDOCK:   -4.69 KCAL/MOL
REMARK 924 INTRA-LIGAND FREE ENERGY PREDICTED BY IDOCK:   -0.96 KCAL/MOL
REMARK 927      BINDING AFFINITY PREDICTED BY RF-SCORE:    0.00 PKD
ROOT
HETATM    1  C   UNL     1      -7.301  11.800  67.028  1.00  0.00    -0.133 C  
HETATM    2  C   UNL     1      -8.341  10.728  67.163  1.00  0.00    -0.126 A  
HETATM    3  C   UNL     1      -9.715  11.032  67.266  1.00  0.00    -0.166 A  
HETATM    4  C   UNL     1     -10.654  10.004  67.189  1.00  0.00    -0.296 A  
HETATM    5  N   UNL     1      -8.897   8.367  67.121  1.00  0.00    -0.128 NA 
HETATM    6  C   UNL     1     -10.204   8.707  67.101  1.00  0.00    -0.283 A  
HETATM    7  C   UNL     1      -7.977   9.368  67.173  1.00  0.00    -0.102 A  
ENDROOT
BRANCH   3   8
HETATM    8  O   UNL     1     -10.279  12.281  67.368  1.00  0.00    -0.202 OA 
BRANCH   8   9
HETATM    9  C   UNL     1     -11.693  12.369  67.129  1.00  0.00    -0.345 C  
HETATM   10  C   UNL     1     -12.057  13.317  65.988  1.00  0.00    -0.436 C  
HETATM   11  F   UNL     1     -12.680  14.424  66.459  1.00  0.00    -0.442 F  
HETATM   12  F   UNL     1     -12.918  12.717  65.130  1.00  0.00    -0.561 F  
HETATM   13  F   UNL     1     -10.990  13.724  65.268  1.00  0.00    -0.294 F  
ENDBRANCH   8   9
ENDBRANCH   3   8
BRANCH   7  14
HETATM   14  C   UNL     1      -6.538   8.887  67.272  1.00  0.00    -0.062 C  
BRANCH  14  15
HETATM   15  S   UNL     1      -6.041   8.575  68.975  1.00  0.00    -0.044 S  
HETATM   16  O   UNL     1      -6.622   9.570  69.940  1.00  0.00    -0.049 OA 
BRANCH  15  17
HETATM   17  C   UNL     1      -6.863   7.077  69.289  1.00  0.00    -0.054 A  
HETATM   18  N   UNL     1      -7.928   6.923  70.045  1.00  0.00    -0.114 NA 
HETATM   19  C   UNL     1      -8.361   5.639  69.795  1.00  0.00    -0.107 A  
HETATM   20  H   UNL     1      -8.344   7.605  70.680  1.00  0.00     0.000 HD 
HETATM   21  C   UNL     1      -9.496   4.963  70.275  1.00  0.00    -0.238 A  
HETATM   22  C   UNL     1      -9.776   3.683  69.780  1.00  0.00    -0.150 A  
HETATM   23  C   UNL     1      -8.940   3.080  68.839  1.00  0.00    -0.186 A  
HETATM   24  C   UNL     1      -7.780   3.718  68.380  1.00  0.00    -0.061 A  
HETATM   25  C   UNL     1      -7.526   4.997  68.886  1.00  0.00    -0.069 A  
HETATM   26  N   UNL     1      -6.525   5.906  68.659  1.00  0.00    -0.043 NA 
ENDBRANCH  15  17
ENDBRANCH  14  15
ENDBRANCH   7  14
TORSDOF 5
ENDMDL
MODEL      235
REMARK 921   NORMALIZED FREE ENERGY PREDICTED BY IDOCK:   -3.73 KCAL/MOL
REMARK 922        TOTAL FREE ENERGY PREDICTED BY IDOCK:   -5.64 KCAL/MOL
REMARK 923 INTER-LIGAND FREE ENERGY PREDICTED BY IDOCK:   -5.42 KCAL/MOL
REMARK 924 INTRA-LIGAND FREE ENERGY PREDICTED BY IDOCK:   -0.22 KCAL/MOL
REMARK 927      BINDING AFFINITY PREDICTED BY RF-SCORE:    0.00 PKD
ROOT
HETATM    1  C   UNL     1      -9.347  16.459  67.455  1.00  0.00    -0.214 C  
HETATM    2  C   UNL     1      -8.441  15.346  67.894  1.00  0.00    -0.150 A  
HETATM    3  C   UNL     1      -7.048  15.529  68.022  1.00  0.00    -0.125 A  
HETATM    4  C   UNL     1      -6.276  14.532  68.620  1.00  0.00    -0.083 A  
HETATM    5  N   UNL     1      -8.199  13.098  68.772  1.00  0.00     0.017 NA 
HETATM    6  C   UNL     1      -6.891  13.358  68.989  1.00  0.00    -0.103 A  
HETATM    7  C   UNL     1      -8.959  14.076  68.210  1.00  0.00    -0.190 A  
ENDROOT
BRANCH   3   8
HETATM    8  O   UNL     1      -6.326  16.648  67.681  1.00  0.00    -0.131 OA 
BRANCH   8   9
HETATM    9  C   UNL     1      -6.310  17.001  66.288  1.00  0.00    -0.001 C  
HETATM   10  C   UNL     1      -6.440  18.503  66.044  1.00  0.00    -0.234 C  
HETATM   11  F   UNL     1      -7.637  18.801  65.484  1.00  0.00    -0.222 F  
HETATM   12  F   UNL     1      -5.486  18.926  65.177  1.00  0.00    -0.175 F  
HETATM   13  F   UNL     1      -6.318  19.242  67.167  1.00  0.00    -0.187 F  
ENDBRANCH   8   9
ENDBRANCH   3   8
BRANCH   7  14
HETATM   14  C   UNL     1     -10.396  13.665  67.932  1.00  0.00    -0.249 C  
BRANCH  14  15
HETATM   15  S   UNL     1     -10.496  12.116  67.018  1.00  0.00    -0.224 S  
HETATM   16  O   UNL     1      -9.153  11.632  66.550  1.00  0.00    -0.187 OA 
BRANCH  15  17
HETATM   17  C   UNL     1     -10.980  11.022  68.277  1.00  0.00    -0.235 A  
HETATM   18  N   UNL     1     -10.241  10.065  68.797  1.00  0.00    -0.177 NA 
HETATM   19  C   UNL     1     -10.937   9.640  69.908  1.00  0.00    -0.252 A  
HETATM   20  H   UNL     1      -9.348   9.714  68.453  1.00  0.00     0.000 HD 
HETATM   21  C   UNL     1     -10.586   8.687  70.879  1.00  0.00    -0.265 A  
HETATM   22  C   UNL     1     -11.428   8.511  71.985  1.00  0.00    -0.431 A  
HETATM   23  C   UNL     1     -12.601   9.255  72.117  1.00  0.00    -0.443 A  
HETATM   24  C   UNL     1     -12.993  10.179  71.139  1.00  0.00    -0.488 A  
HETATM   25  C   UNL     1     -12.132  10.340  70.047  1.00  0.00    -0.156 A  
HETATM   26  N   UNL     1     -12.177  11.142  68.937  1.00  0.00    -0.517 NA 
ENDBRANCH  15  17
ENDBRANCH  14  15
ENDBRANCH   7  14
TORSDOF 5
ENDMDL
MODEL      236
REMARK 921   NORMALIZED FREE ENERGY PREDICTED BY IDOCK:   -3.72 KCAL/MOL
REMARK 922        TOTAL FREE ENERGY PREDICTED BY IDOCK:   -5.63 KCAL/MOL
REMARK 923 INTER-LIGAND FREE ENERGY PREDICTED BY IDOCK:   -4.72 KCAL/MOL
REMARK 924 INTRA-LIGAND FREE ENERGY PREDICTED BY IDOCK:   -0.92 KCAL/MOL
REMARK 927      BINDING AFFINITY PREDICTED BY RF-SCORE:    0.00 PKD
ROOT
HETATM    1  C   UNL     1     -11.282   6.026  68.871  1.00  0.00    -0.246 C  
HETATM    2  C   UNL     1     -10.768   7.337  69.388  1.00  0.00    -0.236 A  
HETATM    3  C   UNL     1     -11.018   7.765  70.710  1.00  0.00    -0.252 A  
HETATM    4  C   UNL     1     -10.358   8.889  71.205  1.00  0.00    -0.338 A  
HETATM    5  N   UNL     1      -9.371   9.291  69.050  1.00  0.00    -0.149 NA 
HETATM    6  C   UNL     1      -9.542   9.600  70.355  1.00  0.00    -0.234 A  
HETATM    7  C   UNL     1      -9.997   8.183  68.569  1.00  0.00    -0.190 A  
ENDROOT
BRANCH   3   8
HETATM    8  O   UNL     1     -11.816   7.146  71.641  1.00  0.00    -0.276 OA 
BRANCH   8   9
HETATM    9  C   UNL     1     -11.366   5.869  72.124  1.00  0.00    -0.288 C  
HETATM   10  C   UNL     1     -10.636   5.951  73.463  1.00  0.00    -0.268 C  
HETATM   11  F   UNL     1      -9.317   5.681  73.311  1.00  0.00    -0.135 F  
HETATM   12  F   UNL     1     -11.128   5.031  74.328  1.00  0.00    -0.311 F  
HETATM   13  F   UNL     1     -10.740   7.159  74.057  1.00  0.00    -0.406 F  
ENDBRANCH   8   9
ENDBRANCH   3   8
BRANCH   7  14
HETATM   14  C   UNL     1      -9.811   7.962  67.077  1.00  0.00    -0.225 C  
BRANCH  14  15
HETATM   15  S   UNL     1      -8.118   7.506  66.662  1.00  0.00    -0.126 S  
HETATM   16  O   UNL     1      -7.100   8.342  67.384  1.00  0.00    -0.077 OA 
BRANCH  15  17
HETATM   17  C   UNL     1      -8.020   5.924  67.374  1.00  0.00    -0.102 A  
HETATM   18  N   UNL     1      -7.493   5.634  68.544  1.00  0.00    -0.079 NA 
HETATM   19  C   UNL     1      -7.864   4.330  68.790  1.00  0.00    -0.073 A  
HETATM   20  H   UNL     1      -6.931   6.241  69.141  1.00  0.00     0.000 HD 
HETATM   21  C   UNL     1      -7.638   3.528  69.921  1.00  0.00    -0.044 A  
HETATM   22  C   UNL     1      -8.219   2.254  69.971  1.00  0.00    -0.063 A  
HETATM   23  C   UNL     1      -8.996   1.780  68.913  1.00  0.00    -0.150 A  
HETATM   24  C   UNL     1      -9.197   2.545  67.756  1.00  0.00    -0.240 A  
HETATM   25  C   UNL     1      -8.611   3.815  67.734  1.00  0.00    -0.098 A  
HETATM   26  N   UNL     1      -8.608   4.823  66.805  1.00  0.00    -0.109 NA 
ENDBRANCH  15  17
ENDBRANCH  14  15
ENDBRANCH   7  14
TORSDOF 5
ENDMDL
MODEL      237
REMARK 921   NORMALIZED FREE ENERGY PREDICTED BY IDOCK:   -3.68 KCAL/MOL
REMARK 922        TOTAL FREE ENERGY PREDICTED BY IDOCK:   -5.58 KCAL/MOL
REMARK 923 INTER-LIGAND FREE ENERGY PREDICTED BY IDOCK:   -4.71 KCAL/MOL
REMARK 924 INTRA-LIGAND FREE ENERGY PREDICTED BY IDOCK:   -0.87 KCAL/MOL
REMARK 927      BINDING AFFINITY PREDICTED BY RF-SCORE:    0.00 PKD
ROOT
HETATM    1  C   UNL     1      -8.147   9.427  68.670  1.00  0.00    -0.104 C  
HETATM    2  C   UNL     1      -8.686   9.799  67.320  1.00  0.00    -0.135 A  
HETATM    3  C   UNL     1      -8.716   8.878  66.252  1.00  0.00    -0.141 A  
HETATM    4  C   UNL     1      -9.403   9.203  65.083  1.00  0.00    -0.180 A  
HETATM    5  N   UNL     1      -9.850  11.408  65.927  1.00  0.00    -0.217 NA 
HETATM    6  C   UNL     1      -9.961  10.456  64.975  1.00  0.00    -0.330 A  
HETATM    7  C   UNL     1      -9.199  11.087  67.078  1.00  0.00    -0.153 A  
ENDROOT
BRANCH   3   8
HETATM    8  O   UNL     1      -8.188   7.609  66.240  1.00  0.00    -0.109 OA 
BRANCH   8   9
HETATM    9  C   UNL     1      -9.123   6.526  66.090  1.00  0.00    -0.124 C  
HETATM   10  C   UNL     1      -9.329   5.723  67.372  1.00  0.00    -0.112 C  
HETATM   11  F   UNL     1      -8.799   4.481  67.255  1.00  0.00    -0.104 F  
HETATM   12  F   UNL     1     -10.652   5.562  67.623  1.00  0.00    -0.230 F  
HETATM   13  F   UNL     1      -8.780   6.301  68.462  1.00  0.00    -0.113 F  
ENDBRANCH   8   9
ENDBRANCH   3   8
BRANCH   7  14
HETATM   14  C   UNL     1      -9.055  12.243  68.055  1.00  0.00    -0.191 C  
BRANCH  14  15
HETATM   15  S   UNL     1      -7.472  13.086  67.883  1.00  0.00    -0.155 S  
HETATM   16  O   UNL     1      -6.600  12.471  66.825  1.00  0.00    -0.032 OA 
BRANCH  15  17
HETATM   17  C   UNL     1      -7.983  14.617  67.242  1.00  0.00    -0.197 A  
HETATM   18  N   UNL     1      -9.206  15.102  67.278  1.00  0.00    -0.193 NA 
HETATM   19  C   UNL     1      -9.081  16.418  66.888  1.00  0.00    -0.216 A  
HETATM   20  H   UNL     1     -10.061  14.611  67.539  1.00  0.00     0.000 HD 
HETATM   21  C   UNL     1     -10.053  17.429  66.811  1.00  0.00    -0.313 A  
HETATM   22  C   UNL     1      -9.647  18.730  66.485  1.00  0.00    -0.369 A  
HETATM   23  C   UNL     1      -8.306  19.017  66.226  1.00  0.00    -0.293 A  
HETATM   24  C   UNL     1      -7.327  18.015  66.253  1.00  0.00    -0.317 A  
HETATM   25  C   UNL     1      -7.758  16.726  66.587  1.00  0.00    -0.273 A  
HETATM   26  N   UNL     1      -7.099  15.532  66.726  1.00  0.00    -0.109 NA 
ENDBRANCH  15  17
ENDBRANCH  14  15
ENDBRANCH   7  14
TORSDOF 5
ENDMDL
MODEL      238
REMARK 921   NORMALIZED FREE ENERGY PREDICTED BY IDOCK:   -3.60 KCAL/MOL
REMARK 922        TOTAL FREE ENERGY PREDICTED BY IDOCK:   -5.48 KCAL/MOL
REMARK 923 INTER-LIGAND FREE ENERGY PREDICTED BY IDOCK:   -5.14 KCAL/MOL
REMARK 924 INTRA-LIGAND FREE ENERGY PREDICTED BY IDOCK:   -0.34 KCAL/MOL
REMARK 927      BINDING AFFINITY PREDICTED BY RF-SCORE:    0.00 PKD
ROOT
HETATM    1  C   UNL     1      -7.132   6.479  68.792  1.00  0.00    -0.082 C  
HETATM    2  C   UNL     1      -8.420   6.465  68.023  1.00  0.00    -0.118 A  
HETATM    3  C   UNL     1      -8.627   5.590  66.936  1.00  0.00    -0.110 A  
HETATM    4  C   UNL     1      -9.901   5.472  66.381  1.00  0.00    -0.192 A  
HETATM    5  N   UNL     1     -10.716   7.219  67.817  1.00  0.00    -0.217 NA 
HETATM    6  C   UNL     1     -10.904   6.284  66.860  1.00  0.00    -0.354 A  
HETATM    7  C   UNL     1      -9.480   7.321  68.376  1.00  0.00    -0.142 A  
ENDROOT
BRANCH   3   8
HETATM    8  O   UNL     1      -7.704   4.743  66.369  1.00  0.00    -0.090 OA 
BRANCH   8   9
HETATM    9  C   UNL     1      -7.039   3.831  67.259  1.00  0.00    -0.059 C  
HETATM   10  C   UNL     1      -7.878   2.602  67.604  1.00  0.00    -0.064 C  
HETATM   11  F   UNL     1      -8.270   2.633  68.901  1.00  0.00    -0.059 F  
HETATM   12  F   UNL     1      -7.150   1.470  67.441  1.00  0.00    -0.036 F  
HETATM   13  F   UNL     1      -8.988   2.480  66.845  1.00  0.00    -0.119 F  
ENDBRANCH   8   9
ENDBRANCH   3   8
BRANCH   7  14
HETATM   14  C   UNL     1      -9.344   8.451  69.383  1.00  0.00    -0.154 C  
BRANCH  14  15
HETATM   15  S   UNL     1     -10.639   8.405  70.636  1.00  0.00    -0.213 S  
HETATM   16  O   UNL     1     -10.092   8.426  72.035  1.00  0.00    -0.238 OA 
BRANCH  15  17
HETATM   17  C   UNL     1     -11.382   9.956  70.396  1.00  0.00    -0.307 A  
HETATM   18  N   UNL     1     -12.084  10.624  71.287  1.00  0.00    -0.331 NA 
HETATM   19  C   UNL     1     -12.249  11.880  70.744  1.00  0.00    -0.303 A  
HETATM   20  H   UNL     1     -12.432  10.286  72.184  1.00  0.00     0.000 HD 
HETATM   21  C   UNL     1     -12.859  13.022  71.289  1.00  0.00    -0.370 A  
HETATM   22  C   UNL     1     -12.801  14.224  70.572  1.00  0.00    -0.336 A  
HETATM   23  C   UNL     1     -12.163  14.287  69.332  1.00  0.00    -0.319 A  
HETATM   24  C   UNL     1     -11.587  13.150  68.750  1.00  0.00    -0.348 A  
HETATM   25  C   UNL     1     -11.654  11.964  69.489  1.00  0.00    -0.327 A  
HETATM   26  N   UNL     1     -11.197  10.694  69.253  1.00  0.00    -0.253 NA 
ENDBRANCH  15  17
ENDBRANCH  14  15
ENDBRANCH   7  14
TORSDOF 5
ENDMDL
MODEL      239
REMARK 921   NORMALIZED FREE ENERGY PREDICTED BY IDOCK:   -3.53 KCAL/MOL
REMARK 922        TOTAL FREE ENERGY PREDICTED BY IDOCK:   -5.39 KCAL/MOL
REMARK 923 INTER-LIGAND FREE ENERGY PREDICTED BY IDOCK:   -4.76 KCAL/MOL
REMARK 924 INTRA-LIGAND FREE ENERGY PREDICTED BY IDOCK:   -0.63 KCAL/MOL
REMARK 927      BINDING AFFINITY PREDICTED BY RF-SCORE:    0.00 PKD
ROOT
HETATM    1  C   UNL     1      -8.616   9.547  66.494  1.00  0.00    -0.142 C  
HETATM    2  C   UNL     1      -9.753  10.190  67.232  1.00  0.00    -0.203 A  
HETATM    3  C   UNL     1     -10.060  11.559  67.077  1.00  0.00    -0.210 A  
HETATM    4  C   UNL     1     -11.239  12.065  67.625  1.00  0.00    -0.343 A  
HETATM    5  N   UNL     1     -11.705   9.942  68.651  1.00  0.00     0.167 NA 
HETATM    6  C   UNL     1     -12.027  11.226  68.379  1.00  0.00    -0.185 A  
HETATM    7  C   UNL     1     -10.567   9.438  68.099  1.00  0.00    -0.212 A  
ENDROOT
BRANCH   3   8
HETATM    8  O   UNL     1      -9.348  12.490  66.360  1.00  0.00    -0.234 OA 
BRANCH   8   9
HETATM    9  C   UNL     1      -8.811  13.598  67.101  1.00  0.00    -0.230 C  
HETATM   10  C   UNL     1      -9.510  14.922  66.802  1.00  0.00    -0.252 C  
HETATM   11  F   UNL     1      -8.689  15.760  66.123  1.00  0.00    -0.311 F  
HETATM   12  F   UNL     1      -9.846  15.551  67.955  1.00  0.00    -0.212 F  
HETATM   13  F   UNL     1     -10.640  14.780  66.077  1.00  0.00    -0.280 F  
ENDBRANCH   8   9
ENDBRANCH   3   8
BRANCH   7  14
HETATM   14  C   UNL     1     -10.247   8.014  68.525  1.00  0.00    -0.207 C  
BRANCH  14  15
HETATM   15  S   UNL     1     -10.983   7.598  70.116  1.00  0.00    -0.217 S  
HETATM   16  O   UNL     1     -11.326   6.140  70.232  1.00  0.00    -0.365 OA 
BRANCH  15  17
HETATM   17  C   UNL     1      -9.632   7.851  71.179  1.00  0.00    -0.158 A  
HETATM   18  N   UNL     1      -9.694   8.288  72.418  1.00  0.00    -0.275 NA 
HETATM   19  C   UNL     1      -8.431   8.088  72.932  1.00  0.00    -0.186 A  
HETATM   20  H   UNL     1     -10.502   8.688  72.896  1.00  0.00     0.000 HD 
HETATM   21  C   UNL     1      -7.943   8.308  74.230  1.00  0.00    -0.293 A  
HETATM   22  C   UNL     1      -6.632   7.918  74.532  1.00  0.00    -0.122 A  
HETATM   23  C   UNL     1      -5.817   7.336  73.560  1.00  0.00    -0.053 A  
HETATM   24  C   UNL     1      -6.268   7.148  72.247  1.00  0.00    -0.044 A  
HETATM   25  C   UNL     1      -7.583   7.541  71.974  1.00  0.00    -0.081 A  
HETATM   26  N   UNL     1      -8.351   7.494  70.839  1.00  0.00    -0.113 NA 
ENDBRANCH  15  17
ENDBRANCH  14  15
ENDBRANCH   7  14
TORSDOF 5
ENDMDL
MODEL      240
REMARK 921   NORMALIZED FREE ENERGY PREDICTED BY IDOCK:   -3.44 KCAL/MOL
REMARK 922        TOTAL FREE ENERGY PREDICTED BY IDOCK:   -5.28 KCAL/MOL
REMARK 923 INTER-LIGAND FREE ENERGY PREDICTED BY IDOCK:   -4.62 KCAL/MOL
REMARK 924 INTRA-LIGAND FREE ENERGY PREDICTED BY IDOCK:   -0.65 KCAL/MOL
REMARK 927      BINDING AFFINITY PREDICTED BY RF-SCORE:    0.00 PKD
ROOT
HETATM    1  C   UNL     1      -7.715  12.318  68.056  1.00  0.00    -0.132 C  
HETATM    2  C   UNL     1      -8.907  12.184  67.156  1.00  0.00    -0.191 A  
HETATM    3  C   UNL     1      -9.714  13.292  66.819  1.00  0.00    -0.258 A  
HETATM    4  C   UNL     1     -10.686  13.159  65.828  1.00  0.00    -0.292 A  
HETATM    5  N   UNL     1     -10.217  10.808  65.646  1.00  0.00    -0.258 NA 
HETATM    6  C   UNL     1     -10.886  11.919  65.265  1.00  0.00    -0.297 A  
HETATM    7  C   UNL     1      -9.253  10.938  66.597  1.00  0.00    -0.168 A  
ENDROOT
BRANCH   3   8
HETATM    8  O   UNL     1      -9.614  14.568  67.319  1.00  0.00    -0.217 OA 
BRANCH   8   9
HETATM    9  C   UNL     1      -9.350  15.611  66.365  1.00  0.00    -0.300 C  
HETATM   10  C   UNL     1      -8.200  16.529  66.776  1.00  0.00    -0.243 C  
HETATM   11  F   UNL     1      -8.656  17.764  67.093  1.00  0.00    -0.218 F  
HETATM   12  F   UNL     1      -7.329  16.684  65.748  1.00  0.00    -0.103 F  
HETATM   13  F   UNL     1      -7.497  16.068  67.832  1.00  0.00    -0.117 F  
ENDBRANCH   8   9
ENDBRANCH   3   8
BRANCH   7  14
HETATM   14  C   UNL     1      -8.612   9.626  67.017  1.00  0.00    -0.128 C  
BRANCH  14  15
HETATM   15  S   UNL     1      -9.837   8.381  67.460  1.00  0.00    -0.197 S  
HETATM   16  O   UNL     1      -9.700   7.121  66.653  1.00  0.00    -0.182 OA 
BRANCH  15  17
HETATM   17  C   UNL     1      -9.323   7.971  69.068  1.00  0.00    -0.147 A  
HETATM   18  N   UNL     1      -9.808   8.468  70.185  1.00  0.00    -0.176 NA 
HETATM   19  C   UNL     1      -9.284   7.678  71.185  1.00  0.00    -0.147 A  
HETATM   20  H   UNL     1     -10.435   9.265  70.290  1.00  0.00     0.000 HD 
HETATM   21  C   UNL     1      -9.517   7.708  72.570  1.00  0.00    -0.222 A  
HETATM   22  C   UNL     1      -8.939   6.715  73.372  1.00  0.00    -0.140 A  
HETATM   23  C   UNL     1      -8.134   5.722  72.812  1.00  0.00    -0.108 A  
HETATM   24  C   UNL     1      -7.852   5.699  71.439  1.00  0.00    -0.111 A  
HETATM   25  C   UNL     1      -8.446   6.698  70.661  1.00  0.00    -0.138 A  
HETATM   26  N   UNL     1      -8.414   6.974  69.318  1.00  0.00    -0.132 NA 
ENDBRANCH  15  17
ENDBRANCH  14  15
ENDBRANCH   7  14
TORSDOF 5
ENDMDL
MODEL      241
REMARK 921   NORMALIZED FREE ENERGY PREDICTED BY IDOCK:   -3.41 KCAL/MOL
REMARK 922        TOTAL FREE ENERGY PREDICTED BY IDOCK:   -5.23 KCAL/MOL
REMARK 923 INTER-LIGAND FREE ENERGY PREDICTED BY IDOCK:   -4.18 KCAL/MOL
REMARK 924 INTRA-LIGAND FREE ENERGY PREDICTED BY IDOCK:   -1.05 KCAL/MOL
REMARK 927      BINDING AFFINITY PREDICTED BY RF-SCORE:    0.00 PKD
ROOT
HETATM    1  C   UNL     1      -9.878   5.989  68.479  1.00  0.00    -0.156 C  
HETATM    2  C   UNL     1      -9.502   7.123  69.385  1.00  0.00    -0.153 A  
HETATM    3  C   UNL     1      -9.753   7.082  70.773  1.00  0.00    -0.168 A  
HETATM    4  C   UNL     1      -9.211   8.066  71.599  1.00  0.00    -0.196 A  
HETATM    5  N   UNL     1      -8.356   9.240  69.685  1.00  0.00    -0.129 NA 
HETATM    6  C   UNL     1      -8.514   9.101  71.019  1.00  0.00    -0.165 A  
HETATM    7  C   UNL     1      -8.865   8.271  68.877  1.00  0.00    -0.140 A  
ENDROOT
BRANCH   3   8
HETATM    8  O   UNL     1     -10.440   6.109  71.460  1.00  0.00    -0.210 OA 
BRANCH   8   9
HETATM    9  C   UNL     1     -11.495   6.559  72.326  1.00  0.00    -0.289 C  
HETATM   10  C   UNL     1     -12.726   7.057  71.572  1.00  0.00    -0.381 C  
HETATM   11  F   UNL     1     -12.865   8.398  71.705  1.00  0.00    -0.303 F  
HETATM   12  F   UNL     1     -13.851   6.494  72.077  1.00  0.00    -0.350 F  
HETATM   13  F   UNL     1     -12.695   6.779  70.251  1.00  0.00    -0.289 F  
ENDBRANCH   8   9
ENDBRANCH   3   8
BRANCH   7  14
HETATM   14  C   UNL     1      -8.708   8.553  67.391  1.00  0.00    -0.134 C  
BRANCH  14  15
HETATM   15  S   UNL     1      -7.083   8.077  66.776  1.00  0.00    -0.082 S  
HETATM   16  O   UNL     1      -6.094   7.832  67.881  1.00  0.00    -0.042 OA 
BRANCH  15  17
HETATM   17  C   UNL     1      -7.432   6.515  66.100  1.00  0.00    -0.081 A  
HETATM   18  N   UNL     1      -6.853   5.381  66.433  1.00  0.00    -0.058 NA 
HETATM   19  C   UNL     1      -7.614   4.402  65.832  1.00  0.00    -0.089 A  
HETATM   20  H   UNL     1      -6.022   5.254  67.010  1.00  0.00     0.000 HD 
HETATM   21  C   UNL     1      -7.500   3.004  65.904  1.00  0.00    -0.073 A  
HETATM   22  C   UNL     1      -8.476   2.215  65.281  1.00  0.00    -0.099 A  
HETATM   23  C   UNL     1      -9.536   2.803  64.589  1.00  0.00    -0.142 A  
HETATM   24  C   UNL     1      -9.645   4.195  64.467  1.00  0.00    -0.168 A  
HETATM   25  C   UNL     1      -8.660   4.959  65.103  1.00  0.00    -0.144 A  
HETATM   26  N   UNL     1      -8.458   6.310  65.212  1.00  0.00    -0.140 NA 
ENDBRANCH  15  17
ENDBRANCH  14  15
ENDBRANCH   7  14
TORSDOF 5
ENDMDL
MODEL      242
REMARK 921   NORMALIZED FREE ENERGY PREDICTED BY IDOCK:   -3.40 KCAL/MOL
REMARK 922        TOTAL FREE ENERGY PREDICTED BY IDOCK:   -5.22 KCAL/MOL
REMARK 923 INTER-LIGAND FREE ENERGY PREDICTED BY IDOCK:   -5.18 KCAL/MOL
REMARK 924 INTRA-LIGAND FREE ENERGY PREDICTED BY IDOCK:   -0.04 KCAL/MOL
REMARK 927      BINDING AFFINITY PREDICTED BY RF-SCORE:    0.00 PKD
ROOT
HETATM    1  C   UNL     1      -7.839  15.385  69.595  1.00  0.00    -0.149 C  
HETATM    2  C   UNL     1      -8.874  14.927  68.611  1.00  0.00    -0.179 A  
HETATM    3  C   UNL     1     -10.208  15.384  68.667  1.00  0.00    -0.217 A  
HETATM    4  C   UNL     1     -11.081  15.090  67.620  1.00  0.00    -0.317 A  
HETATM    5  N   UNL     1      -9.402  13.727  66.569  1.00  0.00    -0.260 NA 
HETATM    6  C   UNL     1     -10.634  14.283  66.598  1.00  0.00    -0.278 A  
HETATM    7  C   UNL     1      -8.541  14.031  67.578  1.00  0.00    -0.192 A  
ENDROOT
BRANCH   3   8
HETATM    8  O   UNL     1     -10.768  16.182  69.636  1.00  0.00    -0.277 OA 
BRANCH   8   9
HETATM    9  C   UNL     1     -12.071  15.802  70.107  1.00  0.00    -0.333 C  
HETATM   10  C   UNL     1     -12.031  14.931  71.362  1.00  0.00    -0.345 C  
HETATM   11  F   UNL     1     -12.425  13.665  71.085  1.00  0.00    -0.388 F  
HETATM   12  F   UNL     1     -12.884  15.412  72.299  1.00  0.00    -0.341 F  
HETATM   13  F   UNL     1     -10.807  14.864  71.928  1.00  0.00    -0.286 F  
ENDBRANCH   8   9
ENDBRANCH   3   8
BRANCH   7  14
HETATM   14  C   UNL     1      -7.211  13.298  67.502  1.00  0.00    -0.150 C  
BRANCH  14  15
HETATM   15  S   UNL     1      -7.325  11.780  66.538  1.00  0.00     0.204 S  
HETATM   16  O   UNL     1      -6.068  10.960  66.598  1.00  0.00    -0.077 OA 
BRANCH  15  17
HETATM   17  C   UNL     1      -8.508  10.897  67.455  1.00  0.00    -0.120 A  
HETATM   18  N   UNL     1      -8.830   9.633  67.288  1.00  0.00    -0.131 NA 
HETATM   19  C   UNL     1      -9.607   9.314  68.381  1.00  0.00    -0.147 A  
HETATM   20  H   UNL     1      -8.563   9.020  66.517  1.00  0.00     0.000 HD 
HETATM   21  C   UNL     1     -10.168   8.082  68.757  1.00  0.00    -0.220 A  
HETATM   22  C   UNL     1     -10.835   7.993  69.986  1.00  0.00    -0.235 A  
HETATM   23  C   UNL     1     -10.955   9.108  70.817  1.00  0.00    -0.332 A  
HETATM   24  C   UNL     1     -10.442  10.357  70.441  1.00  0.00    -0.018 A  
HETATM   25  C   UNL     1      -9.776  10.417  69.212  1.00  0.00    -0.214 A  
HETATM   26  N   UNL     1      -9.148  11.435  68.544  1.00  0.00    -0.178 NA 
ENDBRANCH  15  17
ENDBRANCH  14  15
ENDBRANCH   7  14
TORSDOF 5
ENDMDL
MODEL      243
REMARK 921   NORMALIZED FREE ENERGY PREDICTED BY IDOCK:   -3.39 KCAL/MOL
REMARK 922        TOTAL FREE ENERGY PREDICTED BY IDOCK:   -5.21 KCAL/MOL
REMARK 923 INTER-LIGAND FREE ENERGY PREDICTED BY IDOCK:   -4.42 KCAL/MOL
REMARK 924 INTRA-LIGAND FREE ENERGY PREDICTED BY IDOCK:   -0.79 KCAL/MOL
REMARK 927      BINDING AFFINITY PREDICTED BY RF-SCORE:    0.00 PKD
ROOT
HETATM    1  C   UNL     1      -7.451  11.491  68.531  1.00  0.00    -0.115 C  
HETATM    2  C   UNL     1      -8.613  10.626  68.142  1.00  0.00    -0.123 A  
HETATM    3  C   UNL     1      -9.252  10.758  66.891  1.00  0.00    -0.156 A  
HETATM    4  C   UNL     1     -10.192   9.806  66.495  1.00  0.00    -0.289 A  
HETATM    5  N   UNL     1     -10.030   8.719  68.633  1.00  0.00    -0.177 NA 
HETATM    6  C   UNL     1     -10.531   8.809  67.381  1.00  0.00    -0.279 A  
HETATM    7  C   UNL     1      -9.097   9.632  69.014  1.00  0.00    -0.148 A  
ENDROOT
BRANCH   3   8
HETATM    8  O   UNL     1      -9.005  11.712  65.934  1.00  0.00    -0.192 OA 
BRANCH   8   9
HETATM    9  C   UNL     1     -10.014  12.721  65.757  1.00  0.00    -0.251 C  
HETATM   10  C   UNL     1      -9.598  14.092  66.287  1.00  0.00    -0.265 C  
HETATM   11  F   UNL     1     -10.317  14.423  67.387  1.00  0.00    -0.245 F  
HETATM   12  F   UNL     1      -9.837  15.050  65.359  1.00  0.00    -0.341 F  
HETATM   13  F   UNL     1      -8.291  14.166  66.615  1.00  0.00    -0.166 F  
ENDBRANCH   8   9
ENDBRANCH   3   8
BRANCH   7  14
HETATM   14  C   UNL     1      -8.651   9.500  70.462  1.00  0.00    -0.184 C  
BRANCH  14  15
HETATM   15  S   UNL     1      -7.169   8.490  70.628  1.00  0.00    -0.059 S  
HETATM   16  O   UNL     1      -6.234   9.003  71.686  1.00  0.00    -0.077 OA 
BRANCH  15  17
HETATM   17  C   UNL     1      -7.842   7.020  71.265  1.00  0.00    -0.099 A  
HETATM   18  N   UNL     1      -7.235   6.177  72.071  1.00  0.00    -0.090 NA 
HETATM   19  C   UNL     1      -8.223   5.318  72.500  1.00  0.00    -0.114 A  
HETATM   20  H   UNL     1      -6.247   6.161  72.324  1.00  0.00     0.000 HD 
HETATM   21  C   UNL     1      -8.159   4.263  73.426  1.00  0.00    -0.090 A  
HETATM   22  C   UNL     1      -9.343   3.601  73.777  1.00  0.00    -0.111 A  
HETATM   23  C   UNL     1     -10.563   3.968  73.208  1.00  0.00    -0.270 A  
HETATM   24  C   UNL     1     -10.643   4.987  72.249  1.00  0.00    -0.269 A  
HETATM   25  C   UNL     1      -9.448   5.636  71.921  1.00  0.00    -0.151 A  
HETATM   26  N   UNL     1      -9.152   6.663  71.063  1.00  0.00    -0.156 NA 
ENDBRANCH  15  17
ENDBRANCH  14  15
ENDBRANCH   7  14
TORSDOF 5
ENDMDL
MODEL      244
REMARK 921   NORMALIZED FREE ENERGY PREDICTED BY IDOCK:   -3.35 KCAL/MOL
REMARK 922        TOTAL FREE ENERGY PREDICTED BY IDOCK:   -5.16 KCAL/MOL
REMARK 923 INTER-LIGAND FREE ENERGY PREDICTED BY IDOCK:   -4.08 KCAL/MOL
REMARK 924 INTRA-LIGAND FREE ENERGY PREDICTED BY IDOCK:   -1.08 KCAL/MOL
REMARK 927      BINDING AFFINITY PREDICTED BY RF-SCORE:    0.00 PKD
ROOT
HETATM    1  C   UNL     1      -7.138  10.593  69.836  1.00  0.00    -0.133 C  
HETATM    2  C   UNL     1      -8.486  10.314  69.240  1.00  0.00    -0.172 A  
HETATM    3  C   UNL     1      -8.898  10.901  68.024  1.00  0.00    -0.135 A  
HETATM    4  C   UNL     1     -10.071  10.461  67.412  1.00  0.00    -0.237 A  
HETATM    5  N   UNL     1     -10.541   9.026  69.282  1.00  0.00    -0.227 NA 
HETATM    6  C   UNL     1     -10.840   9.522  68.061  1.00  0.00    -0.168 A  
HETATM    7  C   UNL     1      -9.386   9.436  69.873  1.00  0.00    -0.214 A  
ENDROOT
BRANCH   3   8
HETATM    8  O   UNL     1      -8.222  11.848  67.293  1.00  0.00    -0.154 OA 
BRANCH   8   9
HETATM    9  C   UNL     1      -8.968  13.017  66.912  1.00  0.00    -0.209 C  
HETATM   10  C   UNL     1      -8.907  14.137  67.949  1.00  0.00    -0.182 C  
HETATM   11  F   UNL     1     -10.110  14.306  68.549  1.00  0.00    -0.219 F  
HETATM   12  F   UNL     1      -8.596  15.315  67.355  1.00  0.00    -0.152 F  
HETATM   13  F   UNL     1      -7.993  13.922  68.919  1.00  0.00    -0.137 F  
ENDBRANCH   8   9
ENDBRANCH   3   8
BRANCH   7  14
HETATM   14  C   UNL     1      -9.175   8.887  71.274  1.00  0.00    -0.258 C  
BRANCH  14  15
HETATM   15  S   UNL     1      -7.963   7.555  71.308  1.00  0.00    -0.096 S  
HETATM   16  O   UNL     1      -8.173   6.608  72.455  1.00  0.00    -0.104 OA 
BRANCH  15  17
HETATM   17  C   UNL     1      -8.405   6.672  69.879  1.00  0.00    -0.132 A  
HETATM   18  N   UNL     1      -9.540   6.036  69.683  1.00  0.00    -0.146 NA 
HETATM   19  C   UNL     1      -9.541   5.711  68.343  1.00  0.00    -0.126 A  
HETATM   20  H   UNL     1     -10.262   5.827  70.372  1.00  0.00     0.000 HD 
HETATM   21  C   UNL     1     -10.535   5.087  67.571  1.00  0.00    -0.094 A  
HETATM   22  C   UNL     1     -10.336   4.966  66.189  1.00  0.00    -0.329 A  
HETATM   23  C   UNL     1      -9.169   5.442  65.589  1.00  0.00    -0.125 A  
HETATM   24  C   UNL     1      -8.146   6.027  66.348  1.00  0.00    -0.110 A  
HETATM   25  C   UNL     1      -8.372   6.141  67.724  1.00  0.00    -0.116 A  
HETATM   26  N   UNL     1      -7.626   6.661  68.749  1.00  0.00    -0.102 NA 
ENDBRANCH  15  17
ENDBRANCH  14  15
ENDBRANCH   7  14
TORSDOF 5
ENDMDL
MODEL      245
REMARK 921   NORMALIZED FREE ENERGY PREDICTED BY IDOCK:   -3.32 KCAL/MOL
REMARK 922        TOTAL FREE ENERGY PREDICTED BY IDOCK:   -5.12 KCAL/MOL
REMARK 923 INTER-LIGAND FREE ENERGY PREDICTED BY IDOCK:   -5.85 KCAL/MOL
REMARK 924 INTRA-LIGAND FREE ENERGY PREDICTED BY IDOCK:    0.72 KCAL/MOL
REMARK 927      BINDING AFFINITY PREDICTED BY RF-SCORE:    0.00 PKD
ROOT
HETATM    1  C   UNL     1     -11.405  14.562  69.964  1.00  0.00    -0.274 C  
HETATM    2  C   UNL     1     -11.656  13.093  70.135  1.00  0.00    -0.147 A  
HETATM    3  C   UNL     1     -12.579  12.602  71.082  1.00  0.00    -0.258 A  
HETATM    4  C   UNL     1     -12.924  11.251  71.068  1.00  0.00    -0.304 A  
HETATM    5  N   UNL     1     -11.307  10.828  69.342  1.00  0.00    -0.261 NA 
HETATM    6  C   UNL     1     -12.283  10.417  70.181  1.00  0.00    -0.229 A  
HETATM    7  C   UNL     1     -10.983  12.149  69.337  1.00  0.00    -0.046 A  
ENDROOT
BRANCH   3   8
HETATM    8  O   UNL     1     -13.271  13.333  72.018  1.00  0.00    -0.418 OA 
BRANCH   8   9
HETATM    9  C   UNL     1     -13.446  14.732  71.738  1.00  0.00    -0.380 C  
HETATM   10  C   UNL     1     -13.227  15.625  72.958  1.00  0.00    -0.562 C  
HETATM   11  F   UNL     1     -14.393  16.179  73.367  1.00  0.00    -0.407 F  
HETATM   12  F   UNL     1     -12.392  16.649  72.651  1.00  0.00    -0.468 F  
HETATM   13  F   UNL     1     -12.692  14.972  74.011  1.00  0.00    -0.588 F  
ENDBRANCH   8   9
ENDBRANCH   3   8
BRANCH   7  14
HETATM   14  C   UNL     1      -9.822  12.502  68.421  1.00  0.00    -0.202 C  
BRANCH  14  15
HETATM   15  S   UNL     1     -10.184  12.138  66.694  1.00  0.00    -0.203 S  
HETATM   16  O   UNL     1      -9.475  13.063  65.746  1.00  0.00    -0.125 OA 
BRANCH  15  17
HETATM   17  C   UNL     1      -9.410  10.593  66.514  1.00  0.00    -0.167 A  
HETATM   18  N   UNL     1      -8.762  10.171  65.450  1.00  0.00    -0.153 NA 
HETATM   19  C   UNL     1      -8.119   9.022  65.854  1.00  0.00    -0.108 A  
HETATM   20  H   UNL     1      -8.741  10.601  64.525  1.00  0.00     0.000 HD 
HETATM   21  C   UNL     1      -7.231   8.193  65.149  1.00  0.00    -0.072 A  
HETATM   22  C   UNL     1      -6.619   7.130  65.827  1.00  0.00    -0.052 A  
HETATM   23  C   UNL     1      -6.895   6.887  67.174  1.00  0.00    -0.072 A  
HETATM   24  C   UNL     1      -7.811   7.675  67.884  1.00  0.00    -0.117 A  
HETATM   25  C   UNL     1      -8.403   8.732  67.185  1.00  0.00    -0.103 A  
HETATM   26  N   UNL     1      -9.307   9.697  67.548  1.00  0.00    -0.130 NA 
ENDBRANCH  15  17
ENDBRANCH  14  15
ENDBRANCH   7  14
TORSDOF 5
ENDMDL
MODEL      246
REMARK 921   NORMALIZED FREE ENERGY PREDICTED BY IDOCK:   -3.25 KCAL/MOL
REMARK 922        TOTAL FREE ENERGY PREDICTED BY IDOCK:   -5.04 KCAL/MOL
REMARK 923 INTER-LIGAND FREE ENERGY PREDICTED BY IDOCK:   -4.48 KCAL/MOL
REMARK 924 INTRA-LIGAND FREE ENERGY PREDICTED BY IDOCK:   -0.56 KCAL/MOL
REMARK 927      BINDING AFFINITY PREDICTED BY RF-SCORE:    0.00 PKD
ROOT
HETATM    1  C   UNL     1      -7.348  10.130  70.087  1.00  0.00    -0.157 C  
HETATM    2  C   UNL     1      -8.736   9.586  70.250  1.00  0.00    -0.270 A  
HETATM    3  C   UNL     1      -9.774   9.912  69.351  1.00  0.00    -0.214 A  
HETATM    4  C   UNL     1     -10.988   9.231  69.427  1.00  0.00    -0.138 A  
HETATM    5  N   UNL     1     -10.242   8.065  71.391  1.00  0.00    -0.192 NA 
HETATM    6  C   UNL     1     -11.168   8.316  70.439  1.00  0.00    -0.219 A  
HETATM    7  C   UNL     1      -9.048   8.711  71.308  1.00  0.00    -0.212 A  
ENDROOT
BRANCH   3   8
HETATM    8  O   UNL     1      -9.715  10.811  68.313  1.00  0.00    -0.155 OA 
BRANCH   8   9
HETATM    9  C   UNL     1     -10.838  10.829  67.415  1.00  0.00    -0.290 C  
HETATM   10  C   UNL     1     -11.103  12.205  66.806  1.00  0.00    -0.300 C  
HETATM   11  F   UNL     1     -12.252  12.735  67.290  1.00  0.00    -0.397 F  
HETATM   12  F   UNL     1     -11.252  12.106  65.462  1.00  0.00    -0.327 F  
HETATM   13  F   UNL     1     -10.113  13.093  67.037  1.00  0.00    -0.230 F  
ENDBRANCH   8   9
ENDBRANCH   3   8
BRANCH   7  14
HETATM   14  C   UNL     1      -8.104   8.425  72.464  1.00  0.00    -0.116 C  
BRANCH  14  15
HETATM   15  S   UNL     1      -6.830   7.230  72.022  1.00  0.00    -0.056 S  
HETATM   16  O   UNL     1      -6.258   6.523  73.218  1.00  0.00    -0.061 OA 
BRANCH  15  17
HETATM   17  C   UNL     1      -7.773   6.041  71.176  1.00  0.00    -0.109 A  
HETATM   18  N   UNL     1      -8.033   6.034  69.887  1.00  0.00    -0.110 NA 
HETATM   19  C   UNL     1      -8.584   4.795  69.640  1.00  0.00    -0.082 A  
HETATM   20  H   UNL     1      -7.863   6.782  69.215  1.00  0.00     0.000 HD 
HETATM   21  C   UNL     1      -8.986   4.216  68.424  1.00  0.00    -0.157 A  
HETATM   22  C   UNL     1      -9.421   2.885  68.425  1.00  0.00    -0.207 A  
HETATM   23  C   UNL     1      -9.471   2.148  69.609  1.00  0.00    -0.112 A  
HETATM   24  C   UNL     1      -9.117   2.720  70.838  1.00  0.00    -0.184 A  
HETATM   25  C   UNL     1      -8.680   4.049  70.810  1.00  0.00    -0.073 A  
HETATM   26  N   UNL     1      -8.248   4.907  71.787  1.00  0.00    -0.112 NA 
ENDBRANCH  15  17
ENDBRANCH  14  15
ENDBRANCH   7  14
TORSDOF 5
ENDMDL
MODEL      247
REMARK 921   NORMALIZED FREE ENERGY PREDICTED BY IDOCK:   -3.21 KCAL/MOL
REMARK 922        TOTAL FREE ENERGY PREDICTED BY IDOCK:   -4.98 KCAL/MOL
REMARK 923 INTER-LIGAND FREE ENERGY PREDICTED BY IDOCK:   -5.24 KCAL/MOL
REMARK 924 INTRA-LIGAND FREE ENERGY PREDICTED BY IDOCK:    0.26 KCAL/MOL
REMARK 927      BINDING AFFINITY PREDICTED BY RF-SCORE:    0.00 PKD
ROOT
HETATM    1  C   UNL     1      -8.681  15.219  69.837  1.00  0.00     0.160 C  
HETATM    2  C   UNL     1      -7.380  15.255  69.091  1.00  0.00    -0.172 A  
HETATM    3  C   UNL     1      -6.253  14.524  69.525  1.00  0.00    -0.120 A  
HETATM    4  C   UNL     1      -5.135  14.430  68.698  1.00  0.00    -0.096 A  
HETATM    5  N   UNL     1      -6.143  15.936  67.119  1.00  0.00    -0.332 NA 
HETATM    6  C   UNL     1      -5.132  15.129  67.513  1.00  0.00     0.149 A  
HETATM    7  C   UNL     1      -7.245  16.013  67.913  1.00  0.00    -0.133 A  
ENDROOT
BRANCH   3   8
HETATM    8  O   UNL     1      -6.136  13.799  70.687  1.00  0.00    -0.171 OA 
BRANCH   8   9
HETATM    9  C   UNL     1      -5.291  12.637  70.635  1.00  0.00    -0.156 C  
HETATM   10  C   UNL     1      -6.030  11.370  70.210  1.00  0.00    -0.159 C  
HETATM   11  F   UNL     1      -6.137  10.502  71.244  1.00  0.00    -0.037 F  
HETATM   12  F   UNL     1      -5.346  10.730  69.229  1.00  0.00    -0.042 F  
HETATM   13  F   UNL     1      -7.275  11.606  69.744  1.00  0.00    -0.048 F  
ENDBRANCH   8   9
ENDBRANCH   3   8
BRANCH   7  14
HETATM   14  C   UNL     1      -8.292  17.004  67.430  1.00  0.00    -0.191 C  
BRANCH  14  15
HETATM   15  S   UNL     1      -9.969  16.449  67.786  1.00  0.00    -0.253 S  
HETATM   16  O   UNL     1     -10.989  17.537  67.605  1.00  0.00    -0.294 OA 
BRANCH  15  17
HETATM   17  C   UNL     1     -10.230  15.334  66.481  1.00  0.00    -0.275 A  
HETATM   18  N   UNL     1      -9.642  14.166  66.331  1.00  0.00    -0.299 NA 
HETATM   19  C   UNL     1     -10.336  13.544  65.316  1.00  0.00    -0.331 A  
HETATM   20  H   UNL     1      -8.846  13.801  66.853  1.00  0.00     0.000 HD 
HETATM   21  C   UNL     1     -10.187  12.252  64.786  1.00  0.00    -0.308 A  
HETATM   22  C   UNL     1     -11.099  11.811  63.818  1.00  0.00    -0.513 A  
HETATM   23  C   UNL     1     -12.129  12.643  63.375  1.00  0.00    -0.614 A  
HETATM   24  C   UNL     1     -12.269  13.951  63.858  1.00  0.00    -0.375 A  
HETATM   25  C   UNL     1     -11.349  14.363  64.827  1.00  0.00    -0.388 A  
HETATM   26  N   UNL     1     -11.192  15.534  65.522  1.00  0.00    -0.243 NA 
ENDBRANCH  15  17
ENDBRANCH  14  15
ENDBRANCH   7  14
TORSDOF 5
ENDMDL
MODEL      248
REMARK 921   NORMALIZED FREE ENERGY PREDICTED BY IDOCK:   -3.18 KCAL/MOL
REMARK 922        TOTAL FREE ENERGY PREDICTED BY IDOCK:   -4.94 KCAL/MOL
REMARK 923 INTER-LIGAND FREE ENERGY PREDICTED BY IDOCK:   -4.03 KCAL/MOL
REMARK 924 INTRA-LIGAND FREE ENERGY PREDICTED BY IDOCK:   -0.92 KCAL/MOL
REMARK 927      BINDING AFFINITY PREDICTED BY RF-SCORE:    0.00 PKD
ROOT
HETATM    1  C   UNL     1      -8.030   9.606  69.503  1.00  0.00    -0.125 C  
HETATM    2  C   UNL     1      -9.391  10.166  69.213  1.00  0.00    -0.227 A  
HETATM    3  C   UNL     1      -9.643  10.958  68.073  1.00  0.00    -0.162 A  
HETATM    4  C   UNL     1     -10.956  11.288  67.741  1.00  0.00    -0.305 A  
HETATM    5  N   UNL     1     -11.755  10.246  69.754  1.00  0.00    -0.222 NA 
HETATM    6  C   UNL     1     -11.967  10.900  68.591  1.00  0.00    -0.115 A  
HETATM    7  C   UNL     1     -10.477   9.902  70.070  1.00  0.00    -0.284 A  
ENDROOT
BRANCH   3   8
HETATM    8  O   UNL     1      -8.719  11.410  67.161  1.00  0.00    -0.147 OA 
BRANCH   8   9
HETATM    9  C   UNL     1      -8.964  12.705  66.588  1.00  0.00    -0.164 C  
HETATM   10  C   UNL     1      -8.626  13.858  67.531  1.00  0.00    -0.193 C  
HETATM   11  F   UNL     1      -9.751  14.494  67.939  1.00  0.00    -0.205 F  
HETATM   12  F   UNL     1      -7.862  14.781  66.896  1.00  0.00    -0.220 F  
HETATM   13  F   UNL     1      -7.953  13.469  68.634  1.00  0.00    -0.139 F  
ENDBRANCH   8   9
ENDBRANCH   3   8
BRANCH   7  14
HETATM   14  C   UNL     1     -10.328   9.242  71.431  1.00  0.00    -0.321 C  
BRANCH  14  15
HETATM   15  S   UNL     1     -10.965   7.556  71.442  1.00  0.00    -0.234 S  
HETATM   16  O   UNL     1     -12.026   7.331  70.403  1.00  0.00    -0.201 OA 
BRANCH  15  17
HETATM   17  C   UNL     1      -9.572   6.675  70.894  1.00  0.00    -0.175 A  
HETATM   18  N   UNL     1      -9.442   6.081  69.727  1.00  0.00    -0.148 NA 
HETATM   19  C   UNL     1      -8.109   5.742  69.645  1.00  0.00    -0.104 A  
HETATM   20  H   UNL     1     -10.170   5.908  69.034  1.00  0.00     0.000 HD 
HETATM   21  C   UNL     1      -7.396   5.148  68.590  1.00  0.00    -0.066 A  
HETATM   22  C   UNL     1      -6.007   5.005  68.713  1.00  0.00    -0.021 A  
HETATM   23  C   UNL     1      -5.343   5.428  69.866  1.00  0.00    -0.004 A  
HETATM   24  C   UNL     1      -6.041   5.981  70.947  1.00  0.00    -0.038 A  
HETATM   25  C   UNL     1      -7.425   6.119  70.797  1.00  0.00    -0.091 A  
HETATM   26  N   UNL     1      -8.405   6.621  71.614  1.00  0.00    -0.115 NA 
ENDBRANCH  15  17
ENDBRANCH  14  15
ENDBRANCH   7  14
TORSDOF 5
ENDMDL
MODEL      249
REMARK 921   NORMALIZED FREE ENERGY PREDICTED BY IDOCK:   -3.12 KCAL/MOL
REMARK 922        TOTAL FREE ENERGY PREDICTED BY IDOCK:   -4.86 KCAL/MOL
REMARK 923 INTER-LIGAND FREE ENERGY PREDICTED BY IDOCK:   -5.60 KCAL/MOL
REMARK 924 INTRA-LIGAND FREE ENERGY PREDICTED BY IDOCK:    0.74 KCAL/MOL
REMARK 927      BINDING AFFINITY PREDICTED BY RF-SCORE:    0.00 PKD
ROOT
HETATM    1  C   UNL     1     -11.028   9.887  69.588  1.00  0.00    -0.285 C  
HETATM    2  C   UNL     1     -10.726   9.806  68.121  1.00  0.00    -0.280 A  
HETATM    3  C   UNL     1     -11.099  10.832  67.227  1.00  0.00    -0.270 A  
HETATM    4  C   UNL     1     -10.625  10.807  65.916  1.00  0.00    -0.216 A  
HETATM    5  N   UNL     1      -9.599   8.668  66.299  1.00  0.00    -0.245 NA 
HETATM    6  C   UNL     1      -9.874   9.728  65.508  1.00  0.00    -0.308 A  
HETATM    7  C   UNL     1     -10.040   8.699  67.586  1.00  0.00    -0.213 A  
ENDROOT
BRANCH   3   8
HETATM    8  O   UNL     1     -11.849  11.947  67.516  1.00  0.00    -0.552 OA 
BRANCH   8   9
HETATM    9  C   UNL     1     -11.951  12.938  66.479  1.00  0.00    -0.377 C  
HETATM   10  C   UNL     1     -11.179  14.219  66.789  1.00  0.00    -0.332 C  
HETATM   11  F   UNL     1     -12.026  15.250  67.023  1.00  0.00    -0.220 F  
HETATM   12  F   UNL     1     -10.410  14.576  65.730  1.00  0.00    -0.277 F  
HETATM   13  F   UNL     1     -10.363  14.109  67.859  1.00  0.00    -0.224 F  
ENDBRANCH   8   9
ENDBRANCH   3   8
BRANCH   7  14
HETATM   14  C   UNL     1      -9.752   7.432  68.374  1.00  0.00    -0.153 C  
BRANCH  14  15
HETATM   15  S   UNL     1     -10.705   7.348  69.901  1.00  0.00    -0.239 S  
HETATM   16  O   UNL     1     -11.782   6.302  69.855  1.00  0.00    -0.408 OA 
BRANCH  15  17
HETATM   17  C   UNL     1      -9.506   6.743  71.003  1.00  0.00    -0.164 A  
HETATM   18  N   UNL     1      -8.448   7.398  71.431  1.00  0.00    -0.113 NA 
HETATM   19  C   UNL     1      -7.944   6.631  72.459  1.00  0.00    -0.102 A  
HETATM   20  H   UNL     1      -8.079   8.281  71.078  1.00  0.00     0.000 HD 
HETATM   21  C   UNL     1      -6.862   6.880  73.320  1.00  0.00    -0.074 A  
HETATM   22  C   UNL     1      -6.615   5.984  74.368  1.00  0.00    -0.075 A  
HETATM   23  C   UNL     1      -7.416   4.855  74.547  1.00  0.00    -0.089 A  
HETATM   24  C   UNL     1      -8.472   4.564  73.674  1.00  0.00    -0.104 A  
HETATM   25  C   UNL     1      -8.701   5.478  72.639  1.00  0.00    -0.123 A  
HETATM   26  N   UNL     1      -9.629   5.530  71.632  1.00  0.00    -0.150 NA 
ENDBRANCH  15  17
ENDBRANCH  14  15
ENDBRANCH   7  14
TORSDOF 5
ENDMDL
MODEL      250
REMARK 921   NORMALIZED FREE ENERGY PREDICTED BY IDOCK:   -3.10 KCAL/MOL
REMARK 922        TOTAL FREE ENERGY PREDICTED BY IDOCK:   -4.83 KCAL/MOL
REMARK 923 INTER-LIGAND FREE ENERGY PREDICTED BY IDOCK:   -4.45 KCAL/MOL
REMARK 924 INTRA-LIGAND FREE ENERGY PREDICTED BY IDOCK:   -0.38 KCAL/MOL
REMARK 927      BINDING AFFINITY PREDICTED BY RF-SCORE:    0.00 PKD
ROOT
HETATM    1  C   UNL     1      -7.620   8.221  65.510  1.00  0.00    -0.087 C  
HETATM    2  C   UNL     1      -8.890   7.654  66.071  1.00  0.00    -0.186 A  
HETATM    3  C   UNL     1      -9.302   6.333  65.794  1.00  0.00     0.105 A  
HETATM    4  C   UNL     1     -10.379   5.788  66.492  1.00  0.00    -0.265 A  
HETATM    5  N   UNL     1     -10.777   7.896  67.577  1.00  0.00    -0.223 NA 
HETATM    6  C   UNL     1     -11.065   6.591  67.374  1.00  0.00    -0.327 A  
HETATM    7  C   UNL     1      -9.713   8.425  66.914  1.00  0.00    -0.227 A  
ENDROOT
BRANCH   3   8
HETATM    8  O   UNL     1      -8.704   5.446  64.931  1.00  0.00    -0.149 OA 
BRANCH   8   9
HETATM    9  C   UNL     1      -8.477   4.118  65.433  1.00  0.00    -0.110 C  
HETATM   10  C   UNL     1      -8.683   3.030  64.380  1.00  0.00    -0.096 C  
HETATM   11  F   UNL     1      -9.787   2.294  64.655  1.00  0.00    -0.131 F  
HETATM   12  F   UNL     1      -7.632   2.174  64.372  1.00  0.00    -0.058 F  
HETATM   13  F   UNL     1      -8.817   3.515  63.127  1.00  0.00    -0.091 F  
ENDBRANCH   8   9
ENDBRANCH   3   8
BRANCH   7  14
HETATM   14  C   UNL     1      -9.516   9.915  67.143  1.00  0.00    -0.158 C  
BRANCH  14  15
HETATM   15  S   UNL     1      -9.688  10.866  65.623  1.00  0.00    -0.248 S  
HETATM   16  O   UNL     1     -11.049  10.727  65.004  1.00  0.00     0.012 OA 
BRANCH  15  17
HETATM   17  C   UNL     1      -9.612  12.488  66.240  1.00  0.00    -0.245 A  
HETATM   18  N   UNL     1     -10.475  13.451  65.994  1.00  0.00    -0.289 NA 
HETATM   19  C   UNL     1     -10.153  14.455  66.880  1.00  0.00    -0.259 A  
HETATM   20  H   UNL     1     -11.221  13.453  65.298  1.00  0.00     0.000 HD 
HETATM   21  C   UNL     1     -10.785  15.689  67.109  1.00  0.00    -0.314 A  
HETATM   22  C   UNL     1     -10.322  16.499  68.155  1.00  0.00    -0.296 A  
HETATM   23  C   UNL     1      -9.245  16.098  68.947  1.00  0.00    -0.234 A  
HETATM   24  C   UNL     1      -8.572  14.893  68.707  1.00  0.00    -0.177 A  
HETATM   25  C   UNL     1      -9.058  14.100  67.661  1.00  0.00    -0.194 A  
HETATM   26  N   UNL     1      -8.675  12.883  67.161  1.00  0.00    -0.202 NA 
ENDBRANCH  15  17
ENDBRANCH  14  15
ENDBRANCH   7  14
TORSDOF 5
ENDMDL
MODEL      251
REMARK 921   NORMALIZED FREE ENERGY PREDICTED BY IDOCK:   -3.07 KCAL/MOL
REMARK 922        TOTAL FREE ENERGY PREDICTED BY IDOCK:   -4.79 KCAL/MOL
REMARK 923 INTER-LIGAND FREE ENERGY PREDICTED BY IDOCK:   -4.48 KCAL/MOL
REMARK 924 INTRA-LIGAND FREE ENERGY PREDICTED BY IDOCK:   -0.31 KCAL/MOL
REMARK 927      BINDING AFFINITY PREDICTED BY RF-SCORE:    0.00 PKD
ROOT
HETATM    1  C   UNL     1     -10.566   9.422  71.844  1.00  0.00     0.021 C  
HETATM    2  C   UNL     1      -9.311   8.627  71.635  1.00  0.00    -0.333 A  
HETATM    3  C   UNL     1      -8.372   8.967  70.638  1.00  0.00    -0.186 A  
HETATM    4  C   UNL     1      -7.135   8.325  70.612  1.00  0.00    -0.042 A  
HETATM    5  N   UNL     1      -7.819   6.875  72.402  1.00  0.00    -0.096 NA 
HETATM    6  C   UNL     1      -6.900   7.311  71.512  1.00  0.00    -0.055 A  
HETATM    7  C   UNL     1      -9.019   7.514  72.446  1.00  0.00    -0.135 A  
ENDROOT
BRANCH   3   8
HETATM    8  O   UNL     1      -8.499   9.950  69.685  1.00  0.00    -0.157 OA 
BRANCH   8   9
HETATM    9  C   UNL     1      -9.486   9.729  68.664  1.00  0.00    -0.151 C  
HETATM   10  C   UNL     1     -10.227  11.000  68.254  1.00  0.00    -0.176 C  
HETATM   11  F   UNL     1     -11.518  10.961  68.663  1.00  0.00    -0.272 F  
HETATM   12  F   UNL     1     -10.246  11.122  66.904  1.00  0.00    -0.222 F  
HETATM   13  F   UNL     1      -9.674  12.127  68.751  1.00  0.00    -0.190 F  
ENDBRANCH   8   9
ENDBRANCH   3   8
BRANCH   7  14
HETATM   14  C   UNL     1     -10.014   6.903  73.420  1.00  0.00    -0.236 C  
BRANCH  14  15
HETATM   15  S   UNL     1     -11.329   6.006  72.577  1.00  0.00    -0.288 S  
HETATM   16  O   UNL     1     -12.162   6.893  71.695  1.00  0.00    -0.326 OA 
BRANCH  15  17
HETATM   17  C   UNL     1     -10.405   5.003  71.500  1.00  0.00    -0.182 A  
HETATM   18  N   UNL     1      -9.964   3.791  71.760  1.00  0.00    -0.179 NA 
HETATM   19  C   UNL     1      -9.517   3.307  70.550  1.00  0.00    -0.172 A  
HETATM   20  H   UNL     1      -9.954   3.313  72.661  1.00  0.00     0.000 HD 
HETATM   21  C   UNL     1      -9.008   2.039  70.221  1.00  0.00    -0.147 A  
HETATM   22  C   UNL     1      -8.721   1.756  68.879  1.00  0.00    -0.112 A  
HETATM   23  C   UNL     1      -8.921   2.716  67.886  1.00  0.00    -0.201 A  
HETATM   24  C   UNL     1      -9.387   4.001  68.198  1.00  0.00    -0.218 A  
HETATM   25  C   UNL     1      -9.671   4.256  69.544  1.00  0.00    -0.201 A  
HETATM   26  N   UNL     1     -10.146   5.361  70.201  1.00  0.00    -0.229 NA 
ENDBRANCH  15  17
ENDBRANCH  14  15
ENDBRANCH   7  14
TORSDOF 5
ENDMDL
MODEL      252
REMARK 921   NORMALIZED FREE ENERGY PREDICTED BY IDOCK:   -3.06 KCAL/MOL
REMARK 922        TOTAL FREE ENERGY PREDICTED BY IDOCK:   -4.79 KCAL/MOL
REMARK 923 INTER-LIGAND FREE ENERGY PREDICTED BY IDOCK:   -4.23 KCAL/MOL
REMARK 924 INTRA-LIGAND FREE ENERGY PREDICTED BY IDOCK:   -0.56 KCAL/MOL
REMARK 927      BINDING AFFINITY PREDICTED BY RF-SCORE:    0.00 PKD
ROOT
HETATM    1  C   UNL     1     -11.037   9.959  69.526  1.00  0.00    -0.255 C  
HETATM    2  C   UNL     1     -10.564  10.114  68.111  1.00  0.00    -0.262 A  
HETATM    3  C   UNL     1     -10.457  11.380  67.496  1.00  0.00    -0.201 A  
HETATM    4  C   UNL     1      -9.828  11.491  66.257  1.00  0.00    -0.245 A  
HETATM    5  N   UNL     1      -9.597   9.102  66.129  1.00  0.00    -0.246 NA 
HETATM    6  C   UNL     1      -9.405  10.343  65.628  1.00  0.00    -0.198 A  
HETATM    7  C   UNL     1     -10.190   8.991  67.348  1.00  0.00    -0.245 A  
ENDROOT
BRANCH   3   8
HETATM    8  O   UNL     1     -10.851  12.588  68.020  1.00  0.00    -0.211 OA 
BRANCH   8   9
HETATM    9  C   UNL     1     -10.976  13.679  67.093  1.00  0.00    -0.288 C  
HETATM   10  C   UNL     1     -11.041  15.046  67.772  1.00  0.00    -0.310 C  
HETATM   11  F   UNL     1     -12.276  15.590  67.646  1.00  0.00    -0.073 F  
HETATM   12  F   UNL     1     -10.171  15.906  67.189  1.00  0.00    -0.254 F  
HETATM   13  F   UNL     1     -10.745  15.004  69.088  1.00  0.00    -0.215 F  
ENDBRANCH   8   9
ENDBRANCH   3   8
BRANCH   7  14
HETATM   14  C   UNL     1     -10.436   7.558  67.792  1.00  0.00    -0.223 C  
BRANCH  14  15
HETATM   15  S   UNL     1      -9.121   6.942  68.860  1.00  0.00    -0.132 S  
HETATM   16  O   UNL     1      -9.642   6.117  70.003  1.00  0.00    -0.158 OA 
BRANCH  15  17
HETATM   17  C   UNL     1      -8.328   5.824  67.793  1.00  0.00    -0.104 A  
HETATM   18  N   UNL     1      -7.958   4.598  68.094  1.00  0.00    -0.084 NA 
HETATM   19  C   UNL     1      -7.612   4.023  66.890  1.00  0.00    -0.084 A  
HETATM   20  H   UNL     1      -7.932   4.166  69.017  1.00  0.00     0.000 HD 
HETATM   21  C   UNL     1      -7.209   2.708  66.604  1.00  0.00    -0.061 A  
HETATM   22  C   UNL     1      -7.016   2.338  65.266  1.00  0.00    -0.048 A  
HETATM   23  C   UNL     1      -7.204   3.260  64.235  1.00  0.00    -0.058 A  
HETATM   24  C   UNL     1      -7.563   4.588  64.501  1.00  0.00    -0.073 A  
HETATM   25  C   UNL     1      -7.755   4.930  65.844  1.00  0.00    -0.091 A  
HETATM   26  N   UNL     1      -8.117   6.097  66.465  1.00  0.00    -0.108 NA 
ENDBRANCH  15  17
ENDBRANCH  14  15
ENDBRANCH   7  14
TORSDOF 5
ENDMDL
MODEL      253
REMARK 921   NORMALIZED FREE ENERGY PREDICTED BY IDOCK:   -3.05 KCAL/MOL
REMARK 922        TOTAL FREE ENERGY PREDICTED BY IDOCK:   -4.77 KCAL/MOL
REMARK 923 INTER-LIGAND FREE ENERGY PREDICTED BY IDOCK:   -4.37 KCAL/MOL
REMARK 924 INTRA-LIGAND FREE ENERGY PREDICTED BY IDOCK:   -0.40 KCAL/MOL
REMARK 927      BINDING AFFINITY PREDICTED BY RF-SCORE:    0.00 PKD
ROOT
HETATM    1  C   UNL     1      -6.963   7.294  65.889  1.00  0.00    -0.061 C  
HETATM    2  C   UNL     1      -8.432   7.161  66.162  1.00  0.00    -0.143 A  
HETATM    3  C   UNL     1      -9.109   5.933  66.010  1.00  0.00    -0.142 A  
HETATM    4  C   UNL     1     -10.423   5.811  66.464  1.00  0.00    -0.280 A  
HETATM    5  N   UNL     1     -10.475   8.149  67.019  1.00  0.00    -0.332 NA 
HETATM    6  C   UNL     1     -11.050   6.927  66.970  1.00  0.00    -0.245 A  
HETATM    7  C   UNL     1      -9.187   8.267  66.599  1.00  0.00    -0.179 A  
ENDROOT
BRANCH   3   8
HETATM    8  O   UNL     1      -8.592   4.761  65.512  1.00  0.00    -0.122 OA 
BRANCH   8   9
HETATM    9  C   UNL     1      -9.287   3.552  65.864  1.00  0.00    -0.157 C  
HETATM   10  C   UNL     1      -8.717   2.864  67.103  1.00  0.00    -0.123 C  
HETATM   11  F   UNL     1      -8.107   1.701  66.772  1.00  0.00    -0.067 F  
HETATM   12  F   UNL     1      -9.711   2.553  67.971  1.00  0.00    -0.263 F  
HETATM   13  F   UNL     1      -7.821   3.621  67.771  1.00  0.00    -0.074 F  
ENDBRANCH   8   9
ENDBRANCH   3   8
BRANCH   7  14
HETATM   14  C   UNL     1      -8.654   9.690  66.617  1.00  0.00    -0.130 C  
BRANCH  14  15
HETATM   15  S   UNL     1      -9.732  10.808  67.530  1.00  0.00    -0.168 S  
HETATM   16  O   UNL     1      -9.924  10.389  68.960  1.00  0.00    -0.193 OA 
BRANCH  15  17
HETATM   17  C   UNL     1      -8.750  12.240  67.585  1.00  0.00    -0.175 A  
HETATM   18  N   UNL     1      -8.895  13.307  66.829  1.00  0.00    -0.391 NA 
HETATM   19  C   UNL     1      -8.072  14.259  67.392  1.00  0.00    -0.196 A  
HETATM   20  H   UNL     1      -9.487  13.409  66.005  1.00  0.00     0.000 HD 
HETATM   21  C   UNL     1      -7.882  15.605  67.040  1.00  0.00    -0.266 A  
HETATM   22  C   UNL     1      -7.061  16.403  67.848  1.00  0.00    -0.149 A  
HETATM   23  C   UNL     1      -6.429  15.871  68.973  1.00  0.00    -0.137 A  
HETATM   24  C   UNL     1      -6.569  14.519  69.317  1.00  0.00    -0.125 A  
HETATM   25  C   UNL     1      -7.399  13.746  68.497  1.00  0.00    -0.117 A  
HETATM   26  N   UNL     1      -7.777  12.429  68.534  1.00  0.00    -0.134 NA 
ENDBRANCH  15  17
ENDBRANCH  14  15
ENDBRANCH   7  14
TORSDOF 5
ENDMDL
MODEL      254
REMARK 921   NORMALIZED FREE ENERGY PREDICTED BY IDOCK:   -2.82 KCAL/MOL
REMARK 922        TOTAL FREE ENERGY PREDICTED BY IDOCK:   -4.47 KCAL/MOL
REMARK 923 INTER-LIGAND FREE ENERGY PREDICTED BY IDOCK:   -4.29 KCAL/MOL
REMARK 924 INTRA-LIGAND FREE ENERGY PREDICTED BY IDOCK:   -0.18 KCAL/MOL
REMARK 927      BINDING AFFINITY PREDICTED BY RF-SCORE:    0.00 PKD
ROOT
HETATM    1  C   UNL     1      -8.492   4.182  68.276  1.00  0.00    -0.104 C  
HETATM    2  C   UNL     1      -9.645   5.031  68.723  1.00  0.00    -0.209 A  
HETATM    3  C   UNL     1      -9.957   5.204  70.088  1.00  0.00    -0.253 A  
HETATM    4  C   UNL     1     -10.908   6.154  70.461  1.00  0.00    -0.364 A  
HETATM    5  N   UNL     1     -11.395   6.612  68.152  1.00  0.00    -0.102 NA 
HETATM    6  C   UNL     1     -11.579   6.836  69.472  1.00  0.00    -0.123 A  
HETATM    7  C   UNL     1     -10.452   5.702  67.784  1.00  0.00    -0.211 A  
ENDROOT
BRANCH   3   8
HETATM    8  O   UNL     1      -9.365   4.575  71.157  1.00  0.00    -0.132 OA 
BRANCH   8   9
HETATM    9  C   UNL     1     -10.224   4.233  72.257  1.00  0.00    -0.175 C  
HETATM   10  C   UNL     1     -10.036   5.136  73.475  1.00  0.00    -0.180 C  
HETATM   11  F   UNL     1      -9.463   4.456  74.497  1.00  0.00    -0.112 F  
HETATM   12  F   UNL     1     -11.235   5.582  73.923  1.00  0.00    -0.262 F  
HETATM   13  F   UNL     1      -9.272   6.220  73.225  1.00  0.00    -0.133 F  
ENDBRANCH   8   9
ENDBRANCH   3   8
BRANCH   7  14
HETATM   14  C   UNL     1     -10.372   5.460  66.286  1.00  0.00    -0.200 C  
BRANCH  14  15
HETATM   15  S   UNL     1      -8.743   5.845  65.620  1.00  0.00    -0.118 S  
HETATM   16  O   UNL     1      -8.637   5.563  64.148  1.00  0.00    -0.103 OA 
BRANCH  15  17
HETATM   17  C   UNL     1      -8.726   7.575  65.773  1.00  0.00    -0.118 A  
HETATM   18  N   UNL     1      -9.733   8.327  66.163  1.00  0.00    -0.438 NA 
HETATM   19  C   UNL     1      -9.188   9.576  66.370  1.00  0.00    -0.166 A  
HETATM   20  H   UNL     1     -10.706   8.047  66.285  1.00  0.00     0.000 HD 
HETATM   21  C   UNL     1      -9.787  10.749  66.856  1.00  0.00    -0.224 A  
HETATM   22  C   UNL     1      -8.982  11.874  67.080  1.00  0.00    -0.178 A  
HETATM   23  C   UNL     1      -7.613  11.838  66.813  1.00  0.00    -0.072 A  
HETATM   24  C   UNL     1      -7.003  10.692  66.285  1.00  0.00    -0.133 A  
HETATM   25  C   UNL     1      -7.828   9.582  66.076  1.00  0.00    -0.100 A  
HETATM   26  N   UNL     1      -7.585   8.318  65.603  1.00  0.00    -0.080 NA 
ENDBRANCH  15  17
ENDBRANCH  14  15
ENDBRANCH   7  14
TORSDOF 5
ENDMDL
MODEL      255
REMARK 921   NORMALIZED FREE ENERGY PREDICTED BY IDOCK:   -2.80 KCAL/MOL
REMARK 922        TOTAL FREE ENERGY PREDICTED BY IDOCK:   -4.45 KCAL/MOL
REMARK 923 INTER-LIGAND FREE ENERGY PREDICTED BY IDOCK:   -4.42 KCAL/MOL
REMARK 924 INTRA-LIGAND FREE ENERGY PREDICTED BY IDOCK:   -0.03 KCAL/MOL
REMARK 927      BINDING AFFINITY PREDICTED BY RF-SCORE:    0.00 PKD
ROOT
HETATM    1  C   UNL     1      -8.393   9.147  70.572  1.00  0.00    -0.222 C  
HETATM    2  C   UNL     1      -9.770   8.583  70.765  1.00  0.00    -0.221 A  
HETATM    3  C   UNL     1      -9.977   7.245  71.164  1.00  0.00    -0.186 A  
HETATM    4  C   UNL     1     -11.258   6.826  71.521  1.00  0.00    -0.300 A  
HETATM    5  N   UNL     1     -12.162   8.963  70.895  1.00  0.00    -0.202 NA 
HETATM    6  C   UNL     1     -12.302   7.712  71.389  1.00  0.00    -0.333 A  
HETATM    7  C   UNL     1     -10.911   9.383  70.567  1.00  0.00    -0.277 A  
ENDROOT
BRANCH   3   8
HETATM    8  O   UNL     1      -9.019   6.273  71.323  1.00  0.00    -0.139 OA 
BRANCH   8   9
HETATM    9  C   UNL     1      -8.642   5.545  70.142  1.00  0.00    -0.121 C  
HETATM   10  C   UNL     1      -7.166   5.703  69.779  1.00  0.00    -0.069 C  
HETATM   11  F   UNL     1      -7.021   6.429  68.645  1.00  0.00    -0.067 F  
HETATM   12  F   UNL     1      -6.605   4.491  69.544  1.00  0.00    -0.032 F  
HETATM   13  F   UNL     1      -6.438   6.302  70.745  1.00  0.00    -0.036 F  
ENDBRANCH   8   9
ENDBRANCH   3   8
BRANCH   7  14
HETATM   14  C   UNL     1     -10.863  10.771  69.947  1.00  0.00    -0.202 C  
BRANCH  14  15
HETATM   15  S   UNL     1      -9.680  10.870  68.592  1.00  0.00    -0.189 S  
HETATM   16  O   UNL     1     -10.263  10.431  67.279  1.00  0.00    -0.190 OA 
BRANCH  15  17
HETATM   17  C   UNL     1      -9.471  12.590  68.465  1.00  0.00    -0.097 A  
HETATM   18  N   UNL     1      -8.827  13.357  69.319  1.00  0.00     0.054 NA 
HETATM   19  C   UNL     1      -8.708  14.575  68.687  1.00  0.00    -0.172 A  
HETATM   20  H   UNL     1      -8.490  13.105  70.248  1.00  0.00     0.000 HD 
HETATM   21  C   UNL     1      -8.050  15.745  69.104  1.00  0.00    -0.237 A  
HETATM   22  C   UNL     1      -7.980  16.830  68.221  1.00  0.00    -0.200 A  
HETATM   23  C   UNL     1      -8.564  16.761  66.955  1.00  0.00    -0.240 A  
HETATM   24  C   UNL     1      -9.262  15.621  66.535  1.00  0.00    -0.325 A  
HETATM   25  C   UNL     1      -9.313  14.550  67.434  1.00  0.00    -0.197 A  
HETATM   26  N   UNL     1      -9.876  13.302  67.364  1.00  0.00    -0.223 NA 
ENDBRANCH  15  17
ENDBRANCH  14  15
ENDBRANCH   7  14
TORSDOF 5
ENDMDL
MODEL      256
REMARK 921   NORMALIZED FREE ENERGY PREDICTED BY IDOCK:   -2.54 KCAL/MOL
REMARK 922        TOTAL FREE ENERGY PREDICTED BY IDOCK:   -4.11 KCAL/MOL
REMARK 923 INTER-LIGAND FREE ENERGY PREDICTED BY IDOCK:   -4.30 KCAL/MOL
REMARK 924 INTRA-LIGAND FREE ENERGY PREDICTED BY IDOCK:    0.19 KCAL/MOL
REMARK 927      BINDING AFFINITY PREDICTED BY RF-SCORE:    0.00 PKD
ROOT
HETATM    1  C   UNL     1      -8.054  12.512  68.092  1.00  0.00    -0.167 C  
HETATM    2  C   UNL     1      -9.290  13.341  68.280  1.00  0.00    -0.205 A  
HETATM    3  C   UNL     1     -10.560  12.753  68.460  1.00  0.00    -0.252 A  
HETATM    4  C   UNL     1     -11.642  13.552  68.827  1.00  0.00    -0.362 A  
HETATM    5  N   UNL     1     -10.283  15.526  68.637  1.00  0.00    -0.211 NA 
HETATM    6  C   UNL     1     -11.453  14.913  68.920  1.00  0.00    -0.299 A  
HETATM    7  C   UNL     1      -9.219  14.747  68.300  1.00  0.00    -0.187 A  
ENDROOT
BRANCH   3   8
HETATM    8  O   UNL     1     -10.869  11.416  68.384  1.00  0.00    -0.183 OA 
BRANCH   8   9
HETATM    9  C   UNL     1      -9.793  10.494  68.623  1.00  0.00    -0.178 C  
HETATM   10  C   UNL     1      -9.894   9.782  69.971  1.00  0.00    -0.251 C  
HETATM   11  F   UNL     1      -8.918  10.201  70.813  1.00  0.00     0.042 F  
HETATM   12  F   UNL     1      -9.730   8.446  69.814  1.00  0.00    -0.173 F  
HETATM   13  F   UNL     1     -11.078   9.972  70.590  1.00  0.00    -0.307 F  
ENDBRANCH   8   9
ENDBRANCH   3   8
BRANCH   7  14
HETATM   14  C   UNL     1      -7.971  15.528  67.923  1.00  0.00    -0.136 C  
BRANCH  14  15
HETATM   15  S   UNL     1      -7.610  16.843  69.101  1.00  0.00    -0.084 S  
HETATM   16  O   UNL     1      -6.380  16.568  69.918  1.00  0.00    -0.206 OA 
BRANCH  15  17
HETATM   17  C   UNL     1      -7.183  18.139  68.026  1.00  0.00    -0.228 A  
HETATM   18  N   UNL     1      -5.961  18.530  67.733  1.00  0.00    -0.183 NA 
HETATM   19  C   UNL     1      -6.108  19.397  66.671  1.00  0.00    -0.161 A  
HETATM   20  H   UNL     1      -5.093  18.253  68.191  1.00  0.00     0.000 HD 
HETATM   21  C   UNL     1      -5.131  20.059  65.910  1.00  0.00    -0.175 A  
HETATM   22  C   UNL     1      -5.539  20.811  64.799  1.00  0.00    -0.264 A  
HETATM   23  C   UNL     1      -6.889  20.914  64.461  1.00  0.00     0.023 A  
HETATM   24  C   UNL     1      -7.883  20.297  65.233  1.00  0.00     0.358 A  
HETATM   25  C   UNL     1      -7.449  19.549  66.332  1.00  0.00    -0.266 A  
HETATM   26  N   UNL     1      -8.115  18.813  67.278  1.00  0.00    -0.242 NA 
ENDBRANCH  15  17
ENDBRANCH  14  15
ENDBRANCH   7  14
TORSDOF 5
ENDMDL
MODEL      257
REMARK 921   NORMALIZED FREE ENERGY PREDICTED BY IDOCK:   -2.51 KCAL/MOL
REMARK 922        TOTAL FREE ENERGY PREDICTED BY IDOCK:   -4.07 KCAL/MOL
REMARK 923 INTER-LIGAND FREE ENERGY PREDICTED BY IDOCK:   -4.84 KCAL/MOL
REMARK 924 INTRA-LIGAND FREE ENERGY PREDICTED BY IDOCK:    0.78 KCAL/MOL
REMARK 927      BINDING AFFINITY PREDICTED BY RF-SCORE:    0.00 PKD
ROOT
HETATM    1  C   UNL     1      -8.402   9.151  70.547  1.00  0.00    -0.222 C  
HETATM    2  C   UNL     1      -9.773   8.596  70.798  1.00  0.00    -0.237 A  
HETATM    3  C   UNL     1      -9.967   7.314  71.355  1.00  0.00    -0.187 A  
HETATM    4  C   UNL     1     -11.245   6.924  71.752  1.00  0.00    -0.284 A  
HETATM    5  N   UNL     1     -12.171   8.957  70.867  1.00  0.00    -0.202 NA 
HETATM    6  C   UNL     1     -12.299   7.774  71.507  1.00  0.00    -0.320 A  
HETATM    7  C   UNL     1     -10.922   9.352  70.497  1.00  0.00    -0.274 A  
ENDROOT
BRANCH   3   8
HETATM    8  O   UNL     1      -8.998   6.381  71.636  1.00  0.00    -0.143 OA 
BRANCH   8   9
HETATM    9  C   UNL     1      -7.782   6.875  72.222  1.00  0.00    -0.093 C  
HETATM   10  C   UNL     1      -7.503   6.302  73.610  1.00  0.00    -0.090 C  
HETATM   11  F   UNL     1      -7.637   7.255  74.563  1.00  0.00    -0.119 F  
HETATM   12  F   UNL     1      -6.228   5.847  73.687  1.00  0.00    -0.056 F  
HETATM   13  F   UNL     1      -8.316   5.276  73.940  1.00  0.00    -0.109 F  
ENDBRANCH   8   9
ENDBRANCH   3   8
BRANCH   7  14
HETATM   14  C   UNL     1     -10.887  10.654  69.715  1.00  0.00    -0.261 C  
BRANCH  14  15
HETATM   15  S   UNL     1      -9.758  10.576  68.313  1.00  0.00    -0.158 S  
HETATM   16  O   UNL     1     -10.379   9.935  67.104  1.00  0.00    -0.216 OA 
BRANCH  15  17
HETATM   17  C   UNL     1      -9.599  12.261  67.924  1.00  0.00    -0.203 A  
HETATM   18  N   UNL     1      -8.940  13.158  68.626  1.00  0.00    -0.379 NA 
HETATM   19  C   UNL     1      -8.879  14.272  67.816  1.00  0.00    -0.185 A  
HETATM   20  H   UNL     1      -8.557  13.053  69.566  1.00  0.00     0.000 HD 
HETATM   21  C   UNL     1      -8.235  15.502  68.027  1.00  0.00    -0.146 A  
HETATM   22  C   UNL     1      -8.230  16.446  66.991  1.00  0.00    -0.231 A  
HETATM   23  C   UNL     1      -8.865  16.179  65.777  1.00  0.00    -0.001 A  
HETATM   24  C   UNL     1      -9.551  14.976  65.562  1.00  0.00    -0.209 A  
HETATM   25  C   UNL     1      -9.536  14.049  66.610  1.00  0.00    -0.287 A  
HETATM   26  N   UNL     1     -10.069  12.794  66.750  1.00  0.00    -0.232 NA 
ENDBRANCH  15  17
ENDBRANCH  14  15
ENDBRANCH   7  14
TORSDOF 5
ENDMDL
MODEL      258
REMARK 921   NORMALIZED FREE ENERGY PREDICTED BY IDOCK:   -2.44 KCAL/MOL
REMARK 922        TOTAL FREE ENERGY PREDICTED BY IDOCK:   -3.98 KCAL/MOL
REMARK 923 INTER-LIGAND FREE ENERGY PREDICTED BY IDOCK:   -3.52 KCAL/MOL
REMARK 924 INTRA-LIGAND FREE ENERGY PREDICTED BY IDOCK:   -0.46 KCAL/MOL
REMARK 927      BINDING AFFINITY PREDICTED BY RF-SCORE:    0.00 PKD
ROOT
HETATM    1  C   UNL     1      -7.772   3.570  67.756  1.00  0.00    -0.069 C  
HETATM    2  C   UNL     1      -8.967   4.403  68.115  1.00  0.00    -0.146 A  
HETATM    3  C   UNL     1      -9.309   4.674  69.457  1.00  0.00    -0.141 A  
HETATM    4  C   UNL     1     -10.304   5.610  69.737  1.00  0.00    -0.352 A  
HETATM    5  N   UNL     1     -10.771   5.855  67.392  1.00  0.00    -0.279 NA 
HETATM    6  C   UNL     1     -10.986   6.180  68.686  1.00  0.00    -0.336 A  
HETATM    7  C   UNL     1      -9.785   4.959  67.113  1.00  0.00    -0.175 A  
ENDROOT
BRANCH   3   8
HETATM    8  O   UNL     1      -8.709   4.162  70.582  1.00  0.00    -0.073 OA 
BRANCH   8   9
HETATM    9  C   UNL     1      -8.366   5.104  71.612  1.00  0.00    -0.117 C  
HETATM   10  C   UNL     1      -6.899   5.528  71.581  1.00  0.00    -0.066 C  
HETATM   11  F   UNL     1      -6.230   5.033  72.651  1.00  0.00    -0.025 F  
HETATM   12  F   UNL     1      -6.796   6.878  71.644  1.00  0.00    -0.060 F  
HETATM   13  F   UNL     1      -6.248   5.126  70.469  1.00  0.00    -0.019 F  
ENDBRANCH   8   9
ENDBRANCH   3   8
BRANCH   7  14
HETATM   14  C   UNL     1      -9.670   4.598  65.641  1.00  0.00    -0.192 C  
BRANCH  14  15
HETATM   15  S   UNL     1      -8.051   5.007  64.965  1.00  0.00    -0.120 S  
HETATM   16  O   UNL     1      -7.975   4.799  63.479  1.00  0.00    -0.080 OA 
BRANCH  15  17
HETATM   17  C   UNL     1      -8.020   6.727  65.204  1.00  0.00    -0.128 A  
HETATM   18  N   UNL     1      -8.976   7.450  65.747  1.00  0.00    -0.354 NA 
HETATM   19  C   UNL     1      -8.412   8.691  65.953  1.00  0.00    -0.146 A  
HETATM   20  H   UNL     1      -9.927   7.157  65.967  1.00  0.00     0.000 HD 
HETATM   21  C   UNL     1      -8.953   9.833  66.567  1.00  0.00    -0.172 A  
HETATM   22  C   UNL     1      -8.129  10.951  66.754  1.00  0.00    -0.142 A  
HETATM   23  C   UNL     1      -6.800  10.940  66.327  1.00  0.00    -0.123 A  
HETATM   24  C   UNL     1      -6.254   9.827  65.673  1.00  0.00    -0.072 A  
HETATM   25  C   UNL     1      -7.096   8.723  65.504  1.00  0.00    -0.083 A  
HETATM   26  N   UNL     1      -6.908   7.487  64.942  1.00  0.00    -0.047 NA 
ENDBRANCH  15  17
ENDBRANCH  14  15
ENDBRANCH   7  14
TORSDOF 5
ENDMDL
MODEL      259
REMARK 921   NORMALIZED FREE ENERGY PREDICTED BY IDOCK:   -2.13 KCAL/MOL
REMARK 922        TOTAL FREE ENERGY PREDICTED BY IDOCK:   -3.58 KCAL/MOL
REMARK 923 INTER-LIGAND FREE ENERGY PREDICTED BY IDOCK:   -2.57 KCAL/MOL
REMARK 924 INTRA-LIGAND FREE ENERGY PREDICTED BY IDOCK:   -1.01 KCAL/MOL
REMARK 927      BINDING AFFINITY PREDICTED BY RF-SCORE:    0.00 PKD
ROOT
HETATM    1  C   UNL     1      -8.248   7.053  69.044  1.00  0.00    -0.125 C  
HETATM    2  C   UNL     1      -8.327   7.844  67.771  1.00  0.00    -0.129 A  
HETATM    3  C   UNL     1      -7.401   8.866  67.472  1.00  0.00    -0.081 A  
HETATM    4  C   UNL     1      -7.393   9.434  66.198  1.00  0.00    -0.096 A  
HETATM    5  N   UNL     1      -9.331   8.152  65.585  1.00  0.00     0.006 NA 
HETATM    6  C   UNL     1      -8.353   9.039  65.295  1.00  0.00    -0.149 A  
HETATM    7  C   UNL     1      -9.329   7.579  66.819  1.00  0.00    -0.165 A  
ENDROOT
BRANCH   3   8
HETATM    8  O   UNL     1      -6.409   9.348  68.292  1.00  0.00    -0.053 OA 
BRANCH   8   9
HETATM    9  C   UNL     1      -6.185  10.768  68.262  1.00  0.00    -0.053 C  
HETATM   10  C   UNL     1      -7.079  11.541  69.229  1.00  0.00    -0.077 C  
HETATM   11  F   UNL     1      -7.994  12.281  68.556  1.00  0.00    -0.130 F  
HETATM   12  F   UNL     1      -6.341  12.407  69.967  1.00  0.00    -0.135 F  
HETATM   13  F   UNL     1      -7.749  10.748  70.091  1.00  0.00    -0.075 F  
ENDBRANCH   8   9
ENDBRANCH   3   8
BRANCH   7  14
HETATM   14  C   UNL     1     -10.509   6.657  67.079  1.00  0.00    -0.298 C  
BRANCH  14  15
HETATM   15  S   UNL     1     -10.352   5.088  66.208  1.00  0.00    -0.279 S  
HETATM   16  O   UNL     1      -9.469   5.183  64.997  1.00  0.00    -0.046 OA 
BRANCH  15  17
HETATM   17  C   UNL     1      -9.460   4.155  67.371  1.00  0.00    -0.187 A  
HETATM   18  N   UNL     1      -8.256   3.654  67.201  1.00  0.00    -0.091 NA 
HETATM   19  C   UNL     1      -7.866   3.225  68.451  1.00  0.00    -0.058 A  
HETATM   20  H   UNL     1      -7.725   3.595  66.332  1.00  0.00     0.000 HD 
HETATM   21  C   UNL     1      -6.646   2.671  68.872  1.00  0.00    -0.029 A  
HETATM   22  C   UNL     1      -6.458   2.415  70.237  1.00  0.00    -0.028 A  
HETATM   23  C   UNL     1      -7.466   2.688  71.162  1.00  0.00    -0.033 A  
HETATM   24  C   UNL     1      -8.707   3.199  70.758  1.00  0.00    -0.129 A  
HETATM   25  C   UNL     1      -8.867   3.451  69.391  1.00  0.00    -0.097 A  
HETATM   26  N   UNL     1      -9.907   3.954  68.653  1.00  0.00    -0.032 NA 
ENDBRANCH  15  17
ENDBRANCH  14  15
ENDBRANCH   7  14
TORSDOF 5
ENDMDL
MODEL      260
REMARK 921   NORMALIZED FREE ENERGY PREDICTED BY IDOCK:   -2.12 KCAL/MOL
REMARK 922        TOTAL FREE ENERGY PREDICTED BY IDOCK:   -3.56 KCAL/MOL
REMARK 923 INTER-LIGAND FREE ENERGY PREDICTED BY IDOCK:   -3.99 KCAL/MOL
REMARK 924 INTRA-LIGAND FREE ENERGY PREDICTED BY IDOCK:    0.43 KCAL/MOL
REMARK 927      BINDING AFFINITY PREDICTED BY RF-SCORE:    0.00 PKD
ROOT
HETATM    1  C   UNL     1      -6.161   7.148  65.739  1.00  0.00    -0.037 C  
HETATM    2  C   UNL     1      -7.636   7.016  65.982  1.00  0.00    -0.096 A  
HETATM    3  C   UNL     1      -8.290   5.767  65.924  1.00  0.00    -0.130 A  
HETATM    4  C   UNL     1      -9.614   5.665  66.349  1.00  0.00    -0.175 A  
HETATM    5  N   UNL     1      -9.717   8.042  66.689  1.00  0.00    -0.229 NA 
HETATM    6  C   UNL     1     -10.272   6.811  66.734  1.00  0.00    -0.202 A  
HETATM    7  C   UNL     1      -8.418   8.143  66.295  1.00  0.00    -0.131 A  
ENDROOT
BRANCH   3   8
HETATM    8  O   UNL     1      -7.742   4.564  65.549  1.00  0.00    -0.088 OA 
BRANCH   8   9
HETATM    9  C   UNL     1      -8.043   3.433  66.384  1.00  0.00    -0.092 C  
HETATM   10  C   UNL     1      -7.018   3.211  67.495  1.00  0.00    -0.050 C  
HETATM   11  F   UNL     1      -6.297   2.087  67.269  1.00  0.00    -0.023 F  
HETATM   12  F   UNL     1      -7.641   3.046  68.687  1.00  0.00    -0.048 F  
HETATM   13  F   UNL     1      -6.148   4.234  67.634  1.00  0.00    -0.027 F  
ENDBRANCH   8   9
ENDBRANCH   3   8
BRANCH   7  14
HETATM   14  C   UNL     1      -7.907   9.571  66.199  1.00  0.00    -0.100 C  
BRANCH  14  15
HETATM   15  S   UNL     1      -8.966  10.734  67.078  1.00  0.00    -0.142 S  
HETATM   16  O   UNL     1     -10.315  10.889  66.435  1.00  0.00    -0.237 OA 
BRANCH  15  17
HETATM   17  C   UNL     1      -9.245   9.869  68.559  1.00  0.00    -0.136 A  
HETATM   18  N   UNL     1      -8.336   9.566  69.461  1.00  0.00    -0.131 NA 
HETATM   19  C   UNL     1      -9.050   9.117  70.550  1.00  0.00    -0.241 A  
HETATM   20  H   UNL     1      -7.323   9.646  69.373  1.00  0.00     0.000 HD 
HETATM   21  C   UNL     1      -8.599   8.725  71.822  1.00  0.00    -0.198 A  
HETATM   22  C   UNL     1      -9.545   8.408  72.805  1.00  0.00    -0.308 A  
HETATM   23  C   UNL     1     -10.912   8.465  72.527  1.00  0.00    -0.388 A  
HETATM   24  C   UNL     1     -11.383   8.810  71.253  1.00  0.00    -0.357 A  
HETATM   25  C   UNL     1     -10.417   9.128  70.291  1.00  0.00    -0.218 A  
HETATM   26  N   UNL     1     -10.503   9.517  68.980  1.00  0.00    -0.208 NA 
ENDBRANCH  15  17
ENDBRANCH  14  15
ENDBRANCH   7  14
TORSDOF 5
ENDMDL
MODEL      261
REMARK 921   NORMALIZED FREE ENERGY PREDICTED BY IDOCK:   -1.69 KCAL/MOL
REMARK 922        TOTAL FREE ENERGY PREDICTED BY IDOCK:   -3.01 KCAL/MOL
REMARK 923 INTER-LIGAND FREE ENERGY PREDICTED BY IDOCK:   -2.83 KCAL/MOL
REMARK 924 INTRA-LIGAND FREE ENERGY PREDICTED BY IDOCK:   -0.18 KCAL/MOL
REMARK 927      BINDING AFFINITY PREDICTED BY RF-SCORE:    0.00 PKD
ROOT
HETATM    1  C   UNL     1      -6.440  12.429  70.205  1.00  0.00     0.307 C  
HETATM    2  C   UNL     1      -7.097  11.921  68.956  1.00  0.00    -0.092 A  
HETATM    3  C   UNL     1      -7.295  12.748  67.830  1.00  0.00    -0.120 A  
HETATM    4  C   UNL     1      -7.725  12.184  66.630  1.00  0.00     0.122 A  
HETATM    5  N   UNL     1      -7.967  10.042  67.692  1.00  0.00    -0.105 NA 
HETATM    6  C   UNL     1      -8.028  10.842  66.605  1.00  0.00    -0.139 A  
HETATM    7  C   UNL     1      -7.526  10.584  68.860  1.00  0.00    -0.104 A  
ENDROOT
BRANCH   3   8
HETATM    8  O   UNL     1      -7.039  14.095  67.740  1.00  0.00    -0.141 OA 
BRANCH   8   9
HETATM    9  C   UNL     1      -7.541  14.917  68.807  1.00  0.00    -0.135 C  
HETATM   10  C   UNL     1      -7.063  16.366  68.730  1.00  0.00    -0.180 C  
HETATM   11  F   UNL     1      -6.198  16.644  69.735  1.00  0.00    -0.195 F  
HETATM   12  F   UNL     1      -8.110  17.217  68.868  1.00  0.00    -0.253 F  
HETATM   13  F   UNL     1      -6.450  16.668  67.566  1.00  0.00    -0.127 F  
ENDBRANCH   8   9
ENDBRANCH   3   8
BRANCH   7  14
HETATM   14  C   UNL     1      -7.568   9.630  70.043  1.00  0.00    -0.147 C  
BRANCH  14  15
HETATM   15  S   UNL     1      -9.230   9.012  70.361  1.00  0.00    -0.229 S  
HETATM   16  O   UNL     1     -10.283   9.764  69.598  1.00  0.00    -0.202 OA 
BRANCH  15  17
HETATM   17  C   UNL     1      -9.143   7.441  69.624  1.00  0.00    -0.140 A  
HETATM   18  N   UNL     1      -8.644   7.171  68.437  1.00  0.00    -0.124 NA 
HETATM   19  C   UNL     1      -8.559   5.796  68.389  1.00  0.00    -0.112 A  
HETATM   20  H   UNL     1      -8.377   7.834  67.709  1.00  0.00     0.000 HD 
HETATM   21  C   UNL     1      -8.036   4.961  67.388  1.00  0.00    -0.095 A  
HETATM   22  C   UNL     1      -7.966   3.583  67.629  1.00  0.00    -0.081 A  
HETATM   23  C   UNL     1      -8.421   3.043  68.833  1.00  0.00    -0.098 A  
HETATM   24  C   UNL     1      -8.987   3.852  69.827  1.00  0.00    -0.167 A  
HETATM   25  C   UNL     1      -9.040   5.225  69.564  1.00  0.00    -0.112 A  
HETATM   26  N   UNL     1      -9.496   6.295  70.290  1.00  0.00    -0.160 NA 
ENDBRANCH  15  17
ENDBRANCH  14  15
ENDBRANCH   7  14
TORSDOF 5
ENDMDL
MODEL      262
REMARK 921   NORMALIZED FREE ENERGY PREDICTED BY IDOCK:   -1.53 KCAL/MOL
REMARK 922        TOTAL FREE ENERGY PREDICTED BY IDOCK:   -2.81 KCAL/MOL
REMARK 923 INTER-LIGAND FREE ENERGY PREDICTED BY IDOCK:   -2.92 KCAL/MOL
REMARK 924 INTRA-LIGAND FREE ENERGY PREDICTED BY IDOCK:    0.11 KCAL/MOL
REMARK 927      BINDING AFFINITY PREDICTED BY RF-SCORE:    0.00 PKD
ROOT
HETATM    1  C   UNL     1      -8.927  15.624  69.908  1.00  0.00     0.164 C  
HETATM    2  C   UNL     1      -9.185  16.033  68.488  1.00  0.00    -0.206 A  
HETATM    3  C   UNL     1      -8.529  15.412  67.404  1.00  0.00    -0.181 A  
HETATM    4  C   UNL     1      -8.944  15.685  66.101  1.00  0.00    -0.362 A  
HETATM    5  N   UNL     1     -10.499  17.328  66.913  1.00  0.00    -0.303 NA 
HETATM    6  C   UNL     1      -9.931  16.624  65.909  1.00  0.00    -0.295 A  
HETATM    7  C   UNL     1     -10.112  17.048  68.187  1.00  0.00    -0.308 A  
ENDROOT
BRANCH   3   8
HETATM    8  O   UNL     1      -7.529  14.471  67.473  1.00  0.00    -0.171 OA 
BRANCH   8   9
HETATM    9  C   UNL     1      -7.641  13.491  68.518  1.00  0.00    -0.129 C  
HETATM   10  C   UNL     1      -8.637  12.378  68.199  1.00  0.00    -0.185 C  
HETATM   11  F   UNL     1      -9.732  12.466  68.993  1.00  0.00    -0.077 F  
HETATM   12  F   UNL     1      -8.081  11.163  68.432  1.00  0.00    -0.111 F  
HETATM   13  F   UNL     1      -9.059  12.387  66.917  1.00  0.00    -0.184 F  
ENDBRANCH   8   9
ENDBRANCH   3   8
BRANCH   7  14
HETATM   14  C   UNL     1     -10.745  17.943  69.241  1.00  0.00     0.452 C  
BRANCH  14  15
HETATM   15  S   UNL     1     -10.744  19.677  68.750  1.00  0.00     0.670 S  
HETATM   16  O   UNL     1     -10.625  20.610  69.922  1.00  0.00     0.250 OA 
BRANCH  15  17
HETATM   17  C   UNL     1      -9.227  19.779  67.910  1.00  0.00    -0.340 A  
HETATM   18  N   UNL     1      -8.052  19.429  68.388  1.00  0.00    -0.333 NA 
HETATM   19  C   UNL     1      -7.204  19.447  67.302  1.00  0.00    -0.208 A  
HETATM   20  H   UNL     1      -7.819  19.194  69.353  1.00  0.00     0.000 HD 
HETATM   21  C   UNL     1      -5.847  19.092  67.214  1.00  0.00    -0.174 A  
HETATM   22  C   UNL     1      -5.230  19.095  65.956  1.00  0.00    -0.171 A  
HETATM   23  C   UNL     1      -5.942  19.457  64.811  1.00  0.00    -0.304 A  
HETATM   24  C   UNL     1      -7.283  19.856  64.882  1.00  0.00     0.269 A  
HETATM   25  C   UNL     1      -7.877  19.839  66.149  1.00  0.00    -0.335 A  
HETATM   26  N   UNL     1      -9.140  20.140  66.588  1.00  0.00    -0.344 NA 
ENDBRANCH  15  17
ENDBRANCH  14  15
ENDBRANCH   7  14
TORSDOF 5
ENDMDL
MODEL      263
REMARK 921   NORMALIZED FREE ENERGY PREDICTED BY IDOCK:   -1.35 KCAL/MOL
REMARK 922        TOTAL FREE ENERGY PREDICTED BY IDOCK:   -2.57 KCAL/MOL
REMARK 923 INTER-LIGAND FREE ENERGY PREDICTED BY IDOCK:   -2.46 KCAL/MOL
REMARK 924 INTRA-LIGAND FREE ENERGY PREDICTED BY IDOCK:   -0.11 KCAL/MOL
REMARK 927      BINDING AFFINITY PREDICTED BY RF-SCORE:    0.00 PKD
ROOT
HETATM    1  C   UNL     1      -7.737  10.290  70.346  1.00  0.00     0.301 C  
HETATM    2  C   UNL     1      -7.928  10.206  68.860  1.00  0.00    -0.110 A  
HETATM    3  C   UNL     1      -7.068  10.872  67.961  1.00  0.00    -0.077 A  
HETATM    4  C   UNL     1      -7.163  10.606  66.595  1.00  0.00    -0.128 A  
HETATM    5  N   UNL     1      -9.075   9.200  66.974  1.00  0.00    -0.122 NA 
HETATM    6  C   UNL     1      -8.157   9.761  66.157  1.00  0.00    -0.109 A  
HETATM    7  C   UNL     1      -8.972   9.439  68.310  1.00  0.00    -0.128 A  
ENDROOT
BRANCH   3   8
HETATM    8  O   UNL     1      -6.051  11.740  68.279  1.00  0.00    -0.049 OA 
BRANCH   8   9
HETATM    9  C   UNL     1      -6.289  13.132  68.015  1.00  0.00    -0.127 C  
HETATM   10  C   UNL     1      -6.565  13.949  69.276  1.00  0.00    -0.113 C  
HETATM   11  F   UNL     1      -7.856  14.357  69.315  1.00  0.00    -0.136 F  
HETATM   12  F   UNL     1      -5.799  15.068  69.291  1.00  0.00    -0.098 F  
HETATM   13  F   UNL     1      -6.314  13.274  70.417  1.00  0.00    -0.131 F  
ENDBRANCH   8   9
ENDBRANCH   3   8
BRANCH   7  14
HETATM   14  C   UNL     1     -10.093   8.833  69.139  1.00  0.00    -0.198 C  
BRANCH  14  15
HETATM   15  S   UNL     1     -10.563   7.195  68.552  1.00  0.00    -0.158 S  
HETATM   16  O   UNL     1      -9.986   6.876  67.202  1.00  0.00    -0.156 OA 
BRANCH  15  17
HETATM   17  C   UNL     1      -9.711   6.185  69.681  1.00  0.00    -0.152 A  
HETATM   18  N   UNL     1      -8.784   5.301  69.381  1.00  0.00    -0.100 NA 
HETATM   19  C   UNL     1      -8.232   4.938  70.590  1.00  0.00    -0.096 A  
HETATM   20  H   UNL     1      -8.530   4.958  68.455  1.00  0.00     0.000 HD 
HETATM   21  C   UNL     1      -7.156   4.078  70.865  1.00  0.00    -0.033 A  
HETATM   22  C   UNL     1      -6.711   3.957  72.188  1.00  0.00    -0.022 A  
HETATM   23  C   UNL     1      -7.332   4.664  73.219  1.00  0.00    -0.082 A  
HETATM   24  C   UNL     1      -8.434   5.493  72.973  1.00  0.00    -0.118 A  
HETATM   25  C   UNL     1      -8.855   5.601  71.643  1.00  0.00    -0.136 A  
HETATM   26  N   UNL     1      -9.859   6.312  71.039  1.00  0.00    -0.180 NA 
ENDBRANCH  15  17
ENDBRANCH  14  15
ENDBRANCH   7  14
TORSDOF 5
ENDMDL
MODEL      264
REMARK 921   NORMALIZED FREE ENERGY PREDICTED BY IDOCK:   -1.25 KCAL/MOL
REMARK 922        TOTAL FREE ENERGY PREDICTED BY IDOCK:   -2.44 KCAL/MOL
REMARK 923 INTER-LIGAND FREE ENERGY PREDICTED BY IDOCK:   -2.31 KCAL/MOL
REMARK 924 INTRA-LIGAND FREE ENERGY PREDICTED BY IDOCK:   -0.13 KCAL/MOL
REMARK 927      BINDING AFFINITY PREDICTED BY RF-SCORE:    0.00 PKD
ROOT
HETATM    1  C   UNL     1      -8.222  16.856  70.174  1.00  0.00     2.180 C  
HETATM    2  C   UNL     1      -8.048  17.530  68.845  1.00  0.00    -0.168 A  
HETATM    3  C   UNL     1      -6.822  18.112  68.461  1.00  0.00    -0.238 A  
HETATM    4  C   UNL     1      -6.649  18.548  67.148  1.00  0.00    -0.206 A  
HETATM    5  N   UNL     1      -8.944  18.037  66.649  1.00  0.00    -0.267 NA 
HETATM    6  C   UNL     1      -7.718  18.476  66.285  1.00  0.00    -0.254 A  
HETATM    7  C   UNL     1      -9.110  17.590  67.923  1.00  0.00    -0.261 A  
ENDROOT
BRANCH   3   8
HETATM    8  O   UNL     1      -5.693  18.247  69.235  1.00  0.00    -0.207 OA 
BRANCH   8   9
HETATM    9  C   UNL     1      -5.470  19.539  69.824  1.00  0.00    -0.215 C  
HETATM   10  C   UNL     1      -6.062  19.675  71.225  1.00  0.00    -0.007 C  
HETATM   11  F   UNL     1      -7.116  20.527  71.225  1.00  0.00    -0.089 F  
HETATM   12  F   UNL     1      -5.143  20.189  72.080  1.00  0.00    -0.324 F  
HETATM   13  F   UNL     1      -6.484  18.503  71.745  1.00  0.00     1.142 F  
ENDBRANCH   8   9
ENDBRANCH   3   8
BRANCH   7  14
HETATM   14  C   UNL     1     -10.538  17.193  68.262  1.00  0.00    -0.375 C  
BRANCH  14  15
HETATM   15  S   UNL     1     -10.744  15.405  68.346  1.00  0.00    -0.266 S  
HETATM   16  O   UNL     1      -9.434  14.672  68.399  1.00  0.00    -0.196 OA 
BRANCH  15  17
HETATM   17  C   UNL     1     -11.447  15.230  69.925  1.00  0.00    -0.304 A  
HETATM   18  N   UNL     1     -10.789  15.035  71.048  1.00  0.00    -0.554 NA 
HETATM   19  C   UNL     1     -11.723  15.211  72.045  1.00  0.00    -0.422 A  
HETATM   20  H   UNL     1      -9.802  14.804  71.157  1.00  0.00     0.000 HD 
HETATM   21  C   UNL     1     -11.564  15.189  73.441  1.00  0.00    -0.111 A  
HETATM   22  C   UNL     1     -12.663  15.508  74.250  1.00  0.00    -0.557 A  
HETATM   23  C   UNL     1     -13.898  15.826  73.684  1.00  0.00     0.563 A  
HETATM   24  C   UNL     1     -14.091  15.810  72.297  1.00  0.00    -0.453 A  
HETATM   25  C   UNL     1     -12.977  15.495  71.512  1.00  0.00    -0.472 A  
HETATM   26  N   UNL     1     -12.789  15.402  70.157  1.00  0.00    -0.247 NA 
ENDBRANCH  15  17
ENDBRANCH  14  15
ENDBRANCH   7  14
TORSDOF 5
ENDMDL
MODEL      265
REMARK 921   NORMALIZED FREE ENERGY PREDICTED BY IDOCK:   -0.45 KCAL/MOL
REMARK 922        TOTAL FREE ENERGY PREDICTED BY IDOCK:   -1.40 KCAL/MOL
REMARK 923 INTER-LIGAND FREE ENERGY PREDICTED BY IDOCK:   -1.97 KCAL/MOL
REMARK 924 INTRA-LIGAND FREE ENERGY PREDICTED BY IDOCK:    0.56 KCAL/MOL
REMARK 927      BINDING AFFINITY PREDICTED BY RF-SCORE:    0.00 PKD
ROOT
HETATM    1  C   UNL     1      -8.873  14.866  69.893  1.00  0.00     0.355 C  
HETATM    2  C   UNL     1      -9.037  14.556  68.435  1.00  0.00    -0.191 A  
HETATM    3  C   UNL     1     -10.308  14.492  67.826  1.00  0.00    -0.237 A  
HETATM    4  C   UNL     1     -10.402  14.398  66.438  1.00  0.00    -0.289 A  
HETATM    5  N   UNL     1      -8.011  14.220  66.262  1.00  0.00     1.056 NA 
HETATM    6  C   UNL     1      -9.242  14.284  65.706  1.00  0.00     0.222 A  
HETATM    7  C   UNL     1      -7.915  14.333  67.614  1.00  0.00    -0.180 A  
ENDROOT
BRANCH   3   8
HETATM    8  O   UNL     1     -11.529  14.585  68.451  1.00  0.00    -0.272 OA 
BRANCH   8   9
HETATM    9  C   UNL     1     -11.592  14.117  69.808  1.00  0.00    -0.290 C  
HETATM   10  C   UNL     1     -12.427  15.014  70.720  1.00  0.00    -0.352 C  
HETATM   11  F   UNL     1     -11.642  15.659  71.616  1.00  0.00    -0.346 F  
HETATM   12  F   UNL     1     -13.310  14.273  71.433  1.00  0.00    -0.365 F  
HETATM   13  F   UNL     1     -13.135  15.948  70.049  1.00  0.00    -0.214 F  
ENDBRANCH   8   9
ENDBRANCH   3   8
BRANCH   7  14
HETATM   14  C   UNL     1      -6.503  14.170  68.153  1.00  0.00    -0.126 C  
BRANCH  14  15
HETATM   15  S   UNL     1      -6.189  12.496  68.742  1.00  0.00    -0.081 S  
HETATM   16  O   UNL     1      -7.171  12.057  69.790  1.00  0.00     0.230 OA 
BRANCH  15  17
HETATM   17  C   UNL     1      -6.568  11.571  67.321  1.00  0.00    -0.113 A  
HETATM   18  N   UNL     1      -7.746  11.495  66.740  1.00  0.00    -0.206 NA 
HETATM   19  C   UNL     1      -7.510  10.868  65.535  1.00  0.00     0.095 A  
HETATM   20  H   UNL     1      -8.640  11.827  67.101  1.00  0.00     0.000 HD 
HETATM   21  C   UNL     1      -8.393  10.587  64.480  1.00  0.00    -0.108 A  
HETATM   22  C   UNL     1      -7.879  10.031  63.301  1.00  0.00    -0.150 A  
HETATM   23  C   UNL     1      -6.518   9.747  63.179  1.00  0.00    -0.115 A  
HETATM   24  C   UNL     1      -5.627   9.978  64.235  1.00  0.00    -0.108 A  
HETATM   25  C   UNL     1      -6.165  10.539  65.398  1.00  0.00    -0.110 A  
HETATM   26  N   UNL     1      -5.609  10.910  66.595  1.00  0.00    -0.071 NA 
ENDBRANCH  15  17
ENDBRANCH  14  15
ENDBRANCH   7  14
TORSDOF 5
ENDMDL
MODEL      266
REMARK 921   NORMALIZED FREE ENERGY PREDICTED BY IDOCK:    0.17 KCAL/MOL
REMARK 922        TOTAL FREE ENERGY PREDICTED BY IDOCK:   -0.61 KCAL/MOL
REMARK 923 INTER-LIGAND FREE ENERGY PREDICTED BY IDOCK:   -1.79 KCAL/MOL
REMARK 924 INTRA-LIGAND FREE ENERGY PREDICTED BY IDOCK:    1.18 KCAL/MOL
REMARK 927      BINDING AFFINITY PREDICTED BY RF-SCORE:    0.00 PKD
ROOT
HETATM    1  C   UNL     1      -7.015   6.117  68.750  1.00  0.00    -0.076 C  
HETATM    2  C   UNL     1      -7.482   6.899  67.558  1.00  0.00    -0.097 A  
HETATM    3  C   UNL     1      -6.902   8.136  67.206  1.00  0.00    -0.074 A  
HETATM    4  C   UNL     1      -7.230   8.727  65.986  1.00  0.00    -0.088 A  
HETATM    5  N   UNL     1      -8.847   7.002  65.555  1.00  0.00    -0.025 NA 
HETATM    6  C   UNL     1      -8.182   8.122  65.197  1.00  0.00    -0.154 A  
HETATM    7  C   UNL     1      -8.514   6.411  66.735  1.00  0.00    -0.112 A  
ENDROOT
BRANCH   3   8
HETATM    8  O   UNL     1      -5.954   8.835  67.914  1.00  0.00    -0.048 OA 
BRANCH   8   9
HETATM    9  C   UNL     1      -5.856  10.243  67.639  1.00  0.00    -0.045 C  
HETATM   10  C   UNL     1      -6.981  11.062  68.268  1.00  0.00    -0.069 C  
HETATM   11  F   UNL     1      -7.815  11.549  67.318  1.00  0.00    -0.123 F  
HETATM   12  F   UNL     1      -6.475  12.130  68.932  1.00  0.00    -0.065 F  
HETATM   13  F   UNL     1      -7.728  10.360  69.147  1.00  0.00    -0.085 F  
ENDBRANCH   8   9
ENDBRANCH   3   8
BRANCH   7  14
HETATM   14  C   UNL     1      -9.369   5.205  67.090  1.00  0.00    -0.124 C  
BRANCH  14  15
HETATM   15  S   UNL     1      -8.429   3.668  67.047  1.00  0.00    -0.109 S  
HETATM   16  O   UNL     1      -7.133   3.803  66.299  1.00  0.00    -0.061 OA 
BRANCH  15  17
HETATM   17  C   UNL     1      -7.994   3.503  68.720  1.00  0.00    -0.061 A  
HETATM   18  N   UNL     1      -8.657   3.996  69.745  1.00  0.00    -0.060 NA 
HETATM   19  C   UNL     1      -8.090   3.407  70.854  1.00  0.00    -0.060 A  
HETATM   20  H   UNL     1      -9.423   4.668  69.723  1.00  0.00     0.000 HD 
HETATM   21  C   UNL     1      -8.446   3.514  72.209  1.00  0.00    -0.090 A  
HETATM   22  C   UNL     1      -7.772   2.719  73.147  1.00  0.00    -0.051 A  
HETATM   23  C   UNL     1      -6.757   1.849  72.749  1.00  0.00    -0.018 A  
HETATM   24  C   UNL     1      -6.356   1.759  71.409  1.00  0.00    -0.018 A  
HETATM   25  C   UNL     1      -7.048   2.559  70.493  1.00  0.00    -0.033 A  
HETATM   26  N   UNL     1      -6.947   2.718  69.135  1.00  0.00    -0.040 NA 
ENDBRANCH  15  17
ENDBRANCH  14  15
ENDBRANCH   7  14
TORSDOF 5
ENDMDL
MODEL      267
REMARK 921   NORMALIZED FREE ENERGY PREDICTED BY IDOCK:    0.29 KCAL/MOL
REMARK 922        TOTAL FREE ENERGY PREDICTED BY IDOCK:   -0.45 KCAL/MOL
REMARK 923 INTER-LIGAND FREE ENERGY PREDICTED BY IDOCK:    0.41 KCAL/MOL
REMARK 924 INTRA-LIGAND FREE ENERGY PREDICTED BY IDOCK:   -0.86 KCAL/MOL
REMARK 927      BINDING AFFINITY PREDICTED BY RF-SCORE:    0.00 PKD
ROOT
HETATM    1  C   UNL     1      -9.371  14.240  70.424  1.00  0.00     2.204 C  
HETATM    2  C   UNL     1      -9.082  14.623  69.003  1.00  0.00    -0.097 A  
HETATM    3  C   UNL     1      -8.985  13.658  67.978  1.00  0.00    -0.188 A  
HETATM    4  C   UNL     1      -8.914  14.073  66.648  1.00  0.00    -0.177 A  
HETATM    5  N   UNL     1      -8.820  16.372  67.343  1.00  0.00    -0.182 NA 
HETATM    6  C   UNL     1      -8.852  15.422  66.382  1.00  0.00    -0.305 A  
HETATM    7  C   UNL     1      -8.912  15.972  68.640  1.00  0.00    -0.210 A  
ENDROOT
BRANCH   3   8
HETATM    8  O   UNL     1      -9.026  12.292  68.122  1.00  0.00    -0.183 OA 
BRANCH   8   9
HETATM    9  C   UNL     1      -8.962  11.517  66.914  1.00  0.00    -0.179 C  
HETATM   10  C   UNL     1     -10.242  10.734  66.629  1.00  0.00    -0.233 C  
HETATM   11  F   UNL     1     -10.039   9.403  66.778  1.00  0.00    -0.246 F  
HETATM   12  F   UNL     1     -10.641  10.929  65.348  1.00  0.00    -0.320 F  
HETATM   13  F   UNL     1     -11.273  11.082  67.428  1.00  0.00    -0.305 F  
ENDBRANCH   8   9
ENDBRANCH   3   8
BRANCH   7  14
HETATM   14  C   UNL     1      -8.787  17.102  69.650  1.00  0.00     0.819 C  
BRANCH  14  15
HETATM   15  S   UNL     1      -7.081  17.370  70.163  1.00  0.00     1.577 S  
HETATM   16  O   UNL     1      -6.360  16.088  70.471  1.00  0.00     0.092 OA 
BRANCH  15  17
HETATM   17  C   UNL     1      -6.383  17.961  68.686  1.00  0.00    -0.209 A  
HETATM   18  N   UNL     1      -5.981  17.225  67.672  1.00  0.00    -0.131 NA 
HETATM   19  C   UNL     1      -5.744  18.121  66.652  1.00  0.00    -0.147 A  
HETATM   20  H   UNL     1      -5.869  16.212  67.645  1.00  0.00     0.000 HD 
HETATM   21  C   UNL     1      -5.362  17.888  65.320  1.00  0.00    -0.048 A  
HETATM   22  C   UNL     1      -5.290  18.975  64.440  1.00  0.00    -0.271 A  
HETATM   23  C   UNL     1      -5.575  20.270  64.876  1.00  0.00    -0.222 A  
HETATM   24  C   UNL     1      -5.914  20.531  66.211  1.00  0.00    -0.230 A  
HETATM   25  C   UNL     1      -5.985  19.427  67.068  1.00  0.00    -0.177 A  
HETATM   26  N   UNL     1      -6.294  19.299  68.397  1.00  0.00    -0.228 NA 
ENDBRANCH  15  17
ENDBRANCH  14  15
ENDBRANCH   7  14
TORSDOF 5
ENDMDL
MODEL      268
REMARK 921   NORMALIZED FREE ENERGY PREDICTED BY IDOCK:    1.50 KCAL/MOL
REMARK 922        TOTAL FREE ENERGY PREDICTED BY IDOCK:    1.10 KCAL/MOL
REMARK 923 INTER-LIGAND FREE ENERGY PREDICTED BY IDOCK:   -1.50 KCAL/MOL
REMARK 924 INTRA-LIGAND FREE ENERGY PREDICTED BY IDOCK:    2.61 KCAL/MOL
REMARK 927      BINDING AFFINITY PREDICTED BY RF-SCORE:    0.00 PKD
ROOT
HETATM    1  C   UNL     1      -6.281   4.562  70.361  1.00  0.00    -0.022 C  
HETATM    2  C   UNL     1      -6.518   5.717  69.434  1.00  0.00    -0.045 A  
HETATM    3  C   UNL     1      -6.010   7.005  69.705  1.00  0.00    -0.023 A  
HETATM    4  C   UNL     1      -6.085   7.993  68.724  1.00  0.00    -0.040 A  
HETATM    5  N   UNL     1      -7.340   6.521  67.298  1.00  0.00    -0.085 NA 
HETATM    6  C   UNL     1      -6.735   7.704  67.546  1.00  0.00    -0.068 A  
HETATM    7  C   UNL     1      -7.250   5.547  68.244  1.00  0.00    -0.071 A  
ENDROOT
BRANCH   3   8
HETATM    8  O   UNL     1      -5.353   7.412  70.842  1.00  0.00    -0.026 OA 
BRANCH   8   9
HETATM    9  C   UNL     1      -6.144   8.094  71.830  1.00  0.00    -0.040 C  
HETATM   10  C   UNL     1      -6.581   7.192  72.983  1.00  0.00    -0.064 C  
HETATM   11  F   UNL     1      -7.917   6.971  72.943  1.00  0.00    -0.102 F  
HETATM   12  F   UNL     1      -6.317   7.785  74.173  1.00  0.00    -0.082 F  
HETATM   13  F   UNL     1      -5.967   5.991  72.986  1.00  0.00    -0.040 F  
ENDBRANCH   8   9
ENDBRANCH   3   8
BRANCH   7  14
HETATM   14  C   UNL     1      -8.027   4.283  67.911  1.00  0.00    -0.087 C  
BRANCH  14  15
HETATM   15  S   UNL     1      -7.029   2.797  68.115  1.00  0.00    -0.049 S  
HETATM   16  O   UNL     1      -5.563   3.098  68.251  1.00  0.00    -0.017 OA 
BRANCH  15  17
HETATM   17  C   UNL     1      -7.549   2.266  69.685  1.00  0.00    -0.043 A  
HETATM   18  N   UNL     1      -6.766   1.920  70.684  1.00  0.00    -0.028 NA 
HETATM   19  C   UNL     1      -7.600   1.821  71.776  1.00  0.00    -0.040 A  
HETATM   20  H   UNL     1      -5.759   1.759  70.657  1.00  0.00     0.000 HD 
HETATM   21  C   UNL     1      -7.295   1.549  73.120  1.00  0.00    -0.028 A  
HETATM   22  C   UNL     1      -8.322   1.611  74.070  1.00  0.00    -0.046 A  
HETATM   23  C   UNL     1      -9.629   1.922  73.691  1.00  0.00    -0.097 A  
HETATM   24  C   UNL     1      -9.964   2.152  72.350  1.00  0.00    -0.215 A  
HETATM   25  C   UNL     1      -8.919   2.090  71.423  1.00  0.00    -0.076 A  
HETATM   26  N   UNL     1      -8.868   2.272  70.065  1.00  0.00    -0.067 NA 
ENDBRANCH  15  17
ENDBRANCH  14  15
ENDBRANCH   7  14
TORSDOF 5
ENDMDL
MODEL      269
REMARK 921   NORMALIZED FREE ENERGY PREDICTED BY IDOCK:    4.10 KCAL/MOL
REMARK 922        TOTAL FREE ENERGY PREDICTED BY IDOCK:    4.46 KCAL/MOL
REMARK 923 INTER-LIGAND FREE ENERGY PREDICTED BY IDOCK:   -0.47 KCAL/MOL
REMARK 924 INTRA-LIGAND FREE ENERGY PREDICTED BY IDOCK:    4.93 KCAL/MOL
REMARK 927      BINDING AFFINITY PREDICTED BY RF-SCORE:    0.00 PKD
ROOT
HETATM    1  C   UNL     1      -9.610  17.288  68.604  1.00  0.00    -0.284 C  
HETATM    2  C   UNL     1     -10.008  17.956  67.321  1.00  0.00    -0.325 A  
HETATM    3  C   UNL     1      -9.765  19.326  67.089  1.00  0.00    -0.330 A  
HETATM    4  C   UNL     1      -9.969  19.854  65.815  1.00  0.00    -0.394 A  
HETATM    5  N   UNL     1     -10.846  17.750  65.054  1.00  0.00    -0.698 NA 
HETATM    6  C   UNL     1     -10.488  19.035  64.838  1.00  0.00     1.974 A  
HETATM    7  C   UNL     1     -10.627  17.225  66.290  1.00  0.00    -0.184 A  
ENDROOT
BRANCH   3   8
HETATM    8  O   UNL     1      -9.261  20.239  67.984  1.00  0.00    -0.262 OA 
BRANCH   8   9
HETATM    9  C   UNL     1     -10.078  20.534  69.129  1.00  0.00     0.336 C  
HETATM   10  C   UNL     1      -9.491  20.017  70.441  1.00  0.00     1.169 C  
HETATM   11  F   UNL     1     -10.230  18.994  70.933  1.00  0.00     0.881 F  
HETATM   12  F   UNL     1      -9.500  20.995  71.381  1.00  0.00     0.882 F  
HETATM   13  F   UNL     1      -8.218  19.584  70.325  1.00  0.00     0.389 F  
ENDBRANCH   8   9
ENDBRANCH   3   8
BRANCH   7  14
HETATM   14  C   UNL     1     -11.134  15.802  66.459  1.00  0.00    -0.079 C  
BRANCH  14  15
HETATM   15  S   UNL     1     -10.066  14.822  67.531  1.00  0.00    -0.224 S  
HETATM   16  O   UNL     1      -8.816  15.554  67.928  1.00  0.00    -0.169 OA 
BRANCH  15  17
HETATM   17  C   UNL     1     -11.038  14.732  68.968  1.00  0.00    -0.256 A  
HETATM   18  N   UNL     1     -12.009  13.874  69.194  1.00  0.00    -0.348 NA 
HETATM   19  C   UNL     1     -12.308  14.015  70.531  1.00  0.00    -0.367 A  
HETATM   20  H   UNL     1     -12.446  13.240  68.524  1.00  0.00     0.000 HD 
HETATM   21  C   UNL     1     -13.218  13.302  71.329  1.00  0.00    -0.226 A  
HETATM   22  C   UNL     1     -13.260  13.567  72.704  1.00  0.00    -0.483 A  
HETATM   23  C   UNL     1     -12.426  14.531  73.273  1.00  0.00    -0.368 A  
HETATM   24  C   UNL     1     -11.543  15.285  72.488  1.00  0.00    -0.498 A  
HETATM   25  C   UNL     1     -11.517  14.997  71.119  1.00  0.00    -0.309 A  
HETATM   26  N   UNL     1     -10.788  15.504  70.076  1.00  0.00    -0.294 NA 
ENDBRANCH  15  17
ENDBRANCH  14  15
ENDBRANCH   7  14
TORSDOF 5
ENDMDL
MODEL      270
REMARK 921   NORMALIZED FREE ENERGY PREDICTED BY IDOCK:   18.70 KCAL/MOL
REMARK 922        TOTAL FREE ENERGY PREDICTED BY IDOCK:   23.34 KCAL/MOL
REMARK 923 INTER-LIGAND FREE ENERGY PREDICTED BY IDOCK:    8.12 KCAL/MOL
REMARK 924 INTRA-LIGAND FREE ENERGY PREDICTED BY IDOCK:   15.22 KCAL/MOL
REMARK 927      BINDING AFFINITY PREDICTED BY RF-SCORE:    0.00 PKD
ROOT
HETATM    1  C   UNL     1      -6.817  12.558  70.834  1.00  0.00     2.621 C  
HETATM    2  C   UNL     1      -7.856  12.495  69.754  1.00  0.00     1.545 A  
HETATM    3  C   UNL     1      -8.163  13.615  68.951  1.00  0.00     0.123 A  
HETATM    4  C   UNL     1      -8.987  13.456  67.837  1.00  0.00    -0.201 A  
HETATM    5  N   UNL     1      -9.374  11.157  68.417  1.00  0.00    -0.179 NA 
HETATM    6  C   UNL     1      -9.547  12.222  67.603  1.00  0.00    -0.191 A  
HETATM    7  C   UNL     1      -8.554  11.301  69.493  1.00  0.00     0.600 A  
ENDROOT
BRANCH   3   8
HETATM    8  O   UNL     1      -7.674  14.891  69.092  1.00  0.00    -0.147 OA 
BRANCH   8   9
HETATM    9  C   UNL     1      -7.433  15.341  70.436  1.00  0.00     0.630 C  
HETATM   10  C   UNL     1      -6.811  14.271  71.330  1.00  0.00     1.478 C  
HETATM   11  F   UNL     1      -7.692  13.854  72.271  1.00  0.00     3.769 F  
HETATM   12  F   UNL     1      -5.738  14.771  71.991  1.00  0.00    -0.068 F  
HETATM   13  F   UNL     1      -6.393  13.182  70.651  1.00  0.00    -0.102 F  
ENDBRANCH   8   9
ENDBRANCH   3   8
BRANCH   7  14
HETATM   14  C   UNL     1      -8.484  10.077  70.391  1.00  0.00     0.244 C  
BRANCH  14  15
HETATM   15  S   UNL     1     -10.110   9.360  70.692  1.00  0.00    -0.296 S  
HETATM   16  O   UNL     1     -11.225  10.203  70.141  1.00  0.00    -0.266 OA 
BRANCH  15  17
HETATM   17  C   UNL     1     -10.039   7.949  69.681  1.00  0.00    -0.197 A  
HETATM   18  N   UNL     1      -9.525   7.889  68.471  1.00  0.00    -0.148 NA 
HETATM   19  C   UNL     1      -9.466   6.545  68.175  1.00  0.00    -0.114 A  
HETATM   20  H   UNL     1      -9.234   8.668  67.881  1.00  0.00     0.000 HD 
HETATM   21  C   UNL     1      -8.941   5.896  67.045  1.00  0.00    -0.116 A  
HETATM   22  C   UNL     1      -8.901   4.495  67.030  1.00  0.00    -0.113 A  
HETATM   23  C   UNL     1      -9.386   3.754  68.109  1.00  0.00    -0.228 A  
HETATM   24  C   UNL     1      -9.954   4.381  69.227  1.00  0.00    -0.144 A  
HETATM   25  C   UNL     1      -9.977   5.779  69.218  1.00  0.00    -0.182 A  
HETATM   26  N   UNL     1     -10.425   6.708  70.121  1.00  0.00    -0.202 NA 
ENDBRANCH  15  17
ENDBRANCH  14  15
ENDBRANCH   7  14
TORSDOF 5
ENDMDL
