MODEL        1
REMARK 921   NORMALIZED FREE ENERGY PREDICTED BY IDOCK:   -5.92 KCAL/MOL
REMARK 922        TOTAL FREE ENERGY PREDICTED BY IDOCK:   -6.31 KCAL/MOL
REMARK 923 INTER-LIGAND FREE ENERGY PREDICTED BY IDOCK:   -6.27 KCAL/MOL
REMARK 924 INTRA-LIGAND FREE ENERGY PREDICTED BY IDOCK:   -0.05 KCAL/MOL
REMARK 927      BINDING AFFINITY PREDICTED BY RF-SCORE:    0.00 PKD
ROOT
HETATM    1  C   UNL     1     -11.688  12.399  70.024  1.00  0.00    -0.307 C  
HETATM    2  C   UNL     1     -12.161  12.463  68.525  1.00  0.00    -0.075 C  
HETATM    3  C   UNL     1     -11.969  10.981  70.530  1.00  0.00    -0.379 C  
HETATM    4  C   UNL     1     -12.295  13.498  70.912  1.00  0.00    -0.437 A  
HETATM    5  C   UNL     1     -11.668  14.758  70.967  1.00  0.00    -0.358 A  
HETATM    6  H   UNL     1     -12.092  11.375  66.759  1.00  0.00     0.000 HD 
HETATM    7  O   UNL     1     -13.078  10.494  70.712  1.00  0.00    -0.364 OA 
HETATM    8  C   UNL     1     -11.962  13.825  67.830  1.00  0.00    -0.391 C  
HETATM    9  C   UNL     1     -10.493  14.131  67.548  1.00  0.00    -0.249 C  
HETATM   10  C   UNL     1     -12.232  15.827  71.671  1.00  0.00    -0.523 A  
HETATM   11  C   UNL     1     -13.479  13.336  71.648  1.00  0.00    -0.350 A  
HETATM   12  C   UNL     1      -9.869  13.009  66.730  1.00  0.00    -0.243 C  
HETATM   13  C   UNL     1     -13.414  15.645  72.378  1.00  0.00    -0.604 A  
HETATM   14  C   UNL     1     -10.143  11.643  67.354  1.00  0.00    -0.198 C  
HETATM   15  C   UNL     1     -14.025  14.396  72.383  1.00  0.00    -0.585 A  
HETATM   16  N   UNL     1     -11.564  11.440  67.630  1.00  0.00    -0.541 NA 
ENDROOT
BRANCH   3  17
HETATM   17  O   UNL     1     -10.803  10.276  70.652  1.00  0.00    -0.291 OA 
HETATM   18  C   UNL     1     -10.873   9.196  71.586  1.00  0.00    -0.372 C  
ENDBRANCH   3  17
TORSDOF 1
ENDMDL
MODEL        2
REMARK 921   NORMALIZED FREE ENERGY PREDICTED BY IDOCK:   -5.86 KCAL/MOL
REMARK 922        TOTAL FREE ENERGY PREDICTED BY IDOCK:   -6.25 KCAL/MOL
REMARK 923 INTER-LIGAND FREE ENERGY PREDICTED BY IDOCK:   -6.20 KCAL/MOL
REMARK 924 INTRA-LIGAND FREE ENERGY PREDICTED BY IDOCK:   -0.05 KCAL/MOL
REMARK 927      BINDING AFFINITY PREDICTED BY RF-SCORE:    0.00 PKD
ROOT
HETATM    1  C   UNL     1     -11.521  12.119  66.750  1.00  0.00    -0.418 C  
HETATM    2  C   UNL     1      -9.979  11.954  66.491  1.00  0.00    -0.202 C  
HETATM    3  C   UNL     1     -12.064  13.074  65.682  1.00  0.00    -0.454 C  
HETATM    4  C   UNL     1     -11.867  12.545  68.185  1.00  0.00    -0.371 A  
HETATM    5  C   UNL     1     -11.999  11.558  69.181  1.00  0.00    -0.386 A  
HETATM    6  H   UNL     1      -8.619  11.664  64.951  1.00  0.00     0.000 HD 
HETATM    7  O   UNL     1     -11.808  14.269  65.596  1.00  0.00    -0.354 OA 
HETATM    8  C   UNL     1      -9.242  11.022  67.473  1.00  0.00    -0.149 C  
HETATM    9  C   UNL     1      -9.598   9.551  67.265  1.00  0.00    -0.192 C  
HETATM   10  C   UNL     1     -12.205  11.893  70.523  1.00  0.00    -0.426 A  
HETATM   11  C   UNL     1     -12.017  13.883  68.584  1.00  0.00    -0.401 A  
HETATM   12  C   UNL     1      -9.325   9.144  65.823  1.00  0.00    -0.309 C  
HETATM   13  C   UNL     1     -12.334  13.225  70.893  1.00  0.00    -0.413 A  
HETATM   14  C   UNL     1      -9.966  10.116  64.836  1.00  0.00    -0.288 C  
HETATM   15  C   UNL     1     -12.260  14.218  69.922  1.00  0.00    -0.407 A  
HETATM   16  N   UNL     1      -9.611  11.505  65.124  1.00  0.00    -0.230 NA 
ENDROOT
BRANCH   3  17
HETATM   17  O   UNL     1     -12.797  12.388  64.752  1.00  0.00    -0.728 OA 
HETATM   18  C   UNL     1     -12.349  12.576  63.408  1.00  0.00    -0.477 C  
ENDBRANCH   3  17
TORSDOF 1
ENDMDL
MODEL        3
REMARK 921   NORMALIZED FREE ENERGY PREDICTED BY IDOCK:   -5.80 KCAL/MOL
REMARK 922        TOTAL FREE ENERGY PREDICTED BY IDOCK:   -6.19 KCAL/MOL
REMARK 923 INTER-LIGAND FREE ENERGY PREDICTED BY IDOCK:   -6.14 KCAL/MOL
REMARK 924 INTRA-LIGAND FREE ENERGY PREDICTED BY IDOCK:   -0.05 KCAL/MOL
REMARK 927      BINDING AFFINITY PREDICTED BY RF-SCORE:    0.00 PKD
ROOT
HETATM    1  C   UNL     1     -11.454  15.617  68.921  1.00  0.00    -0.367 C  
HETATM    2  C   UNL     1     -10.448  14.444  68.632  1.00  0.00    -0.247 C  
HETATM    3  C   UNL     1     -10.714  16.930  68.649  1.00  0.00    -0.345 C  
HETATM    4  C   UNL     1     -12.095  15.553  70.317  1.00  0.00    -0.415 A  
HETATM    5  C   UNL     1     -13.251  14.770  70.505  1.00  0.00    -0.204 A  
HETATM    6  H   UNL     1      -9.027  13.836  67.247  1.00  0.00     0.000 HD 
HETATM    7  O   UNL     1      -9.785  17.377  69.311  1.00  0.00    -0.146 OA 
HETATM    8  C   UNL     1     -11.009  13.025  68.852  1.00  0.00    -0.271 C  
HETATM    9  C   UNL     1     -12.030  12.627  67.788  1.00  0.00    -0.303 C  
HETATM   10  C   UNL     1     -13.815  14.588  71.772  1.00  0.00    -0.525 A  
HETATM   11  C   UNL     1     -11.568  16.200  71.445  1.00  0.00    -0.495 A  
HETATM   12  C   UNL     1     -11.421  12.759  66.399  1.00  0.00    -0.409 C  
HETATM   13  C   UNL     1     -13.263  15.226  72.875  1.00  0.00    -0.610 A  
HETATM   14  C   UNL     1     -10.771  14.126  66.201  1.00  0.00    -0.297 C  
HETATM   15  C   UNL     1     -12.153  16.047  72.708  1.00  0.00    -0.635 A  
HETATM   16  N   UNL     1      -9.839  14.453  67.278  1.00  0.00    -0.243 NA 
ENDROOT
BRANCH   3  17
HETATM   17  O   UNL     1     -11.158  17.499  67.487  1.00  0.00    -0.181 OA 
HETATM   18  C   UNL     1     -10.709  18.842  67.291  1.00  0.00    -0.449 C  
ENDBRANCH   3  17
TORSDOF 1
ENDMDL
MODEL        4
REMARK 921   NORMALIZED FREE ENERGY PREDICTED BY IDOCK:   -5.78 KCAL/MOL
REMARK 922        TOTAL FREE ENERGY PREDICTED BY IDOCK:   -6.16 KCAL/MOL
REMARK 923 INTER-LIGAND FREE ENERGY PREDICTED BY IDOCK:   -6.07 KCAL/MOL
REMARK 924 INTRA-LIGAND FREE ENERGY PREDICTED BY IDOCK:   -0.10 KCAL/MOL
REMARK 927      BINDING AFFINITY PREDICTED BY RF-SCORE:    0.00 PKD
ROOT
HETATM    1  C   UNL     1     -11.264  12.821  68.416  1.00  0.00    -0.313 C  
HETATM    2  C   UNL     1     -12.154  13.037  67.138  1.00  0.00    -0.264 C  
HETATM    3  C   UNL     1     -11.423  11.358  68.841  1.00  0.00    -0.298 C  
HETATM    4  C   UNL     1     -11.550  13.822  69.547  1.00  0.00    -0.355 A  
HETATM    5  C   UNL     1     -10.898  15.071  69.538  1.00  0.00    -0.272 A  
HETATM    6  H   UNL     1     -12.640  12.136  65.333  1.00  0.00     0.000 HD 
HETATM    7  O   UNL     1     -12.443  10.853  69.294  1.00  0.00    -0.392 OA 
HETATM    8  C   UNL     1     -12.130  14.463  66.552  1.00  0.00    -0.395 C  
HETATM    9  C   UNL     1     -10.800  14.799  65.880  1.00  0.00    -0.331 C  
HETATM   10  C   UNL     1     -11.199  16.061  70.478  1.00  0.00    -0.397 A  
HETATM   11  C   UNL     1     -12.468  13.585  70.581  1.00  0.00    -0.405 A  
HETATM   12  C   UNL     1     -10.478  13.767  64.808  1.00  0.00    -0.448 C  
HETATM   13  C   UNL     1     -12.125  15.807  71.482  1.00  0.00    -0.517 A  
HETATM   14  C   UNL     1     -10.596  12.344  65.347  1.00  0.00    -0.284 C  
HETATM   15  C   UNL     1     -12.743  14.563  71.545  1.00  0.00    -0.409 A  
HETATM   16  N   UNL     1     -11.877  12.112  66.010  1.00  0.00    -0.561 NA 
ENDROOT
BRANCH   3  17
HETATM   17  O   UNL     1     -10.295  10.646  68.542  1.00  0.00    -0.167 OA 
HETATM   18  C   UNL     1     -10.546   9.435  67.824  1.00  0.00    -0.258 C  
ENDBRANCH   3  17
TORSDOF 1
ENDMDL
MODEL        5
REMARK 921   NORMALIZED FREE ENERGY PREDICTED BY IDOCK:   -5.74 KCAL/MOL
REMARK 922        TOTAL FREE ENERGY PREDICTED BY IDOCK:   -6.13 KCAL/MOL
REMARK 923 INTER-LIGAND FREE ENERGY PREDICTED BY IDOCK:   -6.01 KCAL/MOL
REMARK 924 INTRA-LIGAND FREE ENERGY PREDICTED BY IDOCK:   -0.12 KCAL/MOL
REMARK 927      BINDING AFFINITY PREDICTED BY RF-SCORE:    0.00 PKD
ROOT
HETATM    1  C   UNL     1     -11.313  13.362  69.388  1.00  0.00    -0.286 C  
HETATM    2  C   UNL     1     -11.775  14.025  68.040  1.00  0.00    -0.359 C  
HETATM    3  C   UNL     1     -11.543  11.853  69.257  1.00  0.00    -0.315 C  
HETATM    4  C   UNL     1     -11.967  13.975  70.637  1.00  0.00    -0.376 A  
HETATM    5  C   UNL     1     -11.388  15.118  71.223  1.00  0.00    -0.368 A  
HETATM    6  H   UNL     1     -11.652  13.768  65.984  1.00  0.00     0.000 HD 
HETATM    7  O   UNL     1     -12.635  11.300  69.196  1.00  0.00    -0.320 OA 
HETATM    8  C   UNL     1     -11.623  15.558  67.974  1.00  0.00    -0.276 C  
HETATM    9  C   UNL     1     -10.164  15.999  67.877  1.00  0.00    -0.258 C  
HETATM   10  C   UNL     1     -11.997  15.782  72.292  1.00  0.00    -0.592 A  
HETATM   11  C   UNL     1     -13.149  13.487  71.214  1.00  0.00    -0.339 A  
HETATM   12  C   UNL     1      -9.492  15.336  66.683  1.00  0.00    -0.281 C  
HETATM   13  C   UNL     1     -13.177  15.287  72.834  1.00  0.00    -0.610 A  
HETATM   14  C   UNL     1      -9.719  13.826  66.680  1.00  0.00    -0.289 C  
HETATM   15  C   UNL     1     -13.741  14.130  72.308  1.00  0.00    -0.623 A  
HETATM   16  N   UNL     1     -11.134  13.483  66.816  1.00  0.00    -0.295 NA 
ENDROOT
BRANCH   3  17
HETATM   17  O   UNL     1     -10.353  11.197  69.102  1.00  0.00    -0.211 OA 
HETATM   18  C   UNL     1     -10.416  10.086  68.205  1.00  0.00    -0.211 C  
ENDBRANCH   3  17
TORSDOF 1
ENDMDL
MODEL        6
REMARK 921   NORMALIZED FREE ENERGY PREDICTED BY IDOCK:   -5.66 KCAL/MOL
REMARK 922        TOTAL FREE ENERGY PREDICTED BY IDOCK:   -6.03 KCAL/MOL
REMARK 923 INTER-LIGAND FREE ENERGY PREDICTED BY IDOCK:   -5.94 KCAL/MOL
REMARK 924 INTRA-LIGAND FREE ENERGY PREDICTED BY IDOCK:   -0.09 KCAL/MOL
REMARK 927      BINDING AFFINITY PREDICTED BY RF-SCORE:    0.00 PKD
ROOT
HETATM    1  C   UNL     1     -11.363  14.511  67.365  1.00  0.00    -0.370 C  
HETATM    2  C   UNL     1      -9.950  15.199  67.411  1.00  0.00    -0.226 C  
HETATM    3  C   UNL     1     -11.518  13.700  68.655  1.00  0.00    -0.307 C  
HETATM    4  C   UNL     1     -11.610  13.687  66.091  1.00  0.00    -0.369 A  
HETATM    5  C   UNL     1     -12.099  14.334  64.939  1.00  0.00    -0.442 A  
HETATM    6  H   UNL     1      -8.697  16.236  68.700  1.00  0.00     0.000 HD 
HETATM    7  O   UNL     1     -10.883  12.695  68.948  1.00  0.00    -0.237 OA 
HETATM    8  C   UNL     1      -9.601  16.068  66.186  1.00  0.00    -0.366 C  
HETATM    9  C   UNL     1     -10.409  17.364  66.136  1.00  0.00    -0.329 C  
HETATM   10  C   UNL     1     -12.240  13.659  63.723  1.00  0.00    -0.413 A  
HETATM   11  C   UNL     1     -11.330  12.315  65.986  1.00  0.00    -0.398 A  
HETATM   12  C   UNL     1     -10.225  18.148  67.428  1.00  0.00    -0.383 C  
HETATM   13  C   UNL     1     -11.941  12.305  63.642  1.00  0.00    -0.633 A  
HETATM   14  C   UNL     1     -10.470  17.273  68.654  1.00  0.00    -0.356 C  
HETATM   15  C   UNL     1     -11.506  11.630  64.777  1.00  0.00    -0.225 A  
HETATM   16  N   UNL     1      -9.693  16.035  68.611  1.00  0.00    -0.209 NA 
ENDROOT
BRANCH   3  17
HETATM   17  O   UNL     1     -12.396  14.315  69.506  1.00  0.00    -0.318 OA 
HETATM   18  C   UNL     1     -12.193  13.989  70.883  1.00  0.00    -0.362 C  
ENDBRANCH   3  17
TORSDOF 1
ENDMDL
MODEL        7
REMARK 921   NORMALIZED FREE ENERGY PREDICTED BY IDOCK:   -5.65 KCAL/MOL
REMARK 922        TOTAL FREE ENERGY PREDICTED BY IDOCK:   -6.03 KCAL/MOL
REMARK 923 INTER-LIGAND FREE ENERGY PREDICTED BY IDOCK:   -5.93 KCAL/MOL
REMARK 924 INTRA-LIGAND FREE ENERGY PREDICTED BY IDOCK:   -0.10 KCAL/MOL
REMARK 927      BINDING AFFINITY PREDICTED BY RF-SCORE:    0.00 PKD
ROOT
HETATM    1  C   UNL     1     -10.414  14.873  66.267  1.00  0.00    -0.306 C  
HETATM    2  C   UNL     1     -11.658  15.074  67.207  1.00  0.00    -0.273 C  
HETATM    3  C   UNL     1     -10.295  16.126  65.394  1.00  0.00    -0.330 C  
HETATM    4  C   UNL     1     -10.452  13.565  65.459  1.00  0.00    -0.304 A  
HETATM    5  C   UNL     1      -9.960  12.383  66.046  1.00  0.00    -0.270 A  
HETATM    6  H   UNL     1     -12.562  16.502  68.412  1.00  0.00     0.000 HD 
HETATM    7  O   UNL     1     -11.080  16.462  64.515  1.00  0.00    -0.742 OA 
HETATM    8  C   UNL     1     -11.950  13.907  68.171  1.00  0.00    -0.385 C  
HETATM    9  C   UNL     1     -10.918  13.800  69.292  1.00  0.00    -0.205 C  
HETATM   10  C   UNL     1     -10.067  11.146  65.402  1.00  0.00    -0.317 A  
HETATM   11  C   UNL     1     -10.997  13.464  64.170  1.00  0.00    -0.329 A  
HETATM   12  C   UNL     1     -10.824  15.118  70.048  1.00  0.00    -0.275 C  
HETATM   13  C   UNL     1     -10.626  11.070  64.133  1.00  0.00    -0.412 A  
HETATM   14  C   UNL     1     -10.636  16.297  69.097  1.00  0.00    -0.292 C  
HETATM   15  C   UNL     1     -11.072  12.231  63.510  1.00  0.00    -0.533 A  
HETATM   16  N   UNL     1     -11.635  16.309  68.030  1.00  0.00    -0.126 NA 
ENDROOT
BRANCH   3  17
HETATM   17  O   UNL     1      -9.239  16.895  65.800  1.00  0.00    -0.527 OA 
HETATM   18  C   UNL     1      -8.197  16.156  66.442  1.00  0.00    -0.301 C  
ENDBRANCH   3  17
TORSDOF 1
ENDMDL
MODEL        8
REMARK 921   NORMALIZED FREE ENERGY PREDICTED BY IDOCK:   -5.61 KCAL/MOL
REMARK 922        TOTAL FREE ENERGY PREDICTED BY IDOCK:   -5.99 KCAL/MOL
REMARK 923 INTER-LIGAND FREE ENERGY PREDICTED BY IDOCK:   -5.88 KCAL/MOL
REMARK 924 INTRA-LIGAND FREE ENERGY PREDICTED BY IDOCK:   -0.11 KCAL/MOL
REMARK 927      BINDING AFFINITY PREDICTED BY RF-SCORE:    0.00 PKD
ROOT
HETATM    1  C   UNL     1     -11.513  12.753  66.759  1.00  0.00    -0.399 C  
HETATM    2  C   UNL     1     -10.006  12.397  66.488  1.00  0.00    -0.230 C  
HETATM    3  C   UNL     1     -12.075  13.367  65.473  1.00  0.00    -0.428 C  
HETATM    4  C   UNL     1     -11.729  13.631  68.002  1.00  0.00    -0.387 A  
HETATM    5  C   UNL     1     -11.845  13.015  69.264  1.00  0.00    -0.370 A  
HETATM    6  H   UNL     1      -8.779  11.537  65.051  1.00  0.00     0.000 HD 
HETATM    7  O   UNL     1     -11.758  14.452  65.002  1.00  0.00    -0.356 OA 
HETATM    8  C   UNL     1      -9.255  11.763  67.676  1.00  0.00    -0.180 C  
HETATM    9  C   UNL     1      -9.708  10.332  67.960  1.00  0.00    -0.167 C  
HETATM   10  C   UNL     1     -11.934  13.767  70.440  1.00  0.00    -0.385 A  
HETATM   11  C   UNL     1     -11.772  15.033  67.965  1.00  0.00    -0.320 A  
HETATM   12  C   UNL     1      -9.565   9.476  66.709  1.00  0.00    -0.229 C  
HETATM   13  C   UNL     1     -11.958  15.154  70.377  1.00  0.00    -0.364 A  
HETATM   14  C   UNL     1     -10.218  10.140  65.499  1.00  0.00    -0.218 C  
HETATM   15  C   UNL     1     -11.898  15.786  69.140  1.00  0.00    -0.367 A  
HETATM   16  N   UNL     1      -9.764  11.518  65.316  1.00  0.00    -0.236 NA 
ENDROOT
BRANCH   3  17
HETATM   17  O   UNL     1     -12.912  12.485  64.846  1.00  0.00    -0.821 OA 
HETATM   18  C   UNL     1     -12.649  12.330  63.449  1.00  0.00    -0.427 C  
ENDBRANCH   3  17
TORSDOF 1
ENDMDL
MODEL        9
REMARK 921   NORMALIZED FREE ENERGY PREDICTED BY IDOCK:   -5.55 KCAL/MOL
REMARK 922        TOTAL FREE ENERGY PREDICTED BY IDOCK:   -5.92 KCAL/MOL
REMARK 923 INTER-LIGAND FREE ENERGY PREDICTED BY IDOCK:   -5.87 KCAL/MOL
REMARK 924 INTRA-LIGAND FREE ENERGY PREDICTED BY IDOCK:   -0.05 KCAL/MOL
REMARK 927      BINDING AFFINITY PREDICTED BY RF-SCORE:    0.00 PKD
ROOT
HETATM    1  C   UNL     1     -10.858  15.831  67.378  1.00  0.00    -0.306 C  
HETATM    2  C   UNL     1     -10.199  14.981  68.525  1.00  0.00    -0.227 C  
HETATM    3  C   UNL     1     -10.771  15.006  66.091  1.00  0.00    -0.327 C  
HETATM    4  C   UNL     1     -10.270  17.245  67.240  1.00  0.00    -0.320 A  
HETATM    5  C   UNL     1     -10.783  18.282  68.043  1.00  0.00    -0.290 A  
HETATM    6  H   UNL     1     -10.145  13.048  69.279  1.00  0.00     0.000 HD 
HETATM    7  O   UNL     1      -9.742  14.730  65.486  1.00  0.00    -0.328 OA 
HETATM    8  C   UNL     1     -10.186  15.648  69.915  1.00  0.00    -0.297 C  
HETATM    9  C   UNL     1     -11.575  15.718  70.545  1.00  0.00    -0.396 C  
HETATM   10  C   UNL     1     -10.217  19.561  68.039  1.00  0.00    -0.552 A  
HETATM   11  C   UNL     1      -9.206  17.564  66.381  1.00  0.00    -0.267 A  
HETATM   12  C   UNL     1     -12.191  14.327  70.617  1.00  0.00    -0.427 C  
HETATM   13  C   UNL     1      -9.154  19.846  67.192  1.00  0.00    -0.443 A  
HETATM   14  C   UNL     1     -12.120  13.614  69.270  1.00  0.00    -0.314 C  
HETATM   15  C   UNL     1      -8.662  18.854  66.350  1.00  0.00    -0.308 A  
HETATM   16  N   UNL     1     -10.769  13.623  68.712  1.00  0.00    -0.251 NA 
ENDROOT
BRANCH   3  17
HETATM   17  O   UNL     1     -12.001  14.512  65.754  1.00  0.00    -0.360 OA 
HETATM   18  C   UNL     1     -12.239  14.460  64.345  1.00  0.00    -0.458 C  
ENDBRANCH   3  17
TORSDOF 1
ENDMDL
MODEL       10
REMARK 921   NORMALIZED FREE ENERGY PREDICTED BY IDOCK:   -5.50 KCAL/MOL
REMARK 922        TOTAL FREE ENERGY PREDICTED BY IDOCK:   -5.87 KCAL/MOL
REMARK 923 INTER-LIGAND FREE ENERGY PREDICTED BY IDOCK:   -5.77 KCAL/MOL
REMARK 924 INTRA-LIGAND FREE ENERGY PREDICTED BY IDOCK:   -0.10 KCAL/MOL
REMARK 927      BINDING AFFINITY PREDICTED BY RF-SCORE:    0.00 PKD
ROOT
HETATM    1  C   UNL     1     -11.578  11.598  68.022  1.00  0.00    -0.383 C  
HETATM    2  C   UNL     1     -10.054  11.212  68.020  1.00  0.00    -0.174 C  
HETATM    3  C   UNL     1     -11.757  12.752  67.031  1.00  0.00    -0.374 C  
HETATM    4  C   UNL     1     -12.140  11.899  69.421  1.00  0.00    -0.277 A  
HETATM    5  C   UNL     1     -12.605  10.833  70.217  1.00  0.00    -0.350 A  
HETATM    6  H   UNL     1      -8.468  10.888  66.721  1.00  0.00     0.000 HD 
HETATM    7  O   UNL     1     -11.325  13.889  67.173  1.00  0.00    -0.302 OA 
HETATM    8  C   UNL     1      -9.666  10.058  68.966  1.00  0.00    -0.204 C  
HETATM    9  C   UNL     1     -10.175   8.703  68.478  1.00  0.00    -0.221 C  
HETATM   10  C   UNL     1     -13.025  11.033  71.536  1.00  0.00    -0.553 A  
HETATM   11  C   UNL     1     -12.177  13.184  69.983  1.00  0.00    -0.323 A  
HETATM   12  C   UNL     1      -9.681   8.433  67.064  1.00  0.00    -0.268 C  
HETATM   13  C   UNL     1     -13.037  12.314  72.074  1.00  0.00    -0.461 A  
HETATM   14  C   UNL     1      -9.969   9.611  66.137  1.00  0.00    -0.276 C  
HETATM   15  C   UNL     1     -12.632  13.390  71.292  1.00  0.00    -0.411 A  
HETATM   16  N   UNL     1      -9.488  10.876  66.689  1.00  0.00    -0.176 NA 
ENDROOT
BRANCH   3  17
HETATM   17  O   UNL     1     -12.379  12.315  65.893  1.00  0.00    -0.618 OA 
HETATM   18  C   UNL     1     -12.028  13.054  64.721  1.00  0.00    -0.395 C  
ENDBRANCH   3  17
TORSDOF 1
ENDMDL
MODEL       11
REMARK 921   NORMALIZED FREE ENERGY PREDICTED BY IDOCK:   -5.41 KCAL/MOL
REMARK 922        TOTAL FREE ENERGY PREDICTED BY IDOCK:   -5.77 KCAL/MOL
REMARK 923 INTER-LIGAND FREE ENERGY PREDICTED BY IDOCK:   -5.68 KCAL/MOL
REMARK 924 INTRA-LIGAND FREE ENERGY PREDICTED BY IDOCK:   -0.09 KCAL/MOL
REMARK 927      BINDING AFFINITY PREDICTED BY RF-SCORE:    0.00 PKD
ROOT
HETATM    1  C   UNL     1     -10.366  14.387  66.365  1.00  0.00    -0.289 C  
HETATM    2  C   UNL     1     -11.750  14.499  67.103  1.00  0.00    -0.399 C  
HETATM    3  C   UNL     1     -10.146  15.699  65.607  1.00  0.00    -0.365 C  
HETATM    4  C   UNL     1     -10.237  13.138  65.478  1.00  0.00    -0.297 A  
HETATM    5  C   UNL     1      -9.810  11.926  66.057  1.00  0.00    -0.258 A  
HETATM    6  H   UNL     1     -12.875  15.823  68.238  1.00  0.00     0.000 HD 
HETATM    7  O   UNL     1     -10.790  16.082  64.638  1.00  0.00    -0.608 OA 
HETATM    8  C   UNL     1     -12.158  13.263  67.930  1.00  0.00    -0.270 C  
HETATM    9  C   UNL     1     -11.315  13.097  69.192  1.00  0.00    -0.335 C  
HETATM   10  C   UNL     1      -9.778  10.736  65.324  1.00  0.00    -0.308 A  
HETATM   11  C   UNL     1     -10.566  13.116  64.113  1.00  0.00    -0.384 A  
HETATM   12  C   UNL     1     -11.381  14.361  70.039  1.00  0.00    -0.253 C  
HETATM   13  C   UNL     1     -10.125  10.738  63.980  1.00  0.00    -0.410 A  
HETATM   14  C   UNL     1     -11.078  15.606  69.210  1.00  0.00    -0.293 C  
HETATM   15  C   UNL     1     -10.499  11.931  63.370  1.00  0.00    -0.487 A  
HETATM   16  N   UNL     1     -11.894  15.674  67.999  1.00  0.00    -0.149 NA 
ENDROOT
BRANCH   3  17
HETATM   17  O   UNL     1      -9.191  16.457  66.227  1.00  0.00    -0.269 OA 
HETATM   18  C   UNL     1      -9.594  17.806  66.478  1.00  0.00    -0.308 C  
ENDBRANCH   3  17
TORSDOF 1
ENDMDL
MODEL       12
REMARK 921   NORMALIZED FREE ENERGY PREDICTED BY IDOCK:   -5.40 KCAL/MOL
REMARK 922        TOTAL FREE ENERGY PREDICTED BY IDOCK:   -5.76 KCAL/MOL
REMARK 923 INTER-LIGAND FREE ENERGY PREDICTED BY IDOCK:   -5.67 KCAL/MOL
REMARK 924 INTRA-LIGAND FREE ENERGY PREDICTED BY IDOCK:   -0.09 KCAL/MOL
REMARK 927      BINDING AFFINITY PREDICTED BY RF-SCORE:    0.00 PKD
ROOT
HETATM    1  C   UNL     1      -9.581  16.673  67.489  1.00  0.00    -0.242 C  
HETATM    2  C   UNL     1     -10.287  17.837  66.703  1.00  0.00    -0.345 C  
HETATM    3  C   UNL     1      -8.918  15.759  66.453  1.00  0.00    -0.331 C  
HETATM    4  C   UNL     1     -10.511  15.926  68.457  1.00  0.00    -0.241 A  
HETATM    5  C   UNL     1     -10.697  16.434  69.758  1.00  0.00    -0.324 A  
HETATM    6  H   UNL     1      -9.965  19.159  65.135  1.00  0.00     0.000 HD 
HETATM    7  O   UNL     1      -9.506  15.048  65.647  1.00  0.00    -0.295 OA 
HETATM    8  C   UNL     1     -11.021  18.872  67.578  1.00  0.00    -0.312 C  
HETATM    9  C   UNL     1     -10.060  19.766  68.360  1.00  0.00    -0.568 C  
HETATM   10  C   UNL     1     -11.613  15.859  70.645  1.00  0.00    -0.426 A  
HETATM   11  C   UNL     1     -11.235  14.775  68.108  1.00  0.00    -0.307 A  
HETATM   12  C   UNL     1      -9.088  20.452  67.410  1.00  0.00    -0.484 C  
HETATM   13  C   UNL     1     -12.329  14.730  70.269  1.00  0.00    -0.400 A  
HETATM   14  C   UNL     1      -8.427  19.450  66.466  1.00  0.00    -0.337 C  
HETATM   15  C   UNL     1     -12.125  14.177  69.009  1.00  0.00    -0.348 A  
HETATM   16  N   UNL     1      -9.407  18.606  65.786  1.00  0.00    -0.337 NA 
ENDROOT
BRANCH   3  17
HETATM   17  O   UNL     1      -7.560  15.925  66.466  1.00  0.00    -0.182 OA 
HETATM   18  C   UNL     1      -6.901  15.222  67.523  1.00  0.00    -0.189 C  
ENDBRANCH   3  17
TORSDOF 1
ENDMDL
MODEL       13
REMARK 921   NORMALIZED FREE ENERGY PREDICTED BY IDOCK:   -5.38 KCAL/MOL
REMARK 922        TOTAL FREE ENERGY PREDICTED BY IDOCK:   -5.74 KCAL/MOL
REMARK 923 INTER-LIGAND FREE ENERGY PREDICTED BY IDOCK:   -5.62 KCAL/MOL
REMARK 924 INTRA-LIGAND FREE ENERGY PREDICTED BY IDOCK:   -0.12 KCAL/MOL
REMARK 927      BINDING AFFINITY PREDICTED BY RF-SCORE:    0.00 PKD
ROOT
HETATM    1  C   UNL     1     -10.448  14.110  66.696  1.00  0.00    -0.278 C  
HETATM    2  C   UNL     1     -11.898  13.548  66.460  1.00  0.00    -0.399 C  
HETATM    3  C   UNL     1      -9.788  13.234  67.765  1.00  0.00    -0.224 C  
HETATM    4  C   UNL     1     -10.411  15.611  67.025  1.00  0.00    -0.289 A  
HETATM    5  C   UNL     1     -10.394  16.544  65.969  1.00  0.00    -0.358 A  
HETATM    6  H   UNL     1     -12.920  11.759  66.214  1.00  0.00     0.000 HD 
HETATM    7  O   UNL     1     -10.110  13.182  68.945  1.00  0.00    -0.114 OA 
HETATM    8  C   UNL     1     -12.734  14.305  65.409  1.00  0.00    -0.385 C  
HETATM    9  C   UNL     1     -12.238  14.069  63.984  1.00  0.00    -0.395 C  
HETATM   10  C   UNL     1     -10.469  17.920  66.206  1.00  0.00    -0.320 A  
HETATM   11  C   UNL     1     -10.437  16.121  68.332  1.00  0.00    -0.274 A  
HETATM   12  C   UNL     1     -12.204  12.578  63.679  1.00  0.00    -0.642 C  
HETATM   13  C   UNL     1     -10.512  18.398  67.510  1.00  0.00    -0.445 A  
HETATM   14  C   UNL     1     -11.464  11.801  64.765  1.00  0.00    -0.215 C  
HETATM   15  C   UNL     1     -10.476  17.500  68.571  1.00  0.00    -0.361 A  
HETATM   16  N   UNL     1     -11.968  12.109  66.102  1.00  0.00    -0.600 NA 
ENDROOT
BRANCH   3  17
HETATM   17  O   UNL     1      -8.844  12.419  67.202  1.00  0.00    -0.183 OA 
HETATM   18  C   UNL     1      -8.797  11.108  67.771  1.00  0.00    -0.135 C  
ENDBRANCH   3  17
TORSDOF 1
ENDMDL
MODEL       14
REMARK 921   NORMALIZED FREE ENERGY PREDICTED BY IDOCK:   -5.32 KCAL/MOL
REMARK 922        TOTAL FREE ENERGY PREDICTED BY IDOCK:   -5.68 KCAL/MOL
REMARK 923 INTER-LIGAND FREE ENERGY PREDICTED BY IDOCK:   -5.58 KCAL/MOL
REMARK 924 INTRA-LIGAND FREE ENERGY PREDICTED BY IDOCK:   -0.09 KCAL/MOL
REMARK 927      BINDING AFFINITY PREDICTED BY RF-SCORE:    0.00 PKD
ROOT
HETATM    1  C   UNL     1     -11.568  13.430  67.763  1.00  0.00    -0.375 C  
HETATM    2  C   UNL     1     -10.165  12.733  67.636  1.00  0.00    -0.219 C  
HETATM    3  C   UNL     1     -11.671  14.457  66.630  1.00  0.00    -0.394 C  
HETATM    4  C   UNL     1     -11.842  14.024  69.154  1.00  0.00    -0.391 A  
HETATM    5  C   UNL     1     -12.376  13.195  70.160  1.00  0.00    -0.284 A  
HETATM    6  H   UNL     1      -8.887  11.913  66.221  1.00  0.00     0.000 HD 
HETATM    7  O   UNL     1     -11.013  15.485  66.536  1.00  0.00    -0.312 OA 
HETATM    8  C   UNL     1      -9.866  11.657  68.699  1.00  0.00    -0.173 C  
HETATM    9  C   UNL     1     -10.694  10.389  68.498  1.00  0.00    -0.255 C  
HETATM   10  C   UNL     1     -12.545  13.650  71.471  1.00  0.00    -0.385 A  
HETATM   11  C   UNL     1     -11.547  15.350  69.505  1.00  0.00    -0.346 A  
HETATM   12  C   UNL     1     -10.481   9.838  67.095  1.00  0.00    -0.316 C  
HETATM   13  C   UNL     1     -12.229  14.962  71.797  1.00  0.00    -0.416 A  
HETATM   14  C   UNL     1     -10.676  10.919  66.034  1.00  0.00    -0.140 C  
HETATM   15  C   UNL     1     -11.749  15.817  70.810  1.00  0.00    -0.430 A  
HETATM   16  N   UNL     1      -9.883  12.115  66.316  1.00  0.00    -0.229 NA 
ENDROOT
BRANCH   3  17
HETATM   17  O   UNL     1     -12.531  14.017  65.661  1.00  0.00    -0.459 OA 
HETATM   18  C   UNL     1     -12.275  14.568  64.367  1.00  0.00    -0.458 C  
ENDBRANCH   3  17
TORSDOF 1
ENDMDL
MODEL       15
REMARK 921   NORMALIZED FREE ENERGY PREDICTED BY IDOCK:   -5.28 KCAL/MOL
REMARK 922        TOTAL FREE ENERGY PREDICTED BY IDOCK:   -5.64 KCAL/MOL
REMARK 923 INTER-LIGAND FREE ENERGY PREDICTED BY IDOCK:   -5.59 KCAL/MOL
REMARK 924 INTRA-LIGAND FREE ENERGY PREDICTED BY IDOCK:   -0.05 KCAL/MOL
REMARK 927      BINDING AFFINITY PREDICTED BY RF-SCORE:    0.00 PKD
ROOT
HETATM    1  C   UNL     1     -10.450  16.182  66.531  1.00  0.00    -0.298 C  
HETATM    2  C   UNL     1      -9.055  15.495  66.297  1.00  0.00    -0.334 C  
HETATM    3  C   UNL     1     -11.274  15.987  65.254  1.00  0.00    -0.112 C  
HETATM    4  C   UNL     1     -10.351  17.649  66.978  1.00  0.00    -0.330 A  
HETATM    5  C   UNL     1     -10.193  17.939  68.348  1.00  0.00    -0.398 A  
HETATM    6  H   UNL     1      -8.214  13.761  65.525  1.00  0.00     0.000 HD 
HETATM    7  O   UNL     1     -11.043  16.506  64.169  1.00  0.00    -0.903 OA 
HETATM    8  C   UNL     1      -8.070  15.584  67.480  1.00  0.00    -0.185 C  
HETATM    9  C   UNL     1      -8.487  14.705  68.658  1.00  0.00    -0.164 C  
HETATM   10  C   UNL     1      -9.989  19.246  68.801  1.00  0.00    -0.511 A  
HETATM   11  C   UNL     1     -10.363  18.735  66.089  1.00  0.00    -0.494 A  
HETATM   12  C   UNL     1      -8.657  13.262  68.202  1.00  0.00    -0.177 C  
HETATM   13  C   UNL     1      -9.989  20.302  67.898  1.00  0.00    -0.492 A  
HETATM   14  C   UNL     1      -9.551  13.167  66.968  1.00  0.00    -0.241 C  
HETATM   15  C   UNL     1     -10.196  20.048  66.547  1.00  0.00    -0.598 A  
HETATM   16  N   UNL     1      -9.113  14.065  65.901  1.00  0.00     0.168 NA 
ENDROOT
BRANCH   3  17
HETATM   17  O   UNL     1     -12.256  15.056  65.454  1.00  0.00    -0.090 OA 
HETATM   18  C   UNL     1     -12.225  13.972  64.522  1.00  0.00    -0.434 C  
ENDBRANCH   3  17
TORSDOF 1
ENDMDL
MODEL       16
REMARK 921   NORMALIZED FREE ENERGY PREDICTED BY IDOCK:   -5.22 KCAL/MOL
REMARK 922        TOTAL FREE ENERGY PREDICTED BY IDOCK:   -5.58 KCAL/MOL
REMARK 923 INTER-LIGAND FREE ENERGY PREDICTED BY IDOCK:   -5.48 KCAL/MOL
REMARK 924 INTRA-LIGAND FREE ENERGY PREDICTED BY IDOCK:   -0.09 KCAL/MOL
REMARK 927      BINDING AFFINITY PREDICTED BY RF-SCORE:    0.00 PKD
ROOT
HETATM    1  C   UNL     1     -11.503  14.282  67.754  1.00  0.00    -0.354 C  
HETATM    2  C   UNL     1     -10.041  14.797  68.020  1.00  0.00    -0.218 C  
HETATM    3  C   UNL     1     -11.816  13.229  68.822  1.00  0.00    -0.334 C  
HETATM    4  C   UNL     1     -11.734  13.785  66.318  1.00  0.00    -0.400 A  
HETATM    5  C   UNL     1     -12.085  14.715  65.319  1.00  0.00    -0.276 A  
HETATM    6  H   UNL     1      -8.791  15.394  69.565  1.00  0.00     0.000 HD 
HETATM    7  O   UNL     1     -11.294  12.125  68.912  1.00  0.00    -0.241 OA 
HETATM    8  C   UNL     1      -9.533  15.872  67.038  1.00  0.00    -0.234 C  
HETATM    9  C   UNL     1     -10.218  17.222  67.241  1.00  0.00    -0.320 C  
HETATM   10  C   UNL     1     -12.202  14.339  63.978  1.00  0.00    -0.336 A  
HETATM   11  C   UNL     1     -11.571  12.448  65.923  1.00  0.00    -0.449 A  
HETATM   12  C   UNL     1     -10.054  17.683  68.683  1.00  0.00    -0.377 C  
HETATM   13  C   UNL     1     -12.019  13.012  63.610  1.00  0.00    -0.608 A  
HETATM   14  C   UNL     1     -10.458  16.591  69.670  1.00  0.00    -0.267 C  
HETATM   15  C   UNL     1     -11.724  12.065  64.584  1.00  0.00    -0.358 A  
HETATM   16  N   UNL     1      -9.793  15.320  69.386  1.00  0.00    -0.249 NA 
ENDROOT
BRANCH   3  17
HETATM   17  O   UNL     1     -12.692  13.730  69.747  1.00  0.00    -0.150 OA 
HETATM   18  C   UNL     1     -12.597  13.107  71.031  1.00  0.00    -0.312 C  
ENDBRANCH   3  17
TORSDOF 1
ENDMDL
MODEL       17
REMARK 921   NORMALIZED FREE ENERGY PREDICTED BY IDOCK:   -5.17 KCAL/MOL
REMARK 922        TOTAL FREE ENERGY PREDICTED BY IDOCK:   -5.53 KCAL/MOL
REMARK 923 INTER-LIGAND FREE ENERGY PREDICTED BY IDOCK:   -5.40 KCAL/MOL
REMARK 924 INTRA-LIGAND FREE ENERGY PREDICTED BY IDOCK:   -0.12 KCAL/MOL
REMARK 927      BINDING AFFINITY PREDICTED BY RF-SCORE:    0.00 PKD
ROOT
HETATM    1  C   UNL     1     -10.737  14.053  67.276  1.00  0.00    -0.278 C  
HETATM    2  C   UNL     1     -11.845  13.757  66.200  1.00  0.00    -0.398 C  
HETATM    3  C   UNL     1     -11.264  13.550  68.624  1.00  0.00    -0.278 C  
HETATM    4  C   UNL     1     -10.278  15.520  67.307  1.00  0.00    -0.260 A  
HETATM    5  C   UNL     1      -9.263  15.939  66.425  1.00  0.00    -0.344 A  
HETATM    6  H   UNL     1     -13.159  12.268  65.597  1.00  0.00     0.000 HD 
HETATM    7  O   UNL     1     -12.199  14.033  69.250  1.00  0.00    -0.344 OA 
HETATM    8  C   UNL     1     -11.501  14.197  64.763  1.00  0.00    -0.384 C  
HETATM    9  C   UNL     1     -10.421  13.324  64.125  1.00  0.00    -0.281 C  
HETATM   10  C   UNL     1      -8.882  17.282  66.332  1.00  0.00    -0.278 A  
HETATM   11  C   UNL     1     -10.847  16.494  68.141  1.00  0.00    -0.345 A  
HETATM   12  C   UNL     1     -10.840  11.861  64.159  1.00  0.00    -0.412 C  
HETATM   13  C   UNL     1      -9.473  18.229  67.158  1.00  0.00    -0.268 A  
HETATM   14  C   UNL     1     -11.280  11.437  65.558  1.00  0.00    -0.071 C  
HETATM   15  C   UNL     1     -10.440  17.833  68.075  1.00  0.00    -0.399 A  
HETATM   16  N   UNL     1     -12.284  12.342  66.117  1.00  0.00    -0.585 NA 
ENDROOT
BRANCH   3  17
HETATM   17  O   UNL     1     -10.617  12.403  68.994  1.00  0.00    -0.165 OA 
HETATM   18  C   UNL     1     -11.480  11.398  69.531  1.00  0.00    -0.312 C  
ENDBRANCH   3  17
TORSDOF 1
ENDMDL
MODEL       18
REMARK 921   NORMALIZED FREE ENERGY PREDICTED BY IDOCK:   -5.17 KCAL/MOL
REMARK 922        TOTAL FREE ENERGY PREDICTED BY IDOCK:   -5.52 KCAL/MOL
REMARK 923 INTER-LIGAND FREE ENERGY PREDICTED BY IDOCK:   -5.42 KCAL/MOL
REMARK 924 INTRA-LIGAND FREE ENERGY PREDICTED BY IDOCK:   -0.10 KCAL/MOL
REMARK 927      BINDING AFFINITY PREDICTED BY RF-SCORE:    0.00 PKD
ROOT
HETATM    1  C   UNL     1     -11.342  12.184  67.466  1.00  0.00    -0.392 C  
HETATM    2  C   UNL     1     -10.337  13.216  68.096  1.00  0.00    -0.244 C  
HETATM    3  C   UNL     1     -11.436  10.994  68.425  1.00  0.00    -0.308 C  
HETATM    4  C   UNL     1     -10.994  11.782  66.023  1.00  0.00    -0.355 A  
HETATM    5  C   UNL     1     -11.449  12.586  64.959  1.00  0.00    -0.368 A  
HETATM    6  H   UNL     1      -9.859  14.109  69.908  1.00  0.00     0.000 HD 
HETATM    7  O   UNL     1     -10.541  10.191  68.658  1.00  0.00    -0.190 OA 
HETATM    8  C   UNL     1     -10.102  14.496  67.270  1.00  0.00    -0.247 C  
HETATM    9  C   UNL     1     -11.313  15.428  67.277  1.00  0.00    -0.220 C  
HETATM   10  C   UNL     1     -11.073  12.331  63.636  1.00  0.00    -0.537 A  
HETATM   11  C   UNL     1     -10.201  10.671  65.696  1.00  0.00    -0.319 A  
HETATM   12  C   UNL     1     -11.706  15.770  68.707  1.00  0.00    -0.387 C  
HETATM   13  C   UNL     1     -10.274  11.234  63.341  1.00  0.00    -0.454 A  
HETATM   14  C   UNL     1     -11.844  14.515  69.565  1.00  0.00    -0.329 C  
HETATM   15  C   UNL     1      -9.855  10.394  64.367  1.00  0.00    -0.395 A  
HETATM   16  N   UNL     1     -10.664  13.656  69.476  1.00  0.00     0.054 NA 
ENDROOT
BRANCH   3  17
HETATM   17  O   UNL     1     -12.634  11.004  69.086  1.00  0.00    -0.378 OA 
HETATM   18  C   UNL     1     -12.515  10.849  70.503  1.00  0.00    -0.351 C  
ENDBRANCH   3  17
TORSDOF 1
ENDMDL
MODEL       19
REMARK 921   NORMALIZED FREE ENERGY PREDICTED BY IDOCK:   -5.15 KCAL/MOL
REMARK 922        TOTAL FREE ENERGY PREDICTED BY IDOCK:   -5.50 KCAL/MOL
REMARK 923 INTER-LIGAND FREE ENERGY PREDICTED BY IDOCK:   -5.37 KCAL/MOL
REMARK 924 INTRA-LIGAND FREE ENERGY PREDICTED BY IDOCK:   -0.12 KCAL/MOL
REMARK 927      BINDING AFFINITY PREDICTED BY RF-SCORE:    0.00 PKD
ROOT
HETATM    1  C   UNL     1     -10.473  13.359  66.846  1.00  0.00    -0.273 C  
HETATM    2  C   UNL     1     -11.905  12.929  66.358  1.00  0.00    -0.415 C  
HETATM    3  C   UNL     1      -9.850  12.150  67.550  1.00  0.00    -0.191 C  
HETATM    4  C   UNL     1     -10.467  14.636  67.701  1.00  0.00    -0.243 A  
HETATM    5  C   UNL     1     -10.416  15.890  67.060  1.00  0.00    -0.306 A  
HETATM    6  H   UNL     1     -12.895  11.358  65.432  1.00  0.00     0.000 HD 
HETATM    7  O   UNL     1     -10.222  11.673  68.615  1.00  0.00    -0.209 OA 
HETATM    8  C   UNL     1     -12.704  14.021  65.619  1.00  0.00    -0.515 C  
HETATM    9  C   UNL     1     -12.143  14.319  64.229  1.00  0.00    -0.467 C  
HETATM   10  C   UNL     1     -10.517  17.085  67.779  1.00  0.00    -0.349 A  
HETATM   11  C   UNL     1     -10.556  14.635  69.102  1.00  0.00    -0.247 A  
HETATM   12  C   UNL     1     -12.079  13.042  63.403  1.00  0.00    -0.591 C  
HETATM   13  C   UNL     1     -10.621  17.055  69.164  1.00  0.00    -0.303 A  
HETATM   14  C   UNL     1     -11.378  11.919  64.164  1.00  0.00    -0.380 C  
HETATM   15  C   UNL     1     -10.620  15.832  69.825  1.00  0.00    -0.312 A  
HETATM   16  N   UNL     1     -11.943  11.721  65.497  1.00  0.00    -0.267 NA 
ENDROOT
BRANCH   3  17
HETATM   17  O   UNL     1      -8.874  11.591  66.772  1.00  0.00    -0.171 OA 
HETATM   18  C   UNL     1      -8.872  10.162  66.782  1.00  0.00    -0.132 C  
ENDBRANCH   3  17
TORSDOF 1
ENDMDL
MODEL       20
REMARK 921   NORMALIZED FREE ENERGY PREDICTED BY IDOCK:   -5.14 KCAL/MOL
REMARK 922        TOTAL FREE ENERGY PREDICTED BY IDOCK:   -5.49 KCAL/MOL
REMARK 923 INTER-LIGAND FREE ENERGY PREDICTED BY IDOCK:   -5.37 KCAL/MOL
REMARK 924 INTRA-LIGAND FREE ENERGY PREDICTED BY IDOCK:   -0.12 KCAL/MOL
REMARK 927      BINDING AFFINITY PREDICTED BY RF-SCORE:    0.00 PKD
ROOT
HETATM    1  C   UNL     1     -10.745  11.939  67.555  1.00  0.00    -0.263 C  
HETATM    2  C   UNL     1     -11.717  12.126  66.333  1.00  0.00    -0.324 C  
HETATM    3  C   UNL     1     -10.103  10.555  67.419  1.00  0.00    -0.197 C  
HETATM    4  C   UNL     1     -11.412  12.173  68.920  1.00  0.00    -0.350 A  
HETATM    5  C   UNL     1     -11.491  13.485  69.429  1.00  0.00    -0.340 A  
HETATM    6  H   UNL     1     -11.814  11.829  64.282  1.00  0.00     0.000 HD 
HETATM    7  O   UNL     1     -10.684   9.483  67.537  1.00  0.00    -0.282 OA 
HETATM    8  C   UNL     1     -12.469  13.472  66.291  1.00  0.00    -0.384 C  
HETATM    9  C   UNL     1     -11.553  14.645  65.948  1.00  0.00    -0.327 C  
HETATM   10  C   UNL     1     -12.181  13.771  70.611  1.00  0.00    -0.434 A  
HETATM   11  C   UNL     1     -11.998  11.152  69.684  1.00  0.00    -0.429 A  
HETATM   12  C   UNL     1     -10.834  14.384  64.632  1.00  0.00    -0.363 C  
HETATM   13  C   UNL     1     -12.766  12.744  71.340  1.00  0.00    -0.353 A  
HETATM   14  C   UNL     1     -10.168  13.011  64.621  1.00  0.00    -0.302 C  
HETATM   15  C   UNL     1     -12.658  11.434  70.887  1.00  0.00    -0.453 A  
HETATM   16  N   UNL     1     -11.096  11.946  64.997  1.00  0.00    -0.310 NA 
ENDROOT
BRANCH   3  17
HETATM   17  O   UNL     1      -8.796  10.669  67.032  1.00  0.00    -0.136 OA 
HETATM   18  C   UNL     1      -8.386   9.686  66.077  1.00  0.00    -0.120 C  
ENDBRANCH   3  17
TORSDOF 1
ENDMDL
MODEL       21
REMARK 921   NORMALIZED FREE ENERGY PREDICTED BY IDOCK:   -5.14 KCAL/MOL
REMARK 922        TOTAL FREE ENERGY PREDICTED BY IDOCK:   -5.49 KCAL/MOL
REMARK 923 INTER-LIGAND FREE ENERGY PREDICTED BY IDOCK:   -5.41 KCAL/MOL
REMARK 924 INTRA-LIGAND FREE ENERGY PREDICTED BY IDOCK:   -0.08 KCAL/MOL
REMARK 927      BINDING AFFINITY PREDICTED BY RF-SCORE:    0.00 PKD
ROOT
HETATM    1  C   UNL     1     -10.543  14.986  68.415  1.00  0.00    -0.239 C  
HETATM    2  C   UNL     1     -10.785  16.158  67.395  1.00  0.00    -0.291 C  
HETATM    3  C   UNL     1     -10.741  13.671  67.654  1.00  0.00    -0.245 C  
HETATM    4  C   UNL     1     -11.393  15.089  69.692  1.00  0.00    -0.309 A  
HETATM    5  C   UNL     1     -10.923  15.867  70.768  1.00  0.00    -0.271 A  
HETATM    6  H   UNL     1     -10.330  16.734  65.454  1.00  0.00     0.000 HD 
HETATM    7  O   UNL     1     -11.805  13.255  67.213  1.00  0.00    -0.355 OA 
HETATM    8  C   UNL     1     -10.633  17.578  67.976  1.00  0.00    -0.384 C  
HETATM    9  C   UNL     1      -9.179  17.932  68.285  1.00  0.00    -0.283 C  
HETATM   10  C   UNL     1     -11.700  16.086  71.909  1.00  0.00    -0.594 A  
HETATM   11  C   UNL     1     -12.651  14.484  69.839  1.00  0.00    -0.226 A  
HETATM   12  C   UNL     1      -8.320  17.761  67.041  1.00  0.00    -0.242 C  
HETATM   13  C   UNL     1     -12.949  15.488  72.023  1.00  0.00    -0.517 A  
HETATM   14  C   UNL     1      -8.536  16.394  66.396  1.00  0.00    -0.329 C  
HETATM   15  C   UNL     1     -13.415  14.672  70.998  1.00  0.00    -0.375 A  
HETATM   16  N   UNL     1      -9.952  16.111  66.168  1.00  0.00    -0.313 NA 
ENDROOT
BRANCH   3  17
HETATM   17  O   UNL     1      -9.538  13.061  67.429  1.00  0.00    -0.201 OA 
HETATM   18  C   UNL     1      -9.559  12.118  66.354  1.00  0.00    -0.234 C  
ENDBRANCH   3  17
TORSDOF 1
ENDMDL
MODEL       22
REMARK 921   NORMALIZED FREE ENERGY PREDICTED BY IDOCK:   -5.13 KCAL/MOL
REMARK 922        TOTAL FREE ENERGY PREDICTED BY IDOCK:   -5.48 KCAL/MOL
REMARK 923 INTER-LIGAND FREE ENERGY PREDICTED BY IDOCK:   -5.36 KCAL/MOL
REMARK 924 INTRA-LIGAND FREE ENERGY PREDICTED BY IDOCK:   -0.13 KCAL/MOL
REMARK 927      BINDING AFFINITY PREDICTED BY RF-SCORE:    0.00 PKD
ROOT
HETATM    1  C   UNL     1     -10.909  12.753  68.203  1.00  0.00    -0.249 C  
HETATM    2  C   UNL     1     -11.800  12.547  66.924  1.00  0.00    -0.334 C  
HETATM    3  C   UNL     1     -10.379  11.376  68.616  1.00  0.00    -0.203 C  
HETATM    4  C   UNL     1     -11.622  13.501  69.341  1.00  0.00    -0.369 A  
HETATM    5  C   UNL     1     -11.616  14.910  69.344  1.00  0.00    -0.337 A  
HETATM    6  H   UNL     1     -11.819  11.539  65.110  1.00  0.00     0.000 HD 
HETATM    7  O   UNL     1     -11.053  10.455  69.062  1.00  0.00    -0.226 OA 
HETATM    8  C   UNL     1     -12.434  13.830  66.349  1.00  0.00    -0.404 C  
HETATM    9  C   UNL     1     -11.407  14.744  65.684  1.00  0.00    -0.343 C  
HETATM   10  C   UNL     1     -12.338  15.643  70.292  1.00  0.00    -0.402 A  
HETATM   11  C   UNL     1     -12.329  12.859  70.370  1.00  0.00    -0.333 A  
HETATM   12  C   UNL     1     -10.648  13.985  64.605  1.00  0.00    -0.416 C  
HETATM   13  C   UNL     1     -13.043  14.983  71.290  1.00  0.00    -0.472 A  
HETATM   14  C   UNL     1     -10.099  12.662  65.133  1.00  0.00    -0.237 C  
HETATM   15  C   UNL     1     -13.022  13.593  71.341  1.00  0.00    -0.427 A  
HETATM   16  N   UNL     1     -11.130  11.861  65.790  1.00  0.00    -0.316 NA 
ENDROOT
BRANCH   3  17
HETATM   17  O   UNL     1      -9.049  11.264  68.315  1.00  0.00    -0.159 OA 
HETATM   18  C   UNL     1      -8.334  12.500  68.382  1.00  0.00    -0.132 C  
ENDBRANCH   3  17
TORSDOF 1
ENDMDL
MODEL       23
REMARK 921   NORMALIZED FREE ENERGY PREDICTED BY IDOCK:   -5.05 KCAL/MOL
REMARK 922        TOTAL FREE ENERGY PREDICTED BY IDOCK:   -5.40 KCAL/MOL
REMARK 923 INTER-LIGAND FREE ENERGY PREDICTED BY IDOCK:   -5.34 KCAL/MOL
REMARK 924 INTRA-LIGAND FREE ENERGY PREDICTED BY IDOCK:   -0.06 KCAL/MOL
REMARK 927      BINDING AFFINITY PREDICTED BY RF-SCORE:    0.00 PKD
ROOT
HETATM    1  C   UNL     1      -9.069  16.931  66.601  1.00  0.00    -0.280 C  
HETATM    2  C   UNL     1      -9.684  17.766  67.783  1.00  0.00    -0.285 C  
HETATM    3  C   UNL     1     -10.187  16.046  66.038  1.00  0.00    -0.341 C  
HETATM    4  C   UNL     1      -7.805  16.147  66.988  1.00  0.00    -0.258 A  
HETATM    5  C   UNL     1      -6.554  16.793  66.930  1.00  0.00    -0.248 A  
HETATM    6  H   UNL     1     -11.371  18.869  68.279  1.00  0.00     0.000 HD 
HETATM    7  O   UNL     1     -10.712  15.103  66.617  1.00  0.00    -0.300 OA 
HETATM    8  C   UNL     1      -8.706  18.726  68.489  1.00  0.00    -0.380 C  
HETATM    9  C   UNL     1      -8.333  19.926  67.621  1.00  0.00    -0.362 C  
HETATM   10  C   UNL     1      -5.385  16.166  67.372  1.00  0.00    -0.109 A  
HETATM   11  C   UNL     1      -7.822  14.821  67.447  1.00  0.00    -0.224 A  
HETATM   12  C   UNL     1      -9.589  20.663  67.175  1.00  0.00    -0.534 C  
HETATM   13  C   UNL     1      -5.432  14.858  67.837  1.00  0.00    -0.112 A  
HETATM   14  C   UNL     1     -10.611  19.708  66.564  1.00  0.00    -0.482 C  
HETATM   15  C   UNL     1      -6.646  14.180  67.856  1.00  0.00    -0.174 A  
HETATM   16  N   UNL     1     -10.885  18.566  67.434  1.00  0.00    -0.379 NA 
ENDROOT
BRANCH   3  17
HETATM   17  O   UNL     1     -10.609  16.520  64.826  1.00  0.00    -0.684 OA 
HETATM   18  C   UNL     1     -11.661  15.751  64.238  1.00  0.00    -0.191 C  
ENDBRANCH   3  17
TORSDOF 1
ENDMDL
MODEL       24
REMARK 921   NORMALIZED FREE ENERGY PREDICTED BY IDOCK:   -5.04 KCAL/MOL
REMARK 922        TOTAL FREE ENERGY PREDICTED BY IDOCK:   -5.39 KCAL/MOL
REMARK 923 INTER-LIGAND FREE ENERGY PREDICTED BY IDOCK:   -5.33 KCAL/MOL
REMARK 924 INTRA-LIGAND FREE ENERGY PREDICTED BY IDOCK:   -0.06 KCAL/MOL
REMARK 927      BINDING AFFINITY PREDICTED BY RF-SCORE:    0.00 PKD
ROOT
HETATM    1  C   UNL     1     -10.068  14.553  67.065  1.00  0.00    -0.254 C  
HETATM    2  C   UNL     1     -11.480  14.937  67.642  1.00  0.00    -0.352 C  
HETATM    3  C   UNL     1      -9.457  15.826  66.472  1.00  0.00    -0.272 C  
HETATM    4  C   UNL     1     -10.101  13.374  66.080  1.00  0.00    -0.308 A  
HETATM    5  C   UNL     1     -10.041  12.059  66.582  1.00  0.00    -0.220 A  
HETATM    6  H   UNL     1     -12.425  16.406  68.761  1.00  0.00     0.000 HD 
HETATM    7  O   UNL     1      -9.859  16.416  65.476  1.00  0.00    -0.522 OA 
HETATM    8  C   UNL     1     -12.264  13.777  68.287  1.00  0.00    -0.177 C  
HETATM    9  C   UNL     1     -11.662  13.331  69.618  1.00  0.00    -0.369 C  
HETATM   10  C   UNL     1     -10.175  10.947  65.745  1.00  0.00    -0.318 A  
HETATM   11  C   UNL     1     -10.235  13.524  64.691  1.00  0.00    -0.341 A  
HETATM   12  C   UNL     1     -11.560  14.513  70.572  1.00  0.00    -0.295 C  
HETATM   13  C   UNL     1     -10.324  11.124  64.375  1.00  0.00    -0.407 A  
HETATM   14  C   UNL     1     -10.874  15.706  69.913  1.00  0.00    -0.318 C  
HETATM   15  C   UNL     1     -10.333  12.411  63.847  1.00  0.00    -0.450 A  
HETATM   16  N   UNL     1     -11.479  16.048  68.627  1.00  0.00    -0.387 NA 
ENDROOT
BRANCH   3  17
HETATM   17  O   UNL     1      -8.451  16.294  67.273  1.00  0.00    -0.166 OA 
HETATM   18  C   UNL     1      -7.201  16.458  66.599  1.00  0.00    -0.173 C  
ENDBRANCH   3  17
TORSDOF 1
ENDMDL
MODEL       25
REMARK 921   NORMALIZED FREE ENERGY PREDICTED BY IDOCK:   -5.03 KCAL/MOL
REMARK 922        TOTAL FREE ENERGY PREDICTED BY IDOCK:   -5.38 KCAL/MOL
REMARK 923 INTER-LIGAND FREE ENERGY PREDICTED BY IDOCK:   -5.29 KCAL/MOL
REMARK 924 INTRA-LIGAND FREE ENERGY PREDICTED BY IDOCK:   -0.09 KCAL/MOL
REMARK 927      BINDING AFFINITY PREDICTED BY RF-SCORE:    0.00 PKD
ROOT
HETATM    1  C   UNL     1     -10.439  16.160  67.779  1.00  0.00    -0.295 C  
HETATM    2  C   UNL     1      -9.306  17.178  67.386  1.00  0.00    -0.234 C  
HETATM    3  C   UNL     1     -10.151  15.684  69.206  1.00  0.00    -0.258 C  
HETATM    4  C   UNL     1     -10.616  15.011  66.773  1.00  0.00    -0.301 A  
HETATM    5  C   UNL     1     -11.443  15.205  65.649  1.00  0.00    -0.192 A  
HETATM    6  H   UNL     1      -8.242  18.788  68.149  1.00  0.00     0.000 HD 
HETATM    7  O   UNL     1      -9.207  14.981  69.547  1.00  0.00    -0.164 OA 
HETATM    8  C   UNL     1      -9.419  17.775  65.969  1.00  0.00    -0.084 C  
HETATM    9  C   UNL     1     -10.576  18.765  65.841  1.00  0.00    -0.405 C  
HETATM   10  C   UNL     1     -11.555  14.236  64.647  1.00  0.00    -0.415 A  
HETATM   11  C   UNL     1      -9.959  13.776  66.882  1.00  0.00    -0.264 A  
HETATM   12  C   UNL     1     -10.444  19.866  66.884  1.00  0.00    -0.577 C  
HETATM   13  C   UNL     1     -10.881  13.028  64.771  1.00  0.00    -0.357 A  
HETATM   14  C   UNL     1     -10.230  19.290  68.281  1.00  0.00    -0.418 C  
HETATM   15  C   UNL     1     -10.100  12.790  65.897  1.00  0.00    -0.286 A  
HETATM   16  N   UNL     1      -9.134  18.322  68.316  1.00  0.00    -0.297 NA 
ENDROOT
BRANCH   3  17
HETATM   17  O   UNL     1     -11.034  16.244  70.087  1.00  0.00    -0.344 OA 
HETATM   18  C   UNL     1     -12.251  15.509  70.234  1.00  0.00    -0.400 C  
ENDBRANCH   3  17
TORSDOF 1
ENDMDL
MODEL       26
REMARK 921   NORMALIZED FREE ENERGY PREDICTED BY IDOCK:   -5.02 KCAL/MOL
REMARK 922        TOTAL FREE ENERGY PREDICTED BY IDOCK:   -5.36 KCAL/MOL
REMARK 923 INTER-LIGAND FREE ENERGY PREDICTED BY IDOCK:   -5.23 KCAL/MOL
REMARK 924 INTRA-LIGAND FREE ENERGY PREDICTED BY IDOCK:   -0.13 KCAL/MOL
REMARK 927      BINDING AFFINITY PREDICTED BY RF-SCORE:    0.00 PKD
ROOT
HETATM    1  C   UNL     1      -9.240  16.488  68.157  1.00  0.00    -0.217 C  
HETATM    2  C   UNL     1      -9.764  17.394  66.983  1.00  0.00    -0.276 C  
HETATM    3  C   UNL     1      -8.154  15.576  67.578  1.00  0.00    -0.165 C  
HETATM    4  C   UNL     1     -10.351  15.725  68.895  1.00  0.00    -0.224 A  
HETATM    5  C   UNL     1     -11.037  16.362  69.948  1.00  0.00    -0.313 A  
HETATM    6  H   UNL     1      -9.081  18.530  65.386  1.00  0.00     0.000 HD 
HETATM    7  O   UNL     1      -8.336  14.670  66.773  1.00  0.00    -0.184 OA 
HETATM    8  C   UNL     1     -10.875  18.391  67.368  1.00  0.00    -0.306 C  
HETATM    9  C   UNL     1     -10.361  19.537  68.237  1.00  0.00    -0.524 C  
HETATM   10  C   UNL     1     -12.127  15.758  70.583  1.00  0.00    -0.424 A  
HETATM   11  C   UNL     1     -10.764  14.428  68.551  1.00  0.00    -0.258 A  
HETATM   12  C   UNL     1      -9.210  20.250  67.540  1.00  0.00    -0.491 C  
HETATM   13  C   UNL     1     -12.526  14.481  70.213  1.00  0.00    -0.405 A  
HETATM   14  C   UNL     1      -8.147  19.263  67.063  1.00  0.00    -0.263 C  
HETATM   15  C   UNL     1     -11.833  13.809  69.212  1.00  0.00    -0.392 A  
HETATM   16  N   UNL     1      -8.721  18.176  66.273  1.00  0.00    -0.450 NA 
ENDROOT
BRANCH   3  17
HETATM   17  O   UNL     1      -6.915  15.978  67.997  1.00  0.00    -0.116 OA 
HETATM   18  C   UNL     1      -6.904  16.549  69.307  1.00  0.00    -0.224 C  
ENDBRANCH   3  17
TORSDOF 1
ENDMDL
MODEL       27
REMARK 921   NORMALIZED FREE ENERGY PREDICTED BY IDOCK:   -4.97 KCAL/MOL
REMARK 922        TOTAL FREE ENERGY PREDICTED BY IDOCK:   -5.31 KCAL/MOL
REMARK 923 INTER-LIGAND FREE ENERGY PREDICTED BY IDOCK:   -5.18 KCAL/MOL
REMARK 924 INTRA-LIGAND FREE ENERGY PREDICTED BY IDOCK:   -0.13 KCAL/MOL
REMARK 927      BINDING AFFINITY PREDICTED BY RF-SCORE:    0.00 PKD
ROOT
HETATM    1  C   UNL     1      -9.566  16.018  67.356  1.00  0.00    -0.225 C  
HETATM    2  C   UNL     1      -8.056  15.674  67.087  1.00  0.00    -0.215 C  
HETATM    3  C   UNL     1     -10.402  15.213  66.356  1.00  0.00    -0.286 C  
HETATM    4  C   UNL     1      -9.873  17.524  67.338  1.00  0.00    -0.297 A  
HETATM    5  C   UNL     1      -9.690  18.275  68.516  1.00  0.00    -0.379 A  
HETATM    6  H   UNL     1      -6.805  14.062  66.710  1.00  0.00     0.000 HD 
HETATM    7  O   UNL     1     -10.433  15.390  65.144  1.00  0.00    -0.392 OA 
HETATM    8  C   UNL     1      -7.044  16.395  68.001  1.00  0.00    -0.146 C  
HETATM    9  C   UNL     1      -7.074  15.872  69.436  1.00  0.00    -0.215 C  
HETATM   10  C   UNL     1      -9.848  19.664  68.531  1.00  0.00    -0.519 A  
HETATM   11  C   UNL     1     -10.287  18.219  66.191  1.00  0.00    -0.414 A  
HETATM   12  C   UNL     1      -6.844  14.367  69.452  1.00  0.00    -0.132 C  
HETATM   13  C   UNL     1     -10.243  20.330  67.377  1.00  0.00    -0.494 A  
HETATM   14  C   UNL     1      -7.771  13.648  68.476  1.00  0.00    -0.129 C  
HETATM   15  C   UNL     1     -10.481  19.606  66.214  1.00  0.00    -0.621 A  
HETATM   16  N   UNL     1      -7.717  14.230  67.136  1.00  0.00    -0.109 NA 
ENDROOT
BRANCH   3  17
HETATM   17  O   UNL     1     -11.039  14.179  66.986  1.00  0.00    -0.295 OA 
HETATM   18  C   UNL     1     -11.460  14.482  68.318  1.00  0.00    -0.311 C  
ENDBRANCH   3  17
TORSDOF 1
ENDMDL
MODEL       28
REMARK 921   NORMALIZED FREE ENERGY PREDICTED BY IDOCK:   -4.96 KCAL/MOL
REMARK 922        TOTAL FREE ENERGY PREDICTED BY IDOCK:   -5.30 KCAL/MOL
REMARK 923 INTER-LIGAND FREE ENERGY PREDICTED BY IDOCK:   -5.18 KCAL/MOL
REMARK 924 INTRA-LIGAND FREE ENERGY PREDICTED BY IDOCK:   -0.12 KCAL/MOL
REMARK 927      BINDING AFFINITY PREDICTED BY RF-SCORE:    0.00 PKD
ROOT
HETATM    1  C   UNL     1     -10.166  15.483  67.651  1.00  0.00    -0.255 C  
HETATM    2  C   UNL     1      -9.297  14.610  68.629  1.00  0.00    -0.206 C  
HETATM    3  C   UNL     1     -11.137  16.300  68.509  1.00  0.00    -0.368 C  
HETATM    4  C   UNL     1     -10.861  14.670  66.546  1.00  0.00    -0.315 A  
HETATM    5  C   UNL     1     -10.157  14.384  65.360  1.00  0.00    -0.388 A  
HETATM    6  H   UNL     1      -8.255  14.738  70.419  1.00  0.00     0.000 HD 
HETATM    7  O   UNL     1     -12.071  15.847  69.159  1.00  0.00    -0.339 OA 
HETATM    8  C   UNL     1      -8.250  13.705  67.949  1.00  0.00    -0.171 C  
HETATM    9  C   UNL     1      -7.083  14.497  67.361  1.00  0.00    -0.138 C  
HETATM   10  C   UNL     1     -10.697  13.560  64.368  1.00  0.00    -0.402 A  
HETATM   11  C   UNL     1     -12.158  14.147  66.665  1.00  0.00    -0.480 A  
HETATM   12  C   UNL     1      -6.438  15.360  68.437  1.00  0.00    -0.111 C  
HETATM   13  C   UNL     1     -11.977  13.041  64.517  1.00  0.00    -0.450 A  
HETATM   14  C   UNL     1      -7.478  16.188  69.188  1.00  0.00    -0.221 C  
HETATM   15  C   UNL     1     -12.714  13.351  65.655  1.00  0.00    -0.432 A  
HETATM   16  N   UNL     1      -8.581  15.368  69.685  1.00  0.00    -0.208 NA 
ENDROOT
BRANCH   3  17
HETATM   17  O   UNL     1     -10.755  17.613  68.547  1.00  0.00    -0.311 OA 
HETATM   18  C   UNL     1     -10.383  18.145  67.273  1.00  0.00    -0.386 C  
ENDBRANCH   3  17
TORSDOF 1
ENDMDL
MODEL       29
REMARK 921   NORMALIZED FREE ENERGY PREDICTED BY IDOCK:   -4.96 KCAL/MOL
REMARK 922        TOTAL FREE ENERGY PREDICTED BY IDOCK:   -5.30 KCAL/MOL
REMARK 923 INTER-LIGAND FREE ENERGY PREDICTED BY IDOCK:   -5.25 KCAL/MOL
REMARK 924 INTRA-LIGAND FREE ENERGY PREDICTED BY IDOCK:   -0.05 KCAL/MOL
REMARK 927      BINDING AFFINITY PREDICTED BY RF-SCORE:    0.00 PKD
ROOT
HETATM    1  C   UNL     1     -10.800  12.904  66.955  1.00  0.00    -0.278 C  
HETATM    2  C   UNL     1     -10.165  13.127  65.534  1.00  0.00    -0.287 C  
HETATM    3  C   UNL     1     -10.550  14.177  67.771  1.00  0.00    -0.243 C  
HETATM    4  C   UNL     1     -10.320  11.623  67.655  1.00  0.00    -0.210 A  
HETATM    5  C   UNL     1     -10.974  10.406  67.382  1.00  0.00    -0.335 A  
HETATM    6  H   UNL     1     -10.014  14.554  64.034  1.00  0.00     0.000 HD 
HETATM    7  O   UNL     1      -9.459  14.569  68.166  1.00  0.00    -0.196 OA 
HETATM    8  C   UNL     1     -10.312  11.945  64.555  1.00  0.00    -0.334 C  
HETATM    9  C   UNL     1     -11.746  11.766  64.063  1.00  0.00    -0.421 C  
HETATM   10  C   UNL     1     -10.514   9.193  67.905  1.00  0.00    -0.293 A  
HETATM   11  C   UNL     1      -9.222  11.580  68.530  1.00  0.00    -0.167 A  
HETATM   12  C   UNL     1     -12.252  13.056  63.433  1.00  0.00    -0.552 C  
HETATM   13  C   UNL     1      -9.416   9.176  68.755  1.00  0.00    -0.147 A  
HETATM   14  C   UNL     1     -12.021  14.254  64.352  1.00  0.00    -0.456 C  
HETATM   15  C   UNL     1      -8.783  10.371  69.082  1.00  0.00    -0.173 A  
HETATM   16  N   UNL     1     -10.637  14.336  64.812  1.00  0.00    -0.431 NA 
ENDROOT
BRANCH   3  17
HETATM   17  O   UNL     1     -11.707  14.892  67.912  1.00  0.00    -0.340 OA 
HETATM   18  C   UNL     1     -11.747  15.705  69.087  1.00  0.00    -0.390 C  
ENDBRANCH   3  17
TORSDOF 1
ENDMDL
MODEL       30
REMARK 921   NORMALIZED FREE ENERGY PREDICTED BY IDOCK:   -4.90 KCAL/MOL
REMARK 922        TOTAL FREE ENERGY PREDICTED BY IDOCK:   -5.24 KCAL/MOL
REMARK 923 INTER-LIGAND FREE ENERGY PREDICTED BY IDOCK:   -5.18 KCAL/MOL
REMARK 924 INTRA-LIGAND FREE ENERGY PREDICTED BY IDOCK:   -0.06 KCAL/MOL
REMARK 927      BINDING AFFINITY PREDICTED BY RF-SCORE:    0.00 PKD
ROOT
HETATM    1  C   UNL     1     -10.943   6.852  70.580  1.00  0.00    -0.304 C  
HETATM    2  C   UNL     1      -9.894   6.435  71.674  1.00  0.00    -0.167 C  
HETATM    3  C   UNL     1     -10.186   7.006  69.258  1.00  0.00    -0.186 C  
HETATM    4  C   UNL     1     -11.773   8.090  70.958  1.00  0.00    -0.295 A  
HETATM    5  C   UNL     1     -12.936   7.924  71.736  1.00  0.00    -0.351 A  
HETATM    6  H   UNL     1      -8.286   5.156  71.970  1.00  0.00     0.000 HD 
HETATM    7  O   UNL     1      -9.364   7.877  69.002  1.00  0.00    -0.151 OA 
HETATM    8  C   UNL     1     -10.466   6.231  73.092  1.00  0.00    -0.259 C  
HETATM    9  C   UNL     1     -11.324   4.972  73.203  1.00  0.00    -0.397 C  
HETATM   10  C   UNL     1     -13.670   9.020  72.200  1.00  0.00    -0.536 A  
HETATM   11  C   UNL     1     -11.416   9.402  70.609  1.00  0.00    -0.344 A  
HETATM   12  C   UNL     1     -10.527   3.752  72.759  1.00  0.00    -0.222 C  
HETATM   13  C   UNL     1     -13.285  10.309  71.854  1.00  0.00    -0.550 A  
HETATM   14  C   UNL     1      -9.870   3.977  71.400  1.00  0.00    -0.179 C  
HETATM   15  C   UNL     1     -12.171  10.498  71.043  1.00  0.00    -0.505 A  
HETATM   16  N   UNL     1      -9.101   5.220  71.359  1.00  0.00    -0.143 NA 
ENDROOT
BRANCH   3  17
HETATM   17  O   UNL     1     -10.468   5.962  68.419  1.00  0.00    -0.192 OA 
HETATM   18  C   UNL     1     -10.992   6.363  67.151  1.00  0.00    -0.399 C  
ENDBRANCH   3  17
TORSDOF 1
ENDMDL
MODEL       31
REMARK 921   NORMALIZED FREE ENERGY PREDICTED BY IDOCK:   -4.87 KCAL/MOL
REMARK 922        TOTAL FREE ENERGY PREDICTED BY IDOCK:   -5.20 KCAL/MOL
REMARK 923 INTER-LIGAND FREE ENERGY PREDICTED BY IDOCK:   -5.10 KCAL/MOL
REMARK 924 INTRA-LIGAND FREE ENERGY PREDICTED BY IDOCK:   -0.10 KCAL/MOL
REMARK 927      BINDING AFFINITY PREDICTED BY RF-SCORE:    0.00 PKD
ROOT
HETATM    1  C   UNL     1     -10.920  11.207  67.963  1.00  0.00    -0.307 C  
HETATM    2  C   UNL     1      -9.443  11.739  68.066  1.00  0.00    -0.188 C  
HETATM    3  C   UNL     1     -11.757  12.309  67.308  1.00  0.00    -0.324 C  
HETATM    4  C   UNL     1     -11.495  10.714  69.300  1.00  0.00    -0.351 A  
HETATM    5  C   UNL     1     -11.248   9.387  69.706  1.00  0.00    -0.139 A  
HETATM    6  H   UNL     1      -8.005  12.744  66.959  1.00  0.00     0.000 HD 
HETATM    7  O   UNL     1     -12.034  13.391  67.811  1.00  0.00    -0.351 OA 
HETATM    8  C   UNL     1      -8.435  10.764  68.708  1.00  0.00    -0.148 C  
HETATM    9  C   UNL     1      -8.114   9.574  67.806  1.00  0.00    -0.106 C  
HETATM   10  C   UNL     1     -11.654   8.917  70.959  1.00  0.00    -0.347 A  
HETATM   11  C   UNL     1     -12.226  11.528  70.179  1.00  0.00    -0.387 A  
HETATM   12  C   UNL     1      -7.612  10.060  66.453  1.00  0.00    -0.104 C  
HETATM   13  C   UNL     1     -12.361   9.748  71.817  1.00  0.00    -0.470 A  
HETATM   14  C   UNL     1      -8.550  11.102  65.850  1.00  0.00    -0.135 C  
HETATM   15  C   UNL     1     -12.664  11.046  71.419  1.00  0.00    -0.534 A  
HETATM   16  N   UNL     1      -8.842  12.187  66.785  1.00  0.00    -0.201 NA 
ENDROOT
BRANCH   3  17
HETATM   17  O   UNL     1     -12.072  11.971  66.020  1.00  0.00    -0.561 OA 
HETATM   18  C   UNL     1     -12.254  13.094  65.154  1.00  0.00    -0.450 C  
ENDBRANCH   3  17
TORSDOF 1
ENDMDL
MODEL       32
REMARK 921   NORMALIZED FREE ENERGY PREDICTED BY IDOCK:   -4.86 KCAL/MOL
REMARK 922        TOTAL FREE ENERGY PREDICTED BY IDOCK:   -5.19 KCAL/MOL
REMARK 923 INTER-LIGAND FREE ENERGY PREDICTED BY IDOCK:   -5.06 KCAL/MOL
REMARK 924 INTRA-LIGAND FREE ENERGY PREDICTED BY IDOCK:   -0.13 KCAL/MOL
REMARK 927      BINDING AFFINITY PREDICTED BY RF-SCORE:    0.00 PKD
ROOT
HETATM    1  C   UNL     1     -10.675  11.640  66.458  1.00  0.00    -0.313 C  
HETATM    2  C   UNL     1     -11.395  10.471  67.225  1.00  0.00     0.024 C  
HETATM    3  C   UNL     1     -11.738  12.694  66.133  1.00  0.00    -0.406 C  
HETATM    4  C   UNL     1      -9.877  11.176  65.229  1.00  0.00    -0.296 A  
HETATM    5  C   UNL     1      -8.552  10.729  65.401  1.00  0.00    -0.162 A  
HETATM    6  H   UNL     1     -12.780  10.137  68.734  1.00  0.00     0.000 HD 
HETATM    7  O   UNL     1     -12.662  12.557  65.341  1.00  0.00    -0.624 OA 
HETATM    8  C   UNL     1     -10.485   9.298  67.642  1.00  0.00    -0.325 C  
HETATM    9  C   UNL     1      -9.531   9.671  68.776  1.00  0.00    -0.148 C  
HETATM   10  C   UNL     1      -7.815  10.195  64.340  1.00  0.00    -0.138 A  
HETATM   11  C   UNL     1     -10.408  11.126  63.931  1.00  0.00    -0.441 A  
HETATM   12  C   UNL     1     -10.314  10.200  69.969  1.00  0.00    -0.301 C  
HETATM   13  C   UNL     1      -8.370  10.141  63.067  1.00  0.00    -0.169 A  
HETATM   14  C   UNL     1     -11.294  11.295  69.555  1.00  0.00    -0.294 C  
HETATM   15  C   UNL     1      -9.657  10.625  62.860  1.00  0.00    -0.358 A  
HETATM   16  N   UNL     1     -12.144  10.879  68.440  1.00  0.00    -0.517 NA 
ENDROOT
BRANCH   3  17
HETATM   17  O   UNL     1     -11.586  13.792  66.935  1.00  0.00    -0.333 OA 
HETATM   18  C   UNL     1     -10.230  14.058  67.303  1.00  0.00    -0.260 C  
ENDBRANCH   3  17
TORSDOF 1
ENDMDL
MODEL       33
REMARK 921   NORMALIZED FREE ENERGY PREDICTED BY IDOCK:   -4.85 KCAL/MOL
REMARK 922        TOTAL FREE ENERGY PREDICTED BY IDOCK:   -5.18 KCAL/MOL
REMARK 923 INTER-LIGAND FREE ENERGY PREDICTED BY IDOCK:   -5.08 KCAL/MOL
REMARK 924 INTRA-LIGAND FREE ENERGY PREDICTED BY IDOCK:   -0.10 KCAL/MOL
REMARK 927      BINDING AFFINITY PREDICTED BY RF-SCORE:    0.00 PKD
ROOT
HETATM    1  C   UNL     1     -10.816  13.078  65.353  1.00  0.00    -0.304 C  
HETATM    2  C   UNL     1     -11.925  12.572  66.346  1.00  0.00    -0.318 C  
HETATM    3  C   UNL     1     -11.477  14.081  64.403  1.00  0.00    -0.344 C  
HETATM    4  C   UNL     1     -10.071  11.946  64.627  1.00  0.00    -0.301 A  
HETATM    5  C   UNL     1      -8.964  11.341  65.254  1.00  0.00    -0.079 A  
HETATM    6  H   UNL     1     -13.493  13.270  67.513  1.00  0.00     0.000 HD 
HETATM    7  O   UNL     1     -12.316  13.812  63.551  1.00  0.00    -0.706 OA 
HETATM    8  C   UNL     1     -11.453  11.542  67.392  1.00  0.00    -0.349 C  
HETATM    9  C   UNL     1     -10.552  12.160  68.459  1.00  0.00    -0.252 C  
HETATM   10  C   UNL     1      -8.316  10.237  64.690  1.00  0.00    -0.169 A  
HETATM   11  C   UNL     1     -10.458  11.438  63.377  1.00  0.00    -0.452 A  
HETATM   12  C   UNL     1     -11.259  13.329  69.131  1.00  0.00    -0.305 C  
HETATM   13  C   UNL     1      -8.729   9.743  63.460  1.00  0.00    -0.234 A  
HETATM   14  C   UNL     1     -11.821  14.308  68.104  1.00  0.00    -0.339 C  
HETATM   15  C   UNL     1      -9.786  10.356  62.795  1.00  0.00    -0.233 A  
HETATM   16  N   UNL     1     -12.638  13.637  67.094  1.00  0.00     0.001 NA 
ENDROOT
BRANCH   3  17
HETATM   17  O   UNL     1     -11.088  15.357  64.706  1.00  0.00    -0.416 OA 
HETATM   18  C   UNL     1      -9.806  15.438  65.334  1.00  0.00    -0.279 C  
ENDBRANCH   3  17
TORSDOF 1
ENDMDL
MODEL       34
REMARK 921   NORMALIZED FREE ENERGY PREDICTED BY IDOCK:   -4.83 KCAL/MOL
REMARK 922        TOTAL FREE ENERGY PREDICTED BY IDOCK:   -5.16 KCAL/MOL
REMARK 923 INTER-LIGAND FREE ENERGY PREDICTED BY IDOCK:   -5.04 KCAL/MOL
REMARK 924 INTRA-LIGAND FREE ENERGY PREDICTED BY IDOCK:   -0.12 KCAL/MOL
REMARK 927      BINDING AFFINITY PREDICTED BY RF-SCORE:    0.00 PKD
ROOT
HETATM    1  C   UNL     1      -9.154  15.409  67.179  1.00  0.00    -0.236 C  
HETATM    2  C   UNL     1     -10.327  14.406  67.481  1.00  0.00    -0.251 C  
HETATM    3  C   UNL     1      -7.964  14.995  68.050  1.00  0.00    -0.130 C  
HETATM    4  C   UNL     1      -9.546  16.887  67.340  1.00  0.00    -0.241 A  
HETATM    5  C   UNL     1     -10.145  17.559  66.256  1.00  0.00    -0.341 A  
HETATM    6  H   UNL     1     -10.696  12.381  67.745  1.00  0.00     0.000 HD 
HETATM    7  O   UNL     1      -7.909  15.079  69.271  1.00  0.00    -0.176 OA 
HETATM    8  C   UNL     1     -11.629  14.659  66.695  1.00  0.00    -0.359 C  
HETATM    9  C   UNL     1     -11.497  14.311  65.213  1.00  0.00    -0.344 C  
HETATM   10  C   UNL     1     -10.621  18.869  66.379  1.00  0.00    -0.460 A  
HETATM   11  C   UNL     1      -9.384  17.608  68.533  1.00  0.00    -0.291 A  
HETATM   12  C   UNL     1     -11.038  12.869  65.051  1.00  0.00    -0.320 C  
HETATM   13  C   UNL     1     -10.462  19.555  67.576  1.00  0.00    -0.596 A  
HETATM   14  C   UNL     1      -9.806  12.574  65.903  1.00  0.00    -0.247 C  
HETATM   15  C   UNL     1      -9.827  18.933  68.645  1.00  0.00    -0.463 A  
HETATM   16  N   UNL     1      -9.994  12.971  67.297  1.00  0.00    -0.229 NA 
ENDROOT
BRANCH   3  17
HETATM   17  O   UNL     1      -6.994  14.406  67.287  1.00  0.00    -0.209 OA 
HETATM   18  C   UNL     1      -6.444  13.219  67.864  1.00  0.00    -0.147 C  
ENDBRANCH   3  17
TORSDOF 1
ENDMDL
MODEL       35
REMARK 921   NORMALIZED FREE ENERGY PREDICTED BY IDOCK:   -4.81 KCAL/MOL
REMARK 922        TOTAL FREE ENERGY PREDICTED BY IDOCK:   -5.14 KCAL/MOL
REMARK 923 INTER-LIGAND FREE ENERGY PREDICTED BY IDOCK:   -5.06 KCAL/MOL
REMARK 924 INTRA-LIGAND FREE ENERGY PREDICTED BY IDOCK:   -0.08 KCAL/MOL
REMARK 927      BINDING AFFINITY PREDICTED BY RF-SCORE:    0.00 PKD
ROOT
HETATM    1  C   UNL     1     -10.568  11.911  67.432  1.00  0.00    -0.257 C  
HETATM    2  C   UNL     1     -10.984  10.578  68.156  1.00  0.00    -0.277 C  
HETATM    3  C   UNL     1     -10.996  13.072  68.335  1.00  0.00    -0.262 C  
HETATM    4  C   UNL     1     -11.098  12.027  65.994  1.00  0.00    -0.364 A  
HETATM    5  C   UNL     1     -10.358  11.450  64.943  1.00  0.00    -0.347 A  
HETATM    6  H   UNL     1     -10.959   9.676  70.024  1.00  0.00     0.000 HD 
HETATM    7  O   UNL     1     -12.150  13.400  68.579  1.00  0.00    -0.352 OA 
HETATM    8  C   UNL     1     -10.637   9.282  67.397  1.00  0.00    -0.324 C  
HETATM    9  C   UNL     1      -9.137   8.995  67.381  1.00  0.00    -0.146 C  
HETATM   10  C   UNL     1     -10.843  11.430  63.631  1.00  0.00    -0.459 A  
HETATM   11  C   UNL     1     -12.315  12.642  65.661  1.00  0.00    -0.390 A  
HETATM   12  C   UNL     1      -8.594   8.952  68.802  1.00  0.00    -0.136 C  
HETATM   13  C   UNL     1     -12.059  12.031  63.331  1.00  0.00    -0.597 A  
HETATM   14  C   UNL     1      -9.015  10.184  69.599  1.00  0.00    -0.169 C  
HETATM   15  C   UNL     1     -12.784  12.654  64.341  1.00  0.00    -0.417 A  
HETATM   16  N   UNL     1     -10.456  10.416  69.534  1.00  0.00    -0.236 NA 
ENDROOT
BRANCH   3  17
HETATM   17  O   UNL     1      -9.905  13.641  68.935  1.00  0.00    -0.118 OA 
HETATM   18  C   UNL     1      -9.490  14.871  68.335  1.00  0.00    -0.209 C  
ENDBRANCH   3  17
TORSDOF 1
ENDMDL
MODEL       36
REMARK 921   NORMALIZED FREE ENERGY PREDICTED BY IDOCK:   -4.80 KCAL/MOL
REMARK 922        TOTAL FREE ENERGY PREDICTED BY IDOCK:   -5.13 KCAL/MOL
REMARK 923 INTER-LIGAND FREE ENERGY PREDICTED BY IDOCK:   -5.06 KCAL/MOL
REMARK 924 INTRA-LIGAND FREE ENERGY PREDICTED BY IDOCK:   -0.07 KCAL/MOL
REMARK 927      BINDING AFFINITY PREDICTED BY RF-SCORE:    0.00 PKD
ROOT
HETATM    1  C   UNL     1     -10.814  13.199  67.218  1.00  0.00    -0.270 C  
HETATM    2  C   UNL     1     -11.514  14.002  66.062  1.00  0.00    -0.338 C  
HETATM    3  C   UNL     1     -11.875  12.923  68.289  1.00  0.00    -0.330 C  
HETATM    4  C   UNL     1      -9.551  13.880  67.769  1.00  0.00    -0.222 A  
HETATM    5  C   UNL     1      -8.317  13.658  67.127  1.00  0.00    -0.151 A  
HETATM    6  H   UNL     1     -13.255  14.026  64.932  1.00  0.00     0.000 HD 
HETATM    7  O   UNL     1     -12.404  13.764  69.004  1.00  0.00    -0.302 OA 
HETATM    8  C   UNL     1     -10.602  14.382  64.878  1.00  0.00    -0.456 C  
HETATM    9  C   UNL     1     -10.217  13.175  64.025  1.00  0.00    -0.050 C  
HETATM   10  C   UNL     1      -7.156  14.333  67.516  1.00  0.00    -0.189 A  
HETATM   11  C   UNL     1      -9.556  14.759  68.863  1.00  0.00    -0.210 A  
HETATM   12  C   UNL     1     -11.466  12.455  63.537  1.00  0.00    -0.561 C  
HETATM   13  C   UNL     1      -7.192  15.211  68.592  1.00  0.00    -0.118 A  
HETATM   14  C   UNL     1     -12.427  12.161  64.686  1.00  0.00    -0.236 C  
HETATM   15  C   UNL     1      -8.386  15.408  69.277  1.00  0.00    -0.254 A  
HETATM   16  N   UNL     1     -12.717  13.355  65.480  1.00  0.00    -0.524 NA 
ENDROOT
BRANCH   3  17
HETATM   17  O   UNL     1     -12.244  11.606  68.270  1.00  0.00    -0.525 OA 
HETATM   18  C   UNL     1     -11.832  10.871  69.425  1.00  0.00    -0.328 C  
ENDBRANCH   3  17
TORSDOF 1
ENDMDL
MODEL       37
REMARK 921   NORMALIZED FREE ENERGY PREDICTED BY IDOCK:   -4.80 KCAL/MOL
REMARK 922        TOTAL FREE ENERGY PREDICTED BY IDOCK:   -5.12 KCAL/MOL
REMARK 923 INTER-LIGAND FREE ENERGY PREDICTED BY IDOCK:   -5.03 KCAL/MOL
REMARK 924 INTRA-LIGAND FREE ENERGY PREDICTED BY IDOCK:   -0.10 KCAL/MOL
REMARK 927      BINDING AFFINITY PREDICTED BY RF-SCORE:    0.00 PKD
ROOT
HETATM    1  C   UNL     1     -11.614   8.014  70.724  1.00  0.00    -0.251 C  
HETATM    2  C   UNL     1     -10.675   9.271  70.623  1.00  0.00    -0.269 C  
HETATM    3  C   UNL     1     -12.157   7.964  72.156  1.00  0.00    -0.326 C  
HETATM    4  C   UNL     1     -10.947   6.704  70.276  1.00  0.00    -0.355 A  
HETATM    5  C   UNL     1     -10.956   6.362  68.909  1.00  0.00    -0.412 A  
HETATM    6  H   UNL     1     -10.585  11.272  71.167  1.00  0.00     0.000 HD 
HETATM    7  O   UNL     1     -11.498   7.727  73.162  1.00  0.00    -0.330 OA 
HETATM    8  C   UNL     1     -10.023   9.496  69.244  1.00  0.00    -0.191 C  
HETATM    9  C   UNL     1     -11.026   9.960  68.190  1.00  0.00    -0.261 C  
HETATM   10  C   UNL     1     -10.272   5.240  68.430  1.00  0.00    -0.206 A  
HETATM   11  C   UNL     1     -10.278   5.833  71.151  1.00  0.00    -0.275 A  
HETATM   12  C   UNL     1     -11.742  11.217  68.662  1.00  0.00    -0.391 C  
HETATM   13  C   UNL     1      -9.604   4.404  69.315  1.00  0.00    -0.261 A  
HETATM   14  C   UNL     1     -12.308  11.044  70.070  1.00  0.00    -0.305 C  
HETATM   15  C   UNL     1      -9.624   4.689  70.676  1.00  0.00    -0.261 A  
HETATM   16  N   UNL     1     -11.300  10.560  71.012  1.00  0.00    -0.153 NA 
ENDROOT
BRANCH   3  17
HETATM   17  O   UNL     1     -13.474   8.332  72.183  1.00  0.00    -0.319 OA 
HETATM   18  C   UNL     1     -14.354   7.379  71.582  1.00  0.00    -0.461 C  
ENDBRANCH   3  17
TORSDOF 1
ENDMDL
MODEL       38
REMARK 921   NORMALIZED FREE ENERGY PREDICTED BY IDOCK:   -4.79 KCAL/MOL
REMARK 922        TOTAL FREE ENERGY PREDICTED BY IDOCK:   -5.12 KCAL/MOL
REMARK 923 INTER-LIGAND FREE ENERGY PREDICTED BY IDOCK:   -5.07 KCAL/MOL
REMARK 924 INTRA-LIGAND FREE ENERGY PREDICTED BY IDOCK:   -0.05 KCAL/MOL
REMARK 927      BINDING AFFINITY PREDICTED BY RF-SCORE:    0.00 PKD
ROOT
HETATM    1  C   UNL     1     -10.932   7.959  70.330  1.00  0.00    -0.251 C  
HETATM    2  C   UNL     1      -9.662   7.731  71.230  1.00  0.00    -0.157 C  
HETATM    3  C   UNL     1     -10.517   7.691  68.880  1.00  0.00    -0.199 C  
HETATM    4  C   UNL     1     -11.597   9.330  70.533  1.00  0.00    -0.266 A  
HETATM    5  C   UNL     1     -12.538   9.488  71.569  1.00  0.00    -0.462 A  
HETATM    6  H   UNL     1      -8.080   6.414  71.492  1.00  0.00     0.000 HD 
HETATM    7  O   UNL     1      -9.750   8.379  68.217  1.00  0.00    -0.149 OA 
HETATM    8  C   UNL     1      -9.876   7.956  72.740  1.00  0.00    -0.335 C  
HETATM    9  C   UNL     1     -10.727   6.861  73.382  1.00  0.00    -0.352 C  
HETATM   10  C   UNL     1     -13.094  10.735  71.870  1.00  0.00    -0.557 A  
HETATM   11  C   UNL     1     -11.288  10.465  69.768  1.00  0.00    -0.353 A  
HETATM   12  C   UNL     1     -10.109   5.494  73.120  1.00  0.00    -0.201 C  
HETATM   13  C   UNL     1     -12.759  11.847  71.108  1.00  0.00    -0.384 A  
HETATM   14  C   UNL     1      -9.798   5.296  71.638  1.00  0.00    -0.170 C  
HETATM   15  C   UNL     1     -11.872  11.707  70.046  1.00  0.00    -0.435 A  
HETATM   16  N   UNL     1      -9.017   6.402  71.087  1.00  0.00    -0.145 NA 
ENDROOT
BRANCH   3  17
HETATM   17  O   UNL     1     -11.035   6.502  68.445  1.00  0.00    -0.277 OA 
HETATM   18  C   UNL     1     -10.858   6.270  67.045  1.00  0.00    -0.383 C  
ENDBRANCH   3  17
TORSDOF 1
ENDMDL
MODEL       39
REMARK 921   NORMALIZED FREE ENERGY PREDICTED BY IDOCK:   -4.79 KCAL/MOL
REMARK 922        TOTAL FREE ENERGY PREDICTED BY IDOCK:   -5.12 KCAL/MOL
REMARK 923 INTER-LIGAND FREE ENERGY PREDICTED BY IDOCK:   -5.00 KCAL/MOL
REMARK 924 INTRA-LIGAND FREE ENERGY PREDICTED BY IDOCK:   -0.11 KCAL/MOL
REMARK 927      BINDING AFFINITY PREDICTED BY RF-SCORE:    0.00 PKD
ROOT
HETATM    1  C   UNL     1      -9.020  18.199  67.741  1.00  0.00    -0.266 C  
HETATM    2  C   UNL     1      -7.641  18.066  68.484  1.00  0.00    -0.291 C  
HETATM    3  C   UNL     1      -9.709  19.456  68.280  1.00  0.00    -0.397 C  
HETATM    4  C   UNL     1      -9.894  16.938  67.825  1.00  0.00    -0.252 A  
HETATM    5  C   UNL     1      -9.703  15.907  66.884  1.00  0.00    -0.241 A  
HETATM    6  H   UNL     1      -6.011  19.200  69.087  1.00  0.00     0.000 HD 
HETATM    7  O   UNL     1     -10.148  19.600  69.415  1.00  0.00    -0.390 OA 
HETATM    8  C   UNL     1      -6.788  16.847  68.077  1.00  0.00    -0.155 C  
HETATM    9  C   UNL     1      -6.202  16.984  66.673  1.00  0.00    -0.240 C  
HETATM   10  C   UNL     1     -10.393  14.694  66.976  1.00  0.00    -0.263 A  
HETATM   11  C   UNL     1     -10.856  16.724  68.825  1.00  0.00    -0.318 A  
HETATM   12  C   UNL     1      -5.395  18.270  66.564  1.00  0.00    -0.174 C  
HETATM   13  C   UNL     1     -11.327  14.501  67.986  1.00  0.00    -0.326 A  
HETATM   14  C   UNL     1      -6.192  19.474  67.059  1.00  0.00    -0.187 C  
HETATM   15  C   UNL     1     -11.573  15.523  68.896  1.00  0.00    -0.384 A  
HETATM   16  N   UNL     1      -6.754  19.253  68.390  1.00  0.00    -0.254 NA 
ENDROOT
BRANCH   3  17
HETATM   17  O   UNL     1      -9.674  20.459  67.350  1.00  0.00    -0.418 OA 
HETATM   18  C   UNL     1     -10.112  20.059  66.050  1.00  0.00    -0.450 C  
ENDBRANCH   3  17
TORSDOF 1
ENDMDL
MODEL       40
REMARK 921   NORMALIZED FREE ENERGY PREDICTED BY IDOCK:   -4.73 KCAL/MOL
REMARK 922        TOTAL FREE ENERGY PREDICTED BY IDOCK:   -5.06 KCAL/MOL
REMARK 923 INTER-LIGAND FREE ENERGY PREDICTED BY IDOCK:   -4.93 KCAL/MOL
REMARK 924 INTRA-LIGAND FREE ENERGY PREDICTED BY IDOCK:   -0.12 KCAL/MOL
REMARK 927      BINDING AFFINITY PREDICTED BY RF-SCORE:    0.00 PKD
ROOT
HETATM    1  C   UNL     1     -10.280   9.919  70.180  1.00  0.00    -0.326 C  
HETATM    2  C   UNL     1     -10.544  10.346  68.689  1.00  0.00    -0.209 C  
HETATM    3  C   UNL     1      -8.998   9.080  70.193  1.00  0.00    -0.184 C  
HETATM    4  C   UNL     1     -11.476   9.220  70.846  1.00  0.00    -0.367 A  
HETATM    5  C   UNL     1     -12.479  10.004  71.449  1.00  0.00    -0.510 A  
HETATM    6  H   UNL     1      -9.558  11.076  67.016  1.00  0.00     0.000 HD 
HETATM    7  O   UNL     1      -8.869   7.965  69.703  1.00  0.00    -0.137 OA 
HETATM    8  C   UNL     1     -11.805  11.204  68.464  1.00  0.00    -0.330 C  
HETATM    9  C   UNL     1     -11.655  12.622  69.013  1.00  0.00    -0.367 C  
HETATM   10  C   UNL     1     -13.641   9.430  71.974  1.00  0.00    -0.505 A  
HETATM   11  C   UNL     1     -11.658   7.828  70.852  1.00  0.00    -0.289 A  
HETATM   12  C   UNL     1     -10.428  13.292  68.410  1.00  0.00    -0.261 C  
HETATM   13  C   UNL     1     -13.804   8.051  71.952  1.00  0.00    -0.418 A  
HETATM   14  C   UNL     1      -9.189  12.409  68.536  1.00  0.00    -0.076 C  
HETATM   15  C   UNL     1     -12.805   7.250  71.410  1.00  0.00    -0.425 A  
HETATM   16  N   UNL     1      -9.423  11.058  68.027  1.00  0.00    -0.162 NA 
ENDROOT
BRANCH   3  17
HETATM   17  O   UNL     1      -7.964   9.793  70.735  1.00  0.00    -0.288 OA 
HETATM   18  C   UNL     1      -6.720   9.621  70.052  1.00  0.00    -0.079 C  
ENDBRANCH   3  17
TORSDOF 1
ENDMDL
MODEL       41
REMARK 921   NORMALIZED FREE ENERGY PREDICTED BY IDOCK:   -4.71 KCAL/MOL
REMARK 922        TOTAL FREE ENERGY PREDICTED BY IDOCK:   -5.04 KCAL/MOL
REMARK 923 INTER-LIGAND FREE ENERGY PREDICTED BY IDOCK:   -4.92 KCAL/MOL
REMARK 924 INTRA-LIGAND FREE ENERGY PREDICTED BY IDOCK:   -0.11 KCAL/MOL
REMARK 927      BINDING AFFINITY PREDICTED BY RF-SCORE:    0.00 PKD
ROOT
HETATM    1  C   UNL     1      -9.372  15.745  66.378  1.00  0.00    -0.333 C  
HETATM    2  C   UNL     1      -9.634  15.678  67.927  1.00  0.00    -0.206 C  
HETATM    3  C   UNL     1      -9.403  17.222  65.974  1.00  0.00    -0.097 C  
HETATM    4  C   UNL     1     -10.321  14.863  65.551  1.00  0.00    -0.388 A  
HETATM    5  C   UNL     1      -9.999  13.506  65.354  1.00  0.00    -0.220 A  
HETATM    6  H   UNL     1      -9.085  16.602  69.703  1.00  0.00     0.000 HD 
HETATM    7  O   UNL     1     -10.393  17.944  65.979  1.00  0.00    -0.458 OA 
HETATM    8  C   UNL     1      -9.644  14.260  68.533  1.00  0.00    -0.220 C  
HETATM    9  C   UNL     1      -8.252  13.632  68.579  1.00  0.00    -0.112 C  
HETATM   10  C   UNL     1     -10.875  12.632  64.703  1.00  0.00    -0.349 A  
HETATM   11  C   UNL     1     -11.532  15.321  65.008  1.00  0.00    -0.300 A  
HETATM   12  C   UNL     1      -7.291  14.538  69.335  1.00  0.00    -0.098 C  
HETATM   13  C   UNL     1     -12.075  13.107  64.189  1.00  0.00    -0.496 A  
HETATM   14  C   UNL     1      -7.344  15.971  68.812  1.00  0.00    -0.165 C  
HETATM   15  C   UNL     1     -12.394  14.454  64.324  1.00  0.00    -0.402 A  
HETATM   16  N   UNL     1      -8.710  16.488  68.761  1.00  0.00    -0.250 NA 
ENDROOT
BRANCH   3  17
HETATM   17  O   UNL     1      -8.140  17.673  65.705  1.00  0.00    -0.550 OA 
HETATM   18  C   UNL     1      -7.824  18.918  66.331  1.00  0.00    -0.280 C  
ENDBRANCH   3  17
TORSDOF 1
ENDMDL
MODEL       42
REMARK 921   NORMALIZED FREE ENERGY PREDICTED BY IDOCK:   -4.71 KCAL/MOL
REMARK 922        TOTAL FREE ENERGY PREDICTED BY IDOCK:   -5.03 KCAL/MOL
REMARK 923 INTER-LIGAND FREE ENERGY PREDICTED BY IDOCK:   -4.96 KCAL/MOL
REMARK 924 INTRA-LIGAND FREE ENERGY PREDICTED BY IDOCK:   -0.08 KCAL/MOL
REMARK 927      BINDING AFFINITY PREDICTED BY RF-SCORE:    0.00 PKD
ROOT
HETATM    1  C   UNL     1     -10.751   6.954  71.216  1.00  0.00    -0.249 C  
HETATM    2  C   UNL     1     -11.054   6.139  69.906  1.00  0.00    -0.410 C  
HETATM    3  C   UNL     1     -10.952   6.005  72.401  1.00  0.00    -0.260 C  
HETATM    4  C   UNL     1     -11.555   8.259  71.333  1.00  0.00    -0.322 A  
HETATM    5  C   UNL     1     -11.060   9.427  70.720  1.00  0.00    -0.365 A  
HETATM    6  H   UNL     1     -10.683   4.297  69.024  1.00  0.00     0.000 HD 
HETATM    7  O   UNL     1     -12.024   5.541  72.771  1.00  0.00    -0.237 OA 
HETATM    8  C   UNL     1     -10.907   6.928  68.590  1.00  0.00    -0.236 C  
HETATM    9  C   UNL     1      -9.450   7.240  68.252  1.00  0.00    -0.141 C  
HETATM   10  C   UNL     1     -11.798  10.614  70.701  1.00  0.00    -0.463 A  
HETATM   11  C   UNL     1     -12.794   8.353  71.985  1.00  0.00    -0.389 A  
HETATM   12  C   UNL     1      -8.635   5.955  68.207  1.00  0.00    -0.113 C  
HETATM   13  C   UNL     1     -13.030  10.675  71.340  1.00  0.00    -0.545 A  
HETATM   14  C   UNL     1      -8.848   5.113  69.462  1.00  0.00    -0.099 C  
HETATM   15  C   UNL     1     -13.518   9.552  71.998  1.00  0.00    -0.522 A  
HETATM   16  N   UNL     1     -10.266   4.891  69.741  1.00  0.00    -0.253 NA 
ENDROOT
BRANCH   3  17
HETATM   17  O   UNL     1      -9.746   5.647  72.939  1.00  0.00    -0.155 OA 
HETATM   18  C   UNL     1      -9.418   6.345  74.142  1.00  0.00    -0.199 C  
ENDBRANCH   3  17
TORSDOF 1
ENDMDL
MODEL       43
REMARK 921   NORMALIZED FREE ENERGY PREDICTED BY IDOCK:   -4.70 KCAL/MOL
REMARK 922        TOTAL FREE ENERGY PREDICTED BY IDOCK:   -5.03 KCAL/MOL
REMARK 923 INTER-LIGAND FREE ENERGY PREDICTED BY IDOCK:   -4.90 KCAL/MOL
REMARK 924 INTRA-LIGAND FREE ENERGY PREDICTED BY IDOCK:   -0.13 KCAL/MOL
REMARK 927      BINDING AFFINITY PREDICTED BY RF-SCORE:    0.00 PKD
ROOT
HETATM    1  C   UNL     1      -9.919  10.140  69.824  1.00  0.00    -0.258 C  
HETATM    2  C   UNL     1     -10.197   9.935  68.289  1.00  0.00    -0.176 C  
HETATM    3  C   UNL     1      -8.689   9.301  70.181  1.00  0.00    -0.204 C  
HETATM    4  C   UNL     1     -11.137   9.852  70.717  1.00  0.00    -0.417 A  
HETATM    5  C   UNL     1     -12.077  10.876  70.945  1.00  0.00    -0.455 A  
HETATM    6  H   UNL     1      -9.213   9.852  66.464  1.00  0.00     0.000 HD 
HETATM    7  O   UNL     1      -8.637   8.077  70.192  1.00  0.00    -0.127 OA 
HETATM    8  C   UNL     1     -11.411  10.704  67.731  1.00  0.00    -0.320 C  
HETATM    9  C   UNL     1     -11.165  12.209  67.650  1.00  0.00    -0.345 C  
HETATM   10  C   UNL     1     -13.257  10.642  71.659  1.00  0.00    -0.495 A  
HETATM   11  C   UNL     1     -11.399   8.600  71.294  1.00  0.00    -0.341 A  
HETATM   12  C   UNL     1      -9.917  12.494  66.826  1.00  0.00    -0.234 C  
HETATM   13  C   UNL     1     -13.500   9.389  72.205  1.00  0.00    -0.539 A  
HETATM   14  C   UNL     1      -8.729  11.664  67.304  1.00  0.00    -0.159 C  
HETATM   15  C   UNL     1     -12.563   8.375  72.040  1.00  0.00    -0.400 A  
HETATM   16  N   UNL     1      -9.053  10.241  67.394  1.00  0.00    -0.138 NA 
ENDROOT
BRANCH   3  17
HETATM   17  O   UNL     1      -7.601  10.106  70.383  1.00  0.00    -0.249 OA 
HETATM   18  C   UNL     1      -6.391   9.598  69.817  1.00  0.00    -0.047 C  
ENDBRANCH   3  17
TORSDOF 1
ENDMDL
MODEL       44
REMARK 921   NORMALIZED FREE ENERGY PREDICTED BY IDOCK:   -4.70 KCAL/MOL
REMARK 922        TOTAL FREE ENERGY PREDICTED BY IDOCK:   -5.02 KCAL/MOL
REMARK 923 INTER-LIGAND FREE ENERGY PREDICTED BY IDOCK:   -4.92 KCAL/MOL
REMARK 924 INTRA-LIGAND FREE ENERGY PREDICTED BY IDOCK:   -0.10 KCAL/MOL
REMARK 927      BINDING AFFINITY PREDICTED BY RF-SCORE:    0.00 PKD
ROOT
HETATM    1  C   UNL     1     -10.009  12.921  67.126  1.00  0.00    -0.240 C  
HETATM    2  C   UNL     1      -9.352  14.347  67.034  1.00  0.00    -0.242 C  
HETATM    3  C   UNL     1      -8.900  11.931  67.496  1.00  0.00    -0.169 C  
HETATM    4  C   UNL     1     -10.796  12.518  65.868  1.00  0.00    -0.302 A  
HETATM    5  C   UNL     1     -12.140  12.919  65.743  1.00  0.00    -0.513 A  
HETATM    6  H   UNL     1      -8.017  15.581  68.033  1.00  0.00     0.000 HD 
HETATM    7  O   UNL     1      -7.963  11.607  66.776  1.00  0.00    -0.161 OA 
HETATM    8  C   UNL     1     -10.316  15.493  66.666  1.00  0.00    -0.287 C  
HETATM    9  C   UNL     1     -11.281  15.834  67.800  1.00  0.00    -0.286 C  
HETATM   10  C   UNL     1     -12.872  12.675  64.576  1.00  0.00    -0.356 A  
HETATM   11  C   UNL     1     -10.237  11.802  64.798  1.00  0.00    -0.324 A  
HETATM   12  C   UNL     1     -10.507  16.163  69.069  1.00  0.00    -0.261 C  
HETATM   13  C   UNL     1     -12.290  11.979  63.525  1.00  0.00    -0.661 A  
HETATM   14  C   UNL     1      -9.476  15.083  69.391  1.00  0.00    -0.127 C  
HETATM   15  C   UNL     1     -10.980  11.525  63.644  1.00  0.00    -0.482 A  
HETATM   16  N   UNL     1      -8.617  14.784  68.247  1.00  0.00    -0.157 NA 
ENDROOT
BRANCH   3  17
HETATM   17  O   UNL     1      -9.029  11.530  68.797  1.00  0.00    -0.143 OA 
HETATM   18  C   UNL     1     -10.187  10.729  69.045  1.00  0.00    -0.213 C  
ENDBRANCH   3  17
TORSDOF 1
ENDMDL
MODEL       45
REMARK 921   NORMALIZED FREE ENERGY PREDICTED BY IDOCK:   -4.70 KCAL/MOL
REMARK 922        TOTAL FREE ENERGY PREDICTED BY IDOCK:   -5.02 KCAL/MOL
REMARK 923 INTER-LIGAND FREE ENERGY PREDICTED BY IDOCK:   -4.90 KCAL/MOL
REMARK 924 INTRA-LIGAND FREE ENERGY PREDICTED BY IDOCK:   -0.12 KCAL/MOL
REMARK 927      BINDING AFFINITY PREDICTED BY RF-SCORE:    0.00 PKD
ROOT
HETATM    1  C   UNL     1     -11.233  13.781  66.417  1.00  0.00    -0.321 C  
HETATM    2  C   UNL     1     -10.130  12.774  66.909  1.00  0.00    -0.232 C  
HETATM    3  C   UNL     1     -11.424  13.550  64.915  1.00  0.00    -0.334 C  
HETATM    4  C   UNL     1     -10.939  15.246  66.778  1.00  0.00    -0.306 A  
HETATM    5  C   UNL     1     -11.330  15.732  68.042  1.00  0.00    -0.310 A  
HETATM    6  H   UNL     1      -9.552  10.789  66.722  1.00  0.00     0.000 HD 
HETATM    7  O   UNL     1     -10.603  13.805  64.042  1.00  0.00    -0.144 OA 
HETATM    8  C   UNL     1      -9.789  12.853  68.411  1.00  0.00    -0.197 C  
HETATM    9  C   UNL     1     -10.909  12.310  69.296  1.00  0.00    -0.082 C  
HETATM   10  C   UNL     1     -10.994  17.022  68.466  1.00  0.00    -0.247 A  
HETATM   11  C   UNL     1     -10.255  16.133  65.933  1.00  0.00    -0.381 A  
HETATM   12  C   UNL     1     -11.253  10.883  68.892  1.00  0.00    -0.327 C  
HETATM   13  C   UNL     1     -10.302  17.874  67.616  1.00  0.00    -0.387 A  
HETATM   14  C   UNL     1     -11.496  10.769  67.389  1.00  0.00    -0.028 C  
HETATM   15  C   UNL     1      -9.950  17.437  66.344  1.00  0.00    -0.322 A  
HETATM   16  N   UNL     1     -10.401  11.345  66.611  1.00  0.00    -0.225 NA 
ENDROOT
BRANCH   3  17
HETATM   17  O   UNL     1     -12.609  12.908  64.676  1.00  0.00    -0.585 OA 
HETATM   18  C   UNL     1     -12.518  11.871  63.696  1.00  0.00    -0.470 C  
ENDBRANCH   3  17
TORSDOF 1
ENDMDL
MODEL       46
REMARK 921   NORMALIZED FREE ENERGY PREDICTED BY IDOCK:   -4.69 KCAL/MOL
REMARK 922        TOTAL FREE ENERGY PREDICTED BY IDOCK:   -5.02 KCAL/MOL
REMARK 923 INTER-LIGAND FREE ENERGY PREDICTED BY IDOCK:   -4.92 KCAL/MOL
REMARK 924 INTRA-LIGAND FREE ENERGY PREDICTED BY IDOCK:   -0.10 KCAL/MOL
REMARK 927      BINDING AFFINITY PREDICTED BY RF-SCORE:    0.00 PKD
ROOT
HETATM    1  C   UNL     1     -10.611  12.020  66.718  1.00  0.00    -0.260 C  
HETATM    2  C   UNL     1     -10.089  12.737  65.419  1.00  0.00    -0.259 C  
HETATM    3  C   UNL     1     -10.507  13.027  67.868  1.00  0.00    -0.229 C  
HETATM    4  C   UNL     1      -9.914  10.682  67.011  1.00  0.00    -0.243 A  
HETATM    5  C   UNL     1     -10.397   9.509  66.399  1.00  0.00    -0.243 A  
HETATM    6  H   UNL     1     -10.224  14.539  64.400  1.00  0.00     0.000 HD 
HETATM    7  O   UNL     1      -9.465  13.453  68.352  1.00  0.00    -0.212 OA 
HETATM    8  C   UNL     1     -10.112  11.878  64.139  1.00  0.00    -0.338 C  
HETATM    9  C   UNL     1     -11.529  11.628  63.626  1.00  0.00    -0.458 C  
HETATM   10  C   UNL     1      -9.739   8.283  66.542  1.00  0.00    -0.323 A  
HETATM   11  C   UNL     1      -8.778  10.560  67.827  1.00  0.00    -0.122 A  
HETATM   12  C   UNL     1     -12.249  12.951  63.404  1.00  0.00    -0.574 C  
HETATM   13  C   UNL     1      -8.608   8.192  67.343  1.00  0.00    -0.125 A  
HETATM   14  C   UNL     1     -12.148  13.855  64.630  1.00  0.00    -0.431 C  
HETATM   15  C   UNL     1      -8.140   9.325  68.000  1.00  0.00    -0.104 A  
HETATM   16  N   UNL     1     -10.768  14.014  65.085  1.00  0.00    -0.357 NA 
ENDROOT
BRANCH   3  17
HETATM   17  O   UNL     1     -11.747  13.484  68.219  1.00  0.00    -0.318 OA 
HETATM   18  C   UNL     1     -11.744  14.803  68.773  1.00  0.00    -0.323 C  
ENDBRANCH   3  17
TORSDOF 1
ENDMDL
MODEL       47
REMARK 921   NORMALIZED FREE ENERGY PREDICTED BY IDOCK:   -4.69 KCAL/MOL
REMARK 922        TOTAL FREE ENERGY PREDICTED BY IDOCK:   -5.01 KCAL/MOL
REMARK 923 INTER-LIGAND FREE ENERGY PREDICTED BY IDOCK:   -4.92 KCAL/MOL
REMARK 924 INTRA-LIGAND FREE ENERGY PREDICTED BY IDOCK:   -0.09 KCAL/MOL
REMARK 927      BINDING AFFINITY PREDICTED BY RF-SCORE:    0.00 PKD
ROOT
HETATM    1  C   UNL     1     -10.450  13.055  66.320  1.00  0.00    -0.285 C  
HETATM    2  C   UNL     1     -10.941  14.348  67.068  1.00  0.00    -0.304 C  
HETATM    3  C   UNL     1     -11.460  12.761  65.207  1.00  0.00    -0.325 C  
HETATM    4  C   UNL     1     -10.198  11.858  67.251  1.00  0.00    -0.220 A  
HETATM    5  C   UNL     1      -8.947  11.734  67.886  1.00  0.00    -0.180 A  
HETATM    6  H   UNL     1     -11.704  16.242  66.695  1.00  0.00     0.000 HD 
HETATM    7  O   UNL     1     -12.618  12.396  65.371  1.00  0.00    -0.637 OA 
HETATM    8  C   UNL     1     -10.048  14.811  68.237  1.00  0.00    -0.221 C  
HETATM    9  C   UNL     1      -8.718  15.395  67.764  1.00  0.00    -0.167 C  
HETATM   10  C   UNL     1      -8.698  10.728  68.825  1.00  0.00    -0.163 A  
HETATM   11  C   UNL     1     -11.168  10.888  67.549  1.00  0.00    -0.364 A  
HETATM   12  C   UNL     1      -8.962  16.534  66.784  1.00  0.00    -0.261 C  
HETATM   13  C   UNL     1      -9.681   9.791  69.115  1.00  0.00    -0.188 A  
HETATM   14  C   UNL     1      -9.925  16.121  65.674  1.00  0.00    -0.297 C  
HETATM   15  C   UNL     1     -10.908   9.859  68.462  1.00  0.00    -0.257 A  
HETATM   16  N   UNL     1     -11.156  15.536  66.203  1.00  0.00    -0.240 NA 
ENDROOT
BRANCH   3  17
HETATM   17  O   UNL     1     -10.930  13.069  63.984  1.00  0.00    -0.387 OA 
HETATM   18  C   UNL     1     -10.171  12.008  63.397  1.00  0.00    -0.426 C  
ENDBRANCH   3  17
TORSDOF 1
ENDMDL
MODEL       48
REMARK 921   NORMALIZED FREE ENERGY PREDICTED BY IDOCK:   -4.68 KCAL/MOL
REMARK 922        TOTAL FREE ENERGY PREDICTED BY IDOCK:   -5.01 KCAL/MOL
REMARK 923 INTER-LIGAND FREE ENERGY PREDICTED BY IDOCK:   -4.88 KCAL/MOL
REMARK 924 INTRA-LIGAND FREE ENERGY PREDICTED BY IDOCK:   -0.12 KCAL/MOL
REMARK 927      BINDING AFFINITY PREDICTED BY RF-SCORE:    0.00 PKD
ROOT
HETATM    1  C   UNL     1     -10.731   8.885  68.053  1.00  0.00    -0.168 C  
HETATM    2  C   UNL     1      -9.850   8.686  69.340  1.00  0.00    -0.184 C  
HETATM    3  C   UNL     1     -10.234   7.889  67.002  1.00  0.00    -0.312 C  
HETATM    4  C   UNL     1     -10.773  10.337  67.550  1.00  0.00    -0.348 A  
HETATM    5  C   UNL     1     -11.716  11.227  68.101  1.00  0.00    -0.323 A  
HETATM    6  H   UNL     1      -9.047   7.192  70.537  1.00  0.00     0.000 HD 
HETATM    7  O   UNL     1      -9.148   7.930  66.435  1.00  0.00    -0.162 OA 
HETATM    8  C   UNL     1     -10.197   9.609  70.526  1.00  0.00    -0.351 C  
HETATM    9  C   UNL     1     -11.526   9.244  71.183  1.00  0.00    -0.403 C  
HETATM   10  C   UNL     1     -11.730  12.583  67.761  1.00  0.00    -0.419 A  
HETATM   11  C   UNL     1      -9.887  10.853  66.592  1.00  0.00    -0.237 A  
HETATM   12  C   UNL     1     -11.515   7.785  71.618  1.00  0.00    -0.299 C  
HETATM   13  C   UNL     1     -10.831  13.072  66.822  1.00  0.00    -0.285 A  
HETATM   14  C   UNL     1     -11.075   6.866  70.481  1.00  0.00    -0.288 C  
HETATM   15  C   UNL     1      -9.924  12.204  66.224  1.00  0.00    -0.249 A  
HETATM   16  N   UNL     1      -9.818   7.302  69.877  1.00  0.00    -0.177 NA 
ENDROOT
BRANCH   3  17
HETATM   17  O   UNL     1     -11.127   6.864  66.851  1.00  0.00    -0.379 OA 
HETATM   18  C   UNL     1     -10.518   5.578  66.721  1.00  0.00    -0.296 C  
ENDBRANCH   3  17
TORSDOF 1
ENDMDL
MODEL       49
REMARK 921   NORMALIZED FREE ENERGY PREDICTED BY IDOCK:   -4.67 KCAL/MOL
REMARK 922        TOTAL FREE ENERGY PREDICTED BY IDOCK:   -4.99 KCAL/MOL
REMARK 923 INTER-LIGAND FREE ENERGY PREDICTED BY IDOCK:   -4.87 KCAL/MOL
REMARK 924 INTRA-LIGAND FREE ENERGY PREDICTED BY IDOCK:   -0.12 KCAL/MOL
REMARK 927      BINDING AFFINITY PREDICTED BY RF-SCORE:    0.00 PKD
ROOT
HETATM    1  C   UNL     1     -10.746   9.813  69.647  1.00  0.00    -0.264 C  
HETATM    2  C   UNL     1     -12.121  10.492  69.297  1.00  0.00    -0.048 C  
HETATM    3  C   UNL     1     -10.038   9.508  68.323  1.00  0.00    -0.183 C  
HETATM    4  C   UNL     1     -10.877   8.588  70.567  1.00  0.00    -0.252 A  
HETATM    5  C   UNL     1     -10.919   8.780  71.962  1.00  0.00    -0.438 A  
HETATM    6  H   UNL     1     -12.942  11.934  68.051  1.00  0.00     0.000 HD 
HETATM    7  O   UNL     1     -10.397   8.680  67.495  1.00  0.00    -0.235 OA 
HETATM    8  C   UNL     1     -12.992  10.877  70.510  1.00  0.00    -0.212 C  
HETATM    9  C   UNL     1     -12.422  12.060  71.290  1.00  0.00    -0.303 C  
HETATM   10  C   UNL     1     -11.144   7.717  72.842  1.00  0.00    -0.457 A  
HETATM   11  C   UNL     1     -11.004   7.272  70.096  1.00  0.00    -0.280 A  
HETATM   12  C   UNL     1     -12.223  13.253  70.366  1.00  0.00    -0.404 C  
HETATM   13  C   UNL     1     -11.284   6.426  72.349  1.00  0.00    -0.313 A  
HETATM   14  C   UNL     1     -11.446  12.864  69.110  1.00  0.00    -0.306 C  
HETATM   15  C   UNL     1     -11.193   6.202  70.980  1.00  0.00    -0.361 A  
HETATM   16  N   UNL     1     -12.028  11.701  68.441  1.00  0.00    -0.533 NA 
ENDROOT
BRANCH   3  17
HETATM   17  O   UNL     1      -8.996  10.372  68.127  1.00  0.00    -0.128 OA 
HETATM   18  C   UNL     1      -8.931  10.911  66.805  1.00  0.00    -0.150 C  
ENDBRANCH   3  17
TORSDOF 1
ENDMDL
MODEL       50
REMARK 921   NORMALIZED FREE ENERGY PREDICTED BY IDOCK:   -4.66 KCAL/MOL
REMARK 922        TOTAL FREE ENERGY PREDICTED BY IDOCK:   -4.98 KCAL/MOL
REMARK 923 INTER-LIGAND FREE ENERGY PREDICTED BY IDOCK:   -4.90 KCAL/MOL
REMARK 924 INTRA-LIGAND FREE ENERGY PREDICTED BY IDOCK:   -0.09 KCAL/MOL
REMARK 927      BINDING AFFINITY PREDICTED BY RF-SCORE:    0.00 PKD
ROOT
HETATM    1  C   UNL     1      -9.743  11.340  67.028  1.00  0.00    -0.208 C  
HETATM    2  C   UNL     1     -10.185   9.996  67.714  1.00  0.00    -0.192 C  
HETATM    3  C   UNL     1      -9.666  12.407  68.125  1.00  0.00    -0.214 C  
HETATM    4  C   UNL     1     -10.627  11.748  65.838  1.00  0.00    -0.314 A  
HETATM    5  C   UNL     1     -10.341  11.226  64.561  1.00  0.00    -0.381 A  
HETATM    6  H   UNL     1      -9.806   8.834  69.391  1.00  0.00     0.000 HD 
HETATM    7  O   UNL     1     -10.618  12.870  68.740  1.00  0.00    -0.242 OA 
HETATM    8  C   UNL     1     -10.324   8.788  66.765  1.00  0.00    -0.328 C  
HETATM    9  C   UNL     1      -8.975   8.277  66.264  1.00  0.00    -0.221 C  
HETATM   10  C   UNL     1     -11.172  11.476  63.465  1.00  0.00    -0.412 A  
HETATM   11  C   UNL     1     -11.746  12.587  65.953  1.00  0.00    -0.480 A  
HETATM   12  C   UNL     1      -8.070   7.940  67.441  1.00  0.00    -0.123 C  
HETATM   13  C   UNL     1     -12.284  12.296  63.609  1.00  0.00    -0.665 A  
HETATM   14  C   UNL     1      -8.002   9.091  68.442  1.00  0.00    -0.104 C  
HETATM   15  C   UNL     1     -12.558  12.867  64.847  1.00  0.00    -0.525 A  
HETATM   16  N   UNL     1      -9.330   9.551  68.843  1.00  0.00    -0.146 NA 
ENDROOT
BRANCH   3  17
HETATM   17  O   UNL     1      -8.362  12.704  68.414  1.00  0.00    -0.163 OA 
HETATM   18  C   UNL     1      -7.803  13.726  67.585  1.00  0.00    -0.178 C  
ENDBRANCH   3  17
TORSDOF 1
ENDMDL
MODEL       51
REMARK 921   NORMALIZED FREE ENERGY PREDICTED BY IDOCK:   -4.60 KCAL/MOL
REMARK 922        TOTAL FREE ENERGY PREDICTED BY IDOCK:   -4.92 KCAL/MOL
REMARK 923 INTER-LIGAND FREE ENERGY PREDICTED BY IDOCK:   -4.82 KCAL/MOL
REMARK 924 INTRA-LIGAND FREE ENERGY PREDICTED BY IDOCK:   -0.10 KCAL/MOL
REMARK 927      BINDING AFFINITY PREDICTED BY RF-SCORE:    0.00 PKD
ROOT
HETATM    1  C   UNL     1     -10.354   7.131  71.527  1.00  0.00    -0.218 C  
HETATM    2  C   UNL     1      -9.834   6.555  72.894  1.00  0.00    -0.163 C  
HETATM    3  C   UNL     1      -9.296   8.112  71.013  1.00  0.00    -0.152 C  
HETATM    4  C   UNL     1     -11.764   7.737  71.606  1.00  0.00    -0.316 A  
HETATM    5  C   UNL     1     -12.883   6.894  71.458  1.00  0.00    -0.384 A  
HETATM    6  H   UNL     1      -8.115   5.811  73.788  1.00  0.00     0.000 HD 
HETATM    7  O   UNL     1      -9.015   9.191  71.520  1.00  0.00    -0.319 OA 
HETATM    8  C   UNL     1     -10.770   5.540  73.580  1.00  0.00    -0.321 C  
HETATM    9  C   UNL     1     -10.817   4.199  72.849  1.00  0.00    -0.207 C  
HETATM   10  C   UNL     1     -14.187   7.369  71.627  1.00  0.00    -0.583 A  
HETATM   11  C   UNL     1     -12.013   9.094  71.866  1.00  0.00    -0.443 A  
HETATM   12  C   UNL     1      -9.412   3.630  72.704  1.00  0.00    -0.169 C  
HETATM   13  C   UNL     1     -14.405   8.713  71.901  1.00  0.00    -0.492 A  
HETATM   14  C   UNL     1      -8.449   4.659  72.119  1.00  0.00    -0.118 C  
HETATM   15  C   UNL     1     -13.321   9.578  72.000  1.00  0.00    -0.535 A  
HETATM   16  N   UNL     1      -8.490   5.927  72.846  1.00  0.00    -0.122 NA 
ENDROOT
BRANCH   3  17
HETATM   17  O   UNL     1      -8.613   7.572  69.957  1.00  0.00    -0.136 OA 
HETATM   18  C   UNL     1      -9.422   7.337  68.802  1.00  0.00    -0.142 C  
ENDBRANCH   3  17
TORSDOF 1
ENDMDL
MODEL       52
REMARK 921   NORMALIZED FREE ENERGY PREDICTED BY IDOCK:   -4.60 KCAL/MOL
REMARK 922        TOTAL FREE ENERGY PREDICTED BY IDOCK:   -4.92 KCAL/MOL
REMARK 923 INTER-LIGAND FREE ENERGY PREDICTED BY IDOCK:   -4.87 KCAL/MOL
REMARK 924 INTRA-LIGAND FREE ENERGY PREDICTED BY IDOCK:   -0.05 KCAL/MOL
REMARK 927      BINDING AFFINITY PREDICTED BY RF-SCORE:    0.00 PKD
ROOT
HETATM    1  C   UNL     1     -10.331   7.671  71.246  1.00  0.00    -0.215 C  
HETATM    2  C   UNL     1     -11.137   6.397  70.799  1.00  0.00    -0.307 C  
HETATM    3  C   UNL     1     -10.167   7.597  72.767  1.00  0.00    -0.279 C  
HETATM    4  C   UNL     1     -10.944   8.994  70.759  1.00  0.00    -0.315 A  
HETATM    5  C   UNL     1     -10.614   9.471  69.475  1.00  0.00    -0.238 A  
HETATM    6  H   UNL     1     -11.238   4.350  71.123  1.00  0.00     0.000 HD 
HETATM    7  O   UNL     1     -11.069   7.707  73.589  1.00  0.00    -0.256 OA 
HETATM    8  C   UNL     1     -11.409   6.287  69.285  1.00  0.00    -0.411 C  
HETATM    9  C   UNL     1     -10.148   5.969  68.484  1.00  0.00    -0.197 C  
HETATM   10  C   UNL     1     -11.223  10.610  68.938  1.00  0.00    -0.333 A  
HETATM   11  C   UNL     1     -11.861   9.748  71.508  1.00  0.00    -0.476 A  
HETATM   12  C   UNL     1      -9.498   4.697  69.011  1.00  0.00    -0.221 C  
HETATM   13  C   UNL     1     -12.141  11.328  69.694  1.00  0.00    -0.391 A  
HETATM   14  C   UNL     1      -9.313   4.750  70.525  1.00  0.00    -0.154 C  
HETATM   15  C   UNL     1     -12.444  10.909  70.985  1.00  0.00    -0.514 A  
HETATM   16  N   UNL     1     -10.552   5.099  71.219  1.00  0.00    -0.178 NA 
ENDROOT
BRANCH   3  17
HETATM   17  O   UNL     1      -8.879   7.276  73.096  1.00  0.00    -0.127 OA 
HETATM   18  C   UNL     1      -8.334   8.074  74.150  1.00  0.00    -0.253 C  
ENDBRANCH   3  17
TORSDOF 1
ENDMDL
MODEL       53
REMARK 921   NORMALIZED FREE ENERGY PREDICTED BY IDOCK:   -4.58 KCAL/MOL
REMARK 922        TOTAL FREE ENERGY PREDICTED BY IDOCK:   -4.90 KCAL/MOL
REMARK 923 INTER-LIGAND FREE ENERGY PREDICTED BY IDOCK:   -4.80 KCAL/MOL
REMARK 924 INTRA-LIGAND FREE ENERGY PREDICTED BY IDOCK:   -0.09 KCAL/MOL
REMARK 927      BINDING AFFINITY PREDICTED BY RF-SCORE:    0.00 PKD
ROOT
HETATM    1  C   UNL     1     -10.381  13.407  66.705  1.00  0.00    -0.269 C  
HETATM    2  C   UNL     1     -10.618  13.902  65.231  1.00  0.00    -0.361 C  
HETATM    3  C   UNL     1     -10.891  14.505  67.642  1.00  0.00    -0.273 C  
HETATM    4  C   UNL     1      -8.932  12.982  66.990  1.00  0.00    -0.225 A  
HETATM    5  C   UNL     1      -8.531  11.666  66.686  1.00  0.00    -0.165 A  
HETATM    6  H   UNL     1     -12.050  14.823  64.044  1.00  0.00     0.000 HD 
HETATM    7  O   UNL     1     -10.388  15.613  67.785  1.00  0.00    -0.255 OA 
HETATM    8  C   UNL     1     -10.164  12.925  64.127  1.00  0.00    -0.311 C  
HETATM    9  C   UNL     1     -11.061  11.693  64.029  1.00  0.00    -0.458 C  
HETATM   10  C   UNL     1      -7.201  11.255  66.823  1.00  0.00    -0.142 A  
HETATM   11  C   UNL     1      -7.954  13.849  67.501  1.00  0.00    -0.190 A  
HETATM   12  C   UNL     1     -12.510  12.112  63.820  1.00  0.00    -0.620 C  
HETATM   13  C   UNL     1      -6.249  12.138  67.315  1.00  0.00    -0.152 A  
HETATM   14  C   UNL     1     -12.944  13.156  64.845  1.00  0.00    -0.142 C  
HETATM   15  C   UNL     1      -6.629  13.427  67.672  1.00  0.00    -0.174 A  
HETATM   16  N   UNL     1     -12.016  14.284  64.910  1.00  0.00    -0.403 NA 
ENDROOT
BRANCH   3  17
HETATM   17  O   UNL     1     -12.066  14.127  68.232  1.00  0.00    -0.340 OA 
HETATM   18  C   UNL     1     -11.903  13.193  69.302  1.00  0.00    -0.323 C  
ENDBRANCH   3  17
TORSDOF 1
ENDMDL
MODEL       54
REMARK 921   NORMALIZED FREE ENERGY PREDICTED BY IDOCK:   -4.54 KCAL/MOL
REMARK 922        TOTAL FREE ENERGY PREDICTED BY IDOCK:   -4.85 KCAL/MOL
REMARK 923 INTER-LIGAND FREE ENERGY PREDICTED BY IDOCK:   -4.80 KCAL/MOL
REMARK 924 INTRA-LIGAND FREE ENERGY PREDICTED BY IDOCK:   -0.05 KCAL/MOL
REMARK 927      BINDING AFFINITY PREDICTED BY RF-SCORE:    0.00 PKD
ROOT
HETATM    1  C   UNL     1     -11.829  14.416  69.286  1.00  0.00    -0.365 C  
HETATM    2  C   UNL     1     -10.470  15.206  69.234  1.00  0.00    -0.260 C  
HETATM    3  C   UNL     1     -12.465  14.693  70.652  1.00  0.00    -0.344 C  
HETATM    4  C   UNL     1     -11.688  12.919  68.969  1.00  0.00    -0.375 A  
HETATM    5  C   UNL     1     -11.715  12.497  67.625  1.00  0.00    -0.423 A  
HETATM    6  H   UNL     1      -9.655  17.057  69.698  1.00  0.00     0.000 HD 
HETATM    7  O   UNL     1     -12.036  14.306  71.732  1.00  0.00    -0.292 OA 
HETATM    8  C   UNL     1      -9.669  15.052  67.925  1.00  0.00    -0.212 C  
HETATM    9  C   UNL     1     -10.321  15.777  66.749  1.00  0.00    -0.293 C  
HETATM   10  C   UNL     1     -11.484  11.164  67.271  1.00  0.00    -0.218 A  
HETATM   11  C   UNL     1     -11.485  11.933  69.947  1.00  0.00    -0.264 A  
HETATM   12  C   UNL     1     -10.530  17.246  67.087  1.00  0.00    -0.297 C  
HETATM   13  C   UNL     1     -11.269  10.210  68.258  1.00  0.00    -0.246 A  
HETATM   14  C   UNL     1     -11.233  17.417  68.431  1.00  0.00     0.212 C  
HETATM   15  C   UNL     1     -11.290  10.591  69.595  1.00  0.00    -0.345 A  
HETATM   16  N   UNL     1     -10.575  16.663  69.497  1.00  0.00    -0.323 NA 
ENDROOT
BRANCH   3  17
HETATM   17  O   UNL     1     -13.533  15.538  70.521  1.00  0.00    -0.361 OA 
HETATM   18  C   UNL     1     -14.382  15.581  71.670  1.00  0.00    -0.396 C  
ENDBRANCH   3  17
TORSDOF 1
ENDMDL
MODEL       55
REMARK 921   NORMALIZED FREE ENERGY PREDICTED BY IDOCK:   -4.49 KCAL/MOL
REMARK 922        TOTAL FREE ENERGY PREDICTED BY IDOCK:   -4.80 KCAL/MOL
REMARK 923 INTER-LIGAND FREE ENERGY PREDICTED BY IDOCK:   -4.68 KCAL/MOL
REMARK 924 INTRA-LIGAND FREE ENERGY PREDICTED BY IDOCK:   -0.12 KCAL/MOL
REMARK 927      BINDING AFFINITY PREDICTED BY RF-SCORE:    0.00 PKD
ROOT
HETATM    1  C   UNL     1     -11.046   7.460  70.584  1.00  0.00    -0.285 C  
HETATM    2  C   UNL     1      -9.968   8.585  70.371  1.00  0.00    -0.183 C  
HETATM    3  C   UNL     1     -11.834   7.817  71.848  1.00  0.00    -0.297 C  
HETATM    4  C   UNL     1     -10.462   6.039  70.607  1.00  0.00    -0.305 A  
HETATM    5  C   UNL     1     -10.269   5.357  69.389  1.00  0.00    -0.334 A  
HETATM    6  H   UNL     1      -9.749  10.648  70.422  1.00  0.00     0.000 HD 
HETATM    7  O   UNL     1     -11.394   7.806  72.991  1.00  0.00    -0.399 OA 
HETATM    8  C   UNL     1      -9.061   8.404  69.137  1.00  0.00    -0.147 C  
HETATM    9  C   UNL     1      -9.804   8.643  67.824  1.00  0.00    -0.218 C  
HETATM   10  C   UNL     1      -9.643   4.107  69.340  1.00  0.00    -0.265 A  
HETATM   11  C   UNL     1     -10.061   5.382  71.781  1.00  0.00    -0.251 A  
HETATM   12  C   UNL     1     -10.446  10.024  67.827  1.00  0.00    -0.282 C  
HETATM   13  C   UNL     1      -9.240   3.487  70.516  1.00  0.00    -0.213 A  
HETATM   14  C   UNL     1     -11.266  10.256  69.093  1.00  0.00    -0.215 C  
HETATM   15  C   UNL     1      -9.467   4.114  71.736  1.00  0.00    -0.210 A  
HETATM   16  N   UNL     1     -10.501   9.969  70.305  1.00  0.00    -0.285 NA 
ENDROOT
BRANCH   3  17
HETATM   17  O   UNL     1     -13.085   8.265  71.523  1.00  0.00    -0.325 OA 
HETATM   18  C   UNL     1     -13.506   9.406  72.275  1.00  0.00    -0.465 C  
ENDBRANCH   3  17
TORSDOF 1
ENDMDL
MODEL       56
REMARK 921   NORMALIZED FREE ENERGY PREDICTED BY IDOCK:   -4.49 KCAL/MOL
REMARK 922        TOTAL FREE ENERGY PREDICTED BY IDOCK:   -4.80 KCAL/MOL
REMARK 923 INTER-LIGAND FREE ENERGY PREDICTED BY IDOCK:   -4.98 KCAL/MOL
REMARK 924 INTRA-LIGAND FREE ENERGY PREDICTED BY IDOCK:    0.19 KCAL/MOL
REMARK 927      BINDING AFFINITY PREDICTED BY RF-SCORE:    0.00 PKD
ROOT
HETATM    1  C   UNL     1     -10.973  15.144  66.017  1.00  0.00    -0.332 C  
HETATM    2  C   UNL     1      -9.692  14.332  65.602  1.00  0.00    -0.205 C  
HETATM    3  C   UNL     1     -11.634  15.642  64.728  1.00  0.00    -0.218 C  
HETATM    4  C   UNL     1     -10.695  16.262  67.035  1.00  0.00    -0.233 A  
HETATM    5  C   UNL     1     -10.681  15.951  68.409  1.00  0.00    -0.281 A  
HETATM    6  H   UNL     1      -9.050  12.908  64.235  1.00  0.00     0.000 HD 
HETATM    7  O   UNL     1     -11.174  16.486  63.969  1.00  0.00    -0.967 OA 
HETATM    8  C   UNL     1      -8.878  13.743  66.772  1.00  0.00    -0.156 C  
HETATM    9  C   UNL     1      -9.591  12.579  67.456  1.00  0.00    -0.187 C  
HETATM   10  C   UNL     1     -10.329  16.901  69.372  1.00  0.00    -0.250 A  
HETATM   11  C   UNL     1     -10.405  17.587  66.674  1.00  0.00    -0.319 A  
HETATM   12  C   UNL     1      -9.934  11.500  66.437  1.00  0.00    -0.241 C  
HETATM   13  C   UNL     1     -10.030  18.202  68.986  1.00  0.00    -0.294 A  
HETATM   14  C   UNL     1     -10.652  12.085  65.224  1.00  0.00    -0.287 C  
HETATM   15  C   UNL     1     -10.088  18.549  67.641  1.00  0.00    -0.390 A  
HETATM   16  N   UNL     1      -9.930  13.218  64.650  1.00  0.00    -0.194 NA 
ENDROOT
BRANCH   3  17
HETATM   17  O   UNL     1     -12.774  14.932  64.469  1.00  0.00    -0.499 OA 
HETATM   18  C   UNL     1     -13.204  14.109  65.555  1.00  0.00     0.068 C  
ENDBRANCH   3  17
TORSDOF 1
ENDMDL
MODEL       57
REMARK 921   NORMALIZED FREE ENERGY PREDICTED BY IDOCK:   -4.46 KCAL/MOL
REMARK 922        TOTAL FREE ENERGY PREDICTED BY IDOCK:   -4.77 KCAL/MOL
REMARK 923 INTER-LIGAND FREE ENERGY PREDICTED BY IDOCK:   -4.64 KCAL/MOL
REMARK 924 INTRA-LIGAND FREE ENERGY PREDICTED BY IDOCK:   -0.13 KCAL/MOL
REMARK 927      BINDING AFFINITY PREDICTED BY RF-SCORE:    0.00 PKD
ROOT
HETATM    1  C   UNL     1      -9.934  12.705  66.910  1.00  0.00    -0.232 C  
HETATM    2  C   UNL     1     -10.314  14.093  67.542  1.00  0.00    -0.248 C  
HETATM    3  C   UNL     1     -11.226  12.079  66.375  1.00  0.00    -0.337 C  
HETATM    4  C   UNL     1      -9.156  11.782  67.862  1.00  0.00    -0.181 A  
HETATM    5  C   UNL     1      -7.755  11.910  67.948  1.00  0.00    -0.131 A  
HETATM    6  H   UNL     1     -11.464  15.780  67.171  1.00  0.00     0.000 HD 
HETATM    7  O   UNL     1     -12.159  11.672  67.057  1.00  0.00    -0.547 OA 
HETATM    8  C   UNL     1      -9.136  14.886  68.145  1.00  0.00    -0.177 C  
HETATM    9  C   UNL     1      -8.200  15.447  67.076  1.00  0.00    -0.270 C  
HETATM   10  C   UNL     1      -7.008  11.175  68.873  1.00  0.00    -0.095 A  
HETATM   11  C   UNL     1      -9.766  10.835  68.698  1.00  0.00    -0.187 A  
HETATM   12  C   UNL     1      -8.980  16.303  66.089  1.00  0.00    -0.374 C  
HETATM   13  C   UNL     1      -7.639  10.256  69.701  1.00  0.00    -0.167 A  
HETATM   14  C   UNL     1     -10.208  15.566  65.559  1.00  0.00    -0.386 C  
HETATM   15  C   UNL     1      -9.013  10.072  69.600  1.00  0.00    -0.221 A  
HETATM   16  N   UNL     1     -11.033  15.025  66.638  1.00  0.00    -0.323 NA 
ENDROOT
BRANCH   3  17
HETATM   17  O   UNL     1     -11.255  12.134  65.008  1.00  0.00    -0.307 OA 
HETATM   18  C   UNL     1     -12.532  12.488  64.470  1.00  0.00    -0.459 C  
ENDBRANCH   3  17
TORSDOF 1
ENDMDL
MODEL       58
REMARK 921   NORMALIZED FREE ENERGY PREDICTED BY IDOCK:   -4.44 KCAL/MOL
REMARK 922        TOTAL FREE ENERGY PREDICTED BY IDOCK:   -4.75 KCAL/MOL
REMARK 923 INTER-LIGAND FREE ENERGY PREDICTED BY IDOCK:   -4.62 KCAL/MOL
REMARK 924 INTRA-LIGAND FREE ENERGY PREDICTED BY IDOCK:   -0.13 KCAL/MOL
REMARK 927      BINDING AFFINITY PREDICTED BY RF-SCORE:    0.00 PKD
ROOT
HETATM    1  C   UNL     1      -9.851  11.774  66.605  1.00  0.00    -0.223 C  
HETATM    2  C   UNL     1      -9.966  13.246  66.066  1.00  0.00    -0.292 C  
HETATM    3  C   UNL     1      -9.371  11.856  68.057  1.00  0.00    -0.193 C  
HETATM    4  C   UNL     1      -8.984  10.858  65.725  1.00  0.00    -0.208 A  
HETATM    5  C   UNL     1      -9.575  10.206  64.625  1.00  0.00    -0.379 A  
HETATM    6  H   UNL     1     -10.656  15.123  66.621  1.00  0.00     0.000 HD 
HETATM    7  O   UNL     1      -8.263  12.226  68.424  1.00  0.00    -0.161 OA 
HETATM    8  C   UNL     1     -10.437  13.377  64.604  1.00  0.00    -0.428 C  
HETATM    9  C   UNL     1     -11.913  13.027  64.429  1.00  0.00    -0.457 C  
HETATM   10  C   UNL     1      -8.815   9.448  63.728  1.00  0.00    -0.201 A  
HETATM   11  C   UNL     1      -7.609  10.662  65.925  1.00  0.00    -0.138 A  
HETATM   12  C   UNL     1     -12.770  13.882  65.353  1.00  0.00    -0.525 C  
HETATM   13  C   UNL     1      -7.452   9.283  63.939  1.00  0.00    -0.110 A  
HETATM   14  C   UNL     1     -12.254  13.842  66.790  1.00  0.00    -0.399 C  
HETATM   15  C   UNL     1      -6.854   9.873  65.048  1.00  0.00    -0.126 A  
HETATM   16  N   UNL     1     -10.827  14.149  66.871  1.00  0.00    -0.293 NA 
ENDROOT
BRANCH   3  17
HETATM   17  O   UNL     1     -10.394  11.563  68.917  1.00  0.00    -0.209 OA 
HETATM   18  C   UNL     1     -11.281  10.549  68.439  1.00  0.00    -0.279 C  
ENDBRANCH   3  17
TORSDOF 1
ENDMDL
MODEL       59
REMARK 921   NORMALIZED FREE ENERGY PREDICTED BY IDOCK:   -4.44 KCAL/MOL
REMARK 922        TOTAL FREE ENERGY PREDICTED BY IDOCK:   -4.75 KCAL/MOL
REMARK 923 INTER-LIGAND FREE ENERGY PREDICTED BY IDOCK:   -4.62 KCAL/MOL
REMARK 924 INTRA-LIGAND FREE ENERGY PREDICTED BY IDOCK:   -0.13 KCAL/MOL
REMARK 927      BINDING AFFINITY PREDICTED BY RF-SCORE:    0.00 PKD
ROOT
HETATM    1  C   UNL     1     -10.455   7.641  70.365  1.00  0.00    -0.221 C  
HETATM    2  C   UNL     1     -10.383   8.059  68.850  1.00  0.00    -0.209 C  
HETATM    3  C   UNL     1     -10.043   6.168  70.451  1.00  0.00    -0.189 C  
HETATM    4  C   UNL     1     -11.810   7.938  71.026  1.00  0.00    -0.285 A  
HETATM    5  C   UNL     1     -12.043   9.218  71.566  1.00  0.00    -0.435 A  
HETATM    6  H   UNL     1      -9.172   7.872  67.175  1.00  0.00     0.000 HD 
HETATM    7  O   UNL     1     -10.685   5.220  70.014  1.00  0.00    -0.287 OA 
HETATM    8  C   UNL     1     -10.767   9.522  68.553  1.00  0.00    -0.222 C  
HETATM    9  C   UNL     1      -9.716  10.516  69.044  1.00  0.00    -0.221 C  
HETATM   10  C   UNL     1     -13.292   9.579  72.083  1.00  0.00    -0.545 A  
HETATM   11  C   UNL     1     -12.864   7.013  71.088  1.00  0.00    -0.328 A  
HETATM   12  C   UNL     1      -8.356  10.181  68.447  1.00  0.00    -0.113 C  
HETATM   13  C   UNL     1     -14.324   8.650  72.116  1.00  0.00    -0.518 A  
HETATM   14  C   UNL     1      -8.006   8.708  68.646  1.00  0.00    -0.115 C  
HETATM   15  C   UNL     1     -14.104   7.363  71.638  1.00  0.00    -0.552 A  
HETATM   16  N   UNL     1      -9.075   7.822  68.190  1.00  0.00    -0.130 NA 
ENDROOT
BRANCH   3  17
HETATM   17  O   UNL     1      -8.792   6.050  70.990  1.00  0.00    -0.137 OA 
HETATM   18  C   UNL     1      -8.513   7.001  72.020  1.00  0.00    -0.112 C  
ENDBRANCH   3  17
TORSDOF 1
ENDMDL
MODEL       60
REMARK 921   NORMALIZED FREE ENERGY PREDICTED BY IDOCK:   -4.41 KCAL/MOL
REMARK 922        TOTAL FREE ENERGY PREDICTED BY IDOCK:   -4.71 KCAL/MOL
REMARK 923 INTER-LIGAND FREE ENERGY PREDICTED BY IDOCK:   -4.60 KCAL/MOL
REMARK 924 INTRA-LIGAND FREE ENERGY PREDICTED BY IDOCK:   -0.12 KCAL/MOL
REMARK 927      BINDING AFFINITY PREDICTED BY RF-SCORE:    0.00 PKD
ROOT
HETATM    1  C   UNL     1     -10.317  11.215  67.080  1.00  0.00    -0.249 C  
HETATM    2  C   UNL     1     -11.023   9.934  67.655  1.00  0.00    -0.200 C  
HETATM    3  C   UNL     1     -11.205  12.416  67.418  1.00  0.00    -0.297 C  
HETATM    4  C   UNL     1      -9.967  11.113  65.587  1.00  0.00    -0.297 A  
HETATM    5  C   UNL     1      -8.753  10.507  65.207  1.00  0.00    -0.200 A  
HETATM    6  H   UNL     1     -12.009   9.252  69.350  1.00  0.00     0.000 HD 
HETATM    7  O   UNL     1     -12.312  12.643  66.943  1.00  0.00    -0.430 OA 
HETATM    8  C   UNL     1     -10.278   8.606  67.413  1.00  0.00    -0.329 C  
HETATM    9  C   UNL     1      -9.010   8.483  68.257  1.00  0.00    -0.139 C  
HETATM   10  C   UNL     1      -8.432  10.289  63.863  1.00  0.00    -0.179 A  
HETATM   11  C   UNL     1     -10.815  11.552  64.558  1.00  0.00    -0.390 A  
HETATM   12  C   UNL     1      -9.342   8.657  69.733  1.00  0.00    -0.165 C  
HETATM   13  C   UNL     1      -9.297  10.718  62.865  1.00  0.00    -0.355 A  
HETATM   14  C   UNL     1     -10.168   9.917  69.975  1.00  0.00    -0.271 C  
HETATM   15  C   UNL     1     -10.477  11.367  63.212  1.00  0.00    -0.397 A  
HETATM   16  N   UNL     1     -11.341   9.983  69.105  1.00  0.00    -0.148 NA 
ENDROOT
BRANCH   3  17
HETATM   17  O   UNL     1     -10.644  13.162  68.418  1.00  0.00    -0.239 OA 
HETATM   18  C   UNL     1     -11.596  13.722  69.327  1.00  0.00    -0.312 C  
ENDBRANCH   3  17
TORSDOF 1
ENDMDL
MODEL       61
REMARK 921   NORMALIZED FREE ENERGY PREDICTED BY IDOCK:   -4.40 KCAL/MOL
REMARK 922        TOTAL FREE ENERGY PREDICTED BY IDOCK:   -4.71 KCAL/MOL
REMARK 923 INTER-LIGAND FREE ENERGY PREDICTED BY IDOCK:   -4.62 KCAL/MOL
REMARK 924 INTRA-LIGAND FREE ENERGY PREDICTED BY IDOCK:   -0.09 KCAL/MOL
REMARK 927      BINDING AFFINITY PREDICTED BY RF-SCORE:    0.00 PKD
ROOT
HETATM    1  C   UNL     1     -10.380   7.464  70.738  1.00  0.00    -0.208 C  
HETATM    2  C   UNL     1      -9.536   6.942  71.957  1.00  0.00    -0.140 C  
HETATM    3  C   UNL     1      -9.538   8.524  70.021  1.00  0.00    -0.169 C  
HETATM    4  C   UNL     1     -11.785   7.955  71.122  1.00  0.00    -0.306 A  
HETATM    5  C   UNL     1     -12.838   7.023  71.206  1.00  0.00    -0.376 A  
HETATM    6  H   UNL     1      -7.612   6.344  72.456  1.00  0.00     0.000 HD 
HETATM    7  O   UNL     1      -9.244   9.626  70.469  1.00  0.00    -0.249 OA 
HETATM    8  C   UNL     1     -10.219   5.858  72.815  1.00  0.00    -0.208 C  
HETATM    9  C   UNL     1     -10.313   4.514  72.097  1.00  0.00    -0.233 C  
HETATM   10  C   UNL     1     -14.110   7.392  71.655  1.00  0.00    -0.552 A  
HETATM   11  C   UNL     1     -12.082   9.289  71.444  1.00  0.00    -0.424 A  
HETATM   12  C   UNL     1      -8.931   4.059  71.650  1.00  0.00    -0.162 C  
HETATM   13  C   UNL     1     -14.373   8.716  71.983  1.00  0.00    -0.512 A  
HETATM   14  C   UNL     1      -8.200   5.159  70.884  1.00  0.00    -0.110 C  
HETATM   15  C   UNL     1     -13.365   9.667  71.858  1.00  0.00    -0.526 A  
HETATM   16  N   UNL     1      -8.187   6.424  71.617  1.00  0.00    -0.116 NA 
ENDROOT
BRANCH   3  17
HETATM   17  O   UNL     1      -9.055   8.034  68.839  1.00  0.00    -0.144 OA 
HETATM   18  C   UNL     1      -9.992   8.093  67.761  1.00  0.00    -0.181 C  
ENDBRANCH   3  17
TORSDOF 1
ENDMDL
MODEL       62
REMARK 921   NORMALIZED FREE ENERGY PREDICTED BY IDOCK:   -4.37 KCAL/MOL
REMARK 922        TOTAL FREE ENERGY PREDICTED BY IDOCK:   -4.68 KCAL/MOL
REMARK 923 INTER-LIGAND FREE ENERGY PREDICTED BY IDOCK:   -4.54 KCAL/MOL
REMARK 924 INTRA-LIGAND FREE ENERGY PREDICTED BY IDOCK:   -0.13 KCAL/MOL
REMARK 927      BINDING AFFINITY PREDICTED BY RF-SCORE:    0.00 PKD
ROOT
HETATM    1  C   UNL     1     -10.411   8.352  70.039  1.00  0.00    -0.211 C  
HETATM    2  C   UNL     1     -11.369   7.111  69.922  1.00  0.00    -0.163 C  
HETATM    3  C   UNL     1     -10.713   9.037  71.375  1.00  0.00    -0.331 C  
HETATM    4  C   UNL     1     -10.479   9.304  68.834  1.00  0.00    -0.235 A  
HETATM    5  C   UNL     1      -9.683   9.036  67.703  1.00  0.00    -0.196 A  
HETATM    6  H   UNL     1     -12.107   5.525  71.039  1.00  0.00     0.000 HD 
HETATM    7  O   UNL     1     -11.746   9.632  71.656  1.00  0.00    -0.386 OA 
HETATM    8  C   UNL     1     -11.219   6.282  68.630  1.00  0.00    -0.328 C  
HETATM    9  C   UNL     1      -9.918   5.484  68.593  1.00  0.00    -0.222 C  
HETATM   10  C   UNL     1      -9.783   9.803  66.538  1.00  0.00    -0.267 A  
HETATM   11  C   UNL     1     -11.333  10.416  68.769  1.00  0.00    -0.275 A  
HETATM   12  C   UNL     1      -9.812   4.594  69.823  1.00  0.00    -0.296 C  
HETATM   13  C   UNL     1     -10.648  10.889  66.494  1.00  0.00    -0.295 A  
HETATM   14  C   UNL     1     -10.058   5.382  71.107  1.00  0.00    -0.212 C  
HETATM   15  C   UNL     1     -11.407  11.207  67.615  1.00  0.00    -0.356 A  
HETATM   16  N   UNL     1     -11.301   6.150  71.051  1.00  0.00    -0.303 NA 
ENDROOT
BRANCH   3  17
HETATM   17  O   UNL     1      -9.707   8.802  72.273  1.00  0.00    -0.301 OA 
HETATM   18  C   UNL     1      -8.413   8.686  71.676  1.00  0.00    -0.167 C  
ENDBRANCH   3  17
TORSDOF 1
ENDMDL
MODEL       63
REMARK 921   NORMALIZED FREE ENERGY PREDICTED BY IDOCK:   -4.34 KCAL/MOL
REMARK 922        TOTAL FREE ENERGY PREDICTED BY IDOCK:   -4.64 KCAL/MOL
REMARK 923 INTER-LIGAND FREE ENERGY PREDICTED BY IDOCK:   -4.53 KCAL/MOL
REMARK 924 INTRA-LIGAND FREE ENERGY PREDICTED BY IDOCK:   -0.10 KCAL/MOL
REMARK 927      BINDING AFFINITY PREDICTED BY RF-SCORE:    0.00 PKD
ROOT
HETATM    1  C   UNL     1     -10.915  10.750  69.403  1.00  0.00    -0.305 C  
HETATM    2  C   UNL     1     -11.522  10.605  67.960  1.00  0.00    -0.212 C  
HETATM    3  C   UNL     1     -10.680   9.337  69.943  1.00  0.00    -0.234 C  
HETATM    4  C   UNL     1     -11.752  11.634  70.341  1.00  0.00    -0.292 A  
HETATM    5  C   UNL     1     -11.556  13.029  70.326  1.00  0.00    -0.060 A  
HETATM    6  H   UNL     1     -11.279   9.528  66.202  1.00  0.00     0.000 HD 
HETATM    7  O   UNL     1     -11.554   8.531  70.240  1.00  0.00    -0.154 OA 
HETATM    8  C   UNL     1     -11.834  11.932  67.240  1.00  0.00    -0.222 C  
HETATM    9  C   UNL     1     -10.572  12.676  66.808  1.00  0.00    -0.254 C  
HETATM   10  C   UNL     1     -12.361  13.891  71.077  1.00  0.00    -0.453 A  
HETATM   11  C   UNL     1     -12.748  11.135  71.195  1.00  0.00    -0.510 A  
HETATM   12  C   UNL     1      -9.704  11.778  65.937  1.00  0.00    -0.259 C  
HETATM   13  C   UNL     1     -13.351  13.372  71.902  1.00  0.00    -0.539 A  
HETATM   14  C   UNL     1      -9.469  10.420  66.594  1.00  0.00    -0.165 C  
HETATM   15  C   UNL     1     -13.531  11.995  71.976  1.00  0.00    -0.364 A  
HETATM   16  N   UNL     1     -10.719   9.789  67.014  1.00  0.00    -0.207 NA 
ENDROOT
BRANCH   3  17
HETATM   17  O   UNL     1      -9.345   9.040  69.949  1.00  0.00    -0.158 OA 
HETATM   18  C   UNL     1      -9.058   7.652  69.767  1.00  0.00    -0.147 C  
ENDBRANCH   3  17
TORSDOF 1
ENDMDL
MODEL       64
REMARK 921   NORMALIZED FREE ENERGY PREDICTED BY IDOCK:   -4.33 KCAL/MOL
REMARK 922        TOTAL FREE ENERGY PREDICTED BY IDOCK:   -4.63 KCAL/MOL
REMARK 923 INTER-LIGAND FREE ENERGY PREDICTED BY IDOCK:   -4.52 KCAL/MOL
REMARK 924 INTRA-LIGAND FREE ENERGY PREDICTED BY IDOCK:   -0.11 KCAL/MOL
REMARK 927      BINDING AFFINITY PREDICTED BY RF-SCORE:    0.00 PKD
ROOT
HETATM    1  C   UNL     1      -9.878   9.784  69.242  1.00  0.00    -0.208 C  
HETATM    2  C   UNL     1     -10.750  10.531  68.168  1.00  0.00    -0.233 C  
HETATM    3  C   UNL     1      -8.735   9.088  68.497  1.00  0.00    -0.133 C  
HETATM    4  C   UNL     1     -10.685   8.838  70.147  1.00  0.00    -0.239 A  
HETATM    5  C   UNL     1     -11.312   9.359  71.296  1.00  0.00    -0.436 A  
HETATM    6  H   UNL     1     -10.567  11.730  66.484  1.00  0.00     0.000 HD 
HETATM    7  O   UNL     1      -8.854   8.140  67.731  1.00  0.00    -0.130 OA 
HETATM    8  C   UNL     1     -11.966  11.299  68.725  1.00  0.00    -0.350 C  
HETATM    9  C   UNL     1     -11.563  12.550  69.503  1.00  0.00    -0.348 C  
HETATM   10  C   UNL     1     -12.147   8.571  72.095  1.00  0.00    -0.449 A  
HETATM   11  C   UNL     1     -10.877   7.475  69.872  1.00  0.00    -0.250 A  
HETATM   12  C   UNL     1     -10.702  13.456  68.633  1.00  0.00    -0.275 C  
HETATM   13  C   UNL     1     -12.334   7.228  71.792  1.00  0.00    -0.375 A  
HETATM   14  C   UNL     1      -9.550  12.685  67.992  1.00  0.00    -0.213 C  
HETATM   15  C   UNL     1     -11.684   6.677  70.693  1.00  0.00    -0.452 A  
HETATM   16  N   UNL     1     -10.009  11.482  67.302  1.00  0.00    -0.190 NA 
ENDROOT
BRANCH   3  17
HETATM   17  O   UNL     1      -7.553   9.741  68.715  1.00  0.00    -0.074 OA 
HETATM   18  C   UNL     1      -7.292  10.023  70.092  1.00  0.00    -0.163 C  
ENDBRANCH   3  17
TORSDOF 1
ENDMDL
MODEL       65
REMARK 921   NORMALIZED FREE ENERGY PREDICTED BY IDOCK:   -4.30 KCAL/MOL
REMARK 922        TOTAL FREE ENERGY PREDICTED BY IDOCK:   -4.60 KCAL/MOL
REMARK 923 INTER-LIGAND FREE ENERGY PREDICTED BY IDOCK:   -4.51 KCAL/MOL
REMARK 924 INTRA-LIGAND FREE ENERGY PREDICTED BY IDOCK:   -0.09 KCAL/MOL
REMARK 927      BINDING AFFINITY PREDICTED BY RF-SCORE:    0.00 PKD
ROOT
HETATM    1  C   UNL     1     -10.664  11.495  68.747  1.00  0.00    -0.247 C  
HETATM    2  C   UNL     1     -11.494  11.034  67.494  1.00  0.00    -0.185 C  
HETATM    3  C   UNL     1     -10.618  10.315  69.723  1.00  0.00    -0.271 C  
HETATM    4  C   UNL     1     -11.175  12.797  69.385  1.00  0.00    -0.198 A  
HETATM    5  C   UNL     1     -10.728  14.032  68.873  1.00  0.00    -0.265 A  
HETATM    6  H   UNL     1     -11.717   9.424  66.203  1.00  0.00     0.000 HD 
HETATM    7  O   UNL     1     -11.572   9.866  70.346  1.00  0.00    -0.262 OA 
HETATM    8  C   UNL     1     -11.658  12.094  66.387  1.00  0.00    -0.429 C  
HETATM    9  C   UNL     1     -10.358  12.357  65.629  1.00  0.00    -0.284 C  
HETATM   10  C   UNL     1     -11.240  15.247  69.340  1.00  0.00    -0.291 A  
HETATM   11  C   UNL     1     -12.108  12.836  70.432  1.00  0.00    -0.382 A  
HETATM   12  C   UNL     1      -9.809  11.057  65.058  1.00  0.00    -0.321 C  
HETATM   13  C   UNL     1     -12.176  15.257  70.366  1.00  0.00    -0.404 A  
HETATM   14  C   UNL     1      -9.736   9.965  66.123  1.00  0.00    -0.236 C  
HETATM   15  C   UNL     1     -12.594  14.054  70.925  1.00  0.00    -0.431 A  
HETATM   16  N   UNL     1     -11.004   9.800  66.830  1.00  0.00    -0.046 NA 
ENDROOT
BRANCH   3  17
HETATM   17  O   UNL     1      -9.374   9.746  69.729  1.00  0.00    -0.199 OA 
HETATM   18  C   UNL     1      -8.325  10.640  69.351  1.00  0.00    -0.060 C  
ENDBRANCH   3  17
TORSDOF 1
ENDMDL
MODEL       66
REMARK 921   NORMALIZED FREE ENERGY PREDICTED BY IDOCK:   -4.28 KCAL/MOL
REMARK 922        TOTAL FREE ENERGY PREDICTED BY IDOCK:   -4.58 KCAL/MOL
REMARK 923 INTER-LIGAND FREE ENERGY PREDICTED BY IDOCK:   -4.49 KCAL/MOL
REMARK 924 INTRA-LIGAND FREE ENERGY PREDICTED BY IDOCK:   -0.10 KCAL/MOL
REMARK 927      BINDING AFFINITY PREDICTED BY RF-SCORE:    0.00 PKD
ROOT
HETATM    1  C   UNL     1      -9.790  16.055  67.736  1.00  0.00    -0.231 C  
HETATM    2  C   UNL     1      -8.545  16.606  68.523  1.00  0.00    -0.234 C  
HETATM    3  C   UNL     1     -10.398  17.229  66.964  1.00  0.00    -0.318 C  
HETATM    4  C   UNL     1     -10.804  15.313  68.621  1.00  0.00    -0.253 A  
HETATM    5  C   UNL     1     -10.607  13.944  68.890  1.00  0.00    -0.228 A  
HETATM    6  H   UNL     1      -6.892  17.838  68.280  1.00  0.00     0.000 HD 
HETATM    7  O   UNL     1     -10.964  18.195  67.461  1.00  0.00    -0.324 OA 
HETATM    8  C   UNL     1      -7.789  15.565  69.373  1.00  0.00    -0.231 C  
HETATM    9  C   UNL     1      -7.010  14.566  68.520  1.00  0.00    -0.105 C  
HETATM   10  C   UNL     1     -11.435  13.244  69.774  1.00  0.00    -0.228 A  
HETATM   11  C   UNL     1     -11.908  15.934  69.226  1.00  0.00    -0.328 A  
HETATM   12  C   UNL     1      -6.056  15.301  67.589  1.00  0.00    -0.139 C  
HETATM   13  C   UNL     1     -12.511  13.887  70.373  1.00  0.00    -0.404 A  
HETATM   14  C   UNL     1      -6.770  16.404  66.813  1.00  0.00    -0.109 C  
HETATM   15  C   UNL     1     -12.758  15.224  70.084  1.00  0.00    -0.278 A  
HETATM   16  N   UNL     1      -7.526  17.295  67.692  1.00  0.00    -0.171 NA 
ENDROOT
BRANCH   3  17
HETATM   17  O   UNL     1     -10.127  17.117  65.628  1.00  0.00    -0.561 OA 
HETATM   18  C   UNL     1     -10.918  16.133  64.957  1.00  0.00    -0.344 C  
ENDBRANCH   3  17
TORSDOF 1
ENDMDL
MODEL       67
REMARK 921   NORMALIZED FREE ENERGY PREDICTED BY IDOCK:   -4.24 KCAL/MOL
REMARK 922        TOTAL FREE ENERGY PREDICTED BY IDOCK:   -4.54 KCAL/MOL
REMARK 923 INTER-LIGAND FREE ENERGY PREDICTED BY IDOCK:   -4.41 KCAL/MOL
REMARK 924 INTRA-LIGAND FREE ENERGY PREDICTED BY IDOCK:   -0.13 KCAL/MOL
REMARK 927      BINDING AFFINITY PREDICTED BY RF-SCORE:    0.00 PKD
ROOT
HETATM    1  C   UNL     1     -10.397   7.275  70.669  1.00  0.00    -0.213 C  
HETATM    2  C   UNL     1     -10.722   6.461  69.364  1.00  0.00    -0.289 C  
HETATM    3  C   UNL     1     -10.473   6.298  71.847  1.00  0.00    -0.209 C  
HETATM    4  C   UNL     1     -11.271   8.526  70.853  1.00  0.00    -0.304 A  
HETATM    5  C   UNL     1     -10.883   9.731  70.234  1.00  0.00    -0.356 A  
HETATM    6  H   UNL     1     -10.290   4.658  68.431  1.00  0.00     0.000 HD 
HETATM    7  O   UNL     1     -11.492   5.764  72.267  1.00  0.00    -0.288 OA 
HETATM    8  C   UNL     1     -10.698   7.277  68.056  1.00  0.00    -0.209 C  
HETATM    9  C   UNL     1      -9.284   7.682  67.644  1.00  0.00    -0.144 C  
HETATM   10  C   UNL     1     -11.692  10.870  70.277  1.00  0.00    -0.437 A  
HETATM   11  C   UNL     1     -12.475   8.534  71.574  1.00  0.00    -0.353 A  
HETATM   12  C   UNL     1      -8.396   6.451  67.531  1.00  0.00    -0.117 C  
HETATM   13  C   UNL     1     -12.887  10.846  70.984  1.00  0.00    -0.472 A  
HETATM   14  C   UNL     1      -8.487   5.579  68.781  1.00  0.00    -0.101 C  
HETATM   15  C   UNL     1     -13.268   9.686  71.648  1.00  0.00    -0.499 A  
HETATM   16  N   UNL     1      -9.871   5.267  69.134  1.00  0.00    -0.170 NA 
ENDROOT
BRANCH   3  17
HETATM   17  O   UNL     1      -9.220   6.007  72.311  1.00  0.00    -0.145 OA 
HETATM   18  C   UNL     1      -8.290   7.086  72.183  1.00  0.00    -0.104 C  
ENDBRANCH   3  17
TORSDOF 1
ENDMDL
MODEL       68
REMARK 921   NORMALIZED FREE ENERGY PREDICTED BY IDOCK:   -4.24 KCAL/MOL
REMARK 922        TOTAL FREE ENERGY PREDICTED BY IDOCK:   -4.54 KCAL/MOL
REMARK 923 INTER-LIGAND FREE ENERGY PREDICTED BY IDOCK:   -4.43 KCAL/MOL
REMARK 924 INTRA-LIGAND FREE ENERGY PREDICTED BY IDOCK:   -0.11 KCAL/MOL
REMARK 927      BINDING AFFINITY PREDICTED BY RF-SCORE:    0.00 PKD
ROOT
HETATM    1  C   UNL     1     -10.484   8.043  69.697  1.00  0.00    -0.224 C  
HETATM    2  C   UNL     1     -10.280   9.287  70.636  1.00  0.00    -0.272 C  
HETATM    3  C   UNL     1     -10.017   6.806  70.470  1.00  0.00    -0.183 C  
HETATM    4  C   UNL     1      -9.820   8.191  68.319  1.00  0.00    -0.191 A  
HETATM    5  C   UNL     1     -10.521   8.845  67.286  1.00  0.00    -0.348 A  
HETATM    6  H   UNL     1     -10.566   9.897  72.599  1.00  0.00     0.000 HD 
HETATM    7  O   UNL     1      -8.860   6.554  70.784  1.00  0.00    -0.142 OA 
HETATM    8  C   UNL     1     -10.694  10.643  70.032  1.00  0.00    -0.215 C  
HETATM    9  C   UNL     1     -12.209  10.789  69.901  1.00  0.00    -0.384 C  
HETATM   10  C   UNL     1      -9.926   9.104  66.047  1.00  0.00    -0.293 A  
HETATM   11  C   UNL     1      -8.519   7.748  68.031  1.00  0.00    -0.123 A  
HETATM   12  C   UNL     1     -12.877  10.570  71.251  1.00  0.00    -0.532 C  
HETATM   13  C   UNL     1      -8.632   8.670  65.794  1.00  0.00    -0.184 A  
HETATM   14  C   UNL     1     -12.400   9.278  71.909  1.00  0.00    -0.382 C  
HETATM   15  C   UNL     1      -7.936   7.975  66.778  1.00  0.00    -0.103 A  
HETATM   16  N   UNL     1     -10.941   9.194  71.962  1.00  0.00    -0.298 NA 
ENDROOT
BRANCH   3  17
HETATM   17  O   UNL     1     -11.089   6.056  70.869  1.00  0.00    -0.291 OA 
HETATM   18  C   UNL     1     -11.038   5.656  72.241  1.00  0.00    -0.261 C  
ENDBRANCH   3  17
TORSDOF 1
ENDMDL
MODEL       69
REMARK 921   NORMALIZED FREE ENERGY PREDICTED BY IDOCK:   -4.22 KCAL/MOL
REMARK 922        TOTAL FREE ENERGY PREDICTED BY IDOCK:   -4.51 KCAL/MOL
REMARK 923 INTER-LIGAND FREE ENERGY PREDICTED BY IDOCK:   -4.42 KCAL/MOL
REMARK 924 INTRA-LIGAND FREE ENERGY PREDICTED BY IDOCK:   -0.10 KCAL/MOL
REMARK 927      BINDING AFFINITY PREDICTED BY RF-SCORE:    0.00 PKD
ROOT
HETATM    1  C   UNL     1     -10.705   9.478  68.161  1.00  0.00    -0.247 C  
HETATM    2  C   UNL     1      -9.489  10.307  67.609  1.00  0.00    -0.151 C  
HETATM    3  C   UNL     1     -11.033  10.023  69.555  1.00  0.00    -0.253 C  
HETATM    4  C   UNL     1     -10.482   7.957  68.135  1.00  0.00    -0.227 A  
HETATM    5  C   UNL     1     -10.775   7.242  66.957  1.00  0.00    -0.406 A  
HETATM    6  H   UNL     1      -8.792  12.256  67.462  1.00  0.00     0.000 HD 
HETATM    7  O   UNL     1     -10.326   9.913  70.549  1.00  0.00    -0.286 OA 
HETATM    8  C   UNL     1      -9.002   9.904  66.202  1.00  0.00    -0.177 C  
HETATM    9  C   UNL     1      -9.983  10.308  65.104  1.00  0.00    -0.395 C  
HETATM   10  C   UNL     1     -10.491   5.878  66.839  1.00  0.00    -0.349 A  
HETATM   11  C   UNL     1      -9.954   7.231  69.213  1.00  0.00    -0.170 A  
HETATM   12  C   UNL     1     -10.264  11.803  65.173  1.00  0.00    -0.309 C  
HETATM   13  C   UNL     1      -9.953   5.185  67.915  1.00  0.00    -0.202 A  
HETATM   14  C   UNL     1     -10.650  12.235  66.585  1.00  0.00    -0.229 C  
HETATM   15  C   UNL     1      -9.703   5.857  69.107  1.00  0.00    -0.176 A  
HETATM   16  N   UNL     1      -9.685  11.778  67.584  1.00  0.00    -0.179 NA 
ENDROOT
BRANCH   3  17
HETATM   17  O   UNL     1     -12.187  10.758  69.524  1.00  0.00    -0.314 OA 
HETATM   18  C   UNL     1     -12.263  11.759  70.541  1.00  0.00    -0.347 C  
ENDBRANCH   3  17
TORSDOF 1
ENDMDL
MODEL       70
REMARK 921   NORMALIZED FREE ENERGY PREDICTED BY IDOCK:   -4.20 KCAL/MOL
REMARK 922        TOTAL FREE ENERGY PREDICTED BY IDOCK:   -4.49 KCAL/MOL
REMARK 923 INTER-LIGAND FREE ENERGY PREDICTED BY IDOCK:   -4.43 KCAL/MOL
REMARK 924 INTRA-LIGAND FREE ENERGY PREDICTED BY IDOCK:   -0.07 KCAL/MOL
REMARK 927      BINDING AFFINITY PREDICTED BY RF-SCORE:    0.00 PKD
ROOT
HETATM    1  C   UNL     1      -9.975  10.261  67.212  1.00  0.00    -0.233 C  
HETATM    2  C   UNL     1     -11.240  11.189  67.115  1.00  0.00    -0.249 C  
HETATM    3  C   UNL     1      -9.251  10.334  65.864  1.00  0.00    -0.167 C  
HETATM    4  C   UNL     1     -10.292   8.825  67.659  1.00  0.00    -0.317 A  
HETATM    5  C   UNL     1     -10.372   8.537  69.036  1.00  0.00    -0.229 A  
HETATM    6  H   UNL     1     -11.826  13.061  66.435  1.00  0.00     0.000 HD 
HETATM    7  O   UNL     1      -9.670   9.888  64.802  1.00  0.00    -0.309 OA 
HETATM    8  C   UNL     1     -12.111  11.250  68.385  1.00  0.00    -0.110 C  
HETATM    9  C   UNL     1     -11.438  12.015  69.523  1.00  0.00    -0.351 C  
HETATM   10  C   UNL     1     -10.763   7.278  69.500  1.00  0.00    -0.244 A  
HETATM   11  C   UNL     1     -10.557   7.774  66.767  1.00  0.00    -0.248 A  
HETATM   12  C   UNL     1     -11.055  13.414  69.061  1.00  0.00    -0.293 C  
HETATM   13  C   UNL     1     -11.035   6.259  68.596  1.00  0.00    -0.423 A  
HETATM   14  C   UNL     1     -10.277  13.377  67.748  1.00  0.00    -0.235 C  
HETATM   15  C   UNL     1     -10.913   6.501  67.232  1.00  0.00    -0.475 A  
HETATM   16  N   UNL     1     -10.965  12.594  66.722  1.00  0.00    -0.254 NA 
ENDROOT
BRANCH   3  17
HETATM   17  O   UNL     1      -8.104  11.072  65.974  1.00  0.00    -0.159 OA 
HETATM   18  C   UNL     1      -6.908  10.320  65.754  1.00  0.00    -0.128 C  
ENDBRANCH   3  17
TORSDOF 1
ENDMDL
MODEL       71
REMARK 921   NORMALIZED FREE ENERGY PREDICTED BY IDOCK:   -4.19 KCAL/MOL
REMARK 922        TOTAL FREE ENERGY PREDICTED BY IDOCK:   -4.49 KCAL/MOL
REMARK 923 INTER-LIGAND FREE ENERGY PREDICTED BY IDOCK:   -4.37 KCAL/MOL
REMARK 924 INTRA-LIGAND FREE ENERGY PREDICTED BY IDOCK:   -0.12 KCAL/MOL
REMARK 927      BINDING AFFINITY PREDICTED BY RF-SCORE:    0.00 PKD
ROOT
HETATM    1  C   UNL     1     -10.492  11.394  67.548  1.00  0.00    -0.233 C  
HETATM    2  C   UNL     1     -11.328  10.182  68.102  1.00  0.00    -0.099 C  
HETATM    3  C   UNL     1     -11.488  12.438  67.035  1.00  0.00    -0.358 C  
HETATM    4  C   UNL     1      -9.434  10.993  66.508  1.00  0.00    -0.211 A  
HETATM    5  C   UNL     1      -8.166  10.566  66.949  1.00  0.00    -0.123 A  
HETATM    6  H   UNL     1     -12.997   9.763  69.262  1.00  0.00     0.000 HD 
HETATM    7  O   UNL     1     -12.215  12.312  66.057  1.00  0.00    -0.646 OA 
HETATM    8  C   UNL     1     -10.497   9.013  68.668  1.00  0.00    -0.229 C  
HETATM    9  C   UNL     1      -9.822   9.361  69.993  1.00  0.00    -0.253 C  
HETATM   10  C   UNL     1      -7.202  10.088  66.055  1.00  0.00    -0.112 A  
HETATM   11  C   UNL     1      -9.670  10.982  65.124  1.00  0.00    -0.302 A  
HETATM   12  C   UNL     1     -10.859   9.829  71.005  1.00  0.00    -0.378 C  
HETATM   13  C   UNL     1      -7.467  10.072  64.692  1.00  0.00    -0.143 A  
HETATM   14  C   UNL     1     -11.756  10.918  70.423  1.00  0.00    -0.350 C  
HETATM   15  C   UNL     1      -8.692  10.537  64.226  1.00  0.00    -0.184 A  
HETATM   16  N   UNL     1     -12.333  10.528  69.138  1.00  0.00    -0.197 NA 
ENDROOT
BRANCH   3  17
HETATM   17  O   UNL     1     -11.544  13.507  67.887  1.00  0.00    -0.300 OA 
HETATM   18  C   UNL     1     -10.262  14.002  68.281  1.00  0.00    -0.249 C  
ENDBRANCH   3  17
TORSDOF 1
ENDMDL
MODEL       72
REMARK 921   NORMALIZED FREE ENERGY PREDICTED BY IDOCK:   -4.15 KCAL/MOL
REMARK 922        TOTAL FREE ENERGY PREDICTED BY IDOCK:   -4.44 KCAL/MOL
REMARK 923 INTER-LIGAND FREE ENERGY PREDICTED BY IDOCK:   -4.31 KCAL/MOL
REMARK 924 INTRA-LIGAND FREE ENERGY PREDICTED BY IDOCK:   -0.13 KCAL/MOL
REMARK 927      BINDING AFFINITY PREDICTED BY RF-SCORE:    0.00 PKD
ROOT
HETATM    1  C   UNL     1     -10.290   7.329  69.902  1.00  0.00    -0.226 C  
HETATM    2  C   UNL     1      -9.165   6.865  70.897  1.00  0.00    -0.157 C  
HETATM    3  C   UNL     1      -9.595   7.905  68.665  1.00  0.00    -0.155 C  
HETATM    4  C   UNL     1     -11.317   8.285  70.529  1.00  0.00    -0.225 A  
HETATM    5  C   UNL     1     -12.419   7.749  71.224  1.00  0.00    -0.301 A  
HETATM    6  H   UNL     1      -7.354   5.852  70.935  1.00  0.00     0.000 HD 
HETATM    7  O   UNL     1      -8.942   8.941  68.630  1.00  0.00    -0.137 OA 
HETATM    8  C   UNL     1      -9.667   6.251  72.220  1.00  0.00    -0.165 C  
HETATM    9  C   UNL     1     -10.290   4.870  72.026  1.00  0.00    -0.263 C  
HETATM   10  C   UNL     1     -13.324   8.568  71.906  1.00  0.00    -0.401 A  
HETATM   11  C   UNL     1     -11.200   9.684  70.492  1.00  0.00    -0.359 A  
HETATM   12  C   UNL     1      -9.301   3.939  71.338  1.00  0.00    -0.208 C  
HETATM   13  C   UNL     1     -13.177   9.948  71.867  1.00  0.00    -0.558 A  
HETATM   14  C   UNL     1      -8.717   4.575  70.079  1.00  0.00    -0.080 C  
HETATM   15  C   UNL     1     -12.128  10.506  71.144  1.00  0.00    -0.473 A  
HETATM   16  N   UNL     1      -8.178   5.909  70.335  1.00  0.00    -0.110 NA 
ENDROOT
BRANCH   3  17
HETATM   17  O   UNL     1      -9.705   7.044  67.607  1.00  0.00    -0.132 OA 
HETATM   18  C   UNL     1     -10.971   6.386  67.526  1.00  0.00    -0.364 C  
ENDBRANCH   3  17
TORSDOF 1
ENDMDL
MODEL       73
REMARK 921   NORMALIZED FREE ENERGY PREDICTED BY IDOCK:   -4.14 KCAL/MOL
REMARK 922        TOTAL FREE ENERGY PREDICTED BY IDOCK:   -4.43 KCAL/MOL
REMARK 923 INTER-LIGAND FREE ENERGY PREDICTED BY IDOCK:   -4.30 KCAL/MOL
REMARK 924 INTRA-LIGAND FREE ENERGY PREDICTED BY IDOCK:   -0.13 KCAL/MOL
REMARK 927      BINDING AFFINITY PREDICTED BY RF-SCORE:    0.00 PKD
ROOT
HETATM    1  C   UNL     1      -9.820  14.749  67.962  1.00  0.00    -0.218 C  
HETATM    2  C   UNL     1      -8.731  15.299  68.955  1.00  0.00    -0.226 C  
HETATM    3  C   UNL     1     -10.936  15.796  67.885  1.00  0.00    -0.324 C  
HETATM    4  C   UNL     1     -10.325  13.341  68.315  1.00  0.00    -0.252 A  
HETATM    5  C   UNL     1      -9.609  12.220  67.849  1.00  0.00    -0.203 A  
HETATM    6  H   UNL     1      -7.698  17.037  69.423  1.00  0.00     0.000 HD 
HETATM    7  O   UNL     1     -11.707  16.087  68.791  1.00  0.00    -0.385 OA 
HETATM    8  C   UNL     1      -7.513  14.379  69.172  1.00  0.00    -0.094 C  
HETATM    9  C   UNL     1      -6.600  14.317  67.950  1.00  0.00    -0.175 C  
HETATM   10  C   UNL     1      -9.958  10.919  68.227  1.00  0.00    -0.187 A  
HETATM   11  C   UNL     1     -11.447  13.097  69.122  1.00  0.00    -0.358 A  
HETATM   12  C   UNL     1      -6.156  15.718  67.553  1.00  0.00    -0.162 C  
HETATM   13  C   UNL     1     -11.064  10.706  69.040  1.00  0.00    -0.307 A  
HETATM   14  C   UNL     1      -7.345  16.668  67.432  1.00  0.00    -0.161 C  
HETATM   15  C   UNL     1     -11.818  11.792  69.470  1.00  0.00    -0.402 A  
HETATM   16  N   UNL     1      -8.193  16.642  68.623  1.00  0.00    -0.234 NA 
ENDROOT
BRANCH   3  17
HETATM   17  O   UNL     1     -10.892  16.456  66.687  1.00  0.00    -0.229 OA 
HETATM   18  C   UNL     1     -10.397  15.663  65.606  1.00  0.00    -0.385 C  
ENDBRANCH   3  17
TORSDOF 1
ENDMDL
MODEL       74
REMARK 921   NORMALIZED FREE ENERGY PREDICTED BY IDOCK:   -4.11 KCAL/MOL
REMARK 922        TOTAL FREE ENERGY PREDICTED BY IDOCK:   -4.40 KCAL/MOL
REMARK 923 INTER-LIGAND FREE ENERGY PREDICTED BY IDOCK:   -4.27 KCAL/MOL
REMARK 924 INTRA-LIGAND FREE ENERGY PREDICTED BY IDOCK:   -0.12 KCAL/MOL
REMARK 927      BINDING AFFINITY PREDICTED BY RF-SCORE:    0.00 PKD
ROOT
HETATM    1  C   UNL     1     -10.061  12.562  68.103  1.00  0.00    -0.225 C  
HETATM    2  C   UNL     1      -9.181  11.400  67.511  1.00  0.00    -0.160 C  
HETATM    3  C   UNL     1     -11.374  11.938  68.584  1.00  0.00    -0.276 C  
HETATM    4  C   UNL     1     -10.260  13.741  67.137  1.00  0.00    -0.244 A  
HETATM    5  C   UNL     1      -9.288  14.760  67.089  1.00  0.00    -0.233 A  
HETATM    6  H   UNL     1      -8.587   9.453  67.915  1.00  0.00     0.000 HD 
HETATM    7  O   UNL     1     -12.243  11.457  67.866  1.00  0.00    -0.592 OA 
HETATM    8  C   UNL     1      -7.804  11.830  66.966  1.00  0.00    -0.161 C  
HETATM    9  C   UNL     1      -6.829  12.221  68.075  1.00  0.00    -0.082 C  
HETATM   10  C   UNL     1      -9.362  15.799  66.157  1.00  0.00    -0.381 A  
HETATM   11  C   UNL     1     -11.345  13.847  66.253  1.00  0.00    -0.329 A  
HETATM   12  C   UNL     1      -6.685  11.081  69.074  1.00  0.00    -0.074 C  
HETATM   13  C   UNL     1     -10.438  15.871  65.281  1.00  0.00    -0.403 A  
HETATM   14  C   UNL     1      -8.046  10.577  69.548  1.00  0.00    -0.094 C  
HETATM   15  C   UNL     1     -11.438  14.908  65.343  1.00  0.00    -0.320 A  
HETATM   16  N   UNL     1      -8.935  10.261  68.431  1.00  0.00    -0.129 NA 
ENDROOT
BRANCH   3  17
HETATM   17  O   UNL     1     -11.408  11.886  69.951  1.00  0.00    -0.215 OA 
HETATM   18  C   UNL     1     -11.871  10.638  70.472  1.00  0.00    -0.357 C  
ENDBRANCH   3  17
TORSDOF 1
ENDMDL
MODEL       75
REMARK 921   NORMALIZED FREE ENERGY PREDICTED BY IDOCK:   -4.10 KCAL/MOL
REMARK 922        TOTAL FREE ENERGY PREDICTED BY IDOCK:   -4.38 KCAL/MOL
REMARK 923 INTER-LIGAND FREE ENERGY PREDICTED BY IDOCK:   -4.34 KCAL/MOL
REMARK 924 INTRA-LIGAND FREE ENERGY PREDICTED BY IDOCK:   -0.05 KCAL/MOL
REMARK 927      BINDING AFFINITY PREDICTED BY RF-SCORE:    0.00 PKD
ROOT
HETATM    1  C   UNL     1      -9.943  14.515  67.568  1.00  0.00    -0.224 C  
HETATM    2  C   UNL     1     -10.040  15.474  68.811  1.00  0.00    -0.211 C  
HETATM    3  C   UNL     1     -11.360  14.021  67.261  1.00  0.00    -0.330 C  
HETATM    4  C   UNL     1      -8.922  13.378  67.741  1.00  0.00    -0.205 A  
HETATM    5  C   UNL     1      -7.571  13.616  67.422  1.00  0.00    -0.144 A  
HETATM    6  H   UNL     1     -11.189  17.025  69.572  1.00  0.00     0.000 HD 
HETATM    7  O   UNL     1     -12.023  13.270  67.966  1.00  0.00    -0.350 OA 
HETATM    8  C   UNL     1      -8.703  16.079  69.282  1.00  0.00    -0.224 C  
HETATM    9  C   UNL     1      -8.160  17.127  68.312  1.00  0.00    -0.239 C  
HETATM   10  C   UNL     1      -6.582  12.657  67.661  1.00  0.00    -0.143 A  
HETATM   11  C   UNL     1      -9.249  12.111  68.247  1.00  0.00    -0.192 A  
HETATM   12  C   UNL     1      -9.197  18.218  68.082  1.00  0.00    -0.313 C  
HETATM   13  C   UNL     1      -6.930  11.416  68.178  1.00  0.00    -0.069 A  
HETATM   14  C   UNL     1     -10.556  17.628  67.712  1.00  0.00    -0.378 C  
HETATM   15  C   UNL     1      -8.264  11.136  68.452  1.00  0.00    -0.144 A  
HETATM   16  N   UNL     1     -10.989  16.606  68.663  1.00  0.00    -0.344 NA 
ENDROOT
BRANCH   3  17
HETATM   17  O   UNL     1     -11.844  14.624  66.133  1.00  0.00    -0.352 OA 
HETATM   18  C   UNL     1     -12.786  13.828  65.409  1.00  0.00    -0.472 C  
ENDBRANCH   3  17
TORSDOF 1
ENDMDL
MODEL       76
REMARK 921   NORMALIZED FREE ENERGY PREDICTED BY IDOCK:   -4.06 KCAL/MOL
REMARK 922        TOTAL FREE ENERGY PREDICTED BY IDOCK:   -4.35 KCAL/MOL
REMARK 923 INTER-LIGAND FREE ENERGY PREDICTED BY IDOCK:   -4.22 KCAL/MOL
REMARK 924 INTRA-LIGAND FREE ENERGY PREDICTED BY IDOCK:   -0.13 KCAL/MOL
REMARK 927      BINDING AFFINITY PREDICTED BY RF-SCORE:    0.00 PKD
ROOT
HETATM    1  C   UNL     1     -10.085  12.025  67.620  1.00  0.00    -0.205 C  
HETATM    2  C   UNL     1     -11.616  12.292  67.856  1.00  0.00    -0.354 C  
HETATM    3  C   UNL     1      -9.621  12.979  66.514  1.00  0.00    -0.260 C  
HETATM    4  C   UNL     1      -9.749  10.552  67.339  1.00  0.00    -0.190 A  
HETATM    5  C   UNL     1      -9.538   9.678  68.424  1.00  0.00    -0.154 A  
HETATM    6  H   UNL     1     -12.976  13.847  68.057  1.00  0.00     0.000 HD 
HETATM    7  O   UNL     1      -9.955  12.924  65.337  1.00  0.00    -0.266 OA 
HETATM    8  C   UNL     1     -12.277  11.420  68.942  1.00  0.00    -0.153 C  
HETATM    9  C   UNL     1     -11.829  11.799  70.352  1.00  0.00    -0.362 C  
HETATM   10  C   UNL     1      -9.336   8.308  68.232  1.00  0.00    -0.138 A  
HETATM   11  C   UNL     1      -9.681  10.003  66.049  1.00  0.00    -0.301 A  
HETATM   12  C   UNL     1     -12.093  13.277  70.608  1.00  0.00    -0.361 C  
HETATM   13  C   UNL     1      -9.290   7.786  66.945  1.00  0.00    -0.212 A  
HETATM   14  C   UNL     1     -11.532  14.148  69.488  1.00  0.00    -0.281 C  
HETATM   15  C   UNL     1      -9.442   8.636  65.855  1.00  0.00    -0.243 A  
HETATM   16  N   UNL     1     -11.972  13.699  68.168  1.00  0.00    -0.369 NA 
ENDROOT
BRANCH   3  17
HETATM   17  O   UNL     1      -8.857  13.986  67.038  1.00  0.00    -0.217 OA 
HETATM   18  C   UNL     1      -7.998  13.568  68.101  1.00  0.00    -0.149 C  
ENDBRANCH   3  17
TORSDOF 1
ENDMDL
MODEL       77
REMARK 921   NORMALIZED FREE ENERGY PREDICTED BY IDOCK:   -4.03 KCAL/MOL
REMARK 922        TOTAL FREE ENERGY PREDICTED BY IDOCK:   -4.32 KCAL/MOL
REMARK 923 INTER-LIGAND FREE ENERGY PREDICTED BY IDOCK:   -4.20 KCAL/MOL
REMARK 924 INTRA-LIGAND FREE ENERGY PREDICTED BY IDOCK:   -0.11 KCAL/MOL
REMARK 927      BINDING AFFINITY PREDICTED BY RF-SCORE:    0.00 PKD
ROOT
HETATM    1  C   UNL     1     -10.533  12.972  68.538  1.00  0.00    -0.261 C  
HETATM    2  C   UNL     1     -11.181  12.627  67.147  1.00  0.00    -0.300 C  
HETATM    3  C   UNL     1     -11.595  12.716  69.612  1.00  0.00    -0.251 C  
HETATM    4  C   UNL     1      -9.922  14.380  68.605  1.00  0.00    -0.241 A  
HETATM    5  C   UNL     1      -8.601  14.577  68.157  1.00  0.00    -0.169 A  
HETATM    6  H   UNL     1     -12.361  11.192  66.223  1.00  0.00     0.000 HD 
HETATM    7  O   UNL     1     -12.622  13.365  69.771  1.00  0.00    -0.129 OA 
HETATM    8  C   UNL     1     -10.261  12.824  65.926  1.00  0.00    -0.300 C  
HETATM    9  C   UNL     1      -9.152  11.776  65.851  1.00  0.00    -0.128 C  
HETATM   10  C   UNL     1      -8.030  15.852  68.093  1.00  0.00    -0.137 A  
HETATM   11  C   UNL     1     -10.623  15.512  69.051  1.00  0.00    -0.246 A  
HETATM   12  C   UNL     1      -9.751  10.376  65.858  1.00  0.00    -0.272 C  
HETATM   13  C   UNL     1      -8.752  16.957  68.524  1.00  0.00    -0.251 A  
HETATM   14  C   UNL     1     -10.742  10.198  67.005  1.00  0.00    -0.196 C  
HETATM   15  C   UNL     1     -10.040  16.784  69.021  1.00  0.00    -0.283 A  
HETATM   16  N   UNL     1     -11.747  11.259  67.035  1.00  0.00    -0.457 NA 
ENDROOT
BRANCH   3  17
HETATM   17  O   UNL     1     -11.303  11.580  70.315  1.00  0.00    -0.187 OA 
HETATM   18  C   UNL     1     -12.455  10.850  70.744  1.00  0.00    -0.394 C  
ENDBRANCH   3  17
TORSDOF 1
ENDMDL
MODEL       78
REMARK 921   NORMALIZED FREE ENERGY PREDICTED BY IDOCK:   -4.03 KCAL/MOL
REMARK 922        TOTAL FREE ENERGY PREDICTED BY IDOCK:   -4.31 KCAL/MOL
REMARK 923 INTER-LIGAND FREE ENERGY PREDICTED BY IDOCK:   -4.19 KCAL/MOL
REMARK 924 INTRA-LIGAND FREE ENERGY PREDICTED BY IDOCK:   -0.12 KCAL/MOL
REMARK 927      BINDING AFFINITY PREDICTED BY RF-SCORE:    0.00 PKD
ROOT
HETATM    1  C   UNL     1      -9.950   8.032  68.318  1.00  0.00    -0.210 C  
HETATM    2  C   UNL     1     -10.765   9.072  67.465  1.00  0.00    -0.169 C  
HETATM    3  C   UNL     1      -9.831   6.753  67.484  1.00  0.00    -0.132 C  
HETATM    4  C   UNL     1     -10.527   7.795  69.723  1.00  0.00    -0.233 A  
HETATM    5  C   UNL     1     -10.154   8.659  70.771  1.00  0.00    -0.244 A  
HETATM    6  H   UNL     1     -10.909   9.824  65.536  1.00  0.00     0.000 HD 
HETATM    7  O   UNL     1     -10.753   6.001  67.191  1.00  0.00    -0.266 OA 
HETATM    8  C   UNL     1     -10.997  10.439  68.140  1.00  0.00    -0.334 C  
HETATM    9  C   UNL     1      -9.719  11.272  68.231  1.00  0.00    -0.199 C  
HETATM   10  C   UNL     1     -10.728   8.559  72.042  1.00  0.00    -0.410 A  
HETATM   11  C   UNL     1     -11.452   6.783  70.023  1.00  0.00    -0.390 A  
HETATM   12  C   UNL     1      -9.105  11.447  66.849  1.00  0.00    -0.178 C  
HETATM   13  C   UNL     1     -11.654   7.559  72.309  1.00  0.00    -0.354 A  
HETATM   14  C   UNL     1      -8.962  10.109  66.127  1.00  0.00    -0.150 C  
HETATM   15  C   UNL     1     -12.000   6.660  71.306  1.00  0.00    -0.409 A  
HETATM   16  N   UNL     1     -10.214   9.354  66.116  1.00  0.00    -0.249 NA 
ENDROOT
BRANCH   3  17
HETATM   17  O   UNL     1      -8.558   6.610  67.004  1.00  0.00    -0.112 OA 
HETATM   18  C   UNL     1      -8.496   6.211  65.633  1.00  0.00    -0.151 C  
ENDBRANCH   3  17
TORSDOF 1
ENDMDL
MODEL       79
REMARK 921   NORMALIZED FREE ENERGY PREDICTED BY IDOCK:   -4.02 KCAL/MOL
REMARK 922        TOTAL FREE ENERGY PREDICTED BY IDOCK:   -4.30 KCAL/MOL
REMARK 923 INTER-LIGAND FREE ENERGY PREDICTED BY IDOCK:   -4.19 KCAL/MOL
REMARK 924 INTRA-LIGAND FREE ENERGY PREDICTED BY IDOCK:   -0.12 KCAL/MOL
REMARK 927      BINDING AFFINITY PREDICTED BY RF-SCORE:    0.00 PKD
ROOT
HETATM    1  C   UNL     1      -9.913  11.321  67.635  1.00  0.00    -0.197 C  
HETATM    2  C   UNL     1      -8.423  11.497  67.164  1.00  0.00    -0.158 C  
HETATM    3  C   UNL     1     -10.257   9.833  67.510  1.00  0.00    -0.220 C  
HETATM    4  C   UNL     1     -10.905  12.242  66.909  1.00  0.00    -0.290 A  
HETATM    5  C   UNL     1     -11.108  13.550  67.393  1.00  0.00    -0.300 A  
HETATM    6  H   UNL     1      -6.550  10.624  67.359  1.00  0.00     0.000 HD 
HETATM    7  O   UNL     1     -10.368   9.211  66.461  1.00  0.00    -0.263 OA 
HETATM    8  C   UNL     1      -7.883  12.941  67.214  1.00  0.00    -0.134 C  
HETATM    9  C   UNL     1      -7.660  13.434  68.643  1.00  0.00    -0.101 C  
HETATM   10  C   UNL     1     -11.915  14.467  66.712  1.00  0.00    -0.423 A  
HETATM   11  C   UNL     1     -11.601  11.873  65.747  1.00  0.00    -0.281 A  
HETATM   12  C   UNL     1      -6.734  12.483  69.389  1.00  0.00    -0.022 C  
HETATM   13  C   UNL     1     -12.579  14.081  65.555  1.00  0.00    -0.543 A  
HETATM   14  C   UNL     1      -7.201  11.035  69.264  1.00  0.00    -0.124 C  
HETATM   15  C   UNL     1     -12.438  12.780  65.084  1.00  0.00    -0.565 A  
HETATM   16  N   UNL     1      -7.431  10.649  67.873  1.00  0.00    -0.089 NA 
ENDROOT
BRANCH   3  17
HETATM   17  O   UNL     1     -10.319   9.250  68.746  1.00  0.00    -0.201 OA 
HETATM   18  C   UNL     1     -11.055  10.009  69.709  1.00  0.00    -0.274 C  
ENDBRANCH   3  17
TORSDOF 1
ENDMDL
MODEL       80
REMARK 921   NORMALIZED FREE ENERGY PREDICTED BY IDOCK:   -3.98 KCAL/MOL
REMARK 922        TOTAL FREE ENERGY PREDICTED BY IDOCK:   -4.27 KCAL/MOL
REMARK 923 INTER-LIGAND FREE ENERGY PREDICTED BY IDOCK:   -4.22 KCAL/MOL
REMARK 924 INTRA-LIGAND FREE ENERGY PREDICTED BY IDOCK:   -0.05 KCAL/MOL
REMARK 927      BINDING AFFINITY PREDICTED BY RF-SCORE:    0.00 PKD
ROOT
HETATM    1  C   UNL     1      -7.831  16.824  67.447  1.00  0.00    -0.193 C  
HETATM    2  C   UNL     1      -9.358  16.661  67.787  1.00  0.00    -0.222 C  
HETATM    3  C   UNL     1      -7.044  16.022  68.488  1.00  0.00    -0.132 C  
HETATM    4  C   UNL     1      -7.375  18.288  67.329  1.00  0.00    -0.218 A  
HETATM    5  C   UNL     1      -7.524  18.955  66.098  1.00  0.00    -0.292 A  
HETATM    6  H   UNL     1     -10.749  15.222  68.334  1.00  0.00     0.000 HD 
HETATM    7  O   UNL     1      -6.951  16.293  69.679  1.00  0.00    -0.207 OA 
HETATM    8  C   UNL     1     -10.325  17.405  66.844  1.00  0.00    -0.317 C  
HETATM    9  C   UNL     1     -10.400  16.767  65.459  1.00  0.00    -0.236 C  
HETATM   10  C   UNL     1      -7.229  20.315  65.961  1.00  0.00    -0.278 A  
HETATM   11  C   UNL     1      -6.852  19.028  68.401  1.00  0.00    -0.283 A  
HETATM   12  C   UNL     1     -10.780  15.297  65.576  1.00  0.00    -0.385 C  
HETATM   13  C   UNL     1      -6.728  21.029  67.042  1.00  0.00    -0.409 A  
HETATM   14  C   UNL     1      -9.894  14.569  66.583  1.00  0.00    -0.273 C  
HETATM   15  C   UNL     1      -6.521  20.381  68.255  1.00  0.00    -0.344 A  
HETATM   16  N   UNL     1      -9.841  15.260  67.870  1.00  0.00    -0.216 NA 
ENDROOT
BRANCH   3  17
HETATM   17  O   UNL     1      -6.537  14.880  67.931  1.00  0.00    -0.128 OA 
HETATM   18  C   UNL     1      -5.615  14.184  68.773  1.00  0.00    -0.082 C  
ENDBRANCH   3  17
TORSDOF 1
ENDMDL
MODEL       81
REMARK 921   NORMALIZED FREE ENERGY PREDICTED BY IDOCK:   -3.97 KCAL/MOL
REMARK 922        TOTAL FREE ENERGY PREDICTED BY IDOCK:   -4.25 KCAL/MOL
REMARK 923 INTER-LIGAND FREE ENERGY PREDICTED BY IDOCK:   -4.12 KCAL/MOL
REMARK 924 INTRA-LIGAND FREE ENERGY PREDICTED BY IDOCK:   -0.12 KCAL/MOL
REMARK 927      BINDING AFFINITY PREDICTED BY RF-SCORE:    0.00 PKD
ROOT
HETATM    1  C   UNL     1      -9.891  13.976  67.162  1.00  0.00    -0.240 C  
HETATM    2  C   UNL     1      -9.299  12.653  66.552  1.00  0.00    -0.228 C  
HETATM    3  C   UNL     1     -11.195  14.278  66.418  1.00  0.00    -0.337 C  
HETATM    4  C   UNL     1      -8.902  15.153  67.167  1.00  0.00    -0.236 A  
HETATM    5  C   UNL     1      -8.001  15.287  68.242  1.00  0.00    -0.132 A  
HETATM    6  H   UNL     1      -9.873  10.754  65.942  1.00  0.00     0.000 HD 
HETATM    7  O   UNL     1     -11.285  14.613  65.243  1.00  0.00    -0.328 OA 
HETATM    8  C   UNL     1      -7.970  12.178  67.174  1.00  0.00    -0.170 C  
HETATM    9  C   UNL     1      -8.147  11.637  68.592  1.00  0.00    -0.121 C  
HETATM   10  C   UNL     1      -7.008  16.272  68.248  1.00  0.00    -0.130 A  
HETATM   11  C   UNL     1      -8.807  16.093  66.130  1.00  0.00    -0.367 A  
HETATM   12  C   UNL     1      -9.180  10.519  68.603  1.00  0.00    -0.172 C  
HETATM   13  C   UNL     1      -6.926  17.180  67.201  1.00  0.00    -0.211 A  
HETATM   14  C   UNL     1     -10.468  10.941  67.900  1.00  0.00    -0.195 C  
HETATM   15  C   UNL     1      -7.836  17.103  66.153  1.00  0.00    -0.303 A  
HETATM   16  N   UNL     1     -10.215  11.485  66.567  1.00  0.00    -0.212 NA 
ENDROOT
BRANCH   3  17
HETATM   17  O   UNL     1     -12.275  14.015  67.215  1.00  0.00    -0.405 OA 
HETATM   18  C   UNL     1     -12.027  14.211  68.609  1.00  0.00    -0.338 C  
ENDBRANCH   3  17
TORSDOF 1
ENDMDL
MODEL       82
REMARK 921   NORMALIZED FREE ENERGY PREDICTED BY IDOCK:   -3.94 KCAL/MOL
REMARK 922        TOTAL FREE ENERGY PREDICTED BY IDOCK:   -4.22 KCAL/MOL
REMARK 923 INTER-LIGAND FREE ENERGY PREDICTED BY IDOCK:   -4.09 KCAL/MOL
REMARK 924 INTRA-LIGAND FREE ENERGY PREDICTED BY IDOCK:   -0.12 KCAL/MOL
REMARK 927      BINDING AFFINITY PREDICTED BY RF-SCORE:    0.00 PKD
ROOT
HETATM    1  C   UNL     1      -8.734   9.560  70.151  1.00  0.00    -0.258 C  
HETATM    2  C   UNL     1      -8.751   8.801  68.774  1.00  0.00    -0.137 C  
HETATM    3  C   UNL     1      -7.282   9.586  70.639  1.00  0.00    -0.122 C  
HETATM    4  C   UNL     1      -9.718   8.989  71.185  1.00  0.00    -0.369 A  
HETATM    5  C   UNL     1     -11.056   9.430  71.176  1.00  0.00    -0.432 A  
HETATM    6  H   UNL     1      -7.713   8.678  66.981  1.00  0.00     0.000 HD 
HETATM    7  O   UNL     1      -6.634   8.614  71.007  1.00  0.00    -0.042 OA 
HETATM    8  C   UNL     1     -10.138   8.666  68.113  1.00  0.00    -0.236 C  
HETATM    9  C   UNL     1     -10.661   9.995  67.571  1.00  0.00    -0.339 C  
HETATM   10  C   UNL     1     -12.019   8.868  72.020  1.00  0.00    -0.439 A  
HETATM   11  C   UNL     1      -9.373   8.005  72.125  1.00  0.00    -0.251 A  
HETATM   12  C   UNL     1      -9.656  10.600  66.601  1.00  0.00    -0.209 C  
HETATM   13  C   UNL     1     -11.654   7.884  72.930  1.00  0.00    -0.303 A  
HETATM   14  C   UNL     1      -8.255  10.648  67.205  1.00  0.00    -0.116 C  
HETATM   15  C   UNL     1     -10.329   7.468  72.996  1.00  0.00    -0.376 A  
HETATM   16  N   UNL     1      -7.841   9.351  67.738  1.00  0.00    -0.095 NA 
ENDROOT
BRANCH   3  17
HETATM   17  O   UNL     1      -6.754  10.841  70.506  1.00  0.00    -0.312 OA 
HETATM   18  C   UNL     1      -5.401  10.854  70.046  1.00  0.00    -0.054 C  
ENDBRANCH   3  17
TORSDOF 1
ENDMDL
MODEL       83
REMARK 921   NORMALIZED FREE ENERGY PREDICTED BY IDOCK:   -3.90 KCAL/MOL
REMARK 922        TOTAL FREE ENERGY PREDICTED BY IDOCK:   -4.18 KCAL/MOL
REMARK 923 INTER-LIGAND FREE ENERGY PREDICTED BY IDOCK:   -4.06 KCAL/MOL
REMARK 924 INTRA-LIGAND FREE ENERGY PREDICTED BY IDOCK:   -0.12 KCAL/MOL
REMARK 927      BINDING AFFINITY PREDICTED BY RF-SCORE:    0.00 PKD
ROOT
HETATM    1  C   UNL     1      -9.833  13.398  67.724  1.00  0.00    -0.234 C  
HETATM    2  C   UNL     1      -9.912  13.727  66.188  1.00  0.00    -0.308 C  
HETATM    3  C   UNL     1      -9.647  14.726  68.465  1.00  0.00    -0.218 C  
HETATM    4  C   UNL     1      -8.772  12.345  68.079  1.00  0.00    -0.186 A  
HETATM    5  C   UNL     1      -9.108  10.979  67.999  1.00  0.00    -0.152 A  
HETATM    6  H   UNL     1     -10.784  15.064  64.862  1.00  0.00     0.000 HD 
HETATM    7  O   UNL     1      -8.648  15.434  68.423  1.00  0.00    -0.154 OA 
HETATM    8  C   UNL     1     -10.098  12.508  65.263  1.00  0.00    -0.275 C  
HETATM    9  C   UNL     1     -11.495  11.900  65.368  1.00  0.00    -0.310 C  
HETATM   10  C   UNL     1      -8.155   9.977  68.204  1.00  0.00    -0.108 A  
HETATM   11  C   UNL     1      -7.453  12.661  68.440  1.00  0.00    -0.127 A  
HETATM   12  C   UNL     1     -12.553  12.959  65.089  1.00  0.00    -0.536 C  
HETATM   13  C   UNL     1      -6.852  10.317  68.545  1.00  0.00    -0.061 A  
HETATM   14  C   UNL     1     -12.322  14.214  65.927  1.00  0.00    -0.463 C  
HETATM   15  C   UNL     1      -6.507  11.657  68.682  1.00  0.00    -0.059 A  
HETATM   16  N   UNL     1     -10.953  14.713  65.805  1.00  0.00    -0.320 NA 
ENDROOT
BRANCH   3  17
HETATM   17  O   UNL     1     -10.801  15.083  69.107  1.00  0.00    -0.232 OA 
HETATM   18  C   UNL     1     -11.143  16.463  68.959  1.00  0.00    -0.315 C  
ENDBRANCH   3  17
TORSDOF 1
ENDMDL
MODEL       84
REMARK 921   NORMALIZED FREE ENERGY PREDICTED BY IDOCK:   -3.89 KCAL/MOL
REMARK 922        TOTAL FREE ENERGY PREDICTED BY IDOCK:   -4.17 KCAL/MOL
REMARK 923 INTER-LIGAND FREE ENERGY PREDICTED BY IDOCK:   -4.13 KCAL/MOL
REMARK 924 INTRA-LIGAND FREE ENERGY PREDICTED BY IDOCK:   -0.03 KCAL/MOL
REMARK 927      BINDING AFFINITY PREDICTED BY RF-SCORE:    0.00 PKD
ROOT
HETATM    1  C   UNL     1      -7.098  18.021  68.565  1.00  0.00    -0.257 C  
HETATM    2  C   UNL     1      -6.461  17.899  67.132  1.00  0.00    -0.165 C  
HETATM    3  C   UNL     1      -6.020  17.627  69.579  1.00  0.00    -0.243 C  
HETATM    4  C   UNL     1      -8.409  17.236  68.729  1.00  0.00    -0.228 A  
HETATM    5  C   UNL     1      -9.623  17.840  68.346  1.00  0.00    -0.323 A  
HETATM    6  H   UNL     1      -4.727  18.358  66.088  1.00  0.00     0.000 HD 
HETATM    7  O   UNL     1      -5.556  16.503  69.728  1.00  0.00    -0.156 OA 
HETATM    8  C   UNL     1      -7.399  18.255  65.962  1.00  0.00    -0.281 C  
HETATM    9  C   UNL     1      -7.692  19.752  65.880  1.00  0.00    -0.328 C  
HETATM   10  C   UNL     1     -10.831  17.137  68.371  1.00  0.00    -0.309 A  
HETATM   11  C   UNL     1      -8.470  15.915  69.202  1.00  0.00    -0.254 A  
HETATM   12  C   UNL     1      -6.392  20.538  65.791  1.00  0.00    -0.266 C  
HETATM   13  C   UNL     1     -10.862  15.826  68.828  1.00  0.00    -0.274 A  
HETATM   14  C   UNL     1      -5.411  20.124  66.885  1.00  0.00    -0.166 C  
HETATM   15  C   UNL     1      -9.686  15.223  69.262  1.00  0.00    -0.254 A  
HETATM   16  N   UNL     1      -5.213  18.676  66.927  1.00  0.00    -0.131 NA 
ENDROOT
BRANCH   3  17
HETATM   17  O   UNL     1      -5.552  18.732  70.235  1.00  0.00    -0.219 OA 
HETATM   18  C   UNL     1      -6.446  19.847  70.203  1.00  0.00    -0.279 C  
ENDBRANCH   3  17
TORSDOF 1
ENDMDL
MODEL       85
REMARK 921   NORMALIZED FREE ENERGY PREDICTED BY IDOCK:   -3.83 KCAL/MOL
REMARK 922        TOTAL FREE ENERGY PREDICTED BY IDOCK:   -4.11 KCAL/MOL
REMARK 923 INTER-LIGAND FREE ENERGY PREDICTED BY IDOCK:   -4.01 KCAL/MOL
REMARK 924 INTRA-LIGAND FREE ENERGY PREDICTED BY IDOCK:   -0.10 KCAL/MOL
REMARK 927      BINDING AFFINITY PREDICTED BY RF-SCORE:    0.00 PKD
ROOT
HETATM    1  C   UNL     1      -9.531   6.336  71.182  1.00  0.00    -0.183 C  
HETATM    2  C   UNL     1     -10.729   6.979  70.392  1.00  0.00    -0.234 C  
HETATM    3  C   UNL     1      -8.300   6.399  70.273  1.00  0.00    -0.126 C  
HETATM    4  C   UNL     1      -9.827   4.926  71.717  1.00  0.00    -0.240 A  
HETATM    5  C   UNL     1     -10.473   4.786  72.962  1.00  0.00    -0.258 A  
HETATM    6  H   UNL     1     -11.188   8.608  69.191  1.00  0.00     0.000 HD 
HETATM    7  O   UNL     1      -8.142   5.761  69.239  1.00  0.00    -0.099 OA 
HETATM    8  C   UNL     1     -12.074   7.009  71.145  1.00  0.00    -0.412 C  
HETATM    9  C   UNL     1     -12.081   8.016  72.294  1.00  0.00    -0.392 C  
HETATM   10  C   UNL     1     -10.863   3.535  73.448  1.00  0.00    -0.312 A  
HETATM   11  C   UNL     1      -9.529   3.749  71.013  1.00  0.00    -0.239 A  
HETATM   12  C   UNL     1     -11.717   9.402  71.779  1.00  0.00    -0.444 C  
HETATM   13  C   UNL     1     -10.572   2.387  72.723  1.00  0.00    -0.205 A  
HETATM   14  C   UNL     1     -10.439   9.371  70.945  1.00  0.00    -0.310 C  
HETATM   15  C   UNL     1      -9.888   2.492  71.516  1.00  0.00    -0.196 A  
HETATM   16  N   UNL     1     -10.492   8.357  69.894  1.00  0.00    -0.219 NA 
ENDROOT
BRANCH   3  17
HETATM   17  O   UNL     1      -7.427   7.356  70.712  1.00  0.00    -0.075 OA 
HETATM   18  C   UNL     1      -6.930   7.126  72.032  1.00  0.00    -0.060 C  
ENDBRANCH   3  17
TORSDOF 1
ENDMDL
MODEL       86
REMARK 921   NORMALIZED FREE ENERGY PREDICTED BY IDOCK:   -3.83 KCAL/MOL
REMARK 922        TOTAL FREE ENERGY PREDICTED BY IDOCK:   -4.10 KCAL/MOL
REMARK 923 INTER-LIGAND FREE ENERGY PREDICTED BY IDOCK:   -3.97 KCAL/MOL
REMARK 924 INTRA-LIGAND FREE ENERGY PREDICTED BY IDOCK:   -0.13 KCAL/MOL
REMARK 927      BINDING AFFINITY PREDICTED BY RF-SCORE:    0.00 PKD
ROOT
HETATM    1  C   UNL     1      -9.498  11.408  66.387  1.00  0.00    -0.224 C  
HETATM    2  C   UNL     1     -10.732  12.302  66.774  1.00  0.00    -0.240 C  
HETATM    3  C   UNL     1     -10.016   9.981  66.177  1.00  0.00    -0.256 C  
HETATM    4  C   UNL     1      -8.332  11.495  67.385  1.00  0.00    -0.148 A  
HETATM    5  C   UNL     1      -7.385  12.528  67.244  1.00  0.00    -0.113 A  
HETATM    6  H   UNL     1     -12.705  12.657  66.238  1.00  0.00     0.000 HD 
HETATM    7  O   UNL     1     -10.454   9.244  67.052  1.00  0.00    -0.253 OA 
HETATM    8  C   UNL     1     -10.413  13.788  67.032  1.00  0.00    -0.274 C  
HETATM    9  C   UNL     1     -10.063  14.543  65.751  1.00  0.00    -0.365 C  
HETATM   10  C   UNL     1      -6.367  12.721  68.183  1.00  0.00    -0.088 A  
HETATM   11  C   UNL     1      -8.173  10.622  68.473  1.00  0.00    -0.128 A  
HETATM   12  C   UNL     1     -11.185  14.399  64.732  1.00  0.00    -0.391 C  
HETATM   13  C   UNL     1      -6.242  11.853  69.260  1.00  0.00    -0.094 A  
HETATM   14  C   UNL     1     -11.581  12.937  64.540  1.00  0.00    -0.350 C  
HETATM   15  C   UNL     1      -7.132  10.793  69.393  1.00  0.00    -0.122 A  
HETATM   16  N   UNL     1     -11.862  12.272  65.812  1.00  0.00    -0.510 NA 
ENDROOT
BRANCH   3  17
HETATM   17  O   UNL     1     -10.032   9.668  64.845  1.00  0.00    -0.173 OA 
HETATM   18  C   UNL     1      -8.971  10.266  64.097  1.00  0.00    -0.237 C  
ENDBRANCH   3  17
TORSDOF 1
ENDMDL
MODEL       87
REMARK 921   NORMALIZED FREE ENERGY PREDICTED BY IDOCK:   -3.79 KCAL/MOL
REMARK 922        TOTAL FREE ENERGY PREDICTED BY IDOCK:   -4.07 KCAL/MOL
REMARK 923 INTER-LIGAND FREE ENERGY PREDICTED BY IDOCK:   -3.95 KCAL/MOL
REMARK 924 INTRA-LIGAND FREE ENERGY PREDICTED BY IDOCK:   -0.11 KCAL/MOL
REMARK 927      BINDING AFFINITY PREDICTED BY RF-SCORE:    0.00 PKD
ROOT
HETATM    1  C   UNL     1      -9.622   8.664  70.179  1.00  0.00    -0.181 C  
HETATM    2  C   UNL     1      -9.049   7.632  69.139  1.00  0.00    -0.141 C  
HETATM    3  C   UNL     1      -8.826   9.962  70.018  1.00  0.00    -0.160 C  
HETATM    4  C   UNL     1      -9.651   8.137  71.622  1.00  0.00    -0.237 A  
HETATM    5  C   UNL     1     -10.757   7.379  72.054  1.00  0.00    -0.254 A  
HETATM    6  H   UNL     1      -8.440   7.497  67.160  1.00  0.00     0.000 HD 
HETATM    7  O   UNL     1      -7.645  10.116  70.305  1.00  0.00    -0.187 OA 
HETATM    8  C   UNL     1      -9.726   6.246  69.146  1.00  0.00    -0.154 C  
HETATM    9  C   UNL     1     -11.142   6.282  68.573  1.00  0.00    -0.397 C  
HETATM   10  C   UNL     1     -10.790   6.785  73.319  1.00  0.00    -0.302 A  
HETATM   11  C   UNL     1      -8.607   8.330  72.541  1.00  0.00    -0.273 A  
HETATM   12  C   UNL     1     -11.127   6.871  67.170  1.00  0.00    -0.362 C  
HETATM   13  C   UNL     1      -9.736   6.977  74.203  1.00  0.00    -0.308 A  
HETATM   14  C   UNL     1     -10.371   8.197  67.127  1.00  0.00    -0.321 C  
HETATM   15  C   UNL     1      -8.655   7.765  73.822  1.00  0.00    -0.306 A  
HETATM   16  N   UNL     1      -9.043   8.093  67.728  1.00  0.00    -0.135 NA 
ENDROOT
BRANCH   3  17
HETATM   17  O   UNL     1      -9.585  10.917  69.399  1.00  0.00    -0.114 OA 
HETATM   18  C   UNL     1      -8.837  11.794  68.553  1.00  0.00    -0.122 C  
ENDBRANCH   3  17
TORSDOF 1
ENDMDL
MODEL       88
REMARK 921   NORMALIZED FREE ENERGY PREDICTED BY IDOCK:   -3.76 KCAL/MOL
REMARK 922        TOTAL FREE ENERGY PREDICTED BY IDOCK:   -4.03 KCAL/MOL
REMARK 923 INTER-LIGAND FREE ENERGY PREDICTED BY IDOCK:   -3.90 KCAL/MOL
REMARK 924 INTRA-LIGAND FREE ENERGY PREDICTED BY IDOCK:   -0.12 KCAL/MOL
REMARK 927      BINDING AFFINITY PREDICTED BY RF-SCORE:    0.00 PKD
ROOT
HETATM    1  C   UNL     1      -9.295  12.405  66.355  1.00  0.00    -0.219 C  
HETATM    2  C   UNL     1      -9.064  13.122  67.736  1.00  0.00    -0.200 C  
HETATM    3  C   UNL     1     -10.612  12.936  65.781  1.00  0.00    -0.275 C  
HETATM    4  C   UNL     1      -9.236  10.871  66.436  1.00  0.00    -0.193 A  
HETATM    5  C   UNL     1      -7.987  10.227  66.344  1.00  0.00    -0.121 A  
HETATM    6  H   UNL     1      -9.175  14.993  68.626  1.00  0.00     0.000 HD 
HETATM    7  O   UNL     1     -11.729  12.722  66.238  1.00  0.00    -0.360 OA 
HETATM    8  C   UNL     1      -7.776  12.716  68.481  1.00  0.00    -0.114 C  
HETATM    9  C   UNL     1      -6.515  13.253  67.807  1.00  0.00    -0.161 C  
HETATM   10  C   UNL     1      -7.860   8.845  66.519  1.00  0.00    -0.100 A  
HETATM   11  C   UNL     1     -10.363  10.060  66.644  1.00  0.00    -0.281 A  
HETATM   12  C   UNL     1      -6.601  14.766  67.659  1.00  0.00    -0.181 C  
HETATM   13  C   UNL     1      -8.989   8.067  66.740  1.00  0.00    -0.169 A  
HETATM   14  C   UNL     1      -7.918  15.190  67.013  1.00  0.00    -0.188 C  
HETATM   15  C   UNL     1     -10.241   8.671  66.783  1.00  0.00    -0.361 A  
HETATM   16  N   UNL     1      -9.075  14.605  67.688  1.00  0.00    -0.188 NA 
ENDROOT
BRANCH   3  17
HETATM   17  O   UNL     1     -10.372  13.786  64.736  1.00  0.00    -0.410 OA 
HETATM   18  C   UNL     1     -11.173  14.970  64.757  1.00  0.00    -0.386 C  
ENDBRANCH   3  17
TORSDOF 1
ENDMDL
MODEL       89
REMARK 921   NORMALIZED FREE ENERGY PREDICTED BY IDOCK:   -3.75 KCAL/MOL
REMARK 922        TOTAL FREE ENERGY PREDICTED BY IDOCK:   -4.02 KCAL/MOL
REMARK 923 INTER-LIGAND FREE ENERGY PREDICTED BY IDOCK:   -3.92 KCAL/MOL
REMARK 924 INTRA-LIGAND FREE ENERGY PREDICTED BY IDOCK:   -0.10 KCAL/MOL
REMARK 927      BINDING AFFINITY PREDICTED BY RF-SCORE:    0.00 PKD
ROOT
HETATM    1  C   UNL     1      -8.981  13.212  67.270  1.00  0.00    -0.216 C  
HETATM    2  C   UNL     1     -10.472  13.133  67.764  1.00  0.00    -0.228 C  
HETATM    3  C   UNL     1      -8.335  11.852  67.553  1.00  0.00    -0.158 C  
HETATM    4  C   UNL     1      -8.196  14.397  67.856  1.00  0.00    -0.157 A  
HETATM    5  C   UNL     1      -8.272  15.652  67.220  1.00  0.00    -0.218 A  
HETATM    6  H   UNL     1     -12.124  11.878  67.728  1.00  0.00     0.000 HD 
HETATM    7  O   UNL     1      -8.090  11.394  68.662  1.00  0.00    -0.142 OA 
HETATM    8  C   UNL     1     -11.300  14.419  67.567  1.00  0.00    -0.345 C  
HETATM    9  C   UNL     1     -11.630  14.685  66.099  1.00  0.00    -0.332 C  
HETATM   10  C   UNL     1      -7.668  16.788  67.767  1.00  0.00    -0.180 A  
HETATM   11  C   UNL     1      -7.431  14.318  69.031  1.00  0.00    -0.102 A  
HETATM   12  C   UNL     1     -12.343  13.484  65.495  1.00  0.00    -0.524 C  
HETATM   13  C   UNL     1      -6.930  16.686  68.940  1.00  0.00    -0.200 A  
HETATM   14  C   UNL     1     -11.586  12.187  65.769  1.00  0.00    -0.355 C  
HETATM   15  C   UNL     1      -6.795  15.448  69.559  1.00  0.00    -0.181 A  
HETATM   16  N   UNL     1     -11.271  12.023  67.187  1.00  0.00    -0.296 NA 
ENDROOT
BRANCH   3  17
HETATM   17  O   UNL     1      -8.161  11.153  66.390  1.00  0.00    -0.162 OA 
HETATM   18  C   UNL     1      -8.200   9.733  66.556  1.00  0.00    -0.120 C  
ENDBRANCH   3  17
TORSDOF 1
ENDMDL
MODEL       90
REMARK 921   NORMALIZED FREE ENERGY PREDICTED BY IDOCK:   -3.73 KCAL/MOL
REMARK 922        TOTAL FREE ENERGY PREDICTED BY IDOCK:   -4.00 KCAL/MOL
REMARK 923 INTER-LIGAND FREE ENERGY PREDICTED BY IDOCK:   -3.95 KCAL/MOL
REMARK 924 INTRA-LIGAND FREE ENERGY PREDICTED BY IDOCK:   -0.05 KCAL/MOL
REMARK 927      BINDING AFFINITY PREDICTED BY RF-SCORE:    0.00 PKD
ROOT
HETATM    1  C   UNL     1      -8.831  13.362  67.022  1.00  0.00    -0.217 C  
HETATM    2  C   UNL     1      -9.757  12.645  68.072  1.00  0.00    -0.215 C  
HETATM    3  C   UNL     1      -7.500  13.662  67.718  1.00  0.00    -0.168 C  
HETATM    4  C   UNL     1      -9.473  14.598  66.372  1.00  0.00    -0.325 A  
HETATM    5  C   UNL     1     -10.298  14.427  65.242  1.00  0.00    -0.427 A  
HETATM    6  H   UNL     1      -9.711  11.164  69.525  1.00  0.00     0.000 HD 
HETATM    7  O   UNL     1      -7.333  14.468  68.625  1.00  0.00    -0.113 OA 
HETATM    8  C   UNL     1     -11.159  12.260  67.558  1.00  0.00    -0.326 C  
HETATM    9  C   UNL     1     -11.120  11.103  66.561  1.00  0.00    -0.233 C  
HETATM   10  C   UNL     1     -10.994  15.499  64.675  1.00  0.00    -0.341 A  
HETATM   11  C   UNL     1      -9.324  15.903  66.866  1.00  0.00    -0.244 A  
HETATM   12  C   UNL     1     -10.419   9.900  67.177  1.00  0.00    -0.305 C  
HETATM   13  C   UNL     1     -10.842  16.778  65.194  1.00  0.00    -0.150 A  
HETATM   14  C   UNL     1      -9.071  10.287  67.780  1.00  0.00    -0.134 C  
HETATM   15  C   UNL     1      -9.993  16.983  66.276  1.00  0.00    -0.324 A  
HETATM   16  N   UNL     1      -9.182  11.425  68.692  1.00  0.00    -0.174 NA 
ENDROOT
BRANCH   3  17
HETATM   17  O   UNL     1      -6.521  12.820  67.265  1.00  0.00    -0.160 OA 
HETATM   18  C   UNL     1      -5.226  13.094  67.803  1.00  0.00    -0.089 C  
ENDBRANCH   3  17
TORSDOF 1
ENDMDL
MODEL       91
REMARK 921   NORMALIZED FREE ENERGY PREDICTED BY IDOCK:   -3.71 KCAL/MOL
REMARK 922        TOTAL FREE ENERGY PREDICTED BY IDOCK:   -3.97 KCAL/MOL
REMARK 923 INTER-LIGAND FREE ENERGY PREDICTED BY IDOCK:   -3.84 KCAL/MOL
REMARK 924 INTRA-LIGAND FREE ENERGY PREDICTED BY IDOCK:   -0.13 KCAL/MOL
REMARK 927      BINDING AFFINITY PREDICTED BY RF-SCORE:    0.00 PKD
ROOT
HETATM    1  C   UNL     1      -9.569   8.880  69.234  1.00  0.00    -0.162 C  
HETATM    2  C   UNL     1      -8.235   8.975  70.062  1.00  0.00    -0.127 C  
HETATM    3  C   UNL     1      -9.232   9.242  67.784  1.00  0.00    -0.129 C  
HETATM    4  C   UNL     1     -10.722   9.710  69.820  1.00  0.00    -0.269 A  
HETATM    5  C   UNL     1     -11.531   9.146  70.826  1.00  0.00    -0.337 A  
HETATM    6  H   UNL     1      -6.229   8.453  69.963  1.00  0.00     0.000 HD 
HETATM    7  O   UNL     1      -8.897  10.350  67.383  1.00  0.00    -0.132 OA 
HETATM    8  C   UNL     1      -8.367   8.646  71.562  1.00  0.00    -0.220 C  
HETATM    9  C   UNL     1      -8.609   7.160  71.818  1.00  0.00    -0.119 C  
HETATM   10  C   UNL     1     -12.524   9.889  71.471  1.00  0.00    -0.506 A  
HETATM   11  C   UNL     1     -10.998  11.034  69.442  1.00  0.00    -0.301 A  
HETATM   12  C   UNL     1      -7.506   6.329  71.176  1.00  0.00    -0.085 C  
HETATM   13  C   UNL     1     -12.765  11.203  71.089  1.00  0.00    -0.510 A  
HETATM   14  C   UNL     1      -7.295   6.714  69.714  1.00  0.00    -0.086 C  
HETATM   15  C   UNL     1     -12.017  11.767  70.062  1.00  0.00    -0.421 A  
HETATM   16  N   UNL     1      -7.111   8.155  69.545  1.00  0.00    -0.050 NA 
ENDROOT
BRANCH   3  17
HETATM   17  O   UNL     1      -9.246   8.124  66.995  1.00  0.00    -0.141 OA 
HETATM   18  C   UNL     1     -10.278   7.192  67.328  1.00  0.00    -0.245 C  
ENDBRANCH   3  17
TORSDOF 1
ENDMDL
MODEL       92
REMARK 921   NORMALIZED FREE ENERGY PREDICTED BY IDOCK:   -3.70 KCAL/MOL
REMARK 922        TOTAL FREE ENERGY PREDICTED BY IDOCK:   -3.97 KCAL/MOL
REMARK 923 INTER-LIGAND FREE ENERGY PREDICTED BY IDOCK:   -3.90 KCAL/MOL
REMARK 924 INTRA-LIGAND FREE ENERGY PREDICTED BY IDOCK:   -0.07 KCAL/MOL
REMARK 927      BINDING AFFINITY PREDICTED BY RF-SCORE:    0.00 PKD
ROOT
HETATM    1  C   UNL     1     -10.024   7.735  69.212  1.00  0.00    -0.182 C  
HETATM    2  C   UNL     1     -11.352   7.790  70.053  1.00  0.00    -0.048 C  
HETATM    3  C   UNL     1      -9.915   9.056  68.445  1.00  0.00    -0.180 C  
HETATM    4  C   UNL     1      -9.911   6.494  68.313  1.00  0.00    -0.132 A  
HETATM    5  C   UNL     1      -9.393   5.300  68.853  1.00  0.00    -0.163 A  
HETATM    6  H   UNL     1     -12.442   9.065  71.274  1.00  0.00     0.000 HD 
HETATM    7  O   UNL     1     -10.645   9.413  67.529  1.00  0.00    -0.262 OA 
HETATM    8  C   UNL     1     -11.646   6.537  70.902  1.00  0.00    -0.417 C  
HETATM    9  C   UNL     1     -10.705   6.405  72.098  1.00  0.00    -0.259 C  
HETATM   10  C   UNL     1      -9.367   4.112  68.116  1.00  0.00    -0.212 A  
HETATM   11  C   UNL     1     -10.340   6.460  66.977  1.00  0.00    -0.307 A  
HETATM   12  C   UNL     1     -10.759   7.663  72.952  1.00  0.00    -0.428 C  
HETATM   13  C   UNL     1      -9.813   4.102  66.800  1.00  0.00    -0.203 A  
HETATM   14  C   UNL     1     -10.569   8.921  72.108  1.00  0.00    -0.253 C  
HETATM   15  C   UNL     1     -10.281   5.279  66.226  1.00  0.00    -0.263 A  
HETATM   16  N   UNL     1     -11.477   8.957  70.962  1.00  0.00    -0.282 NA 
ENDROOT
BRANCH   3  17
HETATM   17  O   UNL     1      -8.948   9.852  68.996  1.00  0.00    -0.142 OA 
HETATM   18  C   UNL     1      -8.953  11.195  68.504  1.00  0.00    -0.168 C  
ENDBRANCH   3  17
TORSDOF 1
ENDMDL
MODEL       93
REMARK 921   NORMALIZED FREE ENERGY PREDICTED BY IDOCK:   -3.66 KCAL/MOL
REMARK 922        TOTAL FREE ENERGY PREDICTED BY IDOCK:   -3.92 KCAL/MOL
REMARK 923 INTER-LIGAND FREE ENERGY PREDICTED BY IDOCK:   -3.84 KCAL/MOL
REMARK 924 INTRA-LIGAND FREE ENERGY PREDICTED BY IDOCK:   -0.08 KCAL/MOL
REMARK 927      BINDING AFFINITY PREDICTED BY RF-SCORE:    0.00 PKD
ROOT
HETATM    1  C   UNL     1     -10.093   8.810  68.744  1.00  0.00    -0.213 C  
HETATM    2  C   UNL     1      -8.541   9.001  68.909  1.00  0.00    -0.131 C  
HETATM    3  C   UNL     1     -10.323   8.058  67.430  1.00  0.00    -0.284 C  
HETATM    4  C   UNL     1     -10.892  10.119  68.849  1.00  0.00    -0.256 A  
HETATM    5  C   UNL     1     -11.277  10.588  70.120  1.00  0.00    -0.389 A  
HETATM    6  H   UNL     1      -6.753   7.965  68.711  1.00  0.00     0.000 HD 
HETATM    7  O   UNL     1     -10.117   8.501  66.307  1.00  0.00    -0.258 OA 
HETATM    8  C   UNL     1      -8.100   9.747  70.184  1.00  0.00    -0.202 C  
HETATM    9  C   UNL     1      -8.295   8.913  71.449  1.00  0.00    -0.195 C  
HETATM   10  C   UNL     1     -11.910  11.824  70.285  1.00  0.00    -0.382 A  
HETATM   11  C   UNL     1     -11.230  10.914  67.742  1.00  0.00    -0.384 A  
HETATM   12  C   UNL     1      -7.564   7.584  71.320  1.00  0.00    -0.081 C  
HETATM   13  C   UNL     1     -12.218  12.599  69.174  1.00  0.00    -0.056 A  
HETATM   14  C   UNL     1      -7.914   6.878  70.012  1.00  0.00    -0.116 C  
HETATM   15  C   UNL     1     -11.896  12.135  67.903  1.00  0.00    -0.338 A  
HETATM   16  N   UNL     1      -7.741   7.751  68.853  1.00  0.00    -0.110 NA 
ENDROOT
BRANCH   3  17
HETATM   17  O   UNL     1     -10.691   6.763  67.677  1.00  0.00    -0.228 OA 
HETATM   18  C   UNL     1     -11.296   6.567  68.958  1.00  0.00    -0.220 C  
ENDBRANCH   3  17
TORSDOF 1
ENDMDL
MODEL       94
REMARK 921   NORMALIZED FREE ENERGY PREDICTED BY IDOCK:   -3.63 KCAL/MOL
REMARK 922        TOTAL FREE ENERGY PREDICTED BY IDOCK:   -3.89 KCAL/MOL
REMARK 923 INTER-LIGAND FREE ENERGY PREDICTED BY IDOCK:   -3.78 KCAL/MOL
REMARK 924 INTRA-LIGAND FREE ENERGY PREDICTED BY IDOCK:   -0.11 KCAL/MOL
REMARK 927      BINDING AFFINITY PREDICTED BY RF-SCORE:    0.00 PKD
ROOT
HETATM    1  C   UNL     1      -9.328   9.249  70.545  1.00  0.00    -0.316 C  
HETATM    2  C   UNL     1     -10.738   9.060  69.875  1.00  0.00    -0.229 C  
HETATM    3  C   UNL     1      -8.312   9.464  69.418  1.00  0.00    -0.125 C  
HETATM    4  C   UNL     1      -8.942   8.115  71.508  1.00  0.00    -0.201 A  
HETATM    5  C   UNL     1      -9.375   8.176  72.848  1.00  0.00    -0.343 A  
HETATM    6  H   UNL     1     -11.941   9.858  68.384  1.00  0.00     0.000 HD 
HETATM    7  O   UNL     1      -7.966   8.622  68.599  1.00  0.00    -0.111 OA 
HETATM    8  C   UNL     1     -11.906   8.826  70.853  1.00  0.00    -0.267 C  
HETATM    9  C   UNL     1     -12.270  10.082  71.643  1.00  0.00    -0.456 C  
HETATM   10  C   UNL     1      -9.148   7.124  73.740  1.00  0.00    -0.238 A  
HETATM   11  C   UNL     1      -8.212   6.980  71.121  1.00  0.00    -0.113 A  
HETATM   12  C   UNL     1     -12.582  11.229  70.692  1.00  0.00    -0.377 C  
HETATM   13  C   UNL     1      -8.437   6.004  73.327  1.00  0.00    -0.117 A  
HETATM   14  C   UNL     1     -11.479  11.408  69.652  1.00  0.00    -0.309 C  
HETATM   15  C   UNL     1      -7.953   5.942  72.024  1.00  0.00    -0.107 A  
HETATM   16  N   UNL     1     -11.159  10.157  68.967  1.00  0.00    -0.222 NA 
ENDROOT
BRANCH   3  17
HETATM   17  O   UNL     1      -7.915  10.772  69.373  1.00  0.00    -0.140 OA 
HETATM   18  C   UNL     1      -7.650  11.252  68.053  1.00  0.00    -0.105 C  
ENDBRANCH   3  17
TORSDOF 1
ENDMDL
MODEL       95
REMARK 921   NORMALIZED FREE ENERGY PREDICTED BY IDOCK:   -3.62 KCAL/MOL
REMARK 922        TOTAL FREE ENERGY PREDICTED BY IDOCK:   -3.88 KCAL/MOL
REMARK 923 INTER-LIGAND FREE ENERGY PREDICTED BY IDOCK:   -3.78 KCAL/MOL
REMARK 924 INTRA-LIGAND FREE ENERGY PREDICTED BY IDOCK:   -0.10 KCAL/MOL
REMARK 927      BINDING AFFINITY PREDICTED BY RF-SCORE:    0.00 PKD
ROOT
HETATM    1  C   UNL     1      -8.722   8.056  70.975  1.00  0.00    -0.146 C  
HETATM    2  C   UNL     1      -9.699   8.637  72.062  1.00  0.00    -0.321 C  
HETATM    3  C   UNL     1      -7.426   8.869  71.046  1.00  0.00    -0.110 C  
HETATM    4  C   UNL     1      -9.330   7.995  69.565  1.00  0.00    -0.156 A  
HETATM    5  C   UNL     1     -10.099   6.874  69.197  1.00  0.00    -0.180 A  
HETATM    6  H   UNL     1      -9.726   9.282  74.034  1.00  0.00     0.000 HD 
HETATM    7  O   UNL     1      -7.302  10.046  70.730  1.00  0.00    -0.323 OA 
HETATM    8  C   UNL     1     -11.075   7.946  72.147  1.00  0.00    -0.351 C  
HETATM    9  C   UNL     1     -10.990   6.542  72.742  1.00  0.00    -0.286 C  
HETATM   10  C   UNL     1     -10.765   6.812  67.969  1.00  0.00    -0.302 A  
HETATM   11  C   UNL     1      -9.203   9.024  68.618  1.00  0.00    -0.136 A  
HETATM   12  C   UNL     1     -10.322   6.589  74.109  1.00  0.00    -0.351 C  
HETATM   13  C   UNL     1     -10.637   7.852  67.057  1.00  0.00    -0.381 A  
HETATM   14  C   UNL     1      -9.004   7.358  74.061  1.00  0.00    -0.239 C  
HETATM   15  C   UNL     1      -9.840   8.947  67.373  1.00  0.00    -0.247 A  
HETATM   16  N   UNL     1      -9.158   8.674  73.444  1.00  0.00    -0.153 NA 
ENDROOT
BRANCH   3  17
HETATM   17  O   UNL     1      -6.428   8.131  71.622  1.00  0.00    -0.040 OA 
HETATM   18  C   UNL     1      -5.446   8.916  72.302  1.00  0.00    -0.061 C  
ENDBRANCH   3  17
TORSDOF 1
ENDMDL
MODEL       96
REMARK 921   NORMALIZED FREE ENERGY PREDICTED BY IDOCK:   -3.62 KCAL/MOL
REMARK 922        TOTAL FREE ENERGY PREDICTED BY IDOCK:   -3.88 KCAL/MOL
REMARK 923 INTER-LIGAND FREE ENERGY PREDICTED BY IDOCK:   -3.80 KCAL/MOL
REMARK 924 INTRA-LIGAND FREE ENERGY PREDICTED BY IDOCK:   -0.08 KCAL/MOL
REMARK 927      BINDING AFFINITY PREDICTED BY RF-SCORE:    0.00 PKD
ROOT
HETATM    1  C   UNL     1     -10.028   9.743  65.710  1.00  0.00    -0.349 C  
HETATM    2  C   UNL     1      -8.487   9.859  65.423  1.00  0.00    -0.147 C  
HETATM    3  C   UNL     1     -10.659  11.096  65.363  1.00  0.00    -0.227 C  
HETATM    4  C   UNL     1     -10.360   9.260  67.130  1.00  0.00    -0.330 A  
HETATM    5  C   UNL     1     -10.402   7.876  67.391  1.00  0.00    -0.349 A  
HETATM    6  H   UNL     1      -7.154  10.582  64.006  1.00  0.00     0.000 HD 
HETATM    7  O   UNL     1     -10.482  12.144  65.971  1.00  0.00    -0.236 OA 
HETATM    8  C   UNL     1      -7.666   8.587  65.715  1.00  0.00    -0.098 C  
HETATM    9  C   UNL     1      -7.934   7.471  64.706  1.00  0.00    -0.132 C  
HETATM   10  C   UNL     1     -10.591   7.379  68.685  1.00  0.00    -0.182 A  
HETATM   11  C   UNL     1     -10.583  10.124  68.214  1.00  0.00    -0.262 A  
HETATM   12  C   UNL     1      -7.676   7.969  63.291  1.00  0.00    -0.143 C  
HETATM   13  C   UNL     1     -10.793   8.257  69.742  1.00  0.00    -0.186 A  
HETATM   14  C   UNL     1      -8.404   9.283  63.019  1.00  0.00    -0.195 C  
HETATM   15  C   UNL     1     -10.809   9.627  69.503  1.00  0.00    -0.253 A  
HETATM   16  N   UNL     1      -8.130  10.286  64.047  1.00  0.00    -0.155 NA 
ENDROOT
BRANCH   3  17
HETATM   17  O   UNL     1     -11.373  11.008  64.199  1.00  0.00    -0.056 OA 
HETATM   18  C   UNL     1     -11.667  12.273  63.602  1.00  0.00    -0.504 C  
ENDBRANCH   3  17
TORSDOF 1
ENDMDL
MODEL       97
REMARK 921   NORMALIZED FREE ENERGY PREDICTED BY IDOCK:   -3.59 KCAL/MOL
REMARK 922        TOTAL FREE ENERGY PREDICTED BY IDOCK:   -3.85 KCAL/MOL
REMARK 923 INTER-LIGAND FREE ENERGY PREDICTED BY IDOCK:   -3.80 KCAL/MOL
REMARK 924 INTRA-LIGAND FREE ENERGY PREDICTED BY IDOCK:   -0.05 KCAL/MOL
REMARK 927      BINDING AFFINITY PREDICTED BY RF-SCORE:    0.00 PKD
ROOT
HETATM    1  C   UNL     1     -10.291   7.941  70.958  1.00  0.00    -0.221 C  
HETATM    2  C   UNL     1      -9.298   6.853  71.507  1.00  0.00    -0.155 C  
HETATM    3  C   UNL     1     -11.658   7.270  70.794  1.00  0.00    -0.302 C  
HETATM    4  C   UNL     1      -9.797   8.644  69.683  1.00  0.00    -0.186 A  
HETATM    5  C   UNL     1      -8.942   9.758  69.801  1.00  0.00    -0.239 A  
HETATM    6  H   UNL     1      -9.181   5.333  72.915  1.00  0.00     0.000 HD 
HETATM    7  O   UNL     1     -11.935   6.403  69.974  1.00  0.00    -0.333 OA 
HETATM    8  C   UNL     1      -7.853   7.337  71.739  1.00  0.00    -0.091 C  
HETATM    9  C   UNL     1      -7.735   8.280  72.936  1.00  0.00    -0.171 C  
HETATM   10  C   UNL     1      -8.376  10.369  68.678  1.00  0.00    -0.127 A  
HETATM   11  C   UNL     1     -10.112   8.211  68.385  1.00  0.00    -0.226 A  
HETATM   12  C   UNL     1      -8.291   7.614  74.187  1.00  0.00    -0.272 C  
HETATM   13  C   UNL     1      -8.691   9.911  67.406  1.00  0.00    -0.129 A  
HETATM   14  C   UNL     1      -9.685   7.039  73.942  1.00  0.00    -0.294 C  
HETATM   15  C   UNL     1      -9.574   8.846  67.259  1.00  0.00    -0.212 A  
HETATM   16  N   UNL     1      -9.726   6.181  72.760  1.00  0.00    -0.159 NA 
ENDROOT
BRANCH   3  17
HETATM   17  O   UNL     1     -12.519   7.691  71.770  1.00  0.00    -0.309 OA 
HETATM   18  C   UNL     1     -13.895   7.427  71.482  1.00  0.00    -0.374 C  
ENDBRANCH   3  17
TORSDOF 1
ENDMDL
MODEL       98
REMARK 921   NORMALIZED FREE ENERGY PREDICTED BY IDOCK:   -3.58 KCAL/MOL
REMARK 922        TOTAL FREE ENERGY PREDICTED BY IDOCK:   -3.84 KCAL/MOL
REMARK 923 INTER-LIGAND FREE ENERGY PREDICTED BY IDOCK:   -3.77 KCAL/MOL
REMARK 924 INTRA-LIGAND FREE ENERGY PREDICTED BY IDOCK:   -0.07 KCAL/MOL
REMARK 927      BINDING AFFINITY PREDICTED BY RF-SCORE:    0.00 PKD
ROOT
HETATM    1  C   UNL     1      -9.316  15.447  66.601  1.00  0.00    -0.288 C  
HETATM    2  C   UNL     1      -9.663  14.725  65.248  1.00  0.00    -0.082 C  
HETATM    3  C   UNL     1      -9.163  16.940  66.294  1.00  0.00    -0.267 C  
HETATM    4  C   UNL     1      -8.107  14.844  67.332  1.00  0.00    -0.218 A  
HETATM    5  C   UNL     1      -8.303  13.745  68.191  1.00  0.00    -0.165 A  
HETATM    6  H   UNL     1     -10.866  14.925  63.568  1.00  0.00     0.000 HD 
HETATM    7  O   UNL     1      -8.264  17.445  65.632  1.00  0.00    -0.491 OA 
HETATM    8  C   UNL     1      -9.857  13.198  65.347  1.00  0.00    -0.123 C  
HETATM    9  C   UNL     1     -11.148  12.817  66.068  1.00  0.00    -0.315 C  
HETATM   10  C   UNL     1      -7.227  13.088  68.798  1.00  0.00    -0.082 A  
HETATM   11  C   UNL     1      -6.790  15.299  67.162  1.00  0.00     0.025 A  
HETATM   12  C   UNL     1     -12.343  13.471  65.389  1.00  0.00    -0.517 C  
HETATM   13  C   UNL     1      -5.932  13.548  68.600  1.00  0.00    -0.086 A  
HETATM   14  C   UNL     1     -12.123  14.969  65.193  1.00  0.00    -0.073 C  
HETATM   15  C   UNL     1      -5.716  14.665  67.799  1.00  0.00    -0.079 A  
HETATM   16  N   UNL     1     -10.851  15.256  64.533  1.00  0.00    -0.237 NA 
ENDROOT
BRANCH   3  17
HETATM   17  O   UNL     1     -10.237  17.641  66.770  1.00  0.00    -0.312 OA 
HETATM   18  C   UNL     1     -10.324  18.978  66.271  1.00  0.00    -0.459 C  
ENDBRANCH   3  17
TORSDOF 1
ENDMDL
MODEL       99
REMARK 921   NORMALIZED FREE ENERGY PREDICTED BY IDOCK:   -3.58 KCAL/MOL
REMARK 922        TOTAL FREE ENERGY PREDICTED BY IDOCK:   -3.84 KCAL/MOL
REMARK 923 INTER-LIGAND FREE ENERGY PREDICTED BY IDOCK:   -3.73 KCAL/MOL
REMARK 924 INTRA-LIGAND FREE ENERGY PREDICTED BY IDOCK:   -0.10 KCAL/MOL
REMARK 927      BINDING AFFINITY PREDICTED BY RF-SCORE:    0.00 PKD
ROOT
HETATM    1  C   UNL     1      -9.734   8.486  68.841  1.00  0.00    -0.172 C  
HETATM    2  C   UNL     1      -8.556   7.523  68.444  1.00  0.00    -0.124 C  
HETATM    3  C   UNL     1      -9.201   9.919  68.751  1.00  0.00    -0.147 C  
HETATM    4  C   UNL     1     -10.375   8.155  70.199  1.00  0.00    -0.215 A  
HETATM    5  C   UNL     1     -11.399   7.189  70.256  1.00  0.00    -0.305 A  
HETATM    6  H   UNL     1      -7.042   7.310  67.041  1.00  0.00     0.000 HD 
HETATM    7  O   UNL     1      -8.360  10.416  69.489  1.00  0.00    -0.162 OA 
HETATM    8  C   UNL     1      -8.896   6.019  68.476  1.00  0.00    -0.112 C  
HETATM    9  C   UNL     1      -9.831   5.605  67.341  1.00  0.00    -0.160 C  
HETATM   10  C   UNL     1     -11.943   6.770  71.474  1.00  0.00    -0.396 A  
HETATM   11  C   UNL     1      -9.966   8.731  71.412  1.00  0.00    -0.354 A  
HETATM   12  C   UNL     1      -9.233   5.997  65.997  1.00  0.00    -0.129 C  
HETATM   13  C   UNL     1     -11.509   7.344  72.662  1.00  0.00    -0.337 A  
HETATM   14  C   UNL     1      -8.798   7.461  65.984  1.00  0.00    -0.146 C  
HETATM   15  C   UNL     1     -10.536   8.337  72.629  1.00  0.00    -0.378 A  
HETATM   16  N   UNL     1      -7.940   7.790  67.120  1.00  0.00    -0.115 NA 
ENDROOT
BRANCH   3  17
HETATM   17  O   UNL     1      -9.713  10.553  67.652  1.00  0.00    -0.161 OA 
HETATM   18  C   UNL     1     -11.142  10.605  67.625  1.00  0.00    -0.319 C  
ENDBRANCH   3  17
TORSDOF 1
ENDMDL
MODEL      100
REMARK 921   NORMALIZED FREE ENERGY PREDICTED BY IDOCK:   -3.55 KCAL/MOL
REMARK 922        TOTAL FREE ENERGY PREDICTED BY IDOCK:   -3.80 KCAL/MOL
REMARK 923 INTER-LIGAND FREE ENERGY PREDICTED BY IDOCK:   -3.69 KCAL/MOL
REMARK 924 INTRA-LIGAND FREE ENERGY PREDICTED BY IDOCK:   -0.11 KCAL/MOL
REMARK 927      BINDING AFFINITY PREDICTED BY RF-SCORE:    0.00 PKD
ROOT
HETATM    1  C   UNL     1      -9.421   9.760  66.961  1.00  0.00    -0.195 C  
HETATM    2  C   UNL     1      -8.501  10.117  68.186  1.00  0.00    -0.118 C  
HETATM    3  C   UNL     1     -10.710  10.575  67.106  1.00  0.00    -0.265 C  
HETATM    4  C   UNL     1      -9.665   8.253  66.789  1.00  0.00    -0.307 A  
HETATM    5  C   UNL     1      -8.730   7.485  66.066  1.00  0.00    -0.178 A  
HETATM    6  H   UNL     1      -7.837  11.744  69.291  1.00  0.00     0.000 HD 
HETATM    7  O   UNL     1     -11.562  10.416  67.972  1.00  0.00    -0.392 OA 
HETATM    8  C   UNL     1      -7.142   9.390  68.223  1.00  0.00    -0.076 C  
HETATM    9  C   UNL     1      -6.179   9.891  67.148  1.00  0.00    -0.063 C  
HETATM   10  C   UNL     1      -8.843   6.094  65.969  1.00  0.00    -0.160 A  
HETATM   11  C   UNL     1     -10.755   7.572  67.353  1.00  0.00    -0.331 A  
HETATM   12  C   UNL     1      -5.991  11.397  67.270  1.00  0.00    -0.081 C  
HETATM   13  C   UNL     1      -9.923   5.443  66.551  1.00  0.00    -0.222 A  
HETATM   14  C   UNL     1      -7.332  12.124  67.336  1.00  0.00    -0.151 C  
HETATM   15  C   UNL     1     -10.889   6.184  67.224  1.00  0.00    -0.438 A  
HETATM   16  N   UNL     1      -8.212  11.563  68.360  1.00  0.00    -0.147 NA 
ENDROOT
BRANCH   3  17
HETATM   17  O   UNL     1     -10.738  11.595  66.195  1.00  0.00    -0.260 OA 
HETATM   18  C   UNL     1     -10.456  11.183  64.856  1.00  0.00    -0.308 C  
ENDBRANCH   3  17
TORSDOF 1
ENDMDL
MODEL      101
REMARK 921   NORMALIZED FREE ENERGY PREDICTED BY IDOCK:   -3.52 KCAL/MOL
REMARK 922        TOTAL FREE ENERGY PREDICTED BY IDOCK:   -3.78 KCAL/MOL
REMARK 923 INTER-LIGAND FREE ENERGY PREDICTED BY IDOCK:   -3.70 KCAL/MOL
REMARK 924 INTRA-LIGAND FREE ENERGY PREDICTED BY IDOCK:   -0.07 KCAL/MOL
REMARK 927      BINDING AFFINITY PREDICTED BY RF-SCORE:    0.00 PKD
ROOT
HETATM    1  C   UNL     1      -9.393  10.022  67.917  1.00  0.00    -0.151 C  
HETATM    2  C   UNL     1     -10.078   9.414  66.639  1.00  0.00    -0.262 C  
HETATM    3  C   UNL     1      -8.765   8.861  68.693  1.00  0.00    -0.134 C  
HETATM    4  C   UNL     1     -10.331  10.892  68.769  1.00  0.00    -0.215 A  
HETATM    5  C   UNL     1     -10.490  12.253  68.441  1.00  0.00    -0.244 A  
HETATM    6  H   UNL     1      -9.741   8.040  65.121  1.00  0.00     0.000 HD 
HETATM    7  O   UNL     1      -9.379   7.974  69.273  1.00  0.00    -0.152 OA 
HETATM    8  C   UNL     1     -10.776  10.435  65.718  1.00  0.00    -0.010 C  
HETATM    9  C   UNL     1      -9.785  11.318  64.963  1.00  0.00    -0.293 C  
HETATM   10  C   UNL     1     -11.410  13.065  69.111  1.00  0.00    -0.328 A  
HETATM   11  C   UNL     1     -11.087  10.398  69.843  1.00  0.00    -0.367 A  
HETATM   12  C   UNL     1      -8.807  10.458  64.175  1.00  0.00    -0.228 C  
HETATM   13  C   UNL     1     -12.158  12.547  70.161  1.00  0.00    -0.368 A  
HETATM   14  C   UNL     1      -8.181   9.376  65.052  1.00  0.00    -0.138 C  
HETATM   15  C   UNL     1     -11.982  11.221  70.539  1.00  0.00    -0.467 A  
HETATM   16  N   UNL     1      -9.190   8.600  65.772  1.00  0.00    -0.206 NA 
ENDROOT
BRANCH   3  17
HETATM   17  O   UNL     1      -7.403   8.877  68.563  1.00  0.00    -0.078 OA 
HETATM   18  C   UNL     1      -6.849   7.641  68.107  1.00  0.00    -0.064 C  
ENDBRANCH   3  17
TORSDOF 1
ENDMDL
MODEL      102
REMARK 921   NORMALIZED FREE ENERGY PREDICTED BY IDOCK:   -3.49 KCAL/MOL
REMARK 922        TOTAL FREE ENERGY PREDICTED BY IDOCK:   -3.74 KCAL/MOL
REMARK 923 INTER-LIGAND FREE ENERGY PREDICTED BY IDOCK:   -3.67 KCAL/MOL
REMARK 924 INTRA-LIGAND FREE ENERGY PREDICTED BY IDOCK:   -0.08 KCAL/MOL
REMARK 927      BINDING AFFINITY PREDICTED BY RF-SCORE:    0.00 PKD
ROOT
HETATM    1  C   UNL     1      -9.975   6.336  69.882  1.00  0.00    -0.206 C  
HETATM    2  C   UNL     1      -8.766   7.341  69.921  1.00  0.00    -0.141 C  
HETATM    3  C   UNL     1     -10.012   5.614  71.233  1.00  0.00    -0.195 C  
HETATM    4  C   UNL     1      -9.948   5.380  68.678  1.00  0.00    -0.232 A  
HETATM    5  C   UNL     1     -10.507   5.802  67.455  1.00  0.00    -0.310 A  
HETATM    6  H   UNL     1      -7.865   8.741  71.159  1.00  0.00     0.000 HD 
HETATM    7  O   UNL     1      -9.178   4.814  71.639  1.00  0.00    -0.132 OA 
HETATM    8  C   UNL     1      -8.557   8.170  68.638  1.00  0.00    -0.127 C  
HETATM    9  C   UNL     1      -9.640   9.229  68.441  1.00  0.00    -0.158 C  
HETATM   10  C   UNL     1     -10.415   5.020  66.300  1.00  0.00    -0.352 A  
HETATM   11  C   UNL     1      -9.352   4.110  68.707  1.00  0.00    -0.222 A  
HETATM   12  C   UNL     1      -9.720  10.133  69.664  1.00  0.00    -0.250 C  
HETATM   13  C   UNL     1      -9.805   3.774  66.352  1.00  0.00    -0.072 A  
HETATM   14  C   UNL     1      -9.826   9.322  70.953  1.00  0.00    -0.293 C  
HETATM   15  C   UNL     1      -9.292   3.311  67.558  1.00  0.00    -0.250 A  
HETATM   16  N   UNL     1      -8.781   8.304  71.050  1.00  0.00    -0.136 NA 
ENDROOT
BRANCH   3  17
HETATM   17  O   UNL     1     -11.056   6.068  71.991  1.00  0.00    -0.250 OA 
HETATM   18  C   UNL     1     -12.131   6.620  71.226  1.00  0.00    -0.341 C  
ENDBRANCH   3  17
TORSDOF 1
ENDMDL
MODEL      103
REMARK 921   NORMALIZED FREE ENERGY PREDICTED BY IDOCK:   -3.42 KCAL/MOL
REMARK 922        TOTAL FREE ENERGY PREDICTED BY IDOCK:   -3.67 KCAL/MOL
REMARK 923 INTER-LIGAND FREE ENERGY PREDICTED BY IDOCK:   -3.58 KCAL/MOL
REMARK 924 INTRA-LIGAND FREE ENERGY PREDICTED BY IDOCK:   -0.09 KCAL/MOL
REMARK 927      BINDING AFFINITY PREDICTED BY RF-SCORE:    0.00 PKD
ROOT
HETATM    1  C   UNL     1      -9.329   9.667  66.515  1.00  0.00    -0.212 C  
HETATM    2  C   UNL     1      -8.592   8.635  67.445  1.00  0.00    -0.134 C  
HETATM    3  C   UNL     1      -8.325  10.121  65.451  1.00  0.00    -0.157 C  
HETATM    4  C   UNL     1      -9.983  10.831  67.276  1.00  0.00    -0.219 A  
HETATM    5  C   UNL     1     -11.281  10.665  67.799  1.00  0.00    -0.383 A  
HETATM    6  H   UNL     1      -7.319   6.998  67.356  1.00  0.00     0.000 HD 
HETATM    7  O   UNL     1      -7.329  10.804  65.655  1.00  0.00    -0.121 OA 
HETATM    8  C   UNL     1      -9.444   8.057  68.592  1.00  0.00    -0.147 C  
HETATM    9  C   UNL     1     -10.516   7.089  68.096  1.00  0.00    -0.242 C  
HETATM   10  C   UNL     1     -11.882  11.648  68.592  1.00  0.00    -0.370 A  
HETATM   11  C   UNL     1      -9.341  12.054  67.527  1.00  0.00    -0.179 A  
HETATM   12  C   UNL     1      -9.880   5.973  67.279  1.00  0.00    -0.155 C  
HETATM   13  C   UNL     1     -11.219  12.843  68.839  1.00  0.00    -0.327 A  
HETATM   14  C   UNL     1      -8.952   6.529  66.201  1.00  0.00    -0.146 C  
HETATM   15  C   UNL     1      -9.958  13.053  68.291  1.00  0.00    -0.235 A  
HETATM   16  N   UNL     1      -7.982   7.477  66.745  1.00  0.00    -0.112 NA 
ENDROOT
BRANCH   3  17
HETATM   17  O   UNL     1      -8.626   9.566  64.238  1.00  0.00    -0.173 OA 
HETATM   18  C   UNL     1      -9.608  10.292  63.496  1.00  0.00    -0.266 C  
ENDBRANCH   3  17
TORSDOF 1
ENDMDL
MODEL      104
REMARK 921   NORMALIZED FREE ENERGY PREDICTED BY IDOCK:   -3.38 KCAL/MOL
REMARK 922        TOTAL FREE ENERGY PREDICTED BY IDOCK:   -3.63 KCAL/MOL
REMARK 923 INTER-LIGAND FREE ENERGY PREDICTED BY IDOCK:   -3.58 KCAL/MOL
REMARK 924 INTRA-LIGAND FREE ENERGY PREDICTED BY IDOCK:   -0.05 KCAL/MOL
REMARK 927      BINDING AFFINITY PREDICTED BY RF-SCORE:    0.00 PKD
ROOT
HETATM    1  C   UNL     1     -10.703   6.270  70.705  1.00  0.00    -0.321 C  
HETATM    2  C   UNL     1      -9.581   7.318  70.364  1.00  0.00    -0.165 C  
HETATM    3  C   UNL     1     -11.701   6.958  71.641  1.00  0.00    -0.304 C  
HETATM    4  C   UNL     1     -10.162   4.941  71.255  1.00  0.00    -0.248 A  
HETATM    5  C   UNL     1      -9.764   3.936  70.352  1.00  0.00    -0.245 A  
HETATM    6  H   UNL     1      -9.334   9.310  69.836  1.00  0.00     0.000 HD 
HETATM    7  O   UNL     1     -11.477   7.303  72.795  1.00  0.00    -0.288 OA 
HETATM    8  C   UNL     1      -8.469   6.811  69.425  1.00  0.00    -0.132 C  
HETATM    9  C   UNL     1      -8.954   6.624  67.989  1.00  0.00    -0.117 C  
HETATM   10  C   UNL     1      -9.165   2.751  70.792  1.00  0.00    -0.204 A  
HETATM   11  C   UNL     1      -9.995   4.677  72.624  1.00  0.00    -0.213 A  
HETATM   12  C   UNL     1      -9.558   7.919  67.464  1.00  0.00    -0.190 C  
HETATM   13  C   UNL     1      -8.996   2.522  72.151  1.00  0.00    -0.120 A  
HETATM   14  C   UNL     1     -10.590   8.488  68.433  1.00  0.00    -0.111 C  
HETATM   15  C   UNL     1      -9.429   3.475  73.067  1.00  0.00    -0.142 A  
HETATM   16  N   UNL     1     -10.066   8.600  69.793  1.00  0.00    -0.194 NA 
ENDROOT
BRANCH   3  17
HETATM   17  O   UNL     1     -12.862   7.245  70.978  1.00  0.00    -0.315 OA 
HETATM   18  C   UNL     1     -13.985   7.452  71.838  1.00  0.00    -0.270 C  
ENDBRANCH   3  17
TORSDOF 1
ENDMDL
MODEL      105
REMARK 921   NORMALIZED FREE ENERGY PREDICTED BY IDOCK:   -3.37 KCAL/MOL
REMARK 922        TOTAL FREE ENERGY PREDICTED BY IDOCK:   -3.62 KCAL/MOL
REMARK 923 INTER-LIGAND FREE ENERGY PREDICTED BY IDOCK:   -3.49 KCAL/MOL
REMARK 924 INTRA-LIGAND FREE ENERGY PREDICTED BY IDOCK:   -0.12 KCAL/MOL
REMARK 927      BINDING AFFINITY PREDICTED BY RF-SCORE:    0.00 PKD
ROOT
HETATM    1  C   UNL     1      -9.667   7.519  69.628  1.00  0.00    -0.167 C  
HETATM    2  C   UNL     1     -10.831   6.475  69.792  1.00  0.00    -0.295 C  
HETATM    3  C   UNL     1     -10.307   8.864  69.271  1.00  0.00    -0.213 C  
HETATM    4  C   UNL     1      -8.575   7.079  68.639  1.00  0.00    -0.120 A  
HETATM    5  C   UNL     1      -7.522   6.263  69.099  1.00  0.00    -0.094 A  
HETATM    6  H   UNL     1     -12.714   6.272  70.641  1.00  0.00     0.000 HD 
HETATM    7  O   UNL     1     -10.879   9.126  68.220  1.00  0.00    -0.163 OA 
HETATM    8  C   UNL     1     -10.386   5.044  70.154  1.00  0.00    -0.306 C  
HETATM    9  C   UNL     1      -9.869   4.935  71.588  1.00  0.00    -0.245 C  
HETATM   10  C   UNL     1      -6.562   5.744  68.225  1.00  0.00    -0.052 A  
HETATM   11  C   UNL     1      -8.585   7.406  67.274  1.00  0.00    -0.118 A  
HETATM   12  C   UNL     1     -10.921   5.439  72.566  1.00  0.00    -0.312 C  
HETATM   13  C   UNL     1      -6.604   6.070  66.875  1.00  0.00    -0.056 A  
HETATM   14  C   UNL     1     -11.446   6.815  72.164  1.00  0.00    -0.282 C  
HETATM   15  C   UNL     1      -7.602   6.916  66.404  1.00  0.00    -0.089 A  
HETATM   16  N   UNL     1     -11.884   6.851  70.769  1.00  0.00    -0.367 NA 
ENDROOT
BRANCH   3  17
HETATM   17  O   UNL     1     -10.255   9.719  70.337  1.00  0.00    -0.269 OA 
HETATM   18  C   UNL     1     -11.463  10.453  70.551  1.00  0.00    -0.345 C  
ENDBRANCH   3  17
TORSDOF 1
ENDMDL
MODEL      106
REMARK 921   NORMALIZED FREE ENERGY PREDICTED BY IDOCK:   -3.37 KCAL/MOL
REMARK 922        TOTAL FREE ENERGY PREDICTED BY IDOCK:   -3.61 KCAL/MOL
REMARK 923 INTER-LIGAND FREE ENERGY PREDICTED BY IDOCK:   -3.48 KCAL/MOL
REMARK 924 INTRA-LIGAND FREE ENERGY PREDICTED BY IDOCK:   -0.13 KCAL/MOL
REMARK 927      BINDING AFFINITY PREDICTED BY RF-SCORE:    0.00 PKD
ROOT
HETATM    1  C   UNL     1      -9.610   7.188  69.960  1.00  0.00    -0.164 C  
HETATM    2  C   UNL     1     -10.015   7.270  71.477  1.00  0.00    -0.182 C  
HETATM    3  C   UNL     1      -9.424   5.707  69.617  1.00  0.00    -0.140 C  
HETATM    4  C   UNL     1      -8.397   8.059  69.595  1.00  0.00    -0.126 A  
HETATM    5  C   UNL     1      -8.599   9.415  69.270  1.00  0.00    -0.143 A  
HETATM    6  H   UNL     1     -11.259   6.367  72.872  1.00  0.00     0.000 HD 
HETATM    7  O   UNL     1      -8.531   4.983  70.039  1.00  0.00    -0.089 OA 
HETATM    8  C   UNL     1     -10.248   8.695  72.021  1.00  0.00    -0.407 C  
HETATM    9  C   UNL     1     -11.528   9.327  71.478  1.00  0.00    -0.454 C  
HETATM   10  C   UNL     1      -7.526  10.280  69.035  1.00  0.00    -0.097 A  
HETATM   11  C   UNL     1      -7.073   7.592  69.607  1.00  0.00    -0.064 A  
HETATM   12  C   UNL     1     -12.724   8.432  71.775  1.00  0.00    -0.373 C  
HETATM   13  C   UNL     1      -6.224   9.796  69.070  1.00  0.00    -0.041 A  
HETATM   14  C   UNL     1     -12.468   6.993  71.333  1.00  0.00    -0.384 C  
HETATM   15  C   UNL     1      -6.000   8.449  69.336  1.00  0.00    -0.037 A  
HETATM   16  N   UNL     1     -11.207   6.472  71.858  1.00  0.00    -0.259 NA 
ENDROOT
BRANCH   3  17
HETATM   17  O   UNL     1     -10.465   5.257  68.852  1.00  0.00    -0.193 OA 
HETATM   18  C   UNL     1     -10.993   6.239  67.957  1.00  0.00    -0.327 C  
ENDBRANCH   3  17
TORSDOF 1
ENDMDL
MODEL      107
REMARK 921   NORMALIZED FREE ENERGY PREDICTED BY IDOCK:   -3.34 KCAL/MOL
REMARK 922        TOTAL FREE ENERGY PREDICTED BY IDOCK:   -3.58 KCAL/MOL
REMARK 923 INTER-LIGAND FREE ENERGY PREDICTED BY IDOCK:   -3.52 KCAL/MOL
REMARK 924 INTRA-LIGAND FREE ENERGY PREDICTED BY IDOCK:   -0.06 KCAL/MOL
REMARK 927      BINDING AFFINITY PREDICTED BY RF-SCORE:    0.00 PKD
ROOT
HETATM    1  C   UNL     1      -9.933   6.540  69.130  1.00  0.00    -0.163 C  
HETATM    2  C   UNL     1     -11.039   5.997  70.107  1.00  0.00    -0.361 C  
HETATM    3  C   UNL     1     -10.644   7.044  67.871  1.00  0.00    -0.218 C  
HETATM    4  C   UNL     1      -8.813   5.528  68.838  1.00  0.00    -0.110 A  
HETATM    5  C   UNL     1      -7.720   5.442  69.722  1.00  0.00    -0.077 A  
HETATM    6  H   UNL     1     -12.912   6.479  70.859  1.00  0.00     0.000 HD 
HETATM    7  O   UNL     1     -11.224   6.344  67.050  1.00  0.00    -0.373 OA 
HETATM    8  C   UNL     1     -10.518   5.437  71.446  1.00  0.00    -0.294 C  
HETATM    9  C   UNL     1     -10.003   6.532  72.379  1.00  0.00    -0.183 C  
HETATM   10  C   UNL     1      -6.728   4.468  69.567  1.00  0.00    -0.044 A  
HETATM   11  C   UNL     1      -8.834   4.639  67.752  1.00  0.00    -0.115 A  
HETATM   12  C   UNL     1     -11.087   7.575  72.613  1.00  0.00    -0.398 C  
HETATM   13  C   UNL     1      -6.780   3.589  68.493  1.00  0.00    -0.045 A  
HETATM   14  C   UNL     1     -11.684   8.067  71.297  1.00  0.00    -0.282 C  
HETATM   15  C   UNL     1      -7.821   3.688  67.576  1.00  0.00    -0.078 A  
HETATM   16  N   UNL     1     -12.116   6.962  70.442  1.00  0.00    -0.275 NA 
ENDROOT
BRANCH   3  17
HETATM   17  O   UNL     1     -10.645   8.411  67.835  1.00  0.00    -0.220 OA 
HETATM   18  C   UNL     1     -10.107   8.960  66.629  1.00  0.00    -0.287 C  
ENDBRANCH   3  17
TORSDOF 1
ENDMDL
MODEL      108
REMARK 921   NORMALIZED FREE ENERGY PREDICTED BY IDOCK:   -3.29 KCAL/MOL
REMARK 922        TOTAL FREE ENERGY PREDICTED BY IDOCK:   -3.53 KCAL/MOL
REMARK 923 INTER-LIGAND FREE ENERGY PREDICTED BY IDOCK:   -3.42 KCAL/MOL
REMARK 924 INTRA-LIGAND FREE ENERGY PREDICTED BY IDOCK:   -0.11 KCAL/MOL
REMARK 927      BINDING AFFINITY PREDICTED BY RF-SCORE:    0.00 PKD
ROOT
HETATM    1  C   UNL     1     -10.139   9.431  69.363  1.00  0.00    -0.204 C  
HETATM    2  C   UNL     1     -10.459   8.572  68.085  1.00  0.00    -0.182 C  
HETATM    3  C   UNL     1     -10.897   8.802  70.537  1.00  0.00    -0.233 C  
HETATM    4  C   UNL     1     -10.419  10.932  69.187  1.00  0.00    -0.248 A  
HETATM    5  C   UNL     1      -9.424  11.753  68.621  1.00  0.00    -0.107 A  
HETATM    6  H   UNL     1     -10.621   6.600  67.460  1.00  0.00     0.000 HD 
HETATM    7  O   UNL     1     -12.114   8.790  70.678  1.00  0.00    -0.155 OA 
HETATM    8  C   UNL     1      -9.784   9.051  66.784  1.00  0.00    -0.279 C  
HETATM    9  C   UNL     1      -8.278   8.795  66.777  1.00  0.00    -0.108 C  
HETATM   10  C   UNL     1      -9.662  13.102  68.337  1.00  0.00    -0.196 A  
HETATM   11  C   UNL     1     -11.640  11.539  69.520  1.00  0.00    -0.400 A  
HETATM   12  C   UNL     1      -7.994   7.320  67.024  1.00  0.00    -0.109 C  
HETATM   13  C   UNL     1     -10.885  13.674  68.661  1.00  0.00    -0.283 A  
HETATM   14  C   UNL     1      -8.737   6.805  68.254  1.00  0.00    -0.123 C  
HETATM   15  C   UNL     1     -11.866  12.898  69.270  1.00  0.00    -0.363 A  
HETATM   16  N   UNL     1     -10.164   7.122  68.207  1.00  0.00    -0.177 NA 
ENDROOT
BRANCH   3  17
HETATM   17  O   UNL     1     -10.032   8.145  71.369  1.00  0.00    -0.170 OA 
HETATM   18  C   UNL     1      -8.975   8.966  71.871  1.00  0.00    -0.084 C  
ENDBRANCH   3  17
TORSDOF 1
ENDMDL
MODEL      109
REMARK 921   NORMALIZED FREE ENERGY PREDICTED BY IDOCK:   -3.23 KCAL/MOL
REMARK 922        TOTAL FREE ENERGY PREDICTED BY IDOCK:   -3.47 KCAL/MOL
REMARK 923 INTER-LIGAND FREE ENERGY PREDICTED BY IDOCK:   -3.54 KCAL/MOL
REMARK 924 INTRA-LIGAND FREE ENERGY PREDICTED BY IDOCK:    0.07 KCAL/MOL
REMARK 927      BINDING AFFINITY PREDICTED BY RF-SCORE:    0.00 PKD
ROOT
HETATM    1  C   UNL     1      -9.978  13.308  68.939  1.00  0.00     0.053 C  
HETATM    2  C   UNL     1      -9.197  12.378  67.939  1.00  0.00    -0.192 C  
HETATM    3  C   UNL     1     -11.426  12.812  68.985  1.00  0.00    -0.309 C  
HETATM    4  C   UNL     1      -9.852  14.806  68.619  1.00  0.00    -0.225 A  
HETATM    5  C   UNL     1      -8.746  15.523  69.116  1.00  0.00    -0.247 A  
HETATM    6  H   UNL     1      -8.964  10.379  67.434  1.00  0.00     0.000 HD 
HETATM    7  O   UNL     1     -12.236  12.884  68.068  1.00  0.00    -0.225 OA 
HETATM    8  C   UNL     1      -7.705  12.720  67.751  1.00  0.00    -0.152 C  
HETATM    9  C   UNL     1      -6.865  12.375  68.979  1.00  0.00    -0.093 C  
HETATM   10  C   UNL     1      -8.523  16.859  68.768  1.00  0.00    -0.244 A  
HETATM   11  C   UNL     1     -10.762  15.507  67.812  1.00  0.00    -0.297 A  
HETATM   12  C   UNL     1      -7.044  10.907  69.343  1.00  0.00    -0.131 C  
HETATM   13  C   UNL     1      -9.430  17.525  67.955  1.00  0.00    -0.277 A  
HETATM   14  C   UNL     1      -8.520  10.529  69.435  1.00  0.00    -0.094 C  
HETATM   15  C   UNL     1     -10.559  16.856  67.494  1.00  0.00    -0.307 A  
HETATM   16  N   UNL     1      -9.265  10.927  68.241  1.00  0.00    -0.155 NA 
ENDROOT
BRANCH   3  17
HETATM   17  O   UNL     1     -11.676  12.168  70.166  1.00  0.00    -0.303 OA 
HETATM   18  C   UNL     1     -12.031  10.792  70.012  1.00  0.00    -0.347 C  
ENDBRANCH   3  17
TORSDOF 1
ENDMDL
MODEL      110
REMARK 921   NORMALIZED FREE ENERGY PREDICTED BY IDOCK:   -3.23 KCAL/MOL
REMARK 922        TOTAL FREE ENERGY PREDICTED BY IDOCK:   -3.47 KCAL/MOL
REMARK 923 INTER-LIGAND FREE ENERGY PREDICTED BY IDOCK:   -3.36 KCAL/MOL
REMARK 924 INTRA-LIGAND FREE ENERGY PREDICTED BY IDOCK:   -0.11 KCAL/MOL
REMARK 927      BINDING AFFINITY PREDICTED BY RF-SCORE:    0.00 PKD
ROOT
HETATM    1  C   UNL     1      -9.852   6.285  70.349  1.00  0.00    -0.207 C  
HETATM    2  C   UNL     1      -9.781   4.974  71.213  1.00  0.00    -0.173 C  
HETATM    3  C   UNL     1     -11.154   7.003  70.715  1.00  0.00    -0.273 C  
HETATM    4  C   UNL     1      -9.690   6.042  68.839  1.00  0.00    -0.159 A  
HETATM    5  C   UNL     1      -8.395   5.978  68.290  1.00  0.00    -0.113 A  
HETATM    6  H   UNL     1     -10.096   4.292  73.148  1.00  0.00     0.000 HD 
HETATM    7  O   UNL     1     -12.285   6.607  70.460  1.00  0.00    -0.364 OA 
HETATM    8  C   UNL     1      -8.530   4.101  70.985  1.00  0.00    -0.104 C  
HETATM    9  C   UNL     1      -7.262   4.736  71.552  1.00  0.00    -0.068 C  
HETATM   10  C   UNL     1      -8.184   5.653  66.946  1.00  0.00    -0.105 A  
HETATM   11  C   UNL     1     -10.769   5.832  67.966  1.00  0.00    -0.290 A  
HETATM   12  C   UNL     1      -7.444   5.045  73.031  1.00  0.00    -0.092 C  
HETATM   13  C   UNL     1      -9.268   5.432  66.107  1.00  0.00    -0.162 A  
HETATM   14  C   UNL     1      -8.733   5.824  73.285  1.00  0.00    -0.118 C  
HETATM   15  C   UNL     1     -10.559   5.542  66.612  1.00  0.00    -0.365 A  
HETATM   16  N   UNL     1      -9.895   5.176  72.679  1.00  0.00    -0.158 NA 
ENDROOT
BRANCH   3  17
HETATM   17  O   UNL     1     -10.894   8.111  71.475  1.00  0.00    -0.226 OA 
HETATM   18  C   UNL     1     -11.918   8.414  72.426  1.00  0.00    -0.384 C  
ENDBRANCH   3  17
TORSDOF 1
ENDMDL
MODEL      111
REMARK 921   NORMALIZED FREE ENERGY PREDICTED BY IDOCK:   -3.21 KCAL/MOL
REMARK 922        TOTAL FREE ENERGY PREDICTED BY IDOCK:   -3.45 KCAL/MOL
REMARK 923 INTER-LIGAND FREE ENERGY PREDICTED BY IDOCK:   -3.38 KCAL/MOL
REMARK 924 INTRA-LIGAND FREE ENERGY PREDICTED BY IDOCK:   -0.07 KCAL/MOL
REMARK 927      BINDING AFFINITY PREDICTED BY RF-SCORE:    0.00 PKD
ROOT
HETATM    1  C   UNL     1      -9.464  12.015  68.296  1.00  0.00    -0.199 C  
HETATM    2  C   UNL     1     -10.822  11.322  67.910  1.00  0.00    -0.228 C  
HETATM    3  C   UNL     1      -9.521  13.454  67.774  1.00  0.00    -0.210 C  
HETATM    4  C   UNL     1      -8.219  11.243  67.828  1.00  0.00    -0.120 A  
HETATM    5  C   UNL     1      -7.705  10.214  68.641  1.00  0.00    -0.092 A  
HETATM    6  H   UNL     1     -12.867  11.670  67.889  1.00  0.00     0.000 HD 
HETATM    7  O   UNL     1      -9.518  13.787  66.595  1.00  0.00    -0.267 OA 
HETATM    8  C   UNL     1     -10.959   9.851  68.351  1.00  0.00    -0.235 C  
HETATM    9  C   UNL     1     -11.128   9.705  69.862  1.00  0.00    -0.268 C  
HETATM   10  C   UNL     1      -6.643   9.408  68.219  1.00  0.00    -0.058 A  
HETATM   11  C   UNL     1      -7.578  11.473  66.601  1.00  0.00    -0.088 A  
HETATM   12  C   UNL     1     -12.317  10.527  70.340  1.00  0.00    -0.409 C  
HETATM   13  C   UNL     1      -6.037   9.645  66.992  1.00  0.00    -0.063 A  
HETATM   14  C   UNL     1     -12.247  11.963  69.826  1.00  0.00    -0.174 C  
HETATM   15  C   UNL     1      -6.491  10.689  66.193  1.00  0.00    -0.131 A  
HETATM   16  N   UNL     1     -12.044  12.021  68.380  1.00  0.00    -0.397 NA 
ENDROOT
BRANCH   3  17
HETATM   17  O   UNL     1      -9.692  14.333  68.808  1.00  0.00    -0.221 OA 
HETATM   18  C   UNL     1      -8.538  15.131  69.087  1.00  0.00    -0.218 C  
ENDBRANCH   3  17
TORSDOF 1
ENDMDL
MODEL      112
REMARK 921   NORMALIZED FREE ENERGY PREDICTED BY IDOCK:   -3.19 KCAL/MOL
REMARK 922        TOTAL FREE ENERGY PREDICTED BY IDOCK:   -3.43 KCAL/MOL
REMARK 923 INTER-LIGAND FREE ENERGY PREDICTED BY IDOCK:   -3.31 KCAL/MOL
REMARK 924 INTRA-LIGAND FREE ENERGY PREDICTED BY IDOCK:   -0.12 KCAL/MOL
REMARK 927      BINDING AFFINITY PREDICTED BY RF-SCORE:    0.00 PKD
ROOT
HETATM    1  C   UNL     1      -8.857   7.786  68.784  1.00  0.00    -0.134 C  
HETATM    2  C   UNL     1      -9.647   6.443  68.999  1.00  0.00    -0.131 C  
HETATM    3  C   UNL     1      -7.765   7.848  69.856  1.00  0.00    -0.098 C  
HETATM    4  C   UNL     1      -9.754   9.034  68.749  1.00  0.00    -0.165 A  
HETATM    5  C   UNL     1     -10.353   9.414  67.532  1.00  0.00    -0.314 A  
HETATM    6  H   UNL     1      -9.339   4.428  69.389  1.00  0.00     0.000 HD 
HETATM    7  O   UNL     1      -7.951   7.987  71.059  1.00  0.00    -0.085 OA 
HETATM    8  C   UNL     1     -10.803   6.193  68.009  1.00  0.00    -0.398 C  
HETATM    9  C   UNL     1     -10.308   5.865  66.601  1.00  0.00    -0.283 C  
HETATM   10  C   UNL     1     -11.262  10.475  67.463  1.00  0.00    -0.299 A  
HETATM   11  C   UNL     1     -10.055   9.806  69.882  1.00  0.00    -0.288 A  
HETATM   12  C   UNL     1      -9.362   4.674  66.641  1.00  0.00    -0.153 C  
HETATM   13  C   UNL     1     -11.555  11.212  68.602  1.00  0.00    -0.383 A  
HETATM   14  C   UNL     1      -8.268   4.862  67.689  1.00  0.00    -0.105 C  
HETATM   15  C   UNL     1     -10.937  10.891  69.806  1.00  0.00    -0.290 A  
HETATM   16  N   UNL     1      -8.816   5.213  68.999  1.00  0.00    -0.092 NA 
ENDROOT
BRANCH   3  17
HETATM   17  O   UNL     1      -6.536   7.615  69.302  1.00  0.00    -0.038 OA 
HETATM   18  C   UNL     1      -6.297   8.341  68.094  1.00  0.00    -0.055 C  
ENDBRANCH   3  17
TORSDOF 1
ENDMDL
MODEL      113
REMARK 921   NORMALIZED FREE ENERGY PREDICTED BY IDOCK:   -3.16 KCAL/MOL
REMARK 922        TOTAL FREE ENERGY PREDICTED BY IDOCK:   -3.40 KCAL/MOL
REMARK 923 INTER-LIGAND FREE ENERGY PREDICTED BY IDOCK:   -3.31 KCAL/MOL
REMARK 924 INTRA-LIGAND FREE ENERGY PREDICTED BY IDOCK:   -0.09 KCAL/MOL
REMARK 927      BINDING AFFINITY PREDICTED BY RF-SCORE:    0.00 PKD
ROOT
HETATM    1  C   UNL     1      -8.762   5.989  72.603  1.00  0.00    -0.121 C  
HETATM    2  C   UNL     1      -8.984   4.728  73.516  1.00  0.00    -0.107 C  
HETATM    3  C   UNL     1      -7.802   6.925  73.344  1.00  0.00    -0.094 C  
HETATM    4  C   UNL     1     -10.066   6.674  72.164  1.00  0.00    -0.194 A  
HETATM    5  C   UNL     1     -10.737   6.200  71.018  1.00  0.00    -0.317 A  
HETATM    6  H   UNL     1      -7.938   3.386  74.704  1.00  0.00     0.000 HD 
HETATM    7  O   UNL     1      -8.054   7.540  74.373  1.00  0.00    -0.161 OA 
HETATM    8  C   UNL     1      -9.933   3.658  72.940  1.00  0.00    -0.210 C  
HETATM    9  C   UNL     1      -9.318   2.900  71.765  1.00  0.00    -0.193 C  
HETATM   10  C   UNL     1     -11.980   6.712  70.634  1.00  0.00    -0.404 A  
HETATM   11  C   UNL     1     -10.666   7.729  72.868  1.00  0.00    -0.446 A  
HETATM   12  C   UNL     1      -7.989   2.281  72.176  1.00  0.00    -0.053 C  
HETATM   13  C   UNL     1     -12.560   7.745  71.358  1.00  0.00    -0.339 A  
HETATM   14  C   UNL     1      -7.076   3.308  72.840  1.00  0.00    -0.044 C  
HETATM   15  C   UNL     1     -11.894   8.267  72.462  1.00  0.00    -0.439 A  
HETATM   16  N   UNL     1      -7.746   4.019  73.927  1.00  0.00    -0.079 NA 
ENDROOT
BRANCH   3  17
HETATM   17  O   UNL     1      -6.564   6.901  72.761  1.00  0.00    -0.064 OA 
HETATM   18  C   UNL     1      -5.507   7.315  73.630  1.00  0.00    -0.046 C  
ENDBRANCH   3  17
TORSDOF 1
ENDMDL
MODEL      114
REMARK 921   NORMALIZED FREE ENERGY PREDICTED BY IDOCK:   -3.16 KCAL/MOL
REMARK 922        TOTAL FREE ENERGY PREDICTED BY IDOCK:   -3.39 KCAL/MOL
REMARK 923 INTER-LIGAND FREE ENERGY PREDICTED BY IDOCK:   -3.34 KCAL/MOL
REMARK 924 INTRA-LIGAND FREE ENERGY PREDICTED BY IDOCK:   -0.05 KCAL/MOL
REMARK 927      BINDING AFFINITY PREDICTED BY RF-SCORE:    0.00 PKD
ROOT
HETATM    1  C   UNL     1      -9.612  10.004  67.961  1.00  0.00    -0.154 C  
HETATM    2  C   UNL     1     -10.583  11.208  68.246  1.00  0.00    -0.190 C  
HETATM    3  C   UNL     1     -10.435   8.718  68.079  1.00  0.00    -0.204 C  
HETATM    4  C   UNL     1      -8.350  10.006  68.838  1.00  0.00    -0.130 A  
HETATM    5  C   UNL     1      -7.230  10.756  68.427  1.00  0.00    -0.085 A  
HETATM    6  H   UNL     1     -12.487  11.896  67.788  1.00  0.00     0.000 HD 
HETATM    7  O   UNL     1     -10.916   8.269  69.112  1.00  0.00    -0.082 OA 
HETATM    8  C   UNL     1      -9.936  12.606  68.177  1.00  0.00    -0.225 C  
HETATM    9  C   UNL     1      -9.582  13.019  66.749  1.00  0.00    -0.248 C  
HETATM   10  C   UNL     1      -6.096  10.882  69.235  1.00  0.00    -0.047 A  
HETATM   11  C   UNL     1      -8.255   9.331  70.065  1.00  0.00    -0.160 A  
HETATM   12  C   UNL     1     -10.816  12.949  65.861  1.00  0.00    -0.294 C  
HETATM   13  C   UNL     1      -6.034  10.217  70.453  1.00  0.00    -0.096 A  
HETATM   14  C   UNL     1     -11.526  11.604  65.995  1.00  0.00    -0.125 C  
HETATM   15  C   UNL     1      -7.104   9.427  70.858  1.00  0.00    -0.098 A  
HETATM   16  N   UNL     1     -11.795  11.260  67.390  1.00  0.00    -0.560 NA 
ENDROOT
BRANCH   3  17
HETATM   17  O   UNL     1     -10.664   8.180  66.842  1.00  0.00    -0.309 OA 
HETATM   18  C   UNL     1     -10.806   6.758  66.845  1.00  0.00    -0.331 C  
ENDBRANCH   3  17
TORSDOF 1
ENDMDL
MODEL      115
REMARK 921   NORMALIZED FREE ENERGY PREDICTED BY IDOCK:   -3.13 KCAL/MOL
REMARK 922        TOTAL FREE ENERGY PREDICTED BY IDOCK:   -3.37 KCAL/MOL
REMARK 923 INTER-LIGAND FREE ENERGY PREDICTED BY IDOCK:   -3.26 KCAL/MOL
REMARK 924 INTRA-LIGAND FREE ENERGY PREDICTED BY IDOCK:   -0.10 KCAL/MOL
REMARK 927      BINDING AFFINITY PREDICTED BY RF-SCORE:    0.00 PKD
ROOT
HETATM    1  C   UNL     1     -10.096   8.892  68.373  1.00  0.00    -0.215 C  
HETATM    2  C   UNL     1      -9.579  10.375  68.309  1.00  0.00    -0.144 C  
HETATM    3  C   UNL     1     -10.288   8.540  69.851  1.00  0.00    -0.210 C  
HETATM    4  C   UNL     1      -9.206   7.892  67.616  1.00  0.00    -0.147 A  
HETATM    5  C   UNL     1      -9.410   7.702  66.235  1.00  0.00    -0.189 A  
HETATM    6  H   UNL     1      -9.927  12.247  69.135  1.00  0.00     0.000 HD 
HETATM    7  O   UNL     1      -9.393   8.412  70.678  1.00  0.00    -0.152 OA 
HETATM    8  C   UNL     1      -9.320  10.922  66.890  1.00  0.00    -0.186 C  
HETATM    9  C   UNL     1     -10.611  11.167  66.111  1.00  0.00    -0.305 C  
HETATM   10  C   UNL     1      -8.563   6.889  65.475  1.00  0.00    -0.087 A  
HETATM   11  C   UNL     1      -8.156   7.179  68.215  1.00  0.00    -0.124 A  
HETATM   12  C   UNL     1     -11.528  12.099  66.892  1.00  0.00    -0.414 C  
HETATM   13  C   UNL     1      -7.521   6.207  66.089  1.00  0.00    -0.085 A  
HETATM   14  C   UNL     1     -11.713  11.625  68.331  1.00  0.00    -0.307 C  
HETATM   15  C   UNL     1      -7.330   6.336  67.460  1.00  0.00    -0.080 A  
HETATM   16  N   UNL     1     -10.436  11.374  68.997  1.00  0.00    -0.197 NA 
ENDROOT
BRANCH   3  17
HETATM   17  O   UNL     1     -11.619   8.493  70.164  1.00  0.00    -0.089 OA 
HETATM   18  C   UNL     1     -11.909   8.846  71.519  1.00  0.00    -0.332 C  
ENDBRANCH   3  17
TORSDOF 1
ENDMDL
MODEL      116
REMARK 921   NORMALIZED FREE ENERGY PREDICTED BY IDOCK:   -3.02 KCAL/MOL
REMARK 922        TOTAL FREE ENERGY PREDICTED BY IDOCK:   -3.24 KCAL/MOL
REMARK 923 INTER-LIGAND FREE ENERGY PREDICTED BY IDOCK:   -3.14 KCAL/MOL
REMARK 924 INTRA-LIGAND FREE ENERGY PREDICTED BY IDOCK:   -0.10 KCAL/MOL
REMARK 927      BINDING AFFINITY PREDICTED BY RF-SCORE:    0.00 PKD
ROOT
HETATM    1  C   UNL     1      -9.324   9.153  67.581  1.00  0.00    -0.154 C  
HETATM    2  C   UNL     1      -7.894   8.679  67.131  1.00  0.00    -0.097 C  
HETATM    3  C   UNL     1      -9.193  10.598  68.071  1.00  0.00    -0.148 C  
HETATM    4  C   UNL     1      -9.993   8.218  68.602  1.00  0.00    -0.203 A  
HETATM    5  C   UNL     1     -10.718   7.102  68.139  1.00  0.00    -0.214 A  
HETATM    6  H   UNL     1      -6.237   9.327  66.062  1.00  0.00     0.000 HD 
HETATM    7  O   UNL     1      -8.603  10.960  69.081  1.00  0.00    -0.138 OA 
HETATM    8  C   UNL     1      -7.815   7.233  66.602  1.00  0.00    -0.102 C  
HETATM    9  C   UNL     1      -8.475   7.072  65.234  1.00  0.00    -0.060 C  
HETATM   10  C   UNL     1     -11.255   6.160  69.021  1.00  0.00    -0.375 A  
HETATM   11  C   UNL     1      -9.889   8.384  69.992  1.00  0.00    -0.182 A  
HETATM   12  C   UNL     1      -7.864   8.047  64.238  1.00  0.00    -0.137 C  
HETATM   13  C   UNL     1     -11.124   6.339  70.392  1.00  0.00    -0.416 A  
HETATM   14  C   UNL     1      -7.844   9.471  64.789  1.00  0.00    -0.120 C  
HETATM   15  C   UNL     1     -10.459   7.460  70.877  1.00  0.00    -0.225 A  
HETATM   16  N   UNL     1      -7.234   9.538  66.116  1.00  0.00    -0.092 NA 
ENDROOT
BRANCH   3  17
HETATM   17  O   UNL     1      -9.736  11.464  67.161  1.00  0.00    -0.180 OA 
HETATM   18  C   UNL     1     -11.155  11.348  67.026  1.00  0.00    -0.303 C  
ENDBRANCH   3  17
TORSDOF 1
ENDMDL
MODEL      117
REMARK 921   NORMALIZED FREE ENERGY PREDICTED BY IDOCK:   -2.99 KCAL/MOL
REMARK 922        TOTAL FREE ENERGY PREDICTED BY IDOCK:   -3.21 KCAL/MOL
REMARK 923 INTER-LIGAND FREE ENERGY PREDICTED BY IDOCK:   -3.17 KCAL/MOL
REMARK 924 INTRA-LIGAND FREE ENERGY PREDICTED BY IDOCK:   -0.05 KCAL/MOL
REMARK 927      BINDING AFFINITY PREDICTED BY RF-SCORE:    0.00 PKD
ROOT
HETATM    1  C   UNL     1      -9.157   7.964  66.038  1.00  0.00    -0.181 C  
HETATM    2  C   UNL     1      -7.705   7.360  65.998  1.00  0.00    -0.095 C  
HETATM    3  C   UNL     1      -9.047   9.439  65.641  1.00  0.00    -0.207 C  
HETATM    4  C   UNL     1      -9.883   7.742  67.374  1.00  0.00    -0.230 A  
HETATM    5  C   UNL     1     -10.585   6.538  67.581  1.00  0.00    -0.332 A  
HETATM    6  H   UNL     1      -5.991   7.344  64.828  1.00  0.00     0.000 HD 
HETATM    7  O   UNL     1      -8.511  10.320  66.303  1.00  0.00    -0.130 OA 
HETATM    8  C   UNL     1      -7.603   5.868  66.373  1.00  0.00    -0.091 C  
HETATM    9  C   UNL     1      -8.188   4.952  65.300  1.00  0.00    -0.122 C  
HETATM   10  C   UNL     1     -11.173   6.235  68.813  1.00  0.00    -0.357 A  
HETATM   11  C   UNL     1      -9.854   8.659  68.437  1.00  0.00    -0.189 A  
HETATM   12  C   UNL     1      -7.521   5.220  63.958  1.00  0.00    -0.059 C  
HETATM   13  C   UNL     1     -11.116   7.153  69.854  1.00  0.00    -0.264 A  
HETATM   14  C   UNL     1      -7.526   6.709  63.619  1.00  0.00    -0.083 C  
HETATM   15  C   UNL     1     -10.474   8.371  69.659  1.00  0.00    -0.221 A  
HETATM   16  N   UNL     1      -6.988   7.522  64.708  1.00  0.00    -0.053 NA 
ENDROOT
BRANCH   3  17
HETATM   17  O   UNL     1      -9.537   9.634  64.379  1.00  0.00    -0.196 OA 
HETATM   18  C   UNL     1     -10.116  10.925  64.174  1.00  0.00    -0.355 C  
ENDBRANCH   3  17
TORSDOF 1
ENDMDL
MODEL      118
REMARK 921   NORMALIZED FREE ENERGY PREDICTED BY IDOCK:   -2.93 KCAL/MOL
REMARK 922        TOTAL FREE ENERGY PREDICTED BY IDOCK:   -3.15 KCAL/MOL
REMARK 923 INTER-LIGAND FREE ENERGY PREDICTED BY IDOCK:   -3.10 KCAL/MOL
REMARK 924 INTRA-LIGAND FREE ENERGY PREDICTED BY IDOCK:   -0.05 KCAL/MOL
REMARK 927      BINDING AFFINITY PREDICTED BY RF-SCORE:    0.00 PKD
ROOT
HETATM    1  C   UNL     1      -9.852   6.891  68.998  1.00  0.00    -0.152 C  
HETATM    2  C   UNL     1     -10.303   6.325  67.602  1.00  0.00    -0.195 C  
HETATM    3  C   UNL     1     -10.799   6.311  70.053  1.00  0.00    -0.324 C  
HETATM    4  C   UNL     1      -9.752   8.424  69.042  1.00  0.00    -0.171 A  
HETATM    5  C   UNL     1      -8.560   9.046  68.619  1.00  0.00    -0.129 A  
HETATM    6  H   UNL     1     -10.904   4.561  66.689  1.00  0.00     0.000 HD 
HETATM    7  O   UNL     1     -11.988   6.580  70.171  1.00  0.00    -0.383 OA 
HETATM    8  C   UNL     1      -9.465   6.799  66.397  1.00  0.00    -0.166 C  
HETATM    9  C   UNL     1      -8.068   6.184  66.376  1.00  0.00    -0.111 C  
HETATM   10  C   UNL     1      -8.449  10.437  68.535  1.00  0.00    -0.129 A  
HETATM   11  C   UNL     1     -10.806   9.261  69.440  1.00  0.00    -0.184 A  
HETATM   12  C   UNL     1      -8.161   4.664  66.406  1.00  0.00    -0.107 C  
HETATM   13  C   UNL     1      -9.513  11.243  68.919  1.00  0.00    -0.102 A  
HETATM   14  C   UNL     1      -9.070   4.183  67.534  1.00  0.00    -0.140 C  
HETATM   15  C   UNL     1     -10.683  10.656  69.391  1.00  0.00    -0.281 A  
HETATM   16  N   UNL     1     -10.373   4.845  67.512  1.00  0.00    -0.098 NA 
ENDROOT
BRANCH   3  17
HETATM   17  O   UNL     1     -10.164   5.352  70.793  1.00  0.00    -0.213 OA 
HETATM   18  C   UNL     1     -10.565   5.319  72.165  1.00  0.00    -0.221 C  
ENDBRANCH   3  17
TORSDOF 1
ENDMDL
MODEL      119
REMARK 921   NORMALIZED FREE ENERGY PREDICTED BY IDOCK:   -2.90 KCAL/MOL
REMARK 922        TOTAL FREE ENERGY PREDICTED BY IDOCK:   -3.12 KCAL/MOL
REMARK 923 INTER-LIGAND FREE ENERGY PREDICTED BY IDOCK:   -2.99 KCAL/MOL
REMARK 924 INTRA-LIGAND FREE ENERGY PREDICTED BY IDOCK:   -0.13 KCAL/MOL
REMARK 927      BINDING AFFINITY PREDICTED BY RF-SCORE:    0.00 PKD
ROOT
HETATM    1  C   UNL     1      -8.554  10.062  68.231  1.00  0.00    -0.115 C  
HETATM    2  C   UNL     1      -6.987   9.983  68.120  1.00  0.00    -0.075 C  
HETATM    3  C   UNL     1      -9.063   8.646  68.518  1.00  0.00    -0.138 C  
HETATM    4  C   UNL     1      -9.229  10.722  67.018  1.00  0.00    -0.166 A  
HETATM    5  C   UNL     1      -9.352  12.125  66.980  1.00  0.00    -0.201 A  
HETATM    6  H   UNL     1      -5.339   9.136  69.054  1.00  0.00     0.000 HD 
HETATM    7  O   UNL     1      -9.026   7.702  67.738  1.00  0.00    -0.131 OA 
HETATM    8  C   UNL     1      -6.280  11.322  67.829  1.00  0.00    -0.052 C  
HETATM    9  C   UNL     1      -6.308  12.272  69.024  1.00  0.00    -0.088 C  
HETATM   10  C   UNL     1      -9.858  12.786  65.857  1.00  0.00    -0.243 A  
HETATM   11  C   UNL     1      -9.698  10.006  65.905  1.00  0.00    -0.309 A  
HETATM   12  C   UNL     1      -5.706  11.596  70.248  1.00  0.00    -0.152 C  
HETATM   13  C   UNL     1     -10.300  12.055  64.762  1.00  0.00    -0.318 A  
HETATM   14  C   UNL     1      -6.327  10.223  70.491  1.00  0.00    -0.112 C  
HETATM   15  C   UNL     1     -10.239  10.666  64.795  1.00  0.00    -0.401 A  
HETATM   16  N   UNL     1      -6.299   9.387  69.292  1.00  0.00    -0.044 NA 
ENDROOT
BRANCH   3  17
HETATM   17  O   UNL     1      -9.472   8.537  69.819  1.00  0.00    -0.163 OA 
HETATM   18  C   UNL     1     -10.097   9.717  70.330  1.00  0.00    -0.276 C  
ENDBRANCH   3  17
TORSDOF 1
ENDMDL
MODEL      120
REMARK 921   NORMALIZED FREE ENERGY PREDICTED BY IDOCK:   -2.89 KCAL/MOL
REMARK 922        TOTAL FREE ENERGY PREDICTED BY IDOCK:   -3.10 KCAL/MOL
REMARK 923 INTER-LIGAND FREE ENERGY PREDICTED BY IDOCK:   -2.98 KCAL/MOL
REMARK 924 INTRA-LIGAND FREE ENERGY PREDICTED BY IDOCK:   -0.12 KCAL/MOL
REMARK 927      BINDING AFFINITY PREDICTED BY RF-SCORE:    0.00 PKD
ROOT
HETATM    1  C   UNL     1     -10.010   7.599  71.231  1.00  0.00    -0.195 C  
HETATM    2  C   UNL     1      -9.842   8.915  70.387  1.00  0.00    -0.189 C  
HETATM    3  C   UNL     1     -11.420   7.617  71.829  1.00  0.00    -0.264 C  
HETATM    4  C   UNL     1      -8.904   7.389  72.277  1.00  0.00    -0.148 A  
HETATM    5  C   UNL     1      -7.704   6.760  71.889  1.00  0.00    -0.096 A  
HETATM    6  H   UNL     1     -10.855  10.098  69.014  1.00  0.00     0.000 HD 
HETATM    7  O   UNL     1     -11.820   8.389  72.692  1.00  0.00    -0.393 OA 
HETATM    8  C   UNL     1      -8.473   9.086  69.698  1.00  0.00    -0.128 C  
HETATM    9  C   UNL     1      -8.279   8.121  68.530  1.00  0.00    -0.125 C  
HETATM   10  C   UNL     1      -6.623   6.639  72.768  1.00  0.00    -0.063 A  
HETATM   11  C   UNL     1      -8.996   7.831  73.606  1.00  0.00    -0.335 A  
HETATM   12  C   UNL     1      -9.414   8.275  67.527  1.00  0.00    -0.182 C  
HETATM   13  C   UNL     1      -6.735   7.100  74.074  1.00  0.00    -0.080 A  
HETATM   14  C   UNL     1     -10.778   8.209  68.209  1.00  0.00    -0.016 C  
HETATM   15  C   UNL     1      -7.927   7.677  74.497  1.00  0.00    -0.246 A  
HETATM   16  N   UNL     1     -10.873   9.131  69.340  1.00  0.00    -0.194 NA 
ENDROOT
BRANCH   3  17
HETATM   17  O   UNL     1     -12.225   6.717  71.186  1.00  0.00    -0.368 OA 
HETATM   18  C   UNL     1     -13.573   7.164  71.015  1.00  0.00     0.038 C  
ENDBRANCH   3  17
TORSDOF 1
ENDMDL
MODEL      121
REMARK 921   NORMALIZED FREE ENERGY PREDICTED BY IDOCK:   -2.84 KCAL/MOL
REMARK 922        TOTAL FREE ENERGY PREDICTED BY IDOCK:   -3.05 KCAL/MOL
REMARK 923 INTER-LIGAND FREE ENERGY PREDICTED BY IDOCK:   -3.00 KCAL/MOL
REMARK 924 INTRA-LIGAND FREE ENERGY PREDICTED BY IDOCK:   -0.05 KCAL/MOL
REMARK 927      BINDING AFFINITY PREDICTED BY RF-SCORE:    0.00 PKD
ROOT
HETATM    1  C   UNL     1      -8.758   6.279  67.997  1.00  0.00    -0.114 C  
HETATM    2  C   UNL     1      -9.841   5.151  67.832  1.00  0.00    -0.155 C  
HETATM    3  C   UNL     1      -8.236   6.203  69.435  1.00  0.00    -0.113 C  
HETATM    4  C   UNL     1      -9.254   7.678  67.598  1.00  0.00    -0.144 A  
HETATM    5  C   UNL     1      -9.182   8.072  66.247  1.00  0.00    -0.237 A  
HETATM    6  H   UNL     1     -10.183   3.156  68.289  1.00  0.00     0.000 HD 
HETATM    7  O   UNL     1      -8.876   6.477  70.443  1.00  0.00    -0.148 OA 
HETATM    8  C   UNL     1     -10.495   5.064  66.438  1.00  0.00    -0.349 C  
HETATM    9  C   UNL     1      -9.540   4.525  65.375  1.00  0.00    -0.185 C  
HETATM   10  C   UNL     1      -9.716   9.287  65.809  1.00  0.00    -0.339 A  
HETATM   11  C   UNL     1      -9.824   8.587  68.502  1.00  0.00    -0.186 A  
HETATM   12  C   UNL     1      -8.989   3.171  65.801  1.00  0.00    -0.143 C  
HETATM   13  C   UNL     1     -10.291  10.162  66.722  1.00  0.00    -0.285 A  
HETATM   14  C   UNL     1      -8.429   3.216  67.220  1.00  0.00    -0.096 C  
HETATM   15  C   UNL     1     -10.327   9.821  68.069  1.00  0.00    -0.250 A  
HETATM   16  N   UNL     1      -9.384   3.780  68.172  1.00  0.00    -0.166 NA 
ENDROOT
BRANCH   3  17
HETATM   17  O   UNL     1      -6.974   5.676  69.460  1.00  0.00    -0.059 OA 
HETATM   18  C   UNL     1      -6.148   6.198  70.504  1.00  0.00    -0.030 C  
ENDBRANCH   3  17
TORSDOF 1
ENDMDL
MODEL      122
REMARK 921   NORMALIZED FREE ENERGY PREDICTED BY IDOCK:   -2.80 KCAL/MOL
REMARK 922        TOTAL FREE ENERGY PREDICTED BY IDOCK:   -3.01 KCAL/MOL
REMARK 923 INTER-LIGAND FREE ENERGY PREDICTED BY IDOCK:   -2.93 KCAL/MOL
REMARK 924 INTRA-LIGAND FREE ENERGY PREDICTED BY IDOCK:   -0.08 KCAL/MOL
REMARK 927      BINDING AFFINITY PREDICTED BY RF-SCORE:    0.00 PKD
ROOT
HETATM    1  C   UNL     1      -8.082  10.484  68.288  1.00  0.00    -0.115 C  
HETATM    2  C   UNL     1      -7.961   9.212  67.372  1.00  0.00    -0.103 C  
HETATM    3  C   UNL     1      -7.109  10.299  69.457  1.00  0.00    -0.107 C  
HETATM    4  C   UNL     1      -9.521  10.793  68.733  1.00  0.00    -0.187 A  
HETATM    5  C   UNL     1     -10.350  11.558  67.889  1.00  0.00    -0.203 A  
HETATM    6  H   UNL     1      -6.542   7.954  66.529  1.00  0.00     0.000 HD 
HETATM    7  O   UNL     1      -7.217   9.471  70.353  1.00  0.00    -0.096 OA 
HETATM    8  C   UNL     1      -8.873   9.206  66.129  1.00  0.00    -0.187 C  
HETATM    9  C   UNL     1      -8.426  10.211  65.069  1.00  0.00    -0.169 C  
HETATM   10  C   UNL     1     -11.698  11.779  68.190  1.00  0.00    -0.377 A  
HETATM   11  C   UNL     1     -10.085  10.317  69.927  1.00  0.00    -0.219 A  
HETATM   12  C   UNL     1      -6.977   9.954  64.679  1.00  0.00    -0.133 C  
HETATM   13  C   UNL     1     -12.236  11.281  69.370  1.00  0.00    -0.315 A  
HETATM   14  C   UNL     1      -6.076   9.856  65.907  1.00  0.00    -0.074 C  
HETATM   15  C   UNL     1     -11.425  10.569  70.246  1.00  0.00    -0.416 A  
HETATM   16  N   UNL     1      -6.590   8.906  66.892  1.00  0.00    -0.061 NA 
ENDROOT
BRANCH   3  17
HETATM   17  O   UNL     1      -6.023  11.118  69.311  1.00  0.00    -0.042 OA 
HETATM   18  C   UNL     1      -6.119  12.344  70.041  1.00  0.00    -0.123 C  
ENDBRANCH   3  17
TORSDOF 1
ENDMDL
MODEL      123
REMARK 921   NORMALIZED FREE ENERGY PREDICTED BY IDOCK:   -2.73 KCAL/MOL
REMARK 922        TOTAL FREE ENERGY PREDICTED BY IDOCK:   -2.94 KCAL/MOL
REMARK 923 INTER-LIGAND FREE ENERGY PREDICTED BY IDOCK:   -2.89 KCAL/MOL
REMARK 924 INTRA-LIGAND FREE ENERGY PREDICTED BY IDOCK:   -0.05 KCAL/MOL
REMARK 927      BINDING AFFINITY PREDICTED BY RF-SCORE:    0.00 PKD
ROOT
HETATM    1  C   UNL     1      -8.749   8.792  68.517  1.00  0.00    -0.135 C  
HETATM    2  C   UNL     1      -8.424   8.470  70.021  1.00  0.00    -0.125 C  
HETATM    3  C   UNL     1      -9.760   9.942  68.505  1.00  0.00    -0.154 C  
HETATM    4  C   UNL     1      -9.203   7.568  67.705  1.00  0.00    -0.139 A  
HETATM    5  C   UNL     1      -8.230   6.736  67.118  1.00  0.00    -0.121 A  
HETATM    6  H   UNL     1      -7.998   9.410  71.822  1.00  0.00     0.000 HD 
HETATM    7  O   UNL     1     -10.922   9.876  68.887  1.00  0.00    -0.220 OA 
HETATM    8  C   UNL     1      -7.414   7.326  70.246  1.00  0.00    -0.084 C  
HETATM    9  C   UNL     1      -5.990   7.715  69.854  1.00  0.00    -0.023 C  
HETATM   10  C   UNL     1      -8.579   5.551  66.461  1.00  0.00    -0.118 A  
HETATM   11  C   UNL     1     -10.547   7.196  67.547  1.00  0.00    -0.348 A  
HETATM   12  C   UNL     1      -5.563   8.970  70.602  1.00  0.00    -0.029 C  
HETATM   13  C   UNL     1      -9.916   5.197  66.332  1.00  0.00    -0.236 A  
HETATM   14  C   UNL     1      -6.602  10.081  70.472  1.00  0.00    -0.122 C  
HETATM   15  C   UNL     1     -10.899   6.029  66.857  1.00  0.00    -0.396 A  
HETATM   16  N   UNL     1      -7.944   9.622  70.825  1.00  0.00    -0.296 NA 
ENDROOT
BRANCH   3  17
HETATM   17  O   UNL     1      -9.160  11.105  68.108  1.00  0.00    -0.147 OA 
HETATM   18  C   UNL     1     -10.075  12.098  67.637  1.00  0.00    -0.199 C  
ENDBRANCH   3  17
TORSDOF 1
ENDMDL
MODEL      124
REMARK 921   NORMALIZED FREE ENERGY PREDICTED BY IDOCK:   -2.71 KCAL/MOL
REMARK 922        TOTAL FREE ENERGY PREDICTED BY IDOCK:   -2.92 KCAL/MOL
REMARK 923 INTER-LIGAND FREE ENERGY PREDICTED BY IDOCK:   -2.82 KCAL/MOL
REMARK 924 INTRA-LIGAND FREE ENERGY PREDICTED BY IDOCK:   -0.10 KCAL/MOL
REMARK 927      BINDING AFFINITY PREDICTED BY RF-SCORE:    0.00 PKD
ROOT
HETATM    1  C   UNL     1      -8.768   9.056  67.072  1.00  0.00    -0.124 C  
HETATM    2  C   UNL     1      -8.647   7.491  67.168  1.00  0.00    -0.121 C  
HETATM    3  C   UNL     1      -8.824   9.419  65.585  1.00  0.00    -0.174 C  
HETATM    4  C   UNL     1      -7.676   9.811  67.846  1.00  0.00    -0.087 A  
HETATM    5  C   UNL     1      -7.863  10.071  69.218  1.00  0.00    -0.125 A  
HETATM    6  H   UNL     1      -9.434   5.754  66.350  1.00  0.00     0.000 HD 
HETATM    7  O   UNL     1      -7.903   9.302  64.786  1.00  0.00    -0.110 OA 
HETATM    8  C   UNL     1      -8.574   6.922  68.599  1.00  0.00    -0.123 C  
HETATM    9  C   UNL     1      -9.906   7.025  69.339  1.00  0.00    -0.160 C  
HETATM   10  C   UNL     1      -6.860  10.657  69.997  1.00  0.00    -0.150 A  
HETATM   11  C   UNL     1      -6.463  10.225  67.274  1.00  0.00    -0.067 A  
HETATM   12  C   UNL     1     -11.006   6.341  68.540  1.00  0.00    -0.421 C  
HETATM   13  C   UNL     1      -5.662  11.042  69.409  1.00  0.00    -0.043 A  
HETATM   14  C   UNL     1     -11.026   6.821  67.091  1.00  0.00    -0.388 C  
HETATM   15  C   UNL     1      -5.472  10.845  68.046  1.00  0.00    -0.039 A  
HETATM   16  N   UNL     1      -9.709   6.730  66.463  1.00  0.00    -0.157 NA 
ENDROOT
BRANCH   3  17
HETATM   17  O   UNL     1     -10.090   9.796  65.230  1.00  0.00    -0.286 OA 
HETATM   18  C   UNL     1     -10.459  11.097  65.693  1.00  0.00    -0.248 C  
ENDBRANCH   3  17
TORSDOF 1
ENDMDL
MODEL      125
REMARK 921   NORMALIZED FREE ENERGY PREDICTED BY IDOCK:   -2.66 KCAL/MOL
REMARK 922        TOTAL FREE ENERGY PREDICTED BY IDOCK:   -2.87 KCAL/MOL
REMARK 923 INTER-LIGAND FREE ENERGY PREDICTED BY IDOCK:   -2.76 KCAL/MOL
REMARK 924 INTRA-LIGAND FREE ENERGY PREDICTED BY IDOCK:   -0.11 KCAL/MOL
REMARK 927      BINDING AFFINITY PREDICTED BY RF-SCORE:    0.00 PKD
ROOT
HETATM    1  C   UNL     1      -9.199   7.430  69.845  1.00  0.00    -0.144 C  
HETATM    2  C   UNL     1     -10.081   6.245  69.307  1.00  0.00    -0.175 C  
HETATM    3  C   UNL     1     -10.147   8.457  70.473  1.00  0.00    -0.190 C  
HETATM    4  C   UNL     1      -8.258   8.032  68.788  1.00  0.00    -0.126 A  
HETATM    5  C   UNL     1      -6.997   7.441  68.577  1.00  0.00    -0.079 A  
HETATM    6  H   UNL     1     -11.684   5.044  69.851  1.00  0.00     0.000 HD 
HETATM    7  O   UNL     1     -10.955   9.149  69.865  1.00  0.00    -0.235 OA 
HETATM    8  C   UNL     1      -9.303   5.099  68.630  1.00  0.00    -0.164 C  
HETATM    9  C   UNL     1      -8.503   4.264  69.627  1.00  0.00    -0.091 C  
HETATM   10  C   UNL     1      -6.145   7.877  67.558  1.00  0.00    -0.050 A  
HETATM   11  C   UNL     1      -8.600   9.124  67.975  1.00  0.00    -0.125 A  
HETATM   12  C   UNL     1      -9.420   3.726  70.717  1.00  0.00    -0.236 C  
HETATM   13  C   UNL     1      -6.514   8.949  66.756  1.00  0.00    -0.064 A  
HETATM   14  C   UNL     1     -10.272   4.835  71.329  1.00  0.00    -0.158 C  
HETATM   15  C   UNL     1      -7.731   9.584  66.978  1.00  0.00    -0.091 A  
HETATM   16  N   UNL     1     -10.974   5.615  70.311  1.00  0.00    -0.269 NA 
ENDROOT
BRANCH   3  17
HETATM   17  O   UNL     1     -10.054   8.424  71.837  1.00  0.00    -0.215 OA 
HETATM   18  C   UNL     1     -11.318   8.375  72.503  1.00  0.00    -0.346 C  
ENDBRANCH   3  17
TORSDOF 1
ENDMDL
MODEL      126
REMARK 921   NORMALIZED FREE ENERGY PREDICTED BY IDOCK:   -2.61 KCAL/MOL
REMARK 922        TOTAL FREE ENERGY PREDICTED BY IDOCK:   -2.82 KCAL/MOL
REMARK 923 INTER-LIGAND FREE ENERGY PREDICTED BY IDOCK:   -2.72 KCAL/MOL
REMARK 924 INTRA-LIGAND FREE ENERGY PREDICTED BY IDOCK:   -0.10 KCAL/MOL
REMARK 927      BINDING AFFINITY PREDICTED BY RF-SCORE:    0.00 PKD
ROOT
HETATM    1  C   UNL     1      -7.899   6.807  72.208  1.00  0.00    -0.095 C  
HETATM    2  C   UNL     1      -7.854   5.764  73.384  1.00  0.00    -0.109 C  
HETATM    3  C   UNL     1      -7.960   8.202  72.838  1.00  0.00    -0.156 C  
HETATM    4  C   UNL     1      -9.020   6.545  71.190  1.00  0.00    -0.145 A  
HETATM    5  C   UNL     1      -8.787   5.646  70.130  1.00  0.00    -0.144 A  
HETATM    6  H   UNL     1      -6.938   5.429  75.216  1.00  0.00     0.000 HD 
HETATM    7  O   UNL     1      -8.905   8.661  73.467  1.00  0.00    -0.265 OA 
HETATM    8  C   UNL     1      -7.792   4.285  72.952  1.00  0.00    -0.082 C  
HETATM    9  C   UNL     1      -6.440   3.907  72.350  1.00  0.00    -0.017 C  
HETATM   10  C   UNL     1      -9.802   5.287  69.238  1.00  0.00    -0.256 A  
HETATM   11  C   UNL     1     -10.298   7.119  71.276  1.00  0.00    -0.209 A  
HETATM   12  C   UNL     1      -5.319   4.233  73.328  1.00  0.00    -0.007 C  
HETATM   13  C   UNL     1     -11.063   5.857  69.355  1.00  0.00    -0.369 A  
HETATM   14  C   UNL     1      -5.426   5.666  73.844  1.00  0.00    -0.028 C  
HETATM   15  C   UNL     1     -11.304   6.787  70.360  1.00  0.00    -0.399 A  
HETATM   16  N   UNL     1      -6.759   5.964  74.366  1.00  0.00    -0.076 NA 
ENDROOT
BRANCH   3  17
HETATM   17  O   UNL     1      -6.759   8.843  72.700  1.00  0.00    -0.293 OA 
HETATM   18  C   UNL     1      -6.424   9.161  71.347  1.00  0.00    -0.067 C  
ENDBRANCH   3  17
TORSDOF 1
ENDMDL
MODEL      127
REMARK 921   NORMALIZED FREE ENERGY PREDICTED BY IDOCK:   -2.60 KCAL/MOL
REMARK 922        TOTAL FREE ENERGY PREDICTED BY IDOCK:   -2.80 KCAL/MOL
REMARK 923 INTER-LIGAND FREE ENERGY PREDICTED BY IDOCK:   -2.67 KCAL/MOL
REMARK 924 INTRA-LIGAND FREE ENERGY PREDICTED BY IDOCK:   -0.13 KCAL/MOL
REMARK 927      BINDING AFFINITY PREDICTED BY RF-SCORE:    0.00 PKD
ROOT
HETATM    1  C   UNL     1      -8.238   8.901  65.040  1.00  0.00    -0.154 C  
HETATM    2  C   UNL     1      -7.485   7.756  65.810  1.00  0.00    -0.078 C  
HETATM    3  C   UNL     1      -7.226   9.558  64.095  1.00  0.00    -0.115 C  
HETATM    4  C   UNL     1      -8.954   9.902  65.961  1.00  0.00    -0.178 A  
HETATM    5  C   UNL     1     -10.257   9.608  66.411  1.00  0.00    -0.288 A  
HETATM    6  H   UNL     1      -6.148   6.201  65.494  1.00  0.00     0.000 HD 
HETATM    7  O   UNL     1      -6.262  10.232  64.438  1.00  0.00    -0.132 OA 
HETATM    8  C   UNL     1      -8.342   6.969  66.822  1.00  0.00    -0.116 C  
HETATM    9  C   UNL     1      -9.363   6.059  66.142  1.00  0.00    -0.140 C  
HETATM   10  C   UNL     1     -10.915  10.426  67.334  1.00  0.00    -0.335 A  
HETATM   11  C   UNL     1      -8.366  11.088  66.428  1.00  0.00    -0.165 A  
HETATM   12  C   UNL     1      -8.665   5.116  65.173  1.00  0.00    -0.151 C  
HETATM   13  C   UNL     1     -10.304  11.586  67.793  1.00  0.00    -0.204 A  
HETATM   14  C   UNL     1      -7.733   5.872  64.229  1.00  0.00    -0.106 C  
HETATM   15  C   UNL     1      -9.039  11.926  67.325  1.00  0.00    -0.178 A  
HETATM   16  N   UNL     1      -6.814   6.750  64.950  1.00  0.00    -0.049 NA 
ENDROOT
BRANCH   3  17
HETATM   17  O   UNL     1      -7.476   9.200  62.799  1.00  0.00    -0.102 OA 
HETATM   18  C   UNL     1      -8.867   9.106  62.482  1.00  0.00    -0.185 C  
ENDBRANCH   3  17
TORSDOF 1
ENDMDL
MODEL      128
REMARK 921   NORMALIZED FREE ENERGY PREDICTED BY IDOCK:   -2.59 KCAL/MOL
REMARK 922        TOTAL FREE ENERGY PREDICTED BY IDOCK:   -2.79 KCAL/MOL
REMARK 923 INTER-LIGAND FREE ENERGY PREDICTED BY IDOCK:   -2.71 KCAL/MOL
REMARK 924 INTRA-LIGAND FREE ENERGY PREDICTED BY IDOCK:   -0.08 KCAL/MOL
REMARK 927      BINDING AFFINITY PREDICTED BY RF-SCORE:    0.00 PKD
ROOT
HETATM    1  C   UNL     1      -8.602   7.199  69.437  1.00  0.00    -0.134 C  
HETATM    2  C   UNL     1      -8.242   5.924  68.590  1.00  0.00    -0.109 C  
HETATM    3  C   UNL     1      -7.298   7.727  70.043  1.00  0.00    -0.075 C  
HETATM    4  C   UNL     1      -9.708   6.961  70.477  1.00  0.00    -0.177 A  
HETATM    5  C   UNL     1     -11.056   7.076  70.083  1.00  0.00    -0.323 A  
HETATM    6  H   UNL     1      -6.844   5.232  67.222  1.00  0.00     0.000 HD 
HETATM    7  O   UNL     1      -6.634   7.168  70.908  1.00  0.00    -0.046 OA 
HETATM    8  C   UNL     1      -9.435   5.238  67.893  1.00  0.00    -0.146 C  
HETATM    9  C   UNL     1      -9.982   6.057  66.726  1.00  0.00    -0.215 C  
HETATM   10  C   UNL     1     -12.104   6.766  70.956  1.00  0.00    -0.426 A  
HETATM   11  C   UNL     1      -9.458   6.584  71.806  1.00  0.00    -0.155 A  
HETATM   12  C   UNL     1      -8.872   6.358  65.729  1.00  0.00    -0.111 C  
HETATM   13  C   UNL     1     -11.828   6.379  72.261  1.00  0.00    -0.315 A  
HETATM   14  C   UNL     1      -7.643   6.946  66.419  1.00  0.00    -0.089 C  
HETATM   15  C   UNL     1     -10.507   6.308  72.691  1.00  0.00    -0.234 A  
HETATM   16  N   UNL     1      -7.204   6.129  67.549  1.00  0.00    -0.074 NA 
ENDROOT
BRANCH   3  17
HETATM   17  O   UNL     1      -6.901   8.871  69.407  1.00  0.00    -0.048 OA 
HETATM   18  C   UNL     1      -5.533   9.217  69.635  1.00  0.00    -0.034 C  
ENDBRANCH   3  17
TORSDOF 1
ENDMDL
MODEL      129
REMARK 921   NORMALIZED FREE ENERGY PREDICTED BY IDOCK:   -2.55 KCAL/MOL
REMARK 922        TOTAL FREE ENERGY PREDICTED BY IDOCK:   -2.75 KCAL/MOL
REMARK 923 INTER-LIGAND FREE ENERGY PREDICTED BY IDOCK:   -2.70 KCAL/MOL
REMARK 924 INTRA-LIGAND FREE ENERGY PREDICTED BY IDOCK:   -0.05 KCAL/MOL
REMARK 927      BINDING AFFINITY PREDICTED BY RF-SCORE:    0.00 PKD
ROOT
HETATM    1  C   UNL     1      -8.807   7.952  69.669  1.00  0.00    -0.138 C  
HETATM    2  C   UNL     1      -9.782   6.719  69.625  1.00  0.00    -0.155 C  
HETATM    3  C   UNL     1      -8.502   8.240  71.142  1.00  0.00    -0.141 C  
HETATM    4  C   UNL     1      -9.323   9.178  68.899  1.00  0.00    -0.146 A  
HETATM    5  C   UNL     1      -9.075   9.273  67.515  1.00  0.00    -0.133 A  
HETATM    6  H   UNL     1     -10.064   4.848  70.477  1.00  0.00     0.000 HD 
HETATM    7  O   UNL     1      -9.301   8.666  71.967  1.00  0.00    -0.257 OA 
HETATM    8  C   UNL     1     -10.213   6.270  68.215  1.00  0.00    -0.198 C  
HETATM    9  C   UNL     1      -9.078   5.604  67.439  1.00  0.00    -0.110 C  
HETATM   10  C   UNL     1      -9.611  10.308  66.744  1.00  0.00    -0.214 A  
HETATM   11  C   UNL     1     -10.077  10.204  69.488  1.00  0.00    -0.258 A  
HETATM   12  C   UNL     1      -8.515   4.433  68.232  1.00  0.00    -0.101 C  
HETATM   13  C   UNL     1     -10.369  11.303  67.349  1.00  0.00    -0.233 A  
HETATM   14  C   UNL     1      -8.177   4.838  69.664  1.00  0.00    -0.072 C  
HETATM   15  C   UNL     1     -10.585  11.262  68.722  1.00  0.00    -0.234 A  
HETATM   16  N   UNL     1      -9.297   5.504  70.327  1.00  0.00    -0.151 NA 
ENDROOT
BRANCH   3  17
HETATM   17  O   UNL     1      -7.227   7.851  71.453  1.00  0.00    -0.060 OA 
HETATM   18  C   UNL     1      -6.786   8.290  72.740  1.00  0.00    -0.096 C  
ENDBRANCH   3  17
TORSDOF 1
ENDMDL
MODEL      130
REMARK 921   NORMALIZED FREE ENERGY PREDICTED BY IDOCK:   -2.54 KCAL/MOL
REMARK 922        TOTAL FREE ENERGY PREDICTED BY IDOCK:   -2.73 KCAL/MOL
REMARK 923 INTER-LIGAND FREE ENERGY PREDICTED BY IDOCK:   -2.63 KCAL/MOL
REMARK 924 INTRA-LIGAND FREE ENERGY PREDICTED BY IDOCK:   -0.11 KCAL/MOL
REMARK 927      BINDING AFFINITY PREDICTED BY RF-SCORE:    0.00 PKD
ROOT
HETATM    1  C   UNL     1      -9.056   6.512  69.395  1.00  0.00    -0.141 C  
HETATM    2  C   UNL     1      -8.114   7.456  68.562  1.00  0.00    -0.125 C  
HETATM    3  C   UNL     1      -8.901   6.899  70.869  1.00  0.00    -0.149 C  
HETATM    4  C   UNL     1      -8.828   5.016  69.128  1.00  0.00    -0.114 A  
HETATM    5  C   UNL     1      -9.490   4.403  68.045  1.00  0.00    -0.208 A  
HETATM    6  H   UNL     1      -7.544   9.445  68.406  1.00  0.00     0.000 HD 
HETATM    7  O   UNL     1      -7.897   6.731  71.551  1.00  0.00    -0.099 OA 
HETATM    8  C   UNL     1      -8.126   7.220  67.038  1.00  0.00    -0.117 C  
HETATM    9  C   UNL     1      -9.429   7.675  66.384  1.00  0.00    -0.224 C  
HETATM   10  C   UNL     1      -9.238   3.075  67.689  1.00  0.00    -0.240 A  
HETATM   11  C   UNL     1      -7.951   4.217  69.879  1.00  0.00    -0.055 A  
HETATM   12  C   UNL     1      -9.697   9.138  66.708  1.00  0.00    -0.271 C  
HETATM   13  C   UNL     1      -8.353   2.311  68.439  1.00  0.00    -0.078 A  
HETATM   14  C   UNL     1      -9.589   9.409  68.206  1.00  0.00    -0.142 C  
HETATM   15  C   UNL     1      -7.726   2.875  69.545  1.00  0.00    -0.045 A  
HETATM   16  N   UNL     1      -8.334   8.910  68.767  1.00  0.00    -0.122 NA 
ENDROOT
BRANCH   3  17
HETATM   17  O   UNL     1     -10.010   7.569  71.308  1.00  0.00    -0.186 OA 
HETATM   18  C   UNL     1      -9.738   8.537  72.325  1.00  0.00    -0.310 C  
ENDBRANCH   3  17
TORSDOF 1
ENDMDL
MODEL      131
REMARK 921   NORMALIZED FREE ENERGY PREDICTED BY IDOCK:   -2.26 KCAL/MOL
REMARK 922        TOTAL FREE ENERGY PREDICTED BY IDOCK:   -2.44 KCAL/MOL
REMARK 923 INTER-LIGAND FREE ENERGY PREDICTED BY IDOCK:   -2.34 KCAL/MOL
REMARK 924 INTRA-LIGAND FREE ENERGY PREDICTED BY IDOCK:   -0.10 KCAL/MOL
REMARK 927      BINDING AFFINITY PREDICTED BY RF-SCORE:    0.00 PKD
ROOT
HETATM    1  C   UNL     1      -8.568   6.338  68.036  1.00  0.00    -0.116 C  
HETATM    2  C   UNL     1      -7.595   5.262  67.427  1.00  0.00    -0.088 C  
HETATM    3  C   UNL     1      -8.243   7.677  67.367  1.00  0.00    -0.116 C  
HETATM    4  C   UNL     1      -8.543   6.398  69.571  1.00  0.00    -0.133 A  
HETATM    5  C   UNL     1      -9.363   5.518  70.306  1.00  0.00    -0.194 A  
HETATM    6  H   UNL     1      -6.808   4.635  65.612  1.00  0.00     0.000 HD 
HETATM    7  O   UNL     1      -7.211   8.320  67.520  1.00  0.00    -0.085 OA 
HETATM    8  C   UNL     1      -7.765   3.833  67.979  1.00  0.00    -0.066 C  
HETATM    9  C   UNL     1      -9.056   3.170  67.503  1.00  0.00    -0.210 C  
HETATM   10  C   UNL     1      -9.302   5.453  71.701  1.00  0.00    -0.173 A  
HETATM   11  C   UNL     1      -7.707   7.256  70.302  1.00  0.00    -0.094 A  
HETATM   12  C   UNL     1      -9.119   3.174  65.982  1.00  0.00    -0.148 C  
HETATM   13  C   UNL     1      -8.454   6.302  72.400  1.00  0.00    -0.114 A  
HETATM   14  C   UNL     1      -8.853   4.566  65.415  1.00  0.00    -0.137 C  
HETATM   15  C   UNL     1      -7.672   7.217  71.702  1.00  0.00    -0.088 A  
HETATM   16  N   UNL     1      -7.623   5.150  65.947  1.00  0.00    -0.082 NA 
ENDROOT
BRANCH   3  17
HETATM   17  O   UNL     1      -9.223   8.018  66.476  1.00  0.00    -0.167 OA 
HETATM   18  C   UNL     1     -10.526   8.115  67.055  1.00  0.00    -0.326 C  
ENDBRANCH   3  17
TORSDOF 1
ENDMDL
MODEL      132
REMARK 921   NORMALIZED FREE ENERGY PREDICTED BY IDOCK:   -2.26 KCAL/MOL
REMARK 922        TOTAL FREE ENERGY PREDICTED BY IDOCK:   -2.44 KCAL/MOL
REMARK 923 INTER-LIGAND FREE ENERGY PREDICTED BY IDOCK:   -2.36 KCAL/MOL
REMARK 924 INTRA-LIGAND FREE ENERGY PREDICTED BY IDOCK:   -0.08 KCAL/MOL
REMARK 927      BINDING AFFINITY PREDICTED BY RF-SCORE:    0.00 PKD
ROOT
HETATM    1  C   UNL     1      -8.705   5.032  67.101  1.00  0.00    -0.103 C  
HETATM    2  C   UNL     1     -10.109   5.449  67.674  1.00  0.00    -0.175 C  
HETATM    3  C   UNL     1      -8.929   4.524  65.673  1.00  0.00    -0.134 C  
HETATM    4  C   UNL     1      -7.941   4.040  67.992  1.00  0.00    -0.085 A  
HETATM    5  C   UNL     1      -7.150   4.535  69.047  1.00  0.00    -0.052 A  
HETATM    6  H   UNL     1     -11.838   6.466  67.142  1.00  0.00     0.000 HD 
HETATM    7  O   UNL     1      -9.516   3.494  65.365  1.00  0.00    -0.157 OA 
HETATM    8  C   UNL     1     -10.096   5.991  69.118  1.00  0.00    -0.229 C  
HETATM    9  C   UNL     1      -9.464   7.378  69.218  1.00  0.00    -0.154 C  
HETATM   10  C   UNL     1      -6.520   3.678  69.955  1.00  0.00    -0.032 A  
HETATM   11  C   UNL     1      -8.019   2.646  67.846  1.00  0.00    -0.062 A  
HETATM   12  C   UNL     1     -10.172   8.347  68.281  1.00  0.00    -0.244 C  
HETATM   13  C   UNL     1      -6.627   2.302  69.799  1.00  0.00    -0.029 A  
HETATM   14  C   UNL     1     -10.282   7.780  66.868  1.00  0.00    -0.303 C  
HETATM   15  C   UNL     1      -7.358   1.787  68.734  1.00  0.00    -0.043 A  
HETATM   16  N   UNL     1     -10.858   6.436  66.858  1.00  0.00    -0.362 NA 
ENDROOT
BRANCH   3  17
HETATM   17  O   UNL     1      -8.476   5.438  64.762  1.00  0.00    -0.142 OA 
HETATM   18  C   UNL     1      -7.151   5.181  64.292  1.00  0.00    -0.050 C  
ENDBRANCH   3  17
TORSDOF 1
ENDMDL
MODEL      133
REMARK 921   NORMALIZED FREE ENERGY PREDICTED BY IDOCK:   -2.07 KCAL/MOL
REMARK 922        TOTAL FREE ENERGY PREDICTED BY IDOCK:   -2.24 KCAL/MOL
REMARK 923 INTER-LIGAND FREE ENERGY PREDICTED BY IDOCK:   -2.13 KCAL/MOL
REMARK 924 INTRA-LIGAND FREE ENERGY PREDICTED BY IDOCK:   -0.11 KCAL/MOL
REMARK 927      BINDING AFFINITY PREDICTED BY RF-SCORE:    0.00 PKD
ROOT
HETATM    1  C   UNL     1      -7.950   8.146  69.919  1.00  0.00    -0.109 C  
HETATM    2  C   UNL     1      -7.833   9.580  69.285  1.00  0.00    -0.088 C  
HETATM    3  C   UNL     1      -9.256   7.527  69.410  1.00  0.00    -0.149 C  
HETATM    4  C   UNL     1      -7.824   8.133  71.451  1.00  0.00    -0.110 A  
HETATM    5  C   UNL     1      -6.542   8.077  72.033  1.00  0.00    -0.061 A  
HETATM    6  H   UNL     1      -8.084  10.578  67.483  1.00  0.00     0.000 HD 
HETATM    7  O   UNL     1     -10.385   7.902  69.701  1.00  0.00    -0.207 OA 
HETATM    8  C   UNL     1      -6.573  10.374  69.682  1.00  0.00    -0.085 C  
HETATM    9  C   UNL     1      -5.301   9.814  69.048  1.00  0.00    -0.036 C  
HETATM   10  C   UNL     1      -6.360   8.172  73.416  1.00  0.00    -0.103 A  
HETATM   11  C   UNL     1      -8.921   8.222  72.322  1.00  0.00    -0.280 A  
HETATM   12  C   UNL     1      -5.451   9.756  67.534  1.00  0.00    -0.036 C  
HETATM   13  C   UNL     1      -7.462   8.275  74.255  1.00  0.00    -0.252 A  
HETATM   14  C   UNL     1      -6.746   9.059  67.126  1.00  0.00    -0.066 C  
HETATM   15  C   UNL     1      -8.742   8.280  73.710  1.00  0.00    -0.221 A  
HETATM   16  N   UNL     1      -7.912   9.624  67.803  1.00  0.00    -0.105 NA 
ENDROOT
BRANCH   3  17
HETATM   17  O   UNL     1      -8.996   6.555  68.483  1.00  0.00    -0.127 OA 
HETATM   18  C   UNL     1      -7.734   5.908  68.661  1.00  0.00    -0.094 C  
ENDBRANCH   3  17
TORSDOF 1
ENDMDL
MODEL      134
REMARK 921   NORMALIZED FREE ENERGY PREDICTED BY IDOCK:   -2.06 KCAL/MOL
REMARK 922        TOTAL FREE ENERGY PREDICTED BY IDOCK:   -2.22 KCAL/MOL
REMARK 923 INTER-LIGAND FREE ENERGY PREDICTED BY IDOCK:   -2.11 KCAL/MOL
REMARK 924 INTRA-LIGAND FREE ENERGY PREDICTED BY IDOCK:   -0.12 KCAL/MOL
REMARK 927      BINDING AFFINITY PREDICTED BY RF-SCORE:    0.00 PKD
ROOT
HETATM    1  C   UNL     1      -8.428   5.849  67.579  1.00  0.00    -0.103 C  
HETATM    2  C   UNL     1      -9.769   5.076  67.859  1.00  0.00    -0.153 C  
HETATM    3  C   UNL     1      -8.795   7.302  67.266  1.00  0.00    -0.124 C  
HETATM    4  C   UNL     1      -7.548   5.193  66.503  1.00  0.00    -0.088 A  
HETATM    5  C   UNL     1      -6.656   4.168  66.876  1.00  0.00    -0.046 A  
HETATM    6  H   UNL     1     -11.568   5.273  68.873  1.00  0.00     0.000 HD 
HETATM    7  O   UNL     1      -9.390   7.689  66.267  1.00  0.00    -0.176 OA 
HETATM    8  C   UNL     1      -9.609   3.580  68.195  1.00  0.00    -0.164 C  
HETATM    9  C   UNL     1      -9.001   3.352  69.578  1.00  0.00    -0.177 C  
HETATM   10  C   UNL     1      -5.911   3.463  65.926  1.00  0.00    -0.019 A  
HETATM   11  C   UNL     1      -7.609   5.526  65.140  1.00  0.00    -0.080 A  
HETATM   12  C   UNL     1      -9.830   4.061  70.640  1.00  0.00    -0.229 C  
HETATM   13  C   UNL     1      -6.003   3.801  64.582  1.00  0.00    -0.022 A  
HETATM   14  C   UNL     1     -10.082   5.520  70.271  1.00  0.00    -0.237 C  
HETATM   15  C   UNL     1      -6.835   4.845  64.192  1.00  0.00    -0.048 A  
HETATM   16  N   UNL     1     -10.625   5.660  68.921  1.00  0.00    -0.244 NA 
ENDROOT
BRANCH   3  17
HETATM   17  O   UNL     1      -8.467   8.117  68.314  1.00  0.00    -0.128 OA 
HETATM   18  C   UNL     1      -7.145   7.911  68.817  1.00  0.00    -0.072 C  
ENDBRANCH   3  17
TORSDOF 1
ENDMDL
MODEL      135
REMARK 921   NORMALIZED FREE ENERGY PREDICTED BY IDOCK:   -1.66 KCAL/MOL
REMARK 922        TOTAL FREE ENERGY PREDICTED BY IDOCK:   -1.80 KCAL/MOL
REMARK 923 INTER-LIGAND FREE ENERGY PREDICTED BY IDOCK:   -1.70 KCAL/MOL
REMARK 924 INTRA-LIGAND FREE ENERGY PREDICTED BY IDOCK:   -0.10 KCAL/MOL
REMARK 927      BINDING AFFINITY PREDICTED BY RF-SCORE:    0.00 PKD
ROOT
HETATM    1  C   UNL     1      -8.249   6.185  67.101  1.00  0.00    -0.106 C  
HETATM    2  C   UNL     1      -7.106   6.255  66.023  1.00  0.00    -0.067 C  
HETATM    3  C   UNL     1      -9.002   7.518  67.055  1.00  0.00    -0.130 C  
HETATM    4  C   UNL     1      -7.752   5.811  68.507  1.00  0.00    -0.093 A  
HETATM    5  C   UNL     1      -7.612   4.450  68.845  1.00  0.00    -0.059 A  
HETATM    6  H   UNL     1      -6.763   6.853  64.066  1.00  0.00     0.000 HD 
HETATM    7  O   UNL     1      -8.553   8.605  67.398  1.00  0.00    -0.131 OA 
HETATM    8  C   UNL     1      -6.224   4.995  65.915  1.00  0.00    -0.034 C  
HETATM    9  C   UNL     1      -6.963   3.814  65.290  1.00  0.00    -0.061 C  
HETATM   10  C   UNL     1      -7.063   4.052  70.068  1.00  0.00    -0.042 A  
HETATM   11  C   UNL     1      -7.381   6.755  69.477  1.00  0.00    -0.091 A  
HETATM   12  C   UNL     1      -7.520   4.203  63.927  1.00  0.00    -0.062 C  
HETATM   13  C   UNL     1      -6.688   5.007  71.004  1.00  0.00    -0.042 A  
HETATM   14  C   UNL     1      -8.313   5.506  63.999  1.00  0.00    -0.091 C  
HETATM   15  C   UNL     1      -6.866   6.356  70.717  1.00  0.00    -0.063 A  
HETATM   16  N   UNL     1      -7.556   6.576  64.645  1.00  0.00    -0.093 NA 
ENDROOT
BRANCH   3  17
HETATM   17  O   UNL     1     -10.227   7.357  66.467  1.00  0.00    -0.194 OA 
HETATM   18  C   UNL     1     -11.089   6.452  67.162  1.00  0.00    -0.341 C  
ENDBRANCH   3  17
TORSDOF 1
ENDMDL
MODEL      136
REMARK 921   NORMALIZED FREE ENERGY PREDICTED BY IDOCK:   -1.15 KCAL/MOL
REMARK 922        TOTAL FREE ENERGY PREDICTED BY IDOCK:   -1.26 KCAL/MOL
REMARK 923 INTER-LIGAND FREE ENERGY PREDICTED BY IDOCK:   -1.18 KCAL/MOL
REMARK 924 INTRA-LIGAND FREE ENERGY PREDICTED BY IDOCK:   -0.08 KCAL/MOL
REMARK 927      BINDING AFFINITY PREDICTED BY RF-SCORE:    0.00 PKD
ROOT
HETATM    1  C   UNL     1      -7.650  16.091  67.367  1.00  0.00    -0.200 C  
HETATM    2  C   UNL     1      -8.109  14.773  68.093  1.00  0.00    -0.134 C  
HETATM    3  C   UNL     1      -6.158  16.275  67.657  1.00  0.00    -0.149 C  
HETATM    4  C   UNL     1      -8.500  17.321  67.721  1.00  0.00    -0.217 A  
HETATM    5  C   UNL     1      -9.687  17.565  67.002  1.00  0.00    -0.284 A  
HETATM    6  H   UNL     1      -7.509  12.814  68.422  1.00  0.00     0.000 HD 
HETATM    7  O   UNL     1      -5.670  16.541  68.749  1.00  0.00    -0.123 OA 
HETATM    8  C   UNL     1      -9.598  14.411  67.921  1.00  0.00    -0.219 C  
HETATM    9  C   UNL     1      -9.927  13.937  66.507  1.00  0.00    -0.288 C  
HETATM   10  C   UNL     1     -10.554  18.606  67.350  1.00  0.00    -0.490 A  
HETATM   11  C   UNL     1      -8.187  18.208  68.763  1.00  0.00    -0.240 A  
HETATM   12  C   UNL     1      -9.036  12.764  66.124  1.00  0.00     0.137 C  
HETATM   13  C   UNL     1     -10.229  19.459  68.397  1.00  0.00    -0.516 A  
HETATM   14  C   UNL     1      -7.563  13.071  66.384  1.00  0.00     1.355 C  
HETATM   15  C   UNL     1      -9.037  19.273  69.089  1.00  0.00    -0.203 A  
HETATM   16  N   UNL     1      -7.334  13.556  67.744  1.00  0.00    -0.146 NA 
ENDROOT
BRANCH   3  17
HETATM   17  O   UNL     1      -5.414  15.993  66.545  1.00  0.00     0.062 OA 
HETATM   18  C   UNL     1      -5.159  17.128  65.714  1.00  0.00     0.475 C  
ENDBRANCH   3  17
TORSDOF 1
ENDMDL
MODEL      137
REMARK 921   NORMALIZED FREE ENERGY PREDICTED BY IDOCK:    1.01 KCAL/MOL
REMARK 922        TOTAL FREE ENERGY PREDICTED BY IDOCK:    1.02 KCAL/MOL
REMARK 923 INTER-LIGAND FREE ENERGY PREDICTED BY IDOCK:    1.06 KCAL/MOL
REMARK 924 INTRA-LIGAND FREE ENERGY PREDICTED BY IDOCK:   -0.04 KCAL/MOL
REMARK 927      BINDING AFFINITY PREDICTED BY RF-SCORE:    0.00 PKD
ROOT
HETATM    1  C   UNL     1     -10.721  13.002  68.164  1.00  0.00    -0.258 C  
HETATM    2  C   UNL     1     -10.763  13.689  69.578  1.00  0.00     0.157 C  
HETATM    3  C   UNL     1      -9.602  11.956  68.198  1.00  0.00    -0.195 C  
HETATM    4  C   UNL     1     -10.598  13.994  66.997  1.00  0.00    -0.279 A  
HETATM    5  C   UNL     1     -11.765  14.578  66.467  1.00  0.00    -0.380 A  
HETATM    6  H   UNL     1     -10.687  13.233  71.601  1.00  0.00     0.000 HD 
HETATM    7  O   UNL     1      -8.403  12.196  68.272  1.00  0.00    -0.163 OA 
HETATM    8  C   UNL     1     -11.834  14.784  69.747  1.00  0.00    -0.362 C  
HETATM    9  C   UNL     1     -13.251  14.216  69.802  1.00  0.00     0.960 C  
HETATM   10  C   UNL     1     -11.706  15.567  65.479  1.00  0.00     0.227 A  
HETATM   11  C   UNL     1      -9.371  14.396  66.445  1.00  0.00    -0.284 A  
HETATM   12  C   UNL     1     -13.358  13.178  70.911  1.00  0.00     0.208 C  
HETATM   13  C   UNL     1     -10.479  15.959  64.962  1.00  0.00    -0.295 A  
HETATM   14  C   UNL     1     -12.242  12.141  70.817  1.00  0.00    -0.271 C  
HETATM   15  C   UNL     1      -9.314  15.360  65.430  1.00  0.00     0.140 A  
HETATM   16  N   UNL     1     -10.921  12.762  70.727  1.00  0.00     2.140 NA 
ENDROOT
BRANCH   3  17
HETATM   17  O   UNL     1     -10.126  10.694  68.246  1.00  0.00    -0.150 OA 
HETATM   18  C   UNL     1     -11.473  10.607  67.775  1.00  0.00    -0.137 C  
ENDBRANCH   3  17
TORSDOF 1
ENDMDL
MODEL      138
REMARK 921   NORMALIZED FREE ENERGY PREDICTED BY IDOCK:    3.14 KCAL/MOL
REMARK 922        TOTAL FREE ENERGY PREDICTED BY IDOCK:    3.28 KCAL/MOL
REMARK 923 INTER-LIGAND FREE ENERGY PREDICTED BY IDOCK:    3.37 KCAL/MOL
REMARK 924 INTRA-LIGAND FREE ENERGY PREDICTED BY IDOCK:   -0.09 KCAL/MOL
REMARK 927      BINDING AFFINITY PREDICTED BY RF-SCORE:    0.00 PKD
ROOT
HETATM    1  C   UNL     1      -8.241  13.781  68.667  1.00  0.00    -0.077 C  
HETATM    2  C   UNL     1      -9.246  14.988  68.722  1.00  0.00    -0.200 C  
HETATM    3  C   UNL     1      -6.830  14.367  68.558  1.00  0.00    -0.098 C  
HETATM    4  C   UNL     1      -8.564  12.755  67.569  1.00  0.00    -0.187 A  
HETATM    5  C   UNL     1      -9.487  11.726  67.842  1.00  0.00    -0.191 A  
HETATM    6  H   UNL     1      -9.502  16.842  69.620  1.00  0.00     0.000 HD 
HETATM    7  O   UNL     1      -6.378  14.969  67.591  1.00  0.00    -0.159 OA 
HETATM    8  C   UNL     1     -10.735  14.601  68.832  1.00  0.00    -0.251 C  
HETATM    9  C   UNL     1     -11.093  14.030  70.202  1.00  0.00     0.104 C  
HETATM   10  C   UNL     1      -9.900  10.831  66.850  1.00  0.00    -0.224 A  
HETATM   11  C   UNL     1      -8.023  12.805  66.275  1.00  0.00     0.947 A  
HETATM   12  C   UNL     1     -10.707  15.014  71.299  1.00  0.00     0.245 C  
HETATM   13  C   UNL     1      -9.362  10.913  65.573  1.00  0.00    -0.237 A  
HETATM   14  C   UNL     1      -9.263  15.485  71.145  1.00  0.00     2.861 C  
HETATM   15  C   UNL     1      -8.409  11.886  65.291  1.00  0.00     0.991 A  
HETATM   16  N   UNL     1      -8.987  15.979  69.797  1.00  0.00     0.069 NA 
ENDROOT
BRANCH   3  17
HETATM   17  O   UNL     1      -6.160  14.227  69.743  1.00  0.00    -0.113 OA 
HETATM   18  C   UNL     1      -5.537  12.951  69.909  1.00  0.00    -0.112 C  
ENDBRANCH   3  17
TORSDOF 1
ENDMDL
MODEL      139
REMARK 921   NORMALIZED FREE ENERGY PREDICTED BY IDOCK:   32.10 KCAL/MOL
REMARK 922        TOTAL FREE ENERGY PREDICTED BY IDOCK:   33.93 KCAL/MOL
REMARK 923 INTER-LIGAND FREE ENERGY PREDICTED BY IDOCK:   33.19 KCAL/MOL
REMARK 924 INTRA-LIGAND FREE ENERGY PREDICTED BY IDOCK:    0.74 KCAL/MOL
REMARK 927      BINDING AFFINITY PREDICTED BY RF-SCORE:    0.00 PKD
ROOT
HETATM    1  C   UNL     1     -10.741  11.967  69.500  1.00  0.00     0.132 C  
HETATM    2  C   UNL     1     -11.009  13.473  69.135  1.00  0.00    -0.177 C  
HETATM    3  C   UNL     1     -11.259  11.117  68.336  1.00  0.00    -0.262 C  
HETATM    4  C   UNL     1     -11.312  11.550  70.865  1.00  0.00     0.997 A  
HETATM    5  C   UNL     1     -10.543  11.769  72.025  1.00  0.00    10.033 A  
HETATM    6  H   UNL     1     -10.855  14.806  67.552  1.00  0.00     0.000 HD 
HETATM    7  O   UNL     1     -12.435  10.977  68.021  1.00  0.00    -0.009 OA 
HETATM    8  C   UNL     1     -10.555  14.498  70.193  1.00  0.00     0.204 C  
HETATM    9  C   UNL     1      -9.035  14.621  70.277  1.00  0.00     1.279 C  
HETATM   10  C   UNL     1     -11.053  11.510  73.301  1.00  0.00    14.464 A  
HETATM   11  C   UNL     1     -12.590  10.996  71.036  1.00  0.00    -0.512 A  
HETATM   12  C   UNL     1      -8.459  14.963  68.910  1.00  0.00    -0.174 C  
HETATM   13  C   UNL     1     -12.328  10.977  73.444  1.00  0.00     8.237 A  
HETATM   14  C   UNL     1      -8.979  14.016  67.831  1.00  0.00    -0.188 C  
HETATM   15  C   UNL     1     -13.087  10.702  72.312  1.00  0.00    -0.200 A  
HETATM   16  N   UNL     1     -10.438  13.921  67.840  1.00  0.00    -0.239 NA 
ENDROOT
BRANCH   3  17
HETATM   17  O   UNL     1     -10.216  10.610  67.610  1.00  0.00    -0.180 OA 
HETATM   18  C   UNL     1      -9.921  11.352  66.424  1.00  0.00    -0.214 C  
ENDBRANCH   3  17
TORSDOF 1
ENDMDL
