MODEL        1
REMARK 921   NORMALIZED FREE ENERGY PREDICTED BY IDOCK:   -5.28 KCAL/MOL
REMARK 922        TOTAL FREE ENERGY PREDICTED BY IDOCK:   -7.66 KCAL/MOL
REMARK 923 INTER-LIGAND FREE ENERGY PREDICTED BY IDOCK:   -7.14 KCAL/MOL
REMARK 924 INTRA-LIGAND FREE ENERGY PREDICTED BY IDOCK:   -0.52 KCAL/MOL
REMARK 927      BINDING AFFINITY PREDICTED BY RF-SCORE:    0.00 PKD
ROOT
HETATM    1  C   UNL     1     -11.127  13.385  64.264  1.00  0.00    -0.396 C  
HETATM    2  C   UNL     1     -11.076  14.451  65.387  1.00  0.00    -0.331 C  
HETATM    3  C   UNL     1      -9.770  14.212  66.173  1.00  0.00    -0.310 C  
ENDROOT
BRANCH   2   4
HETATM    4  C   UNL     1     -12.328  14.306  66.306  1.00  0.00    -0.373 C  
HETATM    5  O   UNL     1     -13.499  13.916  65.575  1.00  0.00    -0.657 OA 
HETATM    6  H   UNL     1     -14.261  13.828  66.135  1.00  0.00     0.000 HD 
BRANCH   4   7
HETATM    7  C   UNL     1     -12.144  13.317  67.482  1.00  0.00    -0.264 C  
HETATM    8  O   UNL     1     -11.934  12.113  67.351  1.00  0.00    -0.563 OA 
HETATM    9  N   UNL     1     -12.186  13.910  68.729  1.00  0.00    -0.481 N  
HETATM   10  H   UNL     1     -12.324  14.918  68.805  1.00  0.00     0.000 HD 
BRANCH   9  11
HETATM   11  C   UNL     1     -12.034  13.114  69.929  1.00  0.00    -0.317 C  
BRANCH  11  12
HETATM   12  C   UNL     1     -12.420  13.855  71.205  1.00  0.00    -0.450 C  
BRANCH  12  13
HETATM   13  C   UNL     1     -12.689  15.341  71.010  1.00  0.00    -0.424 C  
HETATM   14  O   UNL     1     -14.070  15.535  70.710  1.00  0.00    -0.871 OA 
HETATM   15  H   UNL     1     -14.238  16.462  70.589  1.00  0.00     0.000 HD 
ENDBRANCH  12  13
ENDBRANCH  11  12
ENDBRANCH   9  11
ENDBRANCH   4   7
ENDBRANCH   2   4
BRANCH   2  16
HETATM   16  C   UNL     1     -11.081  15.847  64.708  1.00  0.00    -0.384 C  
HETATM   17  O   UNL     1     -12.156  15.986  63.787  1.00  0.00    -1.318 OA 
HETATM   18  H   UNL     1     -12.159  16.841  63.371  1.00  0.00     0.000 HD 
ENDBRANCH   2  16
TORSDOF 6
ENDMDL
MODEL        2
REMARK 921   NORMALIZED FREE ENERGY PREDICTED BY IDOCK:   -4.91 KCAL/MOL
REMARK 922        TOTAL FREE ENERGY PREDICTED BY IDOCK:   -7.16 KCAL/MOL
REMARK 923 INTER-LIGAND FREE ENERGY PREDICTED BY IDOCK:   -6.87 KCAL/MOL
REMARK 924 INTRA-LIGAND FREE ENERGY PREDICTED BY IDOCK:   -0.29 KCAL/MOL
REMARK 927      BINDING AFFINITY PREDICTED BY RF-SCORE:    0.00 PKD
ROOT
HETATM    1  C   UNL     1     -11.617  14.641  66.785  1.00  0.00    -0.370 C  
HETATM    2  C   UNL     1     -11.262  14.569  65.279  1.00  0.00    -0.352 C  
HETATM    3  C   UNL     1     -10.296  13.379  65.104  1.00  0.00    -0.349 C  
ENDROOT
BRANCH   2   4
HETATM    4  C   UNL     1     -10.601  15.909  64.830  1.00  0.00    -0.254 C  
HETATM    5  O   UNL     1     -11.487  16.717  64.043  1.00  0.00    -1.523 OA 
HETATM    6  H   UNL     1     -11.085  17.532  63.770  1.00  0.00     0.000 HD 
BRANCH   4   7
HETATM    7  C   UNL     1     -10.066  16.777  65.995  1.00  0.00    -0.332 C  
HETATM    8  O   UNL     1      -9.053  16.523  66.642  1.00  0.00    -0.222 OA 
HETATM    9  N   UNL     1     -10.805  17.920  66.231  1.00  0.00    -0.071 N  
HETATM   10  H   UNL     1     -11.620  18.123  65.653  1.00  0.00     0.000 HD 
BRANCH   9  11
HETATM   11  C   UNL     1     -10.432  18.831  67.293  1.00  0.00    -0.431 C  
BRANCH  11  12
HETATM   12  C   UNL     1      -9.588  20.009  66.816  1.00  0.00    -0.543 C  
BRANCH  12  13
HETATM   13  C   UNL     1      -8.280  20.190  67.572  1.00  0.00    -0.329 C  
HETATM   14  O   UNL     1      -7.633  21.379  67.121  1.00  0.00    -0.789 OA 
HETATM   15  H   UNL     1      -6.817  21.491  67.593  1.00  0.00     0.000 HD 
ENDBRANCH  12  13
ENDBRANCH  11  12
ENDBRANCH   9  11
ENDBRANCH   4   7
ENDBRANCH   2   4
BRANCH   2  16
HETATM   16  C   UNL     1     -12.583  14.346  64.495  1.00  0.00    -0.209 C  
HETATM   17  O   UNL     1     -12.346  13.820  63.194  1.00  0.00    -1.099 OA 
HETATM   18  H   UNL     1     -13.154  13.683  62.714  1.00  0.00     0.000 HD 
ENDBRANCH   2  16
TORSDOF 6
ENDMDL
MODEL        3
REMARK 921   NORMALIZED FREE ENERGY PREDICTED BY IDOCK:   -4.72 KCAL/MOL
REMARK 922        TOTAL FREE ENERGY PREDICTED BY IDOCK:   -6.90 KCAL/MOL
REMARK 923 INTER-LIGAND FREE ENERGY PREDICTED BY IDOCK:   -6.31 KCAL/MOL
REMARK 924 INTRA-LIGAND FREE ENERGY PREDICTED BY IDOCK:   -0.59 KCAL/MOL
REMARK 927      BINDING AFFINITY PREDICTED BY RF-SCORE:    0.00 PKD
ROOT
HETATM    1  C   UNL     1     -12.967  14.147  65.815  1.00  0.00    -0.235 C  
HETATM    2  C   UNL     1     -11.820  13.248  65.289  1.00  0.00    -0.386 C  
HETATM    3  C   UNL     1     -11.570  12.168  66.362  1.00  0.00    -0.429 C  
ENDROOT
BRANCH   2   4
HETATM    4  C   UNL     1     -10.545  14.113  65.045  1.00  0.00    -0.419 C  
HETATM    5  O   UNL     1      -9.807  13.685  63.893  1.00  0.00    -0.466 OA 
HETATM    6  H   UNL     1      -9.031  14.211  63.744  1.00  0.00     0.000 HD 
BRANCH   4   7
HETATM    7  C   UNL     1     -10.820  15.630  64.904  1.00  0.00    -0.418 C  
HETATM    8  O   UNL     1     -11.432  16.140  63.968  1.00  0.00    -0.746 OA 
HETATM    9  N   UNL     1     -10.357  16.387  65.961  1.00  0.00    -0.342 N  
HETATM   10  H   UNL     1      -9.885  15.931  66.742  1.00  0.00     0.000 HD 
BRANCH   9  11
HETATM   11  C   UNL     1     -10.535  17.824  65.972  1.00  0.00    -0.286 C  
BRANCH  11  12
HETATM   12  C   UNL     1      -9.693  18.535  67.026  1.00  0.00    -0.321 C  
BRANCH  12  13
HETATM   13  C   UNL     1      -8.400  19.138  66.494  1.00  0.00    -0.315 C  
HETATM   14  O   UNL     1      -7.752  18.192  65.646  1.00  0.00    -0.532 OA 
HETATM   15  H   UNL     1      -6.945  18.568  65.314  1.00  0.00     0.000 HD 
ENDBRANCH  12  13
ENDBRANCH  11  12
ENDBRANCH   9  11
ENDBRANCH   4   7
ENDBRANCH   2   4
BRANCH   2  16
HETATM   16  C   UNL     1     -12.292  12.619  63.951  1.00  0.00    -0.459 C  
HETATM   17  O   UNL     1     -12.564  13.609  62.965  1.00  0.00    -0.957 OA 
HETATM   18  H   UNL     1     -12.853  13.224  62.146  1.00  0.00     0.000 HD 
ENDBRANCH   2  16
TORSDOF 6
ENDMDL
MODEL        4
REMARK 921   NORMALIZED FREE ENERGY PREDICTED BY IDOCK:   -4.72 KCAL/MOL
REMARK 922        TOTAL FREE ENERGY PREDICTED BY IDOCK:   -6.89 KCAL/MOL
REMARK 923 INTER-LIGAND FREE ENERGY PREDICTED BY IDOCK:   -6.32 KCAL/MOL
REMARK 924 INTRA-LIGAND FREE ENERGY PREDICTED BY IDOCK:   -0.58 KCAL/MOL
REMARK 927      BINDING AFFINITY PREDICTED BY RF-SCORE:    0.00 PKD
ROOT
HETATM    1  C   UNL     1     -12.674  13.905  65.694  1.00  0.00    -0.534 C  
HETATM    2  C   UNL     1     -11.283  13.560  65.108  1.00  0.00    -0.320 C  
HETATM    3  C   UNL     1     -10.624  12.559  66.081  1.00  0.00    -0.279 C  
ENDROOT
BRANCH   2   4
HETATM    4  C   UNL     1     -10.434  14.861  64.970  1.00  0.00    -0.401 C  
HETATM    5  O   UNL     1     -11.151  15.912  64.309  1.00  0.00    -0.876 OA 
HETATM    6  H   UNL     1     -10.634  16.704  64.224  1.00  0.00     0.000 HD 
BRANCH   4   7
HETATM    7  C   UNL     1      -9.894  15.416  66.310  1.00  0.00    -0.297 C  
HETATM    8  O   UNL     1      -8.822  15.092  66.815  1.00  0.00    -0.239 OA 
HETATM    9  N   UNL     1     -10.707  16.368  66.893  1.00  0.00    -0.258 N  
HETATM   10  H   UNL     1     -11.574  16.644  66.432  1.00  0.00     0.000 HD 
BRANCH   9  11
HETATM   11  C   UNL     1     -10.339  16.978  68.154  1.00  0.00    -0.347 C  
BRANCH  11  12
HETATM   12  C   UNL     1      -9.834  18.410  68.014  1.00  0.00    -0.359 C  
BRANCH  12  13
HETATM   13  C   UNL     1     -10.656  19.275  67.068  1.00  0.00    -0.470 C  
HETATM   14  O   UNL     1     -10.248  19.024  65.724  1.00  0.00    -0.517 OA 
HETATM   15  H   UNL     1     -10.761  19.563  65.134  1.00  0.00     0.000 HD 
ENDBRANCH  12  13
ENDBRANCH  11  12
ENDBRANCH   9  11
ENDBRANCH   4   7
ENDBRANCH   2   4
BRANCH   2  16
HETATM   16  C   UNL     1     -11.506  12.926  63.709  1.00  0.00    -0.459 C  
HETATM   17  O   UNL     1     -12.430  13.676  62.928  1.00  0.00    -0.960 OA 
HETATM   18  H   UNL     1     -12.567  13.288  62.071  1.00  0.00     0.000 HD 
ENDBRANCH   2  16
TORSDOF 6
ENDMDL
MODEL        5
REMARK 921   NORMALIZED FREE ENERGY PREDICTED BY IDOCK:   -4.71 KCAL/MOL
REMARK 922        TOTAL FREE ENERGY PREDICTED BY IDOCK:   -6.88 KCAL/MOL
REMARK 923 INTER-LIGAND FREE ENERGY PREDICTED BY IDOCK:   -6.44 KCAL/MOL
REMARK 924 INTRA-LIGAND FREE ENERGY PREDICTED BY IDOCK:   -0.44 KCAL/MOL
REMARK 927      BINDING AFFINITY PREDICTED BY RF-SCORE:    0.00 PKD
ROOT
HETATM    1  C   UNL     1     -10.735  17.031  67.378  1.00  0.00    -0.240 C  
HETATM    2  C   UNL     1     -10.621  15.746  66.521  1.00  0.00    -0.306 C  
HETATM    3  C   UNL     1      -9.167  15.677  66.010  1.00  0.00    -0.374 C  
ENDROOT
BRANCH   2   4
HETATM    4  C   UNL     1     -11.637  15.811  65.339  1.00  0.00     0.219 C  
HETATM    5  O   UNL     1     -11.092  16.470  64.188  1.00  0.00    -1.280 OA 
HETATM    6  H   UNL     1     -11.709  16.510  63.468  1.00  0.00     0.000 HD 
BRANCH   4   7
HETATM    7  C   UNL     1     -12.183  14.434  64.890  1.00  0.00    -0.433 C  
HETATM    8  O   UNL     1     -13.230  13.936  65.299  1.00  0.00    -0.774 OA 
HETATM    9  N   UNL     1     -11.411  13.806  63.933  1.00  0.00    -0.584 N  
HETATM   10  H   UNL     1     -10.567  14.261  63.586  1.00  0.00     0.000 HD 
BRANCH   9  11
HETATM   11  C   UNL     1     -11.790  12.508  63.416  1.00  0.00    -0.503 C  
BRANCH  11  12
HETATM   12  C   UNL     1     -11.221  11.343  64.220  1.00  0.00    -0.306 C  
BRANCH  12  13
HETATM   13  C   UNL     1      -9.848  10.874  63.758  1.00  0.00    -0.337 C  
HETATM   14  O   UNL     1      -9.240  11.897  62.973  1.00  0.00    -0.644 OA 
HETATM   15  H   UNL     1      -8.383  11.605  62.685  1.00  0.00     0.000 HD 
ENDBRANCH  12  13
ENDBRANCH  11  12
ENDBRANCH   9  11
ENDBRANCH   4   7
ENDBRANCH   2   4
BRANCH   2  16
HETATM   16  C   UNL     1     -10.958  14.539  67.437  1.00  0.00    -0.303 C  
HETATM   17  O   UNL     1     -12.182  14.730  68.138  1.00  0.00    -0.578 OA 
HETATM   18  H   UNL     1     -12.388  13.991  68.699  1.00  0.00     0.000 HD 
ENDBRANCH   2  16
TORSDOF 6
ENDMDL
MODEL        6
REMARK 921   NORMALIZED FREE ENERGY PREDICTED BY IDOCK:   -4.55 KCAL/MOL
REMARK 922        TOTAL FREE ENERGY PREDICTED BY IDOCK:   -6.67 KCAL/MOL
REMARK 923 INTER-LIGAND FREE ENERGY PREDICTED BY IDOCK:   -6.23 KCAL/MOL
REMARK 924 INTRA-LIGAND FREE ENERGY PREDICTED BY IDOCK:   -0.44 KCAL/MOL
REMARK 927      BINDING AFFINITY PREDICTED BY RF-SCORE:    0.00 PKD
ROOT
HETATM    1  C   UNL     1     -12.619  11.861  63.458  1.00  0.00    -0.579 C  
HETATM    2  C   UNL     1     -11.376  12.411  64.201  1.00  0.00    -0.442 C  
HETATM    3  C   UNL     1     -11.485  11.937  65.665  1.00  0.00    -0.314 C  
ENDROOT
BRANCH   2   4
HETATM    4  C   UNL     1     -11.355  13.968  64.107  1.00  0.00    -0.153 C  
HETATM    5  O   UNL     1     -12.631  14.510  63.743  1.00  0.00    -0.972 OA 
HETATM    6  H   UNL     1     -12.618  15.458  63.686  1.00  0.00     0.000 HD 
BRANCH   4   7
HETATM    7  C   UNL     1     -10.883  14.678  65.400  1.00  0.00    -0.356 C  
HETATM    8  O   UNL     1     -11.633  15.063  66.294  1.00  0.00    -0.286 OA 
HETATM    9  N   UNL     1      -9.512  14.809  65.501  1.00  0.00    -0.481 N  
HETATM   10  H   UNL     1      -8.913  14.446  64.760  1.00  0.00     0.000 HD 
BRANCH   9  11
HETATM   11  C   UNL     1      -8.918  15.457  66.652  1.00  0.00    -0.286 C  
BRANCH  11  12
HETATM   12  C   UNL     1      -8.180  16.747  66.312  1.00  0.00    -0.359 C  
BRANCH  12  13
HETATM   13  C   UNL     1      -9.014  18.010  66.482  1.00  0.00    -0.265 C  
HETATM   14  O   UNL     1     -10.228  17.876  65.745  1.00  0.00    -0.577 OA 
HETATM   15  H   UNL     1     -10.749  18.663  65.852  1.00  0.00     0.000 HD 
ENDBRANCH  12  13
ENDBRANCH  11  12
ENDBRANCH   9  11
ENDBRANCH   4   7
ENDBRANCH   2   4
BRANCH   2  16
HETATM   16  C   UNL     1     -10.117  11.825  63.508  1.00  0.00    -0.438 C  
HETATM   17  O   UNL     1     -10.420  10.651  62.763  1.00  0.00    -0.724 OA 
HETATM   18  H   UNL     1      -9.649  10.292  62.339  1.00  0.00     0.000 HD 
ENDBRANCH   2  16
TORSDOF 6
ENDMDL
MODEL        7
REMARK 921   NORMALIZED FREE ENERGY PREDICTED BY IDOCK:   -4.53 KCAL/MOL
REMARK 922        TOTAL FREE ENERGY PREDICTED BY IDOCK:   -6.64 KCAL/MOL
REMARK 923 INTER-LIGAND FREE ENERGY PREDICTED BY IDOCK:   -6.16 KCAL/MOL
REMARK 924 INTRA-LIGAND FREE ENERGY PREDICTED BY IDOCK:   -0.48 KCAL/MOL
REMARK 927      BINDING AFFINITY PREDICTED BY RF-SCORE:    0.00 PKD
ROOT
HETATM    1  C   UNL     1     -12.037  13.085  63.553  1.00  0.00    -0.617 C  
HETATM    2  C   UNL     1     -11.409  13.716  64.820  1.00  0.00    -0.365 C  
HETATM    3  C   UNL     1     -12.548  13.888  65.846  1.00  0.00    -0.498 C  
ENDROOT
BRANCH   2   4
HETATM    4  C   UNL     1     -10.759  15.087  64.457  1.00  0.00    -0.049 C  
HETATM    5  O   UNL     1     -11.678  15.969  63.800  1.00  0.00    -1.288 OA 
HETATM    6  H   UNL     1     -11.283  16.804  63.579  1.00  0.00     0.000 HD 
BRANCH   4   7
HETATM    7  C   UNL     1     -10.146  15.841  65.662  1.00  0.00    -0.371 C  
HETATM    8  O   UNL     1      -9.155  15.467  66.285  1.00  0.00    -0.288 OA 
HETATM    9  N   UNL     1     -10.783  17.028  65.966  1.00  0.00    -0.189 N  
HETATM   10  H   UNL     1     -11.581  17.332  65.408  1.00  0.00     0.000 HD 
BRANCH   9  11
HETATM   11  C   UNL     1     -10.329  17.845  67.072  1.00  0.00    -0.362 C  
BRANCH  11  12
HETATM   12  C   UNL     1     -10.086  19.303  66.693  1.00  0.00    -0.487 C  
BRANCH  12  13
HETATM   13  C   UNL     1      -8.661  19.607  66.251  1.00  0.00    -0.369 C  
HETATM   14  O   UNL     1      -8.007  18.390  65.896  1.00  0.00    -0.497 OA 
HETATM   15  H   UNL     1      -7.119  18.580  65.619  1.00  0.00     0.000 HD 
ENDBRANCH  12  13
ENDBRANCH  11  12
ENDBRANCH   9  11
ENDBRANCH   4   7
ENDBRANCH   2   4
BRANCH   2  16
HETATM   16  C   UNL     1     -10.320  12.740  65.341  1.00  0.00    -0.293 C  
HETATM   17  O   UNL     1      -9.559  12.177  64.278  1.00  0.00    -0.486 OA 
HETATM   18  H   UNL     1      -8.893  11.579  64.596  1.00  0.00     0.000 HD 
ENDBRANCH   2  16
TORSDOF 6
ENDMDL
MODEL        8
REMARK 921   NORMALIZED FREE ENERGY PREDICTED BY IDOCK:   -4.52 KCAL/MOL
REMARK 922        TOTAL FREE ENERGY PREDICTED BY IDOCK:   -6.63 KCAL/MOL
REMARK 923 INTER-LIGAND FREE ENERGY PREDICTED BY IDOCK:   -6.17 KCAL/MOL
REMARK 924 INTRA-LIGAND FREE ENERGY PREDICTED BY IDOCK:   -0.46 KCAL/MOL
REMARK 927      BINDING AFFINITY PREDICTED BY RF-SCORE:    0.00 PKD
ROOT
HETATM    1  C   UNL     1     -12.738  13.755  65.528  1.00  0.00    -0.530 C  
HETATM    2  C   UNL     1     -11.438  13.991  66.336  1.00  0.00    -0.361 C  
HETATM    3  C   UNL     1     -11.819  14.860  67.552  1.00  0.00    -0.256 C  
ENDROOT
BRANCH   2   4
HETATM    4  C   UNL     1     -10.382  14.705  65.436  1.00  0.00    -0.383 C  
HETATM    5  O   UNL     1     -10.221  14.058  64.167  1.00  0.00    -0.619 OA 
HETATM    6  H   UNL     1      -9.579  14.492  63.619  1.00  0.00     0.000 HD 
BRANCH   4   7
HETATM    7  C   UNL     1     -10.673  16.203  65.179  1.00  0.00    -0.371 C  
HETATM    8  O   UNL     1     -11.358  16.629  64.251  1.00  0.00    -1.116 OA 
HETATM    9  N   UNL     1     -10.130  17.052  66.123  1.00  0.00    -0.322 N  
HETATM   10  H   UNL     1      -9.596  16.667  66.902  1.00  0.00     0.000 HD 
BRANCH   9  11
HETATM   11  C   UNL     1     -10.311  18.485  66.015  1.00  0.00    -0.393 C  
BRANCH  11  12
HETATM   12  C   UNL     1     -10.562  19.170  67.355  1.00  0.00    -0.577 C  
BRANCH  12  13
HETATM   13  C   UNL     1     -10.164  18.340  68.567  1.00  0.00    -0.379 C  
HETATM   14  O   UNL     1      -8.742  18.248  68.631  1.00  0.00    -0.311 OA 
HETATM   15  H   UNL     1      -8.494  17.730  69.387  1.00  0.00     0.000 HD 
ENDBRANCH  12  13
ENDBRANCH  11  12
ENDBRANCH   9  11
ENDBRANCH   4   7
ENDBRANCH   2   4
BRANCH   2  16
HETATM   16  C   UNL     1     -10.901  12.603  66.777  1.00  0.00    -0.250 C  
HETATM   17  O   UNL     1     -11.046  11.627  65.752  1.00  0.00    -0.302 OA 
HETATM   18  H   UNL     1     -10.718  10.777  66.022  1.00  0.00     0.000 HD 
ENDBRANCH   2  16
TORSDOF 6
ENDMDL
MODEL        9
REMARK 921   NORMALIZED FREE ENERGY PREDICTED BY IDOCK:   -4.52 KCAL/MOL
REMARK 922        TOTAL FREE ENERGY PREDICTED BY IDOCK:   -6.62 KCAL/MOL
REMARK 923 INTER-LIGAND FREE ENERGY PREDICTED BY IDOCK:   -5.95 KCAL/MOL
REMARK 924 INTRA-LIGAND FREE ENERGY PREDICTED BY IDOCK:   -0.68 KCAL/MOL
REMARK 927      BINDING AFFINITY PREDICTED BY RF-SCORE:    0.00 PKD
ROOT
HETATM    1  C   UNL     1     -12.037  12.829  63.984  1.00  0.00    -0.533 C  
HETATM    2  C   UNL     1     -11.657  14.063  64.839  1.00  0.00    -0.369 C  
HETATM    3  C   UNL     1     -10.127  14.230  64.727  1.00  0.00    -0.168 C  
ENDROOT
BRANCH   2   4
HETATM    4  C   UNL     1     -12.097  13.834  66.317  1.00  0.00    -0.446 C  
HETATM    5  O   UNL     1     -12.246  12.443  66.633  1.00  0.00    -0.562 OA 
HETATM    6  H   UNL     1     -12.514  12.303  67.532  1.00  0.00     0.000 HD 
BRANCH   4   7
HETATM    7  C   UNL     1     -11.154  14.466  67.370  1.00  0.00    -0.308 C  
HETATM    8  O   UNL     1     -10.254  13.862  67.948  1.00  0.00    -0.232 OA 
HETATM    9  N   UNL     1     -11.371  15.813  67.583  1.00  0.00    -0.254 N  
HETATM   10  H   UNL     1     -12.102  16.297  67.061  1.00  0.00     0.000 HD 
BRANCH   9  11
HETATM   11  C   UNL     1     -10.571  16.545  68.542  1.00  0.00    -0.318 C  
BRANCH  11  12
HETATM   12  C   UNL     1      -9.658  17.588  67.905  1.00  0.00    -0.277 C  
BRANCH  12  13
HETATM   13  C   UNL     1     -10.374  18.571  66.989  1.00  0.00    -0.399 C  
HETATM   14  O   UNL     1     -10.544  17.980  65.702  1.00  0.00    -0.599 OA 
HETATM   15  H   UNL     1     -10.991  18.593  65.131  1.00  0.00     0.000 HD 
ENDBRANCH  12  13
ENDBRANCH  11  12
ENDBRANCH   9  11
ENDBRANCH   4   7
ENDBRANCH   2   4
BRANCH   2  16
HETATM   16  C   UNL     1     -12.404  15.290  64.251  1.00  0.00    -0.121 C  
HETATM   17  O   UNL     1     -11.508  16.228  63.668  1.00  0.00    -1.361 OA 
HETATM   18  H   UNL     1     -11.965  16.979  63.308  1.00  0.00     0.000 HD 
ENDBRANCH   2  16
TORSDOF 6
ENDMDL
MODEL       10
REMARK 921   NORMALIZED FREE ENERGY PREDICTED BY IDOCK:   -4.51 KCAL/MOL
REMARK 922        TOTAL FREE ENERGY PREDICTED BY IDOCK:   -6.62 KCAL/MOL
REMARK 923 INTER-LIGAND FREE ENERGY PREDICTED BY IDOCK:   -6.33 KCAL/MOL
REMARK 924 INTRA-LIGAND FREE ENERGY PREDICTED BY IDOCK:   -0.29 KCAL/MOL
REMARK 927      BINDING AFFINITY PREDICTED BY RF-SCORE:    0.00 PKD
ROOT
HETATM    1  C   UNL     1     -12.559  12.336  64.156  1.00  0.00    -0.493 C  
HETATM    2  C   UNL     1     -11.674  13.156  65.128  1.00  0.00    -0.367 C  
HETATM    3  C   UNL     1     -10.217  12.707  64.891  1.00  0.00    -0.295 C  
ENDROOT
BRANCH   2   4
HETATM    4  C   UNL     1     -12.120  12.887  66.598  1.00  0.00    -0.289 C  
HETATM    5  O   UNL     1     -11.918  11.522  66.989  1.00  0.00    -0.556 OA 
HETATM    6  H   UNL     1     -12.189  11.359  67.883  1.00  0.00     0.000 HD 
BRANCH   4   7
HETATM    7  C   UNL     1     -11.434  13.794  67.649  1.00  0.00    -0.323 C  
HETATM    8  O   UNL     1     -10.218  13.879  67.805  1.00  0.00    -0.232 OA 
HETATM    9  N   UNL     1     -12.312  14.562  68.388  1.00  0.00    -0.605 N  
HETATM   10  H   UNL     1     -13.314  14.498  68.210  1.00  0.00     0.000 HD 
BRANCH   9  11
HETATM   11  C   UNL     1     -11.821  15.459  69.414  1.00  0.00    -0.351 C  
BRANCH  11  12
HETATM   12  C   UNL     1     -12.725  15.535  70.640  1.00  0.00    -0.487 C  
BRANCH  12  13
HETATM   13  C   UNL     1     -12.559  14.377  71.615  1.00  0.00    -0.353 C  
HETATM   14  O   UNL     1     -12.009  13.256  70.927  1.00  0.00    -0.489 OA 
HETATM   15  H   UNL     1     -11.904  12.534  71.535  1.00  0.00     0.000 HD 
ENDBRANCH  12  13
ENDBRANCH  11  12
ENDBRANCH   9  11
ENDBRANCH   4   7
ENDBRANCH   2   4
BRANCH   2  16
HETATM   16  C   UNL     1     -11.867  14.657  64.786  1.00  0.00    -0.440 C  
HETATM   17  O   UNL     1     -12.444  14.838  63.497  1.00  0.00    -1.053 OA 
HETATM   18  H   UNL     1     -12.562  15.757  63.287  1.00  0.00     0.000 HD 
ENDBRANCH   2  16
TORSDOF 6
ENDMDL
MODEL       11
REMARK 921   NORMALIZED FREE ENERGY PREDICTED BY IDOCK:   -4.50 KCAL/MOL
REMARK 922        TOTAL FREE ENERGY PREDICTED BY IDOCK:   -6.60 KCAL/MOL
REMARK 923 INTER-LIGAND FREE ENERGY PREDICTED BY IDOCK:   -6.49 KCAL/MOL
REMARK 924 INTRA-LIGAND FREE ENERGY PREDICTED BY IDOCK:   -0.11 KCAL/MOL
REMARK 927      BINDING AFFINITY PREDICTED BY RF-SCORE:    0.00 PKD
ROOT
HETATM    1  C   UNL     1     -13.938  13.114  72.439  1.00  0.00    -0.497 C  
HETATM    2  C   UNL     1     -13.271  14.407  71.907  1.00  0.00    -0.444 C  
HETATM    3  C   UNL     1     -14.344  15.161  71.093  1.00  0.00    -0.406 C  
ENDROOT
BRANCH   2   4
HETATM    4  C   UNL     1     -12.042  14.037  71.022  1.00  0.00    -0.305 C  
HETATM    5  O   UNL     1     -12.100  12.687  70.544  1.00  0.00    -0.435 OA 
HETATM    6  H   UNL     1     -11.351  12.462  70.005  1.00  0.00     0.000 HD 
BRANCH   4   7
HETATM    7  C   UNL     1     -11.830  14.969  69.803  1.00  0.00    -0.321 C  
HETATM    8  O   UNL     1     -11.496  16.149  69.882  1.00  0.00    -0.324 OA 
HETATM    9  N   UNL     1     -12.001  14.347  68.582  1.00  0.00    -0.479 N  
HETATM   10  H   UNL     1     -12.242  13.357  68.548  1.00  0.00     0.000 HD 
BRANCH   9  11
HETATM   11  C   UNL     1     -11.841  15.090  67.349  1.00  0.00    -0.148 C  
BRANCH  11  12
HETATM   12  C   UNL     1     -11.867  14.212  66.102  1.00  0.00    -0.420 C  
BRANCH  12  13
HETATM   13  C   UNL     1     -11.554  14.952  64.809  1.00  0.00    -0.410 C  
HETATM   14  O   UNL     1     -12.576  14.681  63.851  1.00  0.00    -0.931 OA 
HETATM   15  H   UNL     1     -12.381  15.143  63.044  1.00  0.00     0.000 HD 
ENDBRANCH  12  13
ENDBRANCH  11  12
ENDBRANCH   9  11
ENDBRANCH   4   7
ENDBRANCH   2   4
BRANCH   2  16
HETATM   16  C   UNL     1     -12.806  15.235  73.134  1.00  0.00    -0.494 C  
HETATM   17  O   UNL     1     -13.756  16.233  73.492  1.00  0.00    -0.873 OA 
HETATM   18  H   UNL     1     -13.471  16.741  74.243  1.00  0.00     0.000 HD 
ENDBRANCH   2  16
TORSDOF 6
ENDMDL
MODEL       12
REMARK 921   NORMALIZED FREE ENERGY PREDICTED BY IDOCK:   -4.48 KCAL/MOL
REMARK 922        TOTAL FREE ENERGY PREDICTED BY IDOCK:   -6.58 KCAL/MOL
REMARK 923 INTER-LIGAND FREE ENERGY PREDICTED BY IDOCK:   -6.09 KCAL/MOL
REMARK 924 INTRA-LIGAND FREE ENERGY PREDICTED BY IDOCK:   -0.48 KCAL/MOL
REMARK 927      BINDING AFFINITY PREDICTED BY RF-SCORE:    0.00 PKD
ROOT
HETATM    1  C   UNL     1     -11.776   5.346  72.581  1.00  0.00    -0.214 C  
HETATM    2  C   UNL     1     -11.849   6.670  71.781  1.00  0.00    -0.380 C  
HETATM    3  C   UNL     1     -11.057   7.722  72.585  1.00  0.00    -0.433 C  
ENDROOT
BRANCH   2   4
HETATM    4  C   UNL     1     -13.339   7.094  71.603  1.00  0.00    -0.331 C  
HETATM    5  O   UNL     1     -14.225   6.338  72.440  1.00  0.00    -0.644 OA 
HETATM    6  H   UNL     1     -15.132   6.596  72.331  1.00  0.00     0.000 HD 
BRANCH   4   7
HETATM    7  C   UNL     1     -13.609   8.598  71.851  1.00  0.00    -0.410 C  
HETATM    8  O   UNL     1     -14.321   9.036  72.752  1.00  0.00    -0.596 OA 
HETATM    9  N   UNL     1     -12.932   9.441  70.992  1.00  0.00    -0.524 N  
HETATM   10  H   UNL     1     -12.319   9.049  70.278  1.00  0.00     0.000 HD 
BRANCH   9  11
HETATM   11  C   UNL     1     -13.086  10.877  71.097  1.00  0.00    -0.257 C  
BRANCH  11  12
HETATM   12  C   UNL     1     -11.918  11.659  70.506  1.00  0.00    -0.413 C  
BRANCH  12  13
HETATM   13  C   UNL     1     -11.898  11.703  68.984  1.00  0.00    -0.328 C  
HETATM   14  O   UNL     1     -11.934  10.372  68.473  1.00  0.00    -0.747 OA 
HETATM   15  H   UNL     1     -11.922  10.400  67.524  1.00  0.00     0.000 HD 
ENDBRANCH  12  13
ENDBRANCH  11  12
ENDBRANCH   9  11
ENDBRANCH   4   7
ENDBRANCH   2   4
BRANCH   2  16
HETATM   16  C   UNL     1     -11.204   6.416  70.392  1.00  0.00    -0.372 C  
HETATM   17  O   UNL     1     -11.265   7.569  69.560  1.00  0.00    -0.444 OA 
HETATM   18  H   UNL     1     -10.870   7.414  68.710  1.00  0.00     0.000 HD 
ENDBRANCH   2  16
TORSDOF 6
ENDMDL
MODEL       13
REMARK 921   NORMALIZED FREE ENERGY PREDICTED BY IDOCK:   -4.48 KCAL/MOL
REMARK 922        TOTAL FREE ENERGY PREDICTED BY IDOCK:   -6.58 KCAL/MOL
REMARK 923 INTER-LIGAND FREE ENERGY PREDICTED BY IDOCK:   -6.21 KCAL/MOL
REMARK 924 INTRA-LIGAND FREE ENERGY PREDICTED BY IDOCK:   -0.36 KCAL/MOL
REMARK 927      BINDING AFFINITY PREDICTED BY RF-SCORE:    0.00 PKD
ROOT
HETATM    1  C   UNL     1     -10.978  15.885  64.663  1.00  0.00    -0.323 C  
HETATM    2  C   UNL     1     -10.887  14.532  65.410  1.00  0.00    -0.362 C  
HETATM    3  C   UNL     1     -10.590  13.453  64.347  1.00  0.00    -0.423 C  
ENDROOT
BRANCH   2   4
HETATM    4  C   UNL     1     -12.232  14.248  66.148  1.00  0.00    -0.410 C  
HETATM    5  O   UNL     1     -13.250  13.767  65.260  1.00  0.00    -0.755 OA 
HETATM    6  H   UNL     1     -14.069  13.594  65.709  1.00  0.00     0.000 HD 
BRANCH   4   7
HETATM    7  C   UNL     1     -12.114  13.252  67.328  1.00  0.00    -0.289 C  
HETATM    8  O   UNL     1     -11.926  12.044  67.201  1.00  0.00    -0.601 OA 
HETATM    9  N   UNL     1     -12.190  13.844  68.573  1.00  0.00    -0.493 N  
HETATM   10  H   UNL     1     -12.310  14.854  68.647  1.00  0.00     0.000 HD 
BRANCH   9  11
HETATM   11  C   UNL     1     -12.101  13.042  69.776  1.00  0.00    -0.258 C  
BRANCH  11  12
HETATM   12  C   UNL     1     -12.366  13.829  71.055  1.00  0.00    -0.452 C  
BRANCH  12  13
HETATM   13  C   UNL     1     -12.437  15.338  70.859  1.00  0.00    -0.388 C  
HETATM   14  O   UNL     1     -13.718  15.687  70.338  1.00  0.00    -0.758 OA 
HETATM   15  H   UNL     1     -13.762  16.628  70.216  1.00  0.00     0.000 HD 
ENDBRANCH  12  13
ENDBRANCH  11  12
ENDBRANCH   9  11
ENDBRANCH   4   7
ENDBRANCH   2   4
BRANCH   2  16
HETATM   16  C   UNL     1      -9.734  14.642  66.443  1.00  0.00    -0.295 C  
HETATM   17  O   UNL     1      -8.676  15.469  65.970  1.00  0.00    -0.405 OA 
HETATM   18  H   UNL     1      -7.970  15.537  66.603  1.00  0.00     0.000 HD 
ENDBRANCH   2  16
TORSDOF 6
ENDMDL
MODEL       14
REMARK 921   NORMALIZED FREE ENERGY PREDICTED BY IDOCK:   -4.48 KCAL/MOL
REMARK 922        TOTAL FREE ENERGY PREDICTED BY IDOCK:   -6.57 KCAL/MOL
REMARK 923 INTER-LIGAND FREE ENERGY PREDICTED BY IDOCK:   -6.33 KCAL/MOL
REMARK 924 INTRA-LIGAND FREE ENERGY PREDICTED BY IDOCK:   -0.24 KCAL/MOL
REMARK 927      BINDING AFFINITY PREDICTED BY RF-SCORE:    0.00 PKD
ROOT
HETATM    1  C   UNL     1     -10.358  12.801  64.982  1.00  0.00    -0.323 C  
HETATM    2  C   UNL     1     -11.430  13.899  64.777  1.00  0.00    -0.368 C  
HETATM    3  C   UNL     1     -12.208  13.531  63.496  1.00  0.00    -0.410 C  
ENDROOT
BRANCH   2   4
HETATM    4  C   UNL     1     -10.738  15.290  64.641  1.00  0.00    -0.200 C  
HETATM    5  O   UNL     1     -11.556  16.242  63.949  1.00  0.00    -1.489 OA 
HETATM    6  H   UNL     1     -11.135  17.089  63.866  1.00  0.00     0.000 HD 
BRANCH   4   7
HETATM    7  C   UNL     1     -10.302  15.920  65.987  1.00  0.00    -0.348 C  
HETATM    8  O   UNL     1      -9.572  15.368  66.807  1.00  0.00    -0.224 OA 
HETATM    9  N   UNL     1     -10.767  17.205  66.183  1.00  0.00    -0.171 N  
HETATM   10  H   UNL     1     -11.341  17.651  65.468  1.00  0.00     0.000 HD 
BRANCH   9  11
HETATM   11  C   UNL     1     -10.447  17.926  67.398  1.00  0.00    -0.383 C  
BRANCH  11  12
HETATM   12  C   UNL     1     -10.615  19.436  67.273  1.00  0.00    -0.599 C  
BRANCH  12  13
HETATM   13  C   UNL     1     -10.509  19.963  65.848  1.00  0.00    -0.461 C  
HETATM   14  O   UNL     1      -9.134  20.093  65.494  1.00  0.00    -0.436 OA 
HETATM   15  H   UNL     1      -9.068  20.421  64.605  1.00  0.00     0.000 HD 
ENDBRANCH  12  13
ENDBRANCH  11  12
ENDBRANCH   9  11
ENDBRANCH   4   7
ENDBRANCH   2   4
BRANCH   2  16
HETATM   16  C   UNL     1     -12.356  13.892  66.023  1.00  0.00    -0.475 C  
HETATM   17  O   UNL     1     -12.051  12.817  66.904  1.00  0.00    -0.444 OA 
HETATM   18  H   UNL     1     -12.617  12.812  67.667  1.00  0.00     0.000 HD 
ENDBRANCH   2  16
TORSDOF 6
ENDMDL
MODEL       15
REMARK 921   NORMALIZED FREE ENERGY PREDICTED BY IDOCK:   -4.48 KCAL/MOL
REMARK 922        TOTAL FREE ENERGY PREDICTED BY IDOCK:   -6.57 KCAL/MOL
REMARK 923 INTER-LIGAND FREE ENERGY PREDICTED BY IDOCK:   -6.72 KCAL/MOL
REMARK 924 INTRA-LIGAND FREE ENERGY PREDICTED BY IDOCK:    0.15 KCAL/MOL
REMARK 927      BINDING AFFINITY PREDICTED BY RF-SCORE:    0.00 PKD
ROOT
HETATM    1  C   UNL     1      -9.721  12.704  66.337  1.00  0.00    -0.259 C  
HETATM    2  C   UNL     1     -10.995  13.535  66.626  1.00  0.00    -0.293 C  
HETATM    3  C   UNL     1     -10.669  14.997  66.253  1.00  0.00    -0.322 C  
ENDROOT
BRANCH   2   4
HETATM    4  C   UNL     1     -11.377  13.404  68.132  1.00  0.00    -0.287 C  
HETATM    5  O   UNL     1     -12.510  14.212  68.480  1.00  0.00    -0.533 OA 
HETATM    6  H   UNL     1     -12.743  14.133  69.397  1.00  0.00     0.000 HD 
BRANCH   4   7
HETATM    7  C   UNL     1     -11.661  11.954  68.595  1.00  0.00    -0.310 C  
HETATM    8  O   UNL     1     -12.070  11.058  67.860  1.00  0.00    -0.600 OA 
HETATM    9  N   UNL     1     -11.366  11.720  69.924  1.00  0.00    -0.491 N  
HETATM   10  H   UNL     1     -10.993  12.474  70.500  1.00  0.00     0.000 HD 
BRANCH   9  11
HETATM   11  C   UNL     1     -11.583  10.411  70.506  1.00  0.00    -0.344 C  
BRANCH  11  12
HETATM   12  C   UNL     1     -12.669  10.392  71.575  1.00  0.00    -0.564 C  
BRANCH  12  13
HETATM   13  C   UNL     1     -12.969   9.011  72.141  1.00  0.00    -0.424 C  
HETATM   14  O   UNL     1     -14.132   9.078  72.963  1.00  0.00    -1.086 OA 
HETATM   15  H   UNL     1     -14.319   8.216  73.315  1.00  0.00     0.000 HD 
ENDBRANCH  12  13
ENDBRANCH  11  12
ENDBRANCH   9  11
ENDBRANCH   4   7
ENDBRANCH   2   4
BRANCH   2  16
HETATM   16  C   UNL     1     -12.138  12.967  65.742  1.00  0.00    -0.457 C  
HETATM   17  O   UNL     1     -13.111  13.957  65.431  1.00  0.00    -0.752 OA 
HETATM   18  H   UNL     1     -13.811  13.609  64.890  1.00  0.00     0.000 HD 
ENDBRANCH   2  16
TORSDOF 6
ENDMDL
MODEL       16
REMARK 921   NORMALIZED FREE ENERGY PREDICTED BY IDOCK:   -4.47 KCAL/MOL
REMARK 922        TOTAL FREE ENERGY PREDICTED BY IDOCK:   -6.56 KCAL/MOL
REMARK 923 INTER-LIGAND FREE ENERGY PREDICTED BY IDOCK:   -5.90 KCAL/MOL
REMARK 924 INTRA-LIGAND FREE ENERGY PREDICTED BY IDOCK:   -0.66 KCAL/MOL
REMARK 927      BINDING AFFINITY PREDICTED BY RF-SCORE:    0.00 PKD
ROOT
HETATM    1  C   UNL     1     -11.783  14.450  67.544  1.00  0.00    -0.416 C  
HETATM    2  C   UNL     1     -11.567  13.561  66.293  1.00  0.00    -0.374 C  
HETATM    3  C   UNL     1     -11.505  12.101  66.788  1.00  0.00    -0.418 C  
ENDROOT
BRANCH   2   4
HETATM    4  C   UNL     1     -10.245  13.975  65.577  1.00  0.00    -0.343 C  
HETATM    5  O   UNL     1     -10.302  13.758  64.161  1.00  0.00    -0.639 OA 
HETATM    6  H   UNL     1      -9.497  14.010  63.724  1.00  0.00     0.000 HD 
BRANCH   4   7
HETATM    7  C   UNL     1      -9.820  15.443  65.821  1.00  0.00    -0.364 C  
HETATM    8  O   UNL     1     -10.345  16.417  65.285  1.00  0.00    -0.581 OA 
HETATM    9  N   UNL     1      -8.809  15.589  66.751  1.00  0.00    -0.242 N  
HETATM   10  H   UNL     1      -8.418  14.765  67.207  1.00  0.00     0.000 HD 
BRANCH   9  11
HETATM   11  C   UNL     1      -8.299  16.903  67.083  1.00  0.00    -0.193 C  
BRANCH  11  12
HETATM   12  C   UNL     1      -8.909  17.490  68.352  1.00  0.00    -0.276 C  
BRANCH  12  13
HETATM   13  C   UNL     1      -9.693  18.777  68.133  1.00  0.00    -0.341 C  
HETATM   14  O   UNL     1     -10.873  18.491  67.386  1.00  0.00    -0.421 OA 
HETATM   15  H   UNL     1     -11.362  19.293  67.250  1.00  0.00     0.000 HD 
ENDBRANCH  12  13
ENDBRANCH  11  12
ENDBRANCH   9  11
ENDBRANCH   4   7
ENDBRANCH   2   4
BRANCH   2  16
HETATM   16  C   UNL     1     -12.774  13.786  65.343  1.00  0.00    -0.472 C  
HETATM   17  O   UNL     1     -13.112  12.604  64.626  1.00  0.00    -0.821 OA 
HETATM   18  H   UNL     1     -13.850  12.742  64.044  1.00  0.00     0.000 HD 
ENDBRANCH   2  16
TORSDOF 6
ENDMDL
MODEL       17
REMARK 921   NORMALIZED FREE ENERGY PREDICTED BY IDOCK:   -4.47 KCAL/MOL
REMARK 922        TOTAL FREE ENERGY PREDICTED BY IDOCK:   -6.56 KCAL/MOL
REMARK 923 INTER-LIGAND FREE ENERGY PREDICTED BY IDOCK:   -5.96 KCAL/MOL
REMARK 924 INTRA-LIGAND FREE ENERGY PREDICTED BY IDOCK:   -0.60 KCAL/MOL
REMARK 927      BINDING AFFINITY PREDICTED BY RF-SCORE:    0.00 PKD
ROOT
HETATM    1  C   UNL     1     -11.015  16.551  67.935  1.00  0.00    -0.288 C  
HETATM    2  C   UNL     1      -9.743  17.110  67.251  1.00  0.00    -0.254 C  
HETATM    3  C   UNL     1     -10.027  18.591  66.921  1.00  0.00    -0.370 C  
ENDROOT
BRANCH   2   4
HETATM    4  C   UNL     1      -9.436  16.289  65.961  1.00  0.00    -0.334 C  
HETATM    5  O   UNL     1      -8.767  15.054  66.248  1.00  0.00    -0.453 OA 
HETATM    6  H   UNL     1      -8.580  14.554  65.463  1.00  0.00     0.000 HD 
BRANCH   4   7
HETATM    7  C   UNL     1     -10.680  15.973  65.096  1.00  0.00    -0.409 C  
HETATM    8  O   UNL     1     -11.243  16.785  64.366  1.00  0.00    -1.112 OA 
HETATM    9  N   UNL     1     -11.096  14.658  65.167  1.00  0.00    -0.355 N  
HETATM   10  H   UNL     1     -10.586  13.997  65.753  1.00  0.00     0.000 HD 
BRANCH   9  11
HETATM   11  C   UNL     1     -12.250  14.209  64.416  1.00  0.00    -0.439 C  
BRANCH  11  12
HETATM   12  C   UNL     1     -11.944  13.066  63.453  1.00  0.00    -0.592 C  
BRANCH  12  13
HETATM   13  C   UNL     1     -10.819  12.147  63.908  1.00  0.00    -0.406 C  
HETATM   14  O   UNL     1      -9.607  12.528  63.261  1.00  0.00    -0.554 OA 
HETATM   15  H   UNL     1      -8.905  11.955  63.545  1.00  0.00     0.000 HD 
ENDBRANCH  12  13
ENDBRANCH  11  12
ENDBRANCH   9  11
ENDBRANCH   4   7
ENDBRANCH   2   4
BRANCH   2  16
HETATM   16  C   UNL     1      -8.569  16.970  68.257  1.00  0.00    -0.234 C  
HETATM   17  O   UNL     1      -7.307  17.179  67.632  1.00  0.00    -0.159 OA 
HETATM   18  H   UNL     1      -6.588  17.093  68.247  1.00  0.00     0.000 HD 
ENDBRANCH   2  16
TORSDOF 6
ENDMDL
MODEL       18
REMARK 921   NORMALIZED FREE ENERGY PREDICTED BY IDOCK:   -4.46 KCAL/MOL
REMARK 922        TOTAL FREE ENERGY PREDICTED BY IDOCK:   -6.55 KCAL/MOL
REMARK 923 INTER-LIGAND FREE ENERGY PREDICTED BY IDOCK:   -5.62 KCAL/MOL
REMARK 924 INTRA-LIGAND FREE ENERGY PREDICTED BY IDOCK:   -0.93 KCAL/MOL
REMARK 927      BINDING AFFINITY PREDICTED BY RF-SCORE:    0.00 PKD
ROOT
HETATM    1  C   UNL     1     -10.497  11.789  64.688  1.00  0.00    -0.347 C  
HETATM    2  C   UNL     1     -11.359  13.071  64.581  1.00  0.00    -0.361 C  
HETATM    3  C   UNL     1     -12.060  13.025  63.206  1.00  0.00    -0.499 C  
ENDROOT
BRANCH   2   4
HETATM    4  C   UNL     1     -10.448  14.330  64.712  1.00  0.00    -0.395 C  
HETATM    5  O   UNL     1     -11.038  15.495  64.122  1.00  0.00    -0.681 OA 
HETATM    6  H   UNL     1     -10.484  16.261  64.201  1.00  0.00     0.000 HD 
BRANCH   4   7
HETATM    7  C   UNL     1     -10.047  14.678  66.166  1.00  0.00    -0.300 C  
HETATM    8  O   UNL     1      -9.068  14.215  66.747  1.00  0.00    -0.254 OA 
HETATM    9  N   UNL     1     -10.867  15.613  66.767  1.00  0.00    -0.307 N  
HETATM   10  H   UNL     1     -11.651  16.007  66.247  1.00  0.00     0.000 HD 
BRANCH   9  11
HETATM   11  C   UNL     1     -10.624  16.038  68.130  1.00  0.00    -0.286 C  
BRANCH  11  12
HETATM   12  C   UNL     1     -11.787  15.752  69.075  1.00  0.00    -0.367 C  
BRANCH  12  13
HETATM   13  C   UNL     1     -12.089  14.273  69.266  1.00  0.00    -0.313 C  
HETATM   14  O   UNL     1     -10.870  13.534  69.242  1.00  0.00    -0.401 OA 
HETATM   15  H   UNL     1     -11.059  12.611  69.362  1.00  0.00     0.000 HD 
ENDBRANCH  12  13
ENDBRANCH  11  12
ENDBRANCH   9  11
ENDBRANCH   4   7
ENDBRANCH   2   4
BRANCH   2  16
HETATM   16  C   UNL     1     -12.388  13.043  65.742  1.00  0.00    -0.416 C  
HETATM   17  O   UNL     1     -13.341  14.094  65.632  1.00  0.00    -0.697 OA 
HETATM   18  H   UNL     1     -13.972  14.078  66.343  1.00  0.00     0.000 HD 
ENDBRANCH   2  16
TORSDOF 6
ENDMDL
MODEL       19
REMARK 921   NORMALIZED FREE ENERGY PREDICTED BY IDOCK:   -4.45 KCAL/MOL
REMARK 922        TOTAL FREE ENERGY PREDICTED BY IDOCK:   -6.53 KCAL/MOL
REMARK 923 INTER-LIGAND FREE ENERGY PREDICTED BY IDOCK:   -6.05 KCAL/MOL
REMARK 924 INTRA-LIGAND FREE ENERGY PREDICTED BY IDOCK:   -0.48 KCAL/MOL
REMARK 927      BINDING AFFINITY PREDICTED BY RF-SCORE:    0.00 PKD
ROOT
HETATM    1  C   UNL     1     -12.440  11.913  63.571  1.00  0.00    -0.609 C  
HETATM    2  C   UNL     1     -11.770  12.892  64.567  1.00  0.00    -0.416 C  
HETATM    3  C   UNL     1     -11.860  12.240  65.962  1.00  0.00    -0.409 C  
ENDROOT
BRANCH   2   4
HETATM    4  C   UNL     1     -12.511  14.264  64.533  1.00  0.00    -0.333 C  
HETATM    5  O   UNL     1     -13.578  14.332  65.488  1.00  0.00    -0.650 OA 
HETATM    6  H   UNL     1     -14.029  15.167  65.467  1.00  0.00     0.000 HD 
BRANCH   4   7
HETATM    7  C   UNL     1     -11.592  15.491  64.752  1.00  0.00    -0.256 C  
HETATM    8  O   UNL     1     -11.434  16.396  63.935  1.00  0.00    -1.063 OA 
HETATM    9  N   UNL     1     -10.979  15.521  65.989  1.00  0.00    -0.292 N  
HETATM   10  H   UNL     1     -11.157  14.775  66.660  1.00  0.00     0.000 HD 
BRANCH   9  11
HETATM   11  C   UNL     1     -10.084  16.604  66.341  1.00  0.00    -0.315 C  
BRANCH  11  12
HETATM   12  C   UNL     1      -8.609  16.220  66.285  1.00  0.00    -0.374 C  
BRANCH  12  13
HETATM   13  C   UNL     1      -8.178  15.233  67.362  1.00  0.00    -0.184 C  
HETATM   14  O   UNL     1      -8.372  13.902  66.888  1.00  0.00    -0.378 OA 
HETATM   15  H   UNL     1      -8.103  13.287  67.560  1.00  0.00     0.000 HD 
ENDBRANCH  12  13
ENDBRANCH  11  12
ENDBRANCH   9  11
ENDBRANCH   4   7
ENDBRANCH   2   4
BRANCH   2  16
HETATM   16  C   UNL     1     -10.295  13.079  64.123  1.00  0.00    -0.321 C  
HETATM   17  O   UNL     1      -9.424  12.162  64.775  1.00  0.00    -0.449 OA 
HETATM   18  H   UNL     1      -8.520  12.276  64.504  1.00  0.00     0.000 HD 
ENDBRANCH   2  16
TORSDOF 6
ENDMDL
MODEL       20
REMARK 921   NORMALIZED FREE ENERGY PREDICTED BY IDOCK:   -4.44 KCAL/MOL
REMARK 922        TOTAL FREE ENERGY PREDICTED BY IDOCK:   -6.52 KCAL/MOL
REMARK 923 INTER-LIGAND FREE ENERGY PREDICTED BY IDOCK:   -6.46 KCAL/MOL
REMARK 924 INTRA-LIGAND FREE ENERGY PREDICTED BY IDOCK:   -0.06 KCAL/MOL
REMARK 927      BINDING AFFINITY PREDICTED BY RF-SCORE:    0.00 PKD
ROOT
HETATM    1  C   UNL     1     -12.614  11.994  63.464  1.00  0.00    -0.625 C  
HETATM    2  C   UNL     1     -11.271  12.338  64.156  1.00  0.00    -0.430 C  
HETATM    3  C   UNL     1     -11.269  11.610  65.516  1.00  0.00    -0.267 C  
ENDROOT
BRANCH   2   4
HETATM    4  C   UNL     1     -11.156  13.883  64.338  1.00  0.00    -0.319 C  
HETATM    5  O   UNL     1     -12.342  14.572  63.921  1.00  0.00    -0.936 OA 
HETATM    6  H   UNL     1     -12.272  15.512  64.031  1.00  0.00     0.000 HD 
BRANCH   4   7
HETATM    7  C   UNL     1     -10.823  14.332  65.782  1.00  0.00    -0.303 C  
HETATM    8  O   UNL     1      -9.692  14.599  66.183  1.00  0.00    -0.290 OA 
HETATM    9  N   UNL     1     -11.928  14.460  66.600  1.00  0.00    -0.410 N  
HETATM   10  H   UNL     1     -12.858  14.267  66.229  1.00  0.00     0.000 HD 
BRANCH   9  11
HETATM   11  C   UNL     1     -11.778  14.868  67.982  1.00  0.00    -0.320 C  
BRANCH  11  12
HETATM   12  C   UNL     1     -11.901  13.716  68.974  1.00  0.00    -0.393 C  
BRANCH  12  13
HETATM   13  C   UNL     1     -12.350  14.135  70.367  1.00  0.00    -0.359 C  
HETATM   14  O   UNL     1     -13.398  15.095  70.257  1.00  0.00    -0.655 OA 
HETATM   15  H   UNL     1     -13.679  15.356  71.127  1.00  0.00     0.000 HD 
ENDBRANCH  12  13
ENDBRANCH  11  12
ENDBRANCH   9  11
ENDBRANCH   4   7
ENDBRANCH   2   4
BRANCH   2  16
HETATM   16  C   UNL     1     -10.127  11.830  63.239  1.00  0.00    -0.420 C  
HETATM   17  O   UNL     1     -10.465  10.605  62.598  1.00  0.00    -0.730 OA 
HETATM   18  H   UNL     1      -9.764  10.294  62.036  1.00  0.00     0.000 HD 
ENDBRANCH   2  16
TORSDOF 6
ENDMDL
MODEL       21
REMARK 921   NORMALIZED FREE ENERGY PREDICTED BY IDOCK:   -4.42 KCAL/MOL
REMARK 922        TOTAL FREE ENERGY PREDICTED BY IDOCK:   -6.49 KCAL/MOL
REMARK 923 INTER-LIGAND FREE ENERGY PREDICTED BY IDOCK:   -5.95 KCAL/MOL
REMARK 924 INTRA-LIGAND FREE ENERGY PREDICTED BY IDOCK:   -0.54 KCAL/MOL
REMARK 927      BINDING AFFINITY PREDICTED BY RF-SCORE:    0.00 PKD
ROOT
HETATM    1  C   UNL     1     -10.656  18.295  66.517  1.00  0.00    -0.313 C  
HETATM    2  C   UNL     1      -9.609  17.413  67.241  1.00  0.00    -0.258 C  
HETATM    3  C   UNL     1      -8.323  18.257  67.367  1.00  0.00    -0.245 C  
ENDROOT
BRANCH   2   4
HETATM    4  C   UNL     1      -9.357  16.113  66.417  1.00  0.00    -0.298 C  
HETATM    5  O   UNL     1      -8.904  15.027  67.236  1.00  0.00    -0.179 OA 
HETATM    6  H   UNL     1      -8.750  14.236  66.734  1.00  0.00     0.000 HD 
BRANCH   4   7
HETATM    7  C   UNL     1     -10.583  15.624  65.607  1.00  0.00    -0.378 C  
HETATM    8  O   UNL     1     -10.888  16.040  64.491  1.00  0.00    -0.588 OA 
HETATM    9  N   UNL     1     -11.303  14.622  66.225  1.00  0.00    -0.345 N  
HETATM   10  H   UNL     1     -11.004  14.270  67.135  1.00  0.00     0.000 HD 
BRANCH   9  11
HETATM   11  C   UNL     1     -12.480  14.064  65.593  1.00  0.00    -0.504 C  
BRANCH  11  12
HETATM   12  C   UNL     1     -12.268  12.658  65.040  1.00  0.00    -0.535 C  
BRANCH  12  13
HETATM   13  C   UNL     1     -12.301  12.570  63.521  1.00  0.00    -0.525 C  
HETATM   14  O   UNL     1     -12.513  13.871  62.977  1.00  0.00    -1.099 OA 
HETATM   15  H   UNL     1     -12.534  13.816  62.029  1.00  0.00     0.000 HD 
ENDBRANCH  12  13
ENDBRANCH  11  12
ENDBRANCH   9  11
ENDBRANCH   4   7
ENDBRANCH   2   4
BRANCH   2  16
HETATM   16  C   UNL     1     -10.185  17.048  68.635  1.00  0.00    -0.321 C  
HETATM   17  O   UNL     1     -11.355  16.244  68.532  1.00  0.00    -0.367 OA 
HETATM   18  H   UNL     1     -11.708  16.021  69.386  1.00  0.00     0.000 HD 
ENDBRANCH   2  16
TORSDOF 6
ENDMDL
MODEL       22
REMARK 921   NORMALIZED FREE ENERGY PREDICTED BY IDOCK:   -4.40 KCAL/MOL
REMARK 922        TOTAL FREE ENERGY PREDICTED BY IDOCK:   -6.47 KCAL/MOL
REMARK 923 INTER-LIGAND FREE ENERGY PREDICTED BY IDOCK:   -6.07 KCAL/MOL
REMARK 924 INTRA-LIGAND FREE ENERGY PREDICTED BY IDOCK:   -0.39 KCAL/MOL
REMARK 927      BINDING AFFINITY PREDICTED BY RF-SCORE:    0.00 PKD
ROOT
HETATM    1  C   UNL     1     -11.413  11.732  66.002  1.00  0.00    -0.281 C  
HETATM    2  C   UNL     1     -11.640  12.690  64.806  1.00  0.00    -0.377 C  
HETATM    3  C   UNL     1     -10.290  12.811  64.069  1.00  0.00    -0.392 C  
ENDROOT
BRANCH   2   4
HETATM    4  C   UNL     1     -12.129  14.076  65.328  1.00  0.00    -0.408 C  
HETATM    5  O   UNL     1     -13.545  14.106  65.552  1.00  0.00    -0.685 OA 
HETATM    6  H   UNL     1     -13.842  14.950  65.870  1.00  0.00     0.000 HD 
BRANCH   4   7
HETATM    7  C   UNL     1     -11.428  14.553  66.624  1.00  0.00    -0.366 C  
HETATM    8  O   UNL     1     -10.261  14.935  66.682  1.00  0.00    -0.252 OA 
HETATM    9  N   UNL     1     -12.247  14.565  67.735  1.00  0.00    -0.623 N  
HETATM   10  H   UNL     1     -13.221  14.278  67.649  1.00  0.00     0.000 HD 
BRANCH   9  11
HETATM   11  C   UNL     1     -11.733  14.982  69.024  1.00  0.00    -0.325 C  
BRANCH  11  12
HETATM   12  C   UNL     1     -12.640  14.609  70.192  1.00  0.00    -0.333 C  
BRANCH  12  13
HETATM   13  C   UNL     1     -12.405  13.210  70.745  1.00  0.00    -0.321 C  
HETATM   14  O   UNL     1     -11.414  12.551  69.959  1.00  0.00    -0.508 OA 
HETATM   15  H   UNL     1     -11.268  11.679  70.304  1.00  0.00     0.000 HD 
ENDBRANCH  12  13
ENDBRANCH  11  12
ENDBRANCH   9  11
ENDBRANCH   4   7
ENDBRANCH   2   4
BRANCH   2  16
HETATM   16  C   UNL     1     -12.727  12.057  63.897  1.00  0.00    -0.354 C  
HETATM   17  O   UNL     1     -12.162  11.442  62.744  1.00  0.00    -0.847 OA 
HETATM   18  H   UNL     1     -12.828  11.055  62.187  1.00  0.00     0.000 HD 
ENDBRANCH   2  16
TORSDOF 6
ENDMDL
MODEL       23
REMARK 921   NORMALIZED FREE ENERGY PREDICTED BY IDOCK:   -4.34 KCAL/MOL
REMARK 922        TOTAL FREE ENERGY PREDICTED BY IDOCK:   -6.39 KCAL/MOL
REMARK 923 INTER-LIGAND FREE ENERGY PREDICTED BY IDOCK:   -6.08 KCAL/MOL
REMARK 924 INTRA-LIGAND FREE ENERGY PREDICTED BY IDOCK:   -0.31 KCAL/MOL
REMARK 927      BINDING AFFINITY PREDICTED BY RF-SCORE:    0.00 PKD
ROOT
HETATM    1  C   UNL     1      -9.717  13.464  66.296  1.00  0.00    -0.280 C  
HETATM    2  C   UNL     1     -10.683  14.645  66.562  1.00  0.00    -0.312 C  
HETATM    3  C   UNL     1      -9.965  15.598  67.540  1.00  0.00    -0.231 C  
ENDROOT
BRANCH   2   4
HETATM    4  C   UNL     1     -12.016  14.106  67.169  1.00  0.00    -0.426 C  
HETATM    5  O   UNL     1     -12.531  12.983  66.443  1.00  0.00    -0.401 OA 
HETATM    6  H   UNL     1     -13.342  12.655  66.812  1.00  0.00     0.000 HD 
BRANCH   4   7
HETATM    7  C   UNL     1     -11.921  13.710  68.663  1.00  0.00    -0.360 C  
HETATM    8  O   UNL     1     -11.297  12.740  69.086  1.00  0.00    -0.267 OA 
HETATM    9  N   UNL     1     -12.570  14.579  69.518  1.00  0.00    -0.560 N  
HETATM   10  H   UNL     1     -13.049  15.397  69.141  1.00  0.00     0.000 HD 
BRANCH   9  11
HETATM   11  C   UNL     1     -12.575  14.339  70.946  1.00  0.00    -0.356 C  
BRANCH  11  12
HETATM   12  C   UNL     1     -12.318  15.593  71.776  1.00  0.00    -0.498 C  
BRANCH  12  13
HETATM   13  C   UNL     1     -12.675  15.455  73.249  1.00  0.00    -0.508 C  
HETATM   14  O   UNL     1     -13.774  16.311  73.551  1.00  0.00    -0.873 OA 
HETATM   15  H   UNL     1     -13.997  16.224  74.470  1.00  0.00     0.000 HD 
ENDBRANCH  12  13
ENDBRANCH  11  12
ENDBRANCH   9  11
ENDBRANCH   4   7
ENDBRANCH   2   4
BRANCH   2  16
HETATM   16  C   UNL     1     -10.967  15.336  65.202  1.00  0.00    -0.416 C  
HETATM   17  O   UNL     1     -11.145  14.391  64.153  1.00  0.00    -0.589 OA 
HETATM   18  H   UNL     1     -11.319  14.814  63.320  1.00  0.00     0.000 HD 
ENDBRANCH   2  16
TORSDOF 6
ENDMDL
MODEL       24
REMARK 921   NORMALIZED FREE ENERGY PREDICTED BY IDOCK:   -4.33 KCAL/MOL
REMARK 922        TOTAL FREE ENERGY PREDICTED BY IDOCK:   -6.37 KCAL/MOL
REMARK 923 INTER-LIGAND FREE ENERGY PREDICTED BY IDOCK:   -5.98 KCAL/MOL
REMARK 924 INTRA-LIGAND FREE ENERGY PREDICTED BY IDOCK:   -0.39 KCAL/MOL
REMARK 927      BINDING AFFINITY PREDICTED BY RF-SCORE:    0.00 PKD
ROOT
HETATM    1  C   UNL     1     -12.623  14.138  65.805  1.00  0.00    -0.475 C  
HETATM    2  C   UNL     1     -11.291  13.950  65.037  1.00  0.00    -0.336 C  
HETATM    3  C   UNL     1     -10.361  13.125  65.952  1.00  0.00    -0.295 C  
ENDROOT
BRANCH   2   4
HETATM    4  C   UNL     1     -10.674  15.344  64.707  1.00  0.00    -0.314 C  
HETATM    5  O   UNL     1     -11.539  16.144  63.891  1.00  0.00    -1.369 OA 
HETATM    6  H   UNL     1     -11.163  16.993  63.690  1.00  0.00     0.000 HD 
BRANCH   4   7
HETATM    7  C   UNL     1     -10.280  16.178  65.951  1.00  0.00    -0.360 C  
HETATM    8  O   UNL     1     -10.875  17.185  66.328  1.00  0.00    -0.134 OA 
HETATM    9  N   UNL     1      -9.209  15.666  66.656  1.00  0.00    -0.244 N  
HETATM   10  H   UNL     1      -8.759  14.807  66.340  1.00  0.00     0.000 HD 
BRANCH   9  11
HETATM   11  C   UNL     1      -8.720  16.338  67.842  1.00  0.00    -0.175 C  
BRANCH  11  12
HETATM   12  C   UNL     1      -8.890  15.522  69.119  1.00  0.00    -0.253 C  
BRANCH  12  13
HETATM   13  C   UNL     1     -10.338  15.230  69.488  1.00  0.00    -0.262 C  
HETATM   14  O   UNL     1     -11.129  16.393  69.251  1.00  0.00    -0.311 OA 
HETATM   15  H   UNL     1     -12.033  16.211  69.481  1.00  0.00     0.000 HD 
ENDBRANCH  12  13
ENDBRANCH  11  12
ENDBRANCH   9  11
ENDBRANCH   4   7
ENDBRANCH   2   4
BRANCH   2  16
HETATM   16  C   UNL     1     -11.610  13.191  63.722  1.00  0.00    -0.425 C  
HETATM   17  O   UNL     1     -12.617  13.849  62.961  1.00  0.00    -1.030 OA 
HETATM   18  H   UNL     1     -12.813  13.385  62.155  1.00  0.00     0.000 HD 
ENDBRANCH   2  16
TORSDOF 6
ENDMDL
MODEL       25
REMARK 921   NORMALIZED FREE ENERGY PREDICTED BY IDOCK:   -4.32 KCAL/MOL
REMARK 922        TOTAL FREE ENERGY PREDICTED BY IDOCK:   -6.36 KCAL/MOL
REMARK 923 INTER-LIGAND FREE ENERGY PREDICTED BY IDOCK:   -6.08 KCAL/MOL
REMARK 924 INTRA-LIGAND FREE ENERGY PREDICTED BY IDOCK:   -0.28 KCAL/MOL
REMARK 927      BINDING AFFINITY PREDICTED BY RF-SCORE:    0.00 PKD
ROOT
HETATM    1  C   UNL     1     -10.263  14.597  65.117  1.00  0.00    -0.414 C  
HETATM    2  C   UNL     1     -11.781  14.307  65.019  1.00  0.00    -0.383 C  
HETATM    3  C   UNL     1     -12.266  13.973  66.445  1.00  0.00    -0.492 C  
ENDROOT
BRANCH   2   4
HETATM    4  C   UNL     1     -12.027  13.117  64.041  1.00  0.00    -0.460 C  
HETATM    5  O   UNL     1     -12.378  13.558  62.723  1.00  0.00    -0.855 OA 
HETATM    6  H   UNL     1     -12.527  12.834  62.127  1.00  0.00     0.000 HD 
BRANCH   4   7
HETATM    7  C   UNL     1     -10.835  12.136  63.919  1.00  0.00    -0.406 C  
HETATM    8  O   UNL     1      -9.917  12.256  63.111  1.00  0.00    -0.389 OA 
HETATM    9  N   UNL     1     -10.853  11.111  64.843  1.00  0.00    -0.240 N  
HETATM   10  H   UNL     1     -11.609  11.058  65.526  1.00  0.00     0.000 HD 
BRANCH   9  11
HETATM   11  C   UNL     1      -9.807  10.109  64.852  1.00  0.00    -0.319 C  
BRANCH  11  12
HETATM   12  C   UNL     1      -9.614   9.442  66.210  1.00  0.00    -0.297 C  
BRANCH  12  13
HETATM   13  C   UNL     1      -9.984  10.319  67.398  1.00  0.00    -0.189 C  
HETATM   14  O   UNL     1      -9.615  11.669  67.122  1.00  0.00    -0.174 OA 
HETATM   15  H   UNL     1      -9.846  12.216  67.863  1.00  0.00     0.000 HD 
ENDBRANCH  12  13
ENDBRANCH  11  12
ENDBRANCH   9  11
ENDBRANCH   4   7
ENDBRANCH   2   4
BRANCH   2  16
HETATM   16  C   UNL     1     -12.469  15.587  64.473  1.00  0.00     0.146 C  
HETATM   17  O   UNL     1     -11.547  16.442  63.806  1.00  0.00    -1.605 OA 
HETATM   18  H   UNL     1     -11.968  17.226  63.472  1.00  0.00     0.000 HD 
ENDBRANCH   2  16
TORSDOF 6
ENDMDL
MODEL       26
REMARK 921   NORMALIZED FREE ENERGY PREDICTED BY IDOCK:   -4.32 KCAL/MOL
REMARK 922        TOTAL FREE ENERGY PREDICTED BY IDOCK:   -6.36 KCAL/MOL
REMARK 923 INTER-LIGAND FREE ENERGY PREDICTED BY IDOCK:   -5.99 KCAL/MOL
REMARK 924 INTRA-LIGAND FREE ENERGY PREDICTED BY IDOCK:   -0.37 KCAL/MOL
REMARK 927      BINDING AFFINITY PREDICTED BY RF-SCORE:    0.00 PKD
ROOT
HETATM    1  C   UNL     1     -11.519  11.831  66.957  1.00  0.00    -0.368 C  
HETATM    2  C   UNL     1     -10.911  12.956  66.083  1.00  0.00    -0.304 C  
HETATM    3  C   UNL     1      -9.438  13.111  66.516  1.00  0.00    -0.246 C  
ENDROOT
BRANCH   2   4
HETATM    4  C   UNL     1     -11.709  14.279  66.300  1.00  0.00    -0.393 C  
HETATM    5  O   UNL     1     -12.318  14.342  67.596  1.00  0.00    -0.619 OA 
HETATM    6  H   UNL     1     -12.804  15.147  67.728  1.00  0.00     0.000 HD 
BRANCH   4   7
HETATM    7  C   UNL     1     -10.876  15.567  66.097  1.00  0.00    -0.295 C  
HETATM    8  O   UNL     1     -10.557  16.023  65.000  1.00  0.00    -0.551 OA 
HETATM    9  N   UNL     1     -10.546  16.216  67.271  1.00  0.00    -0.311 N  
HETATM   10  H   UNL     1     -10.856  15.833  68.164  1.00  0.00     0.000 HD 
BRANCH   9  11
HETATM   11  C   UNL     1      -9.764  17.434  67.244  1.00  0.00    -0.267 C  
BRANCH  11  12
HETATM   12  C   UNL     1     -10.589  18.694  67.484  1.00  0.00    -0.472 C  
BRANCH  12  13
HETATM   13  C   UNL     1     -10.320  19.818  66.493  1.00  0.00    -0.506 C  
HETATM   14  O   UNL     1      -9.855  20.967  67.197  1.00  0.00    -0.602 OA 
HETATM   15  H   UNL     1      -9.686  21.668  66.579  1.00  0.00     0.000 HD 
ENDBRANCH  12  13
ENDBRANCH  11  12
ENDBRANCH   9  11
ENDBRANCH   4   7
ENDBRANCH   2   4
BRANCH   2  16
HETATM   16  C   UNL     1     -11.023  12.511  64.600  1.00  0.00    -0.310 C  
HETATM   17  O   UNL     1      -9.984  13.066  63.801  1.00  0.00    -0.744 OA 
HETATM   18  H   UNL     1     -10.052  12.794  62.893  1.00  0.00     0.000 HD 
ENDBRANCH   2  16
TORSDOF 6
ENDMDL
MODEL       27
REMARK 921   NORMALIZED FREE ENERGY PREDICTED BY IDOCK:   -4.31 KCAL/MOL
REMARK 922        TOTAL FREE ENERGY PREDICTED BY IDOCK:   -6.34 KCAL/MOL
REMARK 923 INTER-LIGAND FREE ENERGY PREDICTED BY IDOCK:   -5.80 KCAL/MOL
REMARK 924 INTRA-LIGAND FREE ENERGY PREDICTED BY IDOCK:   -0.54 KCAL/MOL
REMARK 927      BINDING AFFINITY PREDICTED BY RF-SCORE:    0.00 PKD
ROOT
HETATM    1  C   UNL     1     -12.712  12.038  63.564  1.00  0.00    -0.567 C  
HETATM    2  C   UNL     1     -11.426  12.495  64.297  1.00  0.00    -0.423 C  
HETATM    3  C   UNL     1     -11.458  11.853  65.699  1.00  0.00    -0.314 C  
ENDROOT
BRANCH   2   4
HETATM    4  C   UNL     1     -11.397  14.052  64.386  1.00  0.00    -0.319 C  
HETATM    5  O   UNL     1     -12.689  14.635  64.166  1.00  0.00    -0.738 OA 
HETATM    6  H   UNL     1     -12.671  15.583  64.220  1.00  0.00     0.000 HD 
BRANCH   4   7
HETATM    7  C   UNL     1     -10.841  14.605  65.721  1.00  0.00    -0.323 C  
HETATM    8  O   UNL     1     -11.532  14.878  66.701  1.00  0.00    -0.349 OA 
HETATM    9  N   UNL     1      -9.466  14.727  65.751  1.00  0.00    -0.506 N  
HETATM   10  H   UNL     1      -8.916  14.458  64.935  1.00  0.00     0.000 HD 
BRANCH   9  11
HETATM   11  C   UNL     1      -8.798  15.235  66.931  1.00  0.00    -0.254 C  
BRANCH  11  12
HETATM   12  C   UNL     1      -7.928  14.198  67.633  1.00  0.00    -0.187 C  
BRANCH  12  13
HETATM   13  C   UNL     1      -8.696  13.003  68.181  1.00  0.00    -0.190 C  
HETATM   14  O   UNL     1      -9.866  13.462  68.855  1.00  0.00    -0.418 OA 
HETATM   15  H   UNL     1     -10.345  12.717  69.196  1.00  0.00     0.000 HD 
ENDBRANCH  12  13
ENDBRANCH  11  12
ENDBRANCH   9  11
ENDBRANCH   4   7
ENDBRANCH   2   4
BRANCH   2  16
HETATM   16  C   UNL     1     -10.211  11.993  63.472  1.00  0.00    -0.450 C  
HETATM   17  O   UNL     1     -10.547  10.870  62.664  1.00  0.00    -0.761 OA 
HETATM   18  H   UNL     1      -9.803  10.562  62.159  1.00  0.00     0.000 HD 
ENDBRANCH   2  16
TORSDOF 6
ENDMDL
MODEL       28
REMARK 921   NORMALIZED FREE ENERGY PREDICTED BY IDOCK:   -4.30 KCAL/MOL
REMARK 922        TOTAL FREE ENERGY PREDICTED BY IDOCK:   -6.33 KCAL/MOL
REMARK 923 INTER-LIGAND FREE ENERGY PREDICTED BY IDOCK:   -6.13 KCAL/MOL
REMARK 924 INTRA-LIGAND FREE ENERGY PREDICTED BY IDOCK:   -0.20 KCAL/MOL
REMARK 927      BINDING AFFINITY PREDICTED BY RF-SCORE:    0.00 PKD
ROOT
HETATM    1  C   UNL     1      -9.985  15.362  65.539  1.00  0.00    -0.379 C  
HETATM    2  C   UNL     1     -11.256  14.487  65.407  1.00  0.00    -0.342 C  
HETATM    3  C   UNL     1     -11.902  14.424  66.807  1.00  0.00    -0.431 C  
ENDROOT
BRANCH   2   4
HETATM    4  C   UNL     1     -10.865  13.066  64.897  1.00  0.00    -0.323 C  
HETATM    5  O   UNL     1     -10.025  13.116  63.736  1.00  0.00    -0.741 OA 
HETATM    6  H   UNL     1      -9.787  12.251  63.425  1.00  0.00     0.000 HD 
BRANCH   4   7
HETATM    7  C   UNL     1     -10.170  12.177  65.956  1.00  0.00    -0.237 C  
HETATM    8  O   UNL     1      -8.978  12.247  66.248  1.00  0.00    -0.174 OA 
HETATM    9  N   UNL     1     -11.021  11.304  66.605  1.00  0.00    -0.287 N  
HETATM   10  H   UNL     1     -12.013  11.294  66.367  1.00  0.00     0.000 HD 
BRANCH   9  11
HETATM   11  C   UNL     1     -10.517  10.403  67.620  1.00  0.00    -0.233 C  
BRANCH  11  12
HETATM   12  C   UNL     1     -10.519  11.002  69.023  1.00  0.00    -0.242 C  
BRANCH  12  13
HETATM   13  C   UNL     1     -11.780  11.782  69.369  1.00  0.00    -0.341 C  
HETATM   14  O   UNL     1     -11.426  12.943  70.118  1.00  0.00    -0.518 OA 
HETATM   15  H   UNL     1     -12.213  13.429  70.334  1.00  0.00     0.000 HD 
ENDBRANCH  12  13
ENDBRANCH  11  12
ENDBRANCH   9  11
ENDBRANCH   4   7
ENDBRANCH   2   4
BRANCH   2  16
HETATM   16  C   UNL     1     -12.196  15.175  64.381  1.00  0.00    -0.275 C  
HETATM   17  O   UNL     1     -11.605  16.342  63.821  1.00  0.00    -1.605 OA 
HETATM   18  H   UNL     1     -12.180  16.764  63.192  1.00  0.00     0.000 HD 
ENDBRANCH   2  16
TORSDOF 6
ENDMDL
MODEL       29
REMARK 921   NORMALIZED FREE ENERGY PREDICTED BY IDOCK:   -4.29 KCAL/MOL
REMARK 922        TOTAL FREE ENERGY PREDICTED BY IDOCK:   -6.32 KCAL/MOL
REMARK 923 INTER-LIGAND FREE ENERGY PREDICTED BY IDOCK:   -6.19 KCAL/MOL
REMARK 924 INTRA-LIGAND FREE ENERGY PREDICTED BY IDOCK:   -0.13 KCAL/MOL
REMARK 927      BINDING AFFINITY PREDICTED BY RF-SCORE:    0.00 PKD
ROOT
HETATM    1  C   UNL     1     -10.258  14.278  64.853  1.00  0.00    -0.361 C  
HETATM    2  C   UNL     1     -11.799  14.125  64.854  1.00  0.00    -0.407 C  
HETATM    3  C   UNL     1     -12.226  13.917  66.322  1.00  0.00    -0.498 C  
ENDROOT
BRANCH   2   4
HETATM    4  C   UNL     1     -12.206  12.910  63.966  1.00  0.00    -0.426 C  
HETATM    5  O   UNL     1     -12.379  13.274  62.590  1.00  0.00    -0.619 OA 
HETATM    6  H   UNL     1     -12.627  12.534  62.049  1.00  0.00     0.000 HD 
BRANCH   4   7
HETATM    7  C   UNL     1     -11.222  11.716  64.027  1.00  0.00    -0.369 C  
HETATM    8  O   UNL     1     -11.035  11.020  65.023  1.00  0.00    -0.184 OA 
HETATM    9  N   UNL     1     -10.584  11.451  62.832  1.00  0.00    -0.729 N  
HETATM   10  H   UNL     1     -10.786  12.023  62.012  1.00  0.00     0.000 HD 
BRANCH   9  11
HETATM   11  C   UNL     1      -9.628  10.367  62.732  1.00  0.00    -0.275 C  
BRANCH  11  12
HETATM   12  C   UNL     1      -8.486  10.467  63.737  1.00  0.00    -0.162 C  
BRANCH  12  13
HETATM   13  C   UNL     1      -8.174   9.165  64.462  1.00  0.00    -0.152 C  
HETATM   14  O   UNL     1      -9.337   8.720  65.157  1.00  0.00    -0.439 OA 
HETATM   15  H   UNL     1      -9.143   7.908  65.609  1.00  0.00     0.000 HD 
ENDBRANCH  12  13
ENDBRANCH  11  12
ENDBRANCH   9  11
ENDBRANCH   4   7
ENDBRANCH   2   4
BRANCH   2  16
HETATM   16  C   UNL     1     -12.401  15.430  64.268  1.00  0.00    -0.061 C  
HETATM   17  O   UNL     1     -11.390  16.352  63.877  1.00  0.00    -1.510 OA 
HETATM   18  H   UNL     1     -11.758  17.152  63.518  1.00  0.00     0.000 HD 
ENDBRANCH   2  16
TORSDOF 6
ENDMDL
MODEL       30
REMARK 921   NORMALIZED FREE ENERGY PREDICTED BY IDOCK:   -4.27 KCAL/MOL
REMARK 922        TOTAL FREE ENERGY PREDICTED BY IDOCK:   -6.30 KCAL/MOL
REMARK 923 INTER-LIGAND FREE ENERGY PREDICTED BY IDOCK:   -6.34 KCAL/MOL
REMARK 924 INTRA-LIGAND FREE ENERGY PREDICTED BY IDOCK:    0.04 KCAL/MOL
REMARK 927      BINDING AFFINITY PREDICTED BY RF-SCORE:    0.00 PKD
ROOT
HETATM    1  C   UNL     1     -10.303  13.583  65.107  1.00  0.00    -0.368 C  
HETATM    2  C   UNL     1     -11.326  14.707  65.405  1.00  0.00    -0.344 C  
HETATM    3  C   UNL     1     -10.549  15.847  66.096  1.00  0.00    -0.310 C  
ENDROOT
BRANCH   2   4
HETATM    4  C   UNL     1     -12.461  14.155  66.322  1.00  0.00    -0.362 C  
HETATM    5  O   UNL     1     -13.654  13.847  65.588  1.00  0.00    -0.593 OA 
HETATM    6  H   UNL     1     -14.344  13.511  66.146  1.00  0.00     0.000 HD 
BRANCH   4   7
HETATM    7  C   UNL     1     -12.065  12.904  67.144  1.00  0.00    -0.219 C  
HETATM    8  O   UNL     1     -12.079  11.755  66.709  1.00  0.00    -0.547 OA 
HETATM    9  N   UNL     1     -11.636  13.185  68.426  1.00  0.00    -0.314 N  
HETATM   10  H   UNL     1     -11.601  14.153  68.747  1.00  0.00     0.000 HD 
BRANCH   9  11
HETATM   11  C   UNL     1     -11.236  12.118  69.319  1.00  0.00    -0.226 C  
BRANCH  11  12
HETATM   12  C   UNL     1     -12.249  11.835  70.423  1.00  0.00    -0.416 C  
BRANCH  12  13
HETATM   13  C   UNL     1     -12.184  10.423  70.988  1.00  0.00    -0.393 C  
HETATM   14  O   UNL     1     -13.428   9.764  70.759  1.00  0.00    -0.600 OA 
HETATM   15  H   UNL     1     -13.387   8.883  71.111  1.00  0.00     0.000 HD 
ENDBRANCH  12  13
ENDBRANCH  11  12
ENDBRANCH   9  11
ENDBRANCH   4   7
ENDBRANCH   2   4
BRANCH   2  16
HETATM   16  C   UNL     1     -11.924  15.169  64.049  1.00  0.00    -0.027 C  
HETATM   17  O   UNL     1     -11.618  16.531  63.772  1.00  0.00    -1.617 OA 
HETATM   18  H   UNL     1     -11.984  16.815  62.941  1.00  0.00     0.000 HD 
ENDBRANCH   2  16
TORSDOF 6
ENDMDL
MODEL       31
REMARK 921   NORMALIZED FREE ENERGY PREDICTED BY IDOCK:   -4.27 KCAL/MOL
REMARK 922        TOTAL FREE ENERGY PREDICTED BY IDOCK:   -6.29 KCAL/MOL
REMARK 923 INTER-LIGAND FREE ENERGY PREDICTED BY IDOCK:   -5.89 KCAL/MOL
REMARK 924 INTRA-LIGAND FREE ENERGY PREDICTED BY IDOCK:   -0.40 KCAL/MOL
REMARK 927      BINDING AFFINITY PREDICTED BY RF-SCORE:    0.00 PKD
ROOT
HETATM    1  C   UNL     1     -10.288  13.419  64.475  1.00  0.00    -0.394 C  
HETATM    2  C   UNL     1     -11.822  13.335  64.673  1.00  0.00    -0.420 C  
HETATM    3  C   UNL     1     -12.389  14.738  64.371  1.00  0.00    -0.389 C  
ENDROOT
BRANCH   2   4
HETATM    4  C   UNL     1     -12.140  12.897  66.136  1.00  0.00    -0.393 C  
HETATM    5  O   UNL     1     -11.945  11.491  66.338  1.00  0.00    -0.345 OA 
HETATM    6  H   UNL     1     -12.138  11.223  67.228  1.00  0.00     0.000 HD 
BRANCH   4   7
HETATM    7  C   UNL     1     -11.333  13.654  67.218  1.00  0.00    -0.323 C  
HETATM    8  O   UNL     1     -10.326  13.215  67.769  1.00  0.00    -0.222 OA 
HETATM    9  N   UNL     1     -11.813  14.919  67.496  1.00  0.00    -0.432 N  
HETATM   10  H   UNL     1     -12.629  15.271  66.997  1.00  0.00     0.000 HD 
BRANCH   9  11
HETATM   11  C   UNL     1     -11.166  15.750  68.491  1.00  0.00    -0.354 C  
BRANCH  11  12
HETATM   12  C   UNL     1     -10.601  17.049  67.926  1.00  0.00    -0.365 C  
BRANCH  12  13
HETATM   13  C   UNL     1      -9.651  16.860  66.751  1.00  0.00    -0.262 C  
HETATM   14  O   UNL     1     -10.338  17.154  65.536  1.00  0.00    -0.599 OA 
HETATM   15  H   UNL     1      -9.746  17.037  64.803  1.00  0.00     0.000 HD 
ENDBRANCH  12  13
ENDBRANCH  11  12
ENDBRANCH   9  11
ENDBRANCH   4   7
ENDBRANCH   2   4
BRANCH   2  16
HETATM   16  C   UNL     1     -12.367  12.277  63.677  1.00  0.00    -0.562 C  
HETATM   17  O   UNL     1     -11.334  11.431  63.184  1.00  0.00    -0.829 OA 
HETATM   18  H   UNL     1     -11.667  10.783  62.574  1.00  0.00     0.000 HD 
ENDBRANCH   2  16
TORSDOF 6
ENDMDL
MODEL       32
REMARK 921   NORMALIZED FREE ENERGY PREDICTED BY IDOCK:   -4.24 KCAL/MOL
REMARK 922        TOTAL FREE ENERGY PREDICTED BY IDOCK:   -6.26 KCAL/MOL
REMARK 923 INTER-LIGAND FREE ENERGY PREDICTED BY IDOCK:   -5.76 KCAL/MOL
REMARK 924 INTRA-LIGAND FREE ENERGY PREDICTED BY IDOCK:   -0.49 KCAL/MOL
REMARK 927      BINDING AFFINITY PREDICTED BY RF-SCORE:    0.00 PKD
ROOT
HETATM    1  C   UNL     1     -11.878  14.315  66.714  1.00  0.00    -0.449 C  
HETATM    2  C   UNL     1     -11.401  14.389  65.242  1.00  0.00    -0.346 C  
HETATM    3  C   UNL     1     -10.469  13.180  65.014  1.00  0.00    -0.358 C  
ENDROOT
BRANCH   2   4
HETATM    4  C   UNL     1     -10.655  15.736  64.998  1.00  0.00    -0.371 C  
HETATM    5  O   UNL     1     -11.445  16.669  64.248  1.00  0.00    -1.230 OA 
HETATM    6  H   UNL     1     -10.991  17.489  64.100  1.00  0.00     0.000 HD 
BRANCH   4   7
HETATM    7  C   UNL     1     -10.175  16.442  66.289  1.00  0.00    -0.330 C  
HETATM    8  O   UNL     1     -10.730  17.414  66.798  1.00  0.00    -0.236 OA 
HETATM    9  N   UNL     1      -9.071  15.855  66.875  1.00  0.00    -0.217 N  
HETATM   10  H   UNL     1      -8.653  15.027  66.450  1.00  0.00     0.000 HD 
BRANCH   9  11
HETATM   11  C   UNL     1      -8.500  16.404  68.087  1.00  0.00    -0.188 C  
BRANCH  11  12
HETATM   12  C   UNL     1      -7.214  17.190  67.854  1.00  0.00    -0.177 C  
BRANCH  12  13
HETATM   13  C   UNL     1      -7.318  18.674  68.180  1.00  0.00    -0.255 C  
HETATM   14  O   UNL     1      -8.678  19.002  68.458  1.00  0.00    -0.335 OA 
HETATM   15  H   UNL     1      -8.743  19.927  68.662  1.00  0.00     0.000 HD 
ENDBRANCH  12  13
ENDBRANCH  11  12
ENDBRANCH   9  11
ENDBRANCH   4   7
ENDBRANCH   2   4
BRANCH   2  16
HETATM   16  C   UNL     1     -12.659  14.312  64.336  1.00  0.00    -0.167 C  
HETATM   17  O   UNL     1     -12.320  14.060  62.977  1.00  0.00    -1.101 OA 
HETATM   18  H   UNL     1     -13.090  14.013  62.422  1.00  0.00     0.000 HD 
ENDBRANCH   2  16
TORSDOF 6
ENDMDL
MODEL       33
REMARK 921   NORMALIZED FREE ENERGY PREDICTED BY IDOCK:   -4.21 KCAL/MOL
REMARK 922        TOTAL FREE ENERGY PREDICTED BY IDOCK:   -6.21 KCAL/MOL
REMARK 923 INTER-LIGAND FREE ENERGY PREDICTED BY IDOCK:   -5.98 KCAL/MOL
REMARK 924 INTRA-LIGAND FREE ENERGY PREDICTED BY IDOCK:   -0.23 KCAL/MOL
REMARK 927      BINDING AFFINITY PREDICTED BY RF-SCORE:    0.00 PKD
ROOT
HETATM    1  C   UNL     1     -12.600  14.212  66.005  1.00  0.00    -0.407 C  
HETATM    2  C   UNL     1     -11.512  14.210  64.902  1.00  0.00    -0.366 C  
HETATM    3  C   UNL     1     -12.178  13.676  63.617  1.00  0.00    -0.376 C  
ENDROOT
BRANCH   2   4
HETATM    4  C   UNL     1     -10.319  13.306  65.342  1.00  0.00    -0.306 C  
HETATM    5  O   UNL     1      -9.211  14.069  65.839  1.00  0.00    -0.501 OA 
HETATM    6  H   UNL     1      -8.485  13.518  66.107  1.00  0.00     0.000 HD 
BRANCH   4   7
HETATM    7  C   UNL     1     -10.685  12.241  66.404  1.00  0.00    -0.251 C  
HETATM    8  O   UNL     1     -11.337  11.225  66.173  1.00  0.00    -0.199 OA 
HETATM    9  N   UNL     1     -10.168  12.497  67.659  1.00  0.00    -0.216 N  
HETATM   10  H   UNL     1      -9.599  13.329  67.812  1.00  0.00     0.000 HD 
BRANCH   9  11
HETATM   11  C   UNL     1     -10.428  11.593  68.760  1.00  0.00    -0.204 C  
BRANCH  11  12
HETATM   12  C   UNL     1     -11.622  12.001  69.616  1.00  0.00    -0.371 C  
BRANCH  12  13
HETATM   13  C   UNL     1     -11.869  13.503  69.672  1.00  0.00    -0.336 C  
HETATM   14  O   UNL     1     -11.898  13.926  71.033  1.00  0.00    -0.492 OA 
HETATM   15  H   UNL     1     -12.051  14.863  71.068  1.00  0.00     0.000 HD 
ENDBRANCH  12  13
ENDBRANCH  11  12
ENDBRANCH   9  11
ENDBRANCH   4   7
ENDBRANCH   2   4
BRANCH   2  16
HETATM   16  C   UNL     1     -11.024  15.673  64.722  1.00  0.00    -0.400 C  
HETATM   17  O   UNL     1     -11.786  16.369  63.741  1.00  0.00    -1.553 OA 
HETATM   18  H   UNL     1     -11.487  17.264  63.630  1.00  0.00     0.000 HD 
ENDBRANCH   2  16
TORSDOF 6
ENDMDL
MODEL       34
REMARK 921   NORMALIZED FREE ENERGY PREDICTED BY IDOCK:   -4.16 KCAL/MOL
REMARK 922        TOTAL FREE ENERGY PREDICTED BY IDOCK:   -6.14 KCAL/MOL
REMARK 923 INTER-LIGAND FREE ENERGY PREDICTED BY IDOCK:   -5.63 KCAL/MOL
REMARK 924 INTRA-LIGAND FREE ENERGY PREDICTED BY IDOCK:   -0.51 KCAL/MOL
REMARK 927      BINDING AFFINITY PREDICTED BY RF-SCORE:    0.00 PKD
ROOT
HETATM    1  C   UNL     1     -11.402   7.016  73.044  1.00  0.00    -0.173 C  
HETATM    2  C   UNL     1     -11.591   7.873  71.768  1.00  0.00    -0.321 C  
HETATM    3  C   UNL     1     -10.375   8.819  71.681  1.00  0.00    -0.391 C  
ENDROOT
BRANCH   2   4
HETATM    4  C   UNL     1     -12.927   8.672  71.866  1.00  0.00    -0.372 C  
HETATM    5  O   UNL     1     -13.434   8.725  73.206  1.00  0.00    -0.954 OA 
HETATM    6  H   UNL     1     -14.248   9.211  73.265  1.00  0.00     0.000 HD 
BRANCH   4   7
HETATM    7  C   UNL     1     -12.845  10.121  71.326  1.00  0.00    -0.410 C  
HETATM    8  O   UNL     1     -13.097  11.125  71.990  1.00  0.00    -0.492 OA 
HETATM    9  N   UNL     1     -12.408  10.211  70.019  1.00  0.00    -0.515 N  
HETATM   10  H   UNL     1     -12.171   9.363  69.505  1.00  0.00     0.000 HD 
BRANCH   9  11
HETATM   11  C   UNL     1     -12.284  11.501  69.372  1.00  0.00    -0.207 C  
BRANCH  11  12
HETATM   12  C   UNL     1     -10.992  11.661  68.577  1.00  0.00    -0.264 C  
BRANCH  12  13
HETATM   13  C   UNL     1     -10.981  10.926  67.244  1.00  0.00    -0.294 C  
HETATM   14  O   UNL     1     -11.119   9.526  67.475  1.00  0.00    -0.450 OA 
HETATM   15  H   UNL     1     -11.112   9.068  66.643  1.00  0.00     0.000 HD 
ENDBRANCH  12  13
ENDBRANCH  11  12
ENDBRANCH   9  11
ENDBRANCH   4   7
ENDBRANCH   2   4
BRANCH   2  16
HETATM   16  C   UNL     1     -11.644   6.906  70.555  1.00  0.00    -0.346 C  
HETATM   17  O   UNL     1     -11.250   7.547  69.347  1.00  0.00    -0.446 OA 
HETATM   18  H   UNL     1     -11.282   6.955  68.605  1.00  0.00     0.000 HD 
ENDBRANCH   2  16
TORSDOF 6
ENDMDL
MODEL       35
REMARK 921   NORMALIZED FREE ENERGY PREDICTED BY IDOCK:   -4.16 KCAL/MOL
REMARK 922        TOTAL FREE ENERGY PREDICTED BY IDOCK:   -6.14 KCAL/MOL
REMARK 923 INTER-LIGAND FREE ENERGY PREDICTED BY IDOCK:   -5.76 KCAL/MOL
REMARK 924 INTRA-LIGAND FREE ENERGY PREDICTED BY IDOCK:   -0.37 KCAL/MOL
REMARK 927      BINDING AFFINITY PREDICTED BY RF-SCORE:    0.00 PKD
ROOT
HETATM    1  C   UNL     1     -10.109  13.308  64.391  1.00  0.00    -0.190 C  
HETATM    2  C   UNL     1     -11.398  12.990  65.189  1.00  0.00    -0.320 C  
HETATM    3  C   UNL     1     -12.327  12.201  64.242  1.00  0.00    -0.466 C  
ENDROOT
BRANCH   2   4
HETATM    4  C   UNL     1     -12.064  14.319  65.662  1.00  0.00    -0.393 C  
HETATM    5  O   UNL     1     -13.485  14.195  65.807  1.00  0.00    -0.670 OA 
HETATM    6  H   UNL     1     -13.891  15.003  66.095  1.00  0.00     0.000 HD 
BRANCH   4   7
HETATM    7  C   UNL     1     -11.494  14.882  66.987  1.00  0.00    -0.326 C  
HETATM    8  O   UNL     1     -10.396  15.425  67.095  1.00  0.00    -0.261 OA 
HETATM    9  N   UNL     1     -12.353  14.770  68.062  1.00  0.00    -0.559 N  
HETATM   10  H   UNL     1     -13.272  14.348  67.934  1.00  0.00     0.000 HD 
BRANCH   9  11
HETATM   11  C   UNL     1     -11.959  15.248  69.372  1.00  0.00    -0.315 C  
BRANCH  11  12
HETATM   12  C   UNL     1     -12.968  14.922  70.468  1.00  0.00    -0.339 C  
BRANCH  12  13
HETATM   13  C   UNL     1     -12.618  15.497  71.833  1.00  0.00    -0.405 C  
HETATM   14  O   UNL     1     -11.674  16.554  71.673  1.00  0.00    -0.649 OA 
HETATM   15  H   UNL     1     -11.455  16.913  72.525  1.00  0.00     0.000 HD 
ENDBRANCH  12  13
ENDBRANCH  11  12
ENDBRANCH   9  11
ENDBRANCH   4   7
ENDBRANCH   2   4
BRANCH   2  16
HETATM   16  C   UNL     1     -10.990  12.138  66.421  1.00  0.00    -0.288 C  
HETATM   17  O   UNL     1     -12.103  11.847  67.257  1.00  0.00    -0.582 OA 
HETATM   18  H   UNL     1     -11.854  11.326  68.012  1.00  0.00     0.000 HD 
ENDBRANCH   2  16
TORSDOF 6
ENDMDL
MODEL       36
REMARK 921   NORMALIZED FREE ENERGY PREDICTED BY IDOCK:   -4.16 KCAL/MOL
REMARK 922        TOTAL FREE ENERGY PREDICTED BY IDOCK:   -6.14 KCAL/MOL
REMARK 923 INTER-LIGAND FREE ENERGY PREDICTED BY IDOCK:   -6.23 KCAL/MOL
REMARK 924 INTRA-LIGAND FREE ENERGY PREDICTED BY IDOCK:    0.09 KCAL/MOL
REMARK 927      BINDING AFFINITY PREDICTED BY RF-SCORE:    0.00 PKD
ROOT
HETATM    1  C   UNL     1     -10.034  17.585  68.047  1.00  0.00    -0.310 C  
HETATM    2  C   UNL     1      -9.962  17.788  66.513  1.00  0.00    -0.346 C  
HETATM    3  C   UNL     1     -10.548  19.185  66.219  1.00  0.00    -0.521 C  
ENDROOT
BRANCH   2   4
HETATM    4  C   UNL     1     -10.777  16.667  65.797  1.00  0.00    -0.204 C  
HETATM    5  O   UNL     1     -11.113  17.015  64.447  1.00  0.00    -1.149 OA 
HETATM    6  H   UNL     1     -11.609  16.334  64.011  1.00  0.00     0.000 HD 
BRANCH   4   7
HETATM    7  C   UNL     1     -10.081  15.285  65.778  1.00  0.00    -0.356 C  
HETATM    8  O   UNL     1      -8.996  15.046  66.304  1.00  0.00    -0.275 OA 
HETATM    9  N   UNL     1     -10.811  14.296  65.149  1.00  0.00    -0.353 N  
HETATM   10  H   UNL     1     -11.725  14.515  64.753  1.00  0.00     0.000 HD 
BRANCH   9  11
HETATM   11  C   UNL     1     -10.289  12.949  65.046  1.00  0.00    -0.315 C  
BRANCH  11  12
HETATM   12  C   UNL     1     -10.714  12.226  63.771  1.00  0.00    -0.494 C  
BRANCH  12  13
HETATM   13  C   UNL     1     -12.203  12.314  63.468  1.00  0.00    -0.568 C  
HETATM   14  O   UNL     1     -12.518  13.632  63.024  1.00  0.00    -1.020 OA 
HETATM   15  H   UNL     1     -13.447  13.687  62.834  1.00  0.00     0.000 HD 
ENDBRANCH  12  13
ENDBRANCH  11  12
ENDBRANCH   9  11
ENDBRANCH   4   7
ENDBRANCH   2   4
BRANCH   2  16
HETATM   16  C   UNL     1      -8.470  17.700  66.098  1.00  0.00    -0.132 C  
HETATM   17  O   UNL     1      -7.619  17.481  67.217  1.00  0.00    -0.189 OA 
HETATM   18  H   UNL     1      -6.705  17.427  66.963  1.00  0.00     0.000 HD 
ENDBRANCH   2  16
TORSDOF 6
ENDMDL
MODEL       37
REMARK 921   NORMALIZED FREE ENERGY PREDICTED BY IDOCK:   -4.13 KCAL/MOL
REMARK 922        TOTAL FREE ENERGY PREDICTED BY IDOCK:   -6.10 KCAL/MOL
REMARK 923 INTER-LIGAND FREE ENERGY PREDICTED BY IDOCK:   -5.37 KCAL/MOL
REMARK 924 INTRA-LIGAND FREE ENERGY PREDICTED BY IDOCK:   -0.74 KCAL/MOL
REMARK 927      BINDING AFFINITY PREDICTED BY RF-SCORE:    0.00 PKD
ROOT
HETATM    1  C   UNL     1      -9.084  13.549  67.238  1.00  0.00    -0.225 C  
HETATM    2  C   UNL     1     -10.062  14.600  67.820  1.00  0.00    -0.228 C  
HETATM    3  C   UNL     1      -9.431  15.120  69.128  1.00  0.00    -0.221 C  
ENDROOT
BRANCH   2   4
HETATM    4  C   UNL     1     -11.450  13.939  68.081  1.00  0.00    -0.312 C  
HETATM    5  O   UNL     1     -12.504  14.906  68.182  1.00  0.00    -0.520 OA 
HETATM    6  H   UNL     1     -13.349  14.503  68.341  1.00  0.00     0.000 HD 
BRANCH   4   7
HETATM    7  C   UNL     1     -11.864  12.885  67.025  1.00  0.00    -0.374 C  
HETATM    8  O   UNL     1     -11.918  11.676  67.234  1.00  0.00    -0.627 OA 
HETATM    9  N   UNL     1     -12.226  13.423  65.805  1.00  0.00    -0.437 N  
HETATM   10  H   UNL     1     -12.207  14.434  65.672  1.00  0.00     0.000 HD 
BRANCH   9  11
HETATM   11  C   UNL     1     -12.633  12.563  64.714  1.00  0.00    -0.413 C  
BRANCH  11  12
HETATM   12  C   UNL     1     -11.788  12.733  63.456  1.00  0.00    -0.618 C  
BRANCH  12  13
HETATM   13  C   UNL     1     -10.620  11.762  63.349  1.00  0.00    -0.420 C  
HETATM   14  O   UNL     1     -10.542  10.985  64.543  1.00  0.00    -0.343 OA 
HETATM   15  H   UNL     1      -9.813  10.379  64.476  1.00  0.00     0.000 HD 
ENDBRANCH  12  13
ENDBRANCH  11  12
ENDBRANCH   9  11
ENDBRANCH   4   7
ENDBRANCH   2   4
BRANCH   2  16
HETATM   16  C   UNL     1     -10.209  15.735  66.772  1.00  0.00    -0.282 C  
HETATM   17  O   UNL     1      -9.942  15.276  65.451  1.00  0.00    -0.347 OA 
HETATM   18  H   UNL     1     -10.031  15.972  64.809  1.00  0.00     0.000 HD 
ENDBRANCH   2  16
TORSDOF 6
ENDMDL
MODEL       38
REMARK 921   NORMALIZED FREE ENERGY PREDICTED BY IDOCK:   -4.12 KCAL/MOL
REMARK 922        TOTAL FREE ENERGY PREDICTED BY IDOCK:   -6.09 KCAL/MOL
REMARK 923 INTER-LIGAND FREE ENERGY PREDICTED BY IDOCK:   -5.47 KCAL/MOL
REMARK 924 INTRA-LIGAND FREE ENERGY PREDICTED BY IDOCK:   -0.61 KCAL/MOL
REMARK 927      BINDING AFFINITY PREDICTED BY RF-SCORE:    0.00 PKD
ROOT
HETATM    1  C   UNL     1     -10.242  20.056  68.290  1.00  0.00    -0.527 C  
HETATM    2  C   UNL     1      -9.639  19.243  67.118  1.00  0.00    -0.397 C  
HETATM    3  C   UNL     1     -10.545  19.487  65.893  1.00  0.00    -0.572 C  
ENDROOT
BRANCH   2   4
HETATM    4  C   UNL     1      -9.590  17.731  67.497  1.00  0.00    -0.268 C  
HETATM    5  O   UNL     1     -10.719  17.330  68.284  1.00  0.00    -0.373 OA 
HETATM    6  H   UNL     1     -10.690  16.409  68.515  1.00  0.00     0.000 HD 
BRANCH   4   7
HETATM    7  C   UNL     1      -9.484  16.773  66.286  1.00  0.00    -0.286 C  
HETATM    8  O   UNL     1      -8.477  16.637  65.594  1.00  0.00    -0.345 OA 
HETATM    9  N   UNL     1     -10.621  16.022  66.060  1.00  0.00    -0.328 N  
HETATM   10  H   UNL     1     -11.428  16.130  66.674  1.00  0.00     0.000 HD 
BRANCH   9  11
HETATM   11  C   UNL     1     -10.676  15.083  64.959  1.00  0.00    -0.427 C  
BRANCH  11  12
HETATM   12  C   UNL     1     -10.652  13.624  65.401  1.00  0.00    -0.322 C  
BRANCH  12  13
HETATM   13  C   UNL     1     -12.003  13.080  65.845  1.00  0.00    -0.435 C  
HETATM   14  O   UNL     1     -12.836  14.163  66.254  1.00  0.00    -0.500 OA 
HETATM   15  H   UNL     1     -13.679  13.824  66.530  1.00  0.00     0.000 HD 
ENDBRANCH  12  13
ENDBRANCH  11  12
ENDBRANCH   9  11
ENDBRANCH   4   7
ENDBRANCH   2   4
BRANCH   2  16
HETATM   16  C   UNL     1      -8.200  19.770  66.872  1.00  0.00    -0.307 C  
HETATM   17  O   UNL     1      -7.859  19.757  65.490  1.00  0.00    -0.385 OA 
HETATM   18  H   UNL     1      -6.978  20.080  65.339  1.00  0.00     0.000 HD 
ENDBRANCH   2  16
TORSDOF 6
ENDMDL
MODEL       39
REMARK 921   NORMALIZED FREE ENERGY PREDICTED BY IDOCK:   -4.12 KCAL/MOL
REMARK 922        TOTAL FREE ENERGY PREDICTED BY IDOCK:   -6.08 KCAL/MOL
REMARK 923 INTER-LIGAND FREE ENERGY PREDICTED BY IDOCK:   -5.61 KCAL/MOL
REMARK 924 INTRA-LIGAND FREE ENERGY PREDICTED BY IDOCK:   -0.47 KCAL/MOL
REMARK 927      BINDING AFFINITY PREDICTED BY RF-SCORE:    0.00 PKD
ROOT
HETATM    1  C   UNL     1      -9.048  13.459  68.081  1.00  0.00    -0.207 C  
HETATM    2  C   UNL     1     -10.520  13.073  67.792  1.00  0.00    -0.232 C  
HETATM    3  C   UNL     1     -10.532  12.350  66.429  1.00  0.00    -0.267 C  
ENDROOT
BRANCH   2   4
HETATM    4  C   UNL     1     -11.404  14.357  67.763  1.00  0.00    -0.312 C  
HETATM    5  O   UNL     1     -12.677  14.128  67.144  1.00  0.00    -0.456 OA 
HETATM    6  H   UNL     1     -13.216  14.910  67.126  1.00  0.00     0.000 HD 
BRANCH   4   7
HETATM    7  C   UNL     1     -11.652  14.992  69.153  1.00  0.00    -0.310 C  
HETATM    8  O   UNL     1     -10.850  15.715  69.739  1.00  0.00    -0.256 OA 
HETATM    9  N   UNL     1     -12.899  14.720  69.681  1.00  0.00    -0.525 N  
HETATM   10  H   UNL     1     -13.558  14.148  69.154  1.00  0.00     0.000 HD 
BRANCH   9  11
HETATM   11  C   UNL     1     -13.278  15.242  70.978  1.00  0.00    -0.484 C  
BRANCH  11  12
HETATM   12  C   UNL     1     -13.072  14.249  72.118  1.00  0.00    -0.469 C  
BRANCH  12  13
HETATM   13  C   UNL     1     -12.749  14.893  73.459  1.00  0.00    -0.499 C  
HETATM   14  O   UNL     1     -13.489  16.105  73.592  1.00  0.00    -0.875 OA 
HETATM   15  H   UNL     1     -13.287  16.506  74.429  1.00  0.00     0.000 HD 
ENDBRANCH  12  13
ENDBRANCH  11  12
ENDBRANCH   9  11
ENDBRANCH   4   7
ENDBRANCH   2   4
BRANCH   2  16
HETATM   16  C   UNL     1     -10.992  12.134  68.935  1.00  0.00    -0.224 C  
HETATM   17  O   UNL     1     -12.265  11.561  68.658  1.00  0.00    -0.492 OA 
HETATM   18  H   UNL     1     -12.554  10.986  69.358  1.00  0.00     0.000 HD 
ENDBRANCH   2  16
TORSDOF 6
ENDMDL
MODEL       40
REMARK 921   NORMALIZED FREE ENERGY PREDICTED BY IDOCK:   -4.09 KCAL/MOL
REMARK 922        TOTAL FREE ENERGY PREDICTED BY IDOCK:   -6.05 KCAL/MOL
REMARK 923 INTER-LIGAND FREE ENERGY PREDICTED BY IDOCK:   -5.91 KCAL/MOL
REMARK 924 INTRA-LIGAND FREE ENERGY PREDICTED BY IDOCK:   -0.14 KCAL/MOL
REMARK 927      BINDING AFFINITY PREDICTED BY RF-SCORE:    0.00 PKD
ROOT
HETATM    1  C   UNL     1     -12.628  13.960  65.906  1.00  0.00    -0.498 C  
HETATM    2  C   UNL     1     -11.090  13.963  66.094  1.00  0.00    -0.299 C  
HETATM    3  C   UNL     1     -10.640  12.488  66.114  1.00  0.00    -0.279 C  
ENDROOT
BRANCH   2   4
HETATM    4  C   UNL     1     -10.726  14.687  67.427  1.00  0.00    -0.280 C  
HETATM    5  O   UNL     1     -11.145  16.058  67.435  1.00  0.00    -0.278 OA 
HETATM    6  H   UNL     1     -10.923  16.499  68.246  1.00  0.00     0.000 HD 
BRANCH   4   7
HETATM    7  C   UNL     1     -11.288  14.005  68.698  1.00  0.00    -0.276 C  
HETATM    8  O   UNL     1     -10.987  12.873  69.070  1.00  0.00    -0.246 OA 
HETATM    9  N   UNL     1     -12.143  14.802  69.433  1.00  0.00    -0.455 N  
HETATM   10  H   UNL     1     -12.346  15.751  69.118  1.00  0.00     0.000 HD 
BRANCH   9  11
HETATM   11  C   UNL     1     -12.755  14.302  70.647  1.00  0.00    -0.343 C  
BRANCH  11  12
HETATM   12  C   UNL     1     -13.271  15.403  71.567  1.00  0.00    -0.572 C  
BRANCH  12  13
HETATM   13  C   UNL     1     -13.144  15.089  73.052  1.00  0.00    -0.504 C  
HETATM   14  O   UNL     1     -13.369  16.278  73.806  1.00  0.00    -0.899 OA 
HETATM   15  H   UNL     1     -13.290  16.083  74.732  1.00  0.00     0.000 HD 
ENDBRANCH  12  13
ENDBRANCH  11  12
ENDBRANCH   9  11
ENDBRANCH   4   7
ENDBRANCH   2   4
BRANCH   2  16
HETATM   16  C   UNL     1     -10.472  14.728  64.894  1.00  0.00    -0.369 C  
HETATM   17  O   UNL     1     -11.158  15.947  64.630  1.00  0.00    -0.614 OA 
HETATM   18  H   UNL     1     -10.780  16.415  63.895  1.00  0.00     0.000 HD 
ENDBRANCH   2  16
TORSDOF 6
ENDMDL
MODEL       41
REMARK 921   NORMALIZED FREE ENERGY PREDICTED BY IDOCK:   -4.07 KCAL/MOL
REMARK 922        TOTAL FREE ENERGY PREDICTED BY IDOCK:   -6.02 KCAL/MOL
REMARK 923 INTER-LIGAND FREE ENERGY PREDICTED BY IDOCK:   -5.94 KCAL/MOL
REMARK 924 INTRA-LIGAND FREE ENERGY PREDICTED BY IDOCK:   -0.09 KCAL/MOL
REMARK 927      BINDING AFFINITY PREDICTED BY RF-SCORE:    0.00 PKD
ROOT
HETATM    1  C   UNL     1     -11.520   6.500  72.550  1.00  0.00    -0.274 C  
HETATM    2  C   UNL     1     -11.286   7.757  71.676  1.00  0.00    -0.291 C  
HETATM    3  C   UNL     1     -10.089   8.512  72.290  1.00  0.00    -0.386 C  
ENDROOT
BRANCH   2   4
HETATM    4  C   UNL     1     -12.572   8.639  71.670  1.00  0.00    -0.338 C  
HETATM    5  O   UNL     1     -13.143   8.780  72.978  1.00  0.00    -0.748 OA 
HETATM    6  H   UNL     1     -13.926   9.317  72.975  1.00  0.00     0.000 HD 
BRANCH   4   7
HETATM    7  C   UNL     1     -12.371  10.056  71.079  1.00  0.00    -0.360 C  
HETATM    8  O   UNL     1     -11.828  10.289  70.001  1.00  0.00    -0.256 OA 
HETATM    9  N   UNL     1     -12.905  11.069  71.851  1.00  0.00    -0.381 N  
HETATM   10  H   UNL     1     -13.383  10.842  72.724  1.00  0.00     0.000 HD 
BRANCH   9  11
HETATM   11  C   UNL     1     -12.793  12.451  71.433  1.00  0.00    -0.260 C  
BRANCH  11  12
HETATM   12  C   UNL     1     -13.645  13.409  72.259  1.00  0.00    -0.703 C  
BRANCH  12  13
HETATM   13  C   UNL     1     -13.829  14.784  71.632  1.00  0.00    -0.450 C  
HETATM   14  O   UNL     1     -13.210  14.804  70.347  1.00  0.00    -0.594 OA 
HETATM   15  H   UNL     1     -13.325  15.662  69.956  1.00  0.00     0.000 HD 
ENDBRANCH  12  13
ENDBRANCH  11  12
ENDBRANCH   9  11
ENDBRANCH   4   7
ENDBRANCH   2   4
BRANCH   2  16
HETATM   16  C   UNL     1     -10.973   7.275  70.234  1.00  0.00    -0.260 C  
HETATM   17  O   UNL     1     -12.128   6.756  69.585  1.00  0.00    -0.635 OA 
HETATM   18  H   UNL     1     -11.937   6.461  68.702  1.00  0.00     0.000 HD 
ENDBRANCH   2  16
TORSDOF 6
ENDMDL
MODEL       42
REMARK 921   NORMALIZED FREE ENERGY PREDICTED BY IDOCK:   -4.07 KCAL/MOL
REMARK 922        TOTAL FREE ENERGY PREDICTED BY IDOCK:   -6.01 KCAL/MOL
REMARK 923 INTER-LIGAND FREE ENERGY PREDICTED BY IDOCK:   -5.61 KCAL/MOL
REMARK 924 INTRA-LIGAND FREE ENERGY PREDICTED BY IDOCK:   -0.40 KCAL/MOL
REMARK 927      BINDING AFFINITY PREDICTED BY RF-SCORE:    0.00 PKD
ROOT
HETATM    1  C   UNL     1     -11.603  15.063  64.475  1.00  0.00    -0.346 C  
HETATM    2  C   UNL     1     -11.297  13.648  65.025  1.00  0.00    -0.339 C  
HETATM    3  C   UNL     1     -12.655  12.938  65.210  1.00  0.00    -0.502 C  
ENDROOT
BRANCH   2   4
HETATM    4  C   UNL     1     -10.528  13.764  66.377  1.00  0.00    -0.284 C  
HETATM    5  O   UNL     1      -9.132  14.031  66.188  1.00  0.00    -0.488 OA 
HETATM    6  H   UNL     1      -8.663  14.102  67.010  1.00  0.00     0.000 HD 
BRANCH   4   7
HETATM    7  C   UNL     1     -11.094  14.833  67.343  1.00  0.00    -0.324 C  
HETATM    8  O   UNL     1     -12.149  14.719  67.964  1.00  0.00    -0.272 OA 
HETATM    9  N   UNL     1     -10.281  15.937  67.501  1.00  0.00    -0.263 N  
HETATM   10  H   UNL     1      -9.393  15.987  67.001  1.00  0.00     0.000 HD 
BRANCH   9  11
HETATM   11  C   UNL     1     -10.677  17.026  68.370  1.00  0.00    -0.361 C  
BRANCH  11  12
HETATM   12  C   UNL     1     -10.540  18.401  67.726  1.00  0.00    -0.419 C  
BRANCH  12  13
HETATM   13  C   UNL     1      -9.801  18.399  66.395  1.00  0.00    -0.360 C  
HETATM   14  O   UNL     1     -10.739  18.228  65.335  1.00  0.00    -0.610 OA 
HETATM   15  H   UNL     1     -10.279  18.227  64.504  1.00  0.00     0.000 HD 
ENDBRANCH  12  13
ENDBRANCH  11  12
ENDBRANCH   9  11
ENDBRANCH   4   7
ENDBRANCH   2   4
BRANCH   2  16
HETATM   16  C   UNL     1     -10.414  12.918  63.978  1.00  0.00    -0.368 C  
HETATM   17  O   UNL     1     -11.198  12.266  62.985  1.00  0.00    -0.677 OA 
HETATM   18  H   UNL     1     -10.658  11.819  62.344  1.00  0.00     0.000 HD 
ENDBRANCH   2  16
TORSDOF 6
ENDMDL
MODEL       43
REMARK 921   NORMALIZED FREE ENERGY PREDICTED BY IDOCK:   -4.06 KCAL/MOL
REMARK 922        TOTAL FREE ENERGY PREDICTED BY IDOCK:   -6.01 KCAL/MOL
REMARK 923 INTER-LIGAND FREE ENERGY PREDICTED BY IDOCK:   -5.59 KCAL/MOL
REMARK 924 INTRA-LIGAND FREE ENERGY PREDICTED BY IDOCK:   -0.42 KCAL/MOL
REMARK 927      BINDING AFFINITY PREDICTED BY RF-SCORE:    0.00 PKD
ROOT
HETATM    1  C   UNL     1      -9.851  13.542  67.778  1.00  0.00    -0.233 C  
HETATM    2  C   UNL     1     -11.379  13.296  67.716  1.00  0.00    -0.327 C  
HETATM    3  C   UNL     1     -11.583  11.769  67.640  1.00  0.00    -0.364 C  
ENDROOT
BRANCH   2   4
HETATM    4  C   UNL     1     -11.977  14.013  66.467  1.00  0.00    -0.444 C  
HETATM    5  O   UNL     1     -11.189  15.137  66.054  1.00  0.00    -0.338 OA 
HETATM    6  H   UNL     1     -11.552  15.574  65.294  1.00  0.00     0.000 HD 
BRANCH   4   7
HETATM    7  C   UNL     1     -12.180  13.092  65.239  1.00  0.00    -0.466 C  
HETATM    8  O   UNL     1     -13.262  12.620  64.896  1.00  0.00    -0.819 OA 
HETATM    9  N   UNL     1     -11.031  12.870  64.506  1.00  0.00    -0.330 N  
HETATM   10  H   UNL     1     -10.155  13.305  64.795  1.00  0.00     0.000 HD 
BRANCH   9  11
HETATM   11  C   UNL     1     -11.059  12.024  63.331  1.00  0.00    -0.398 C  
BRANCH  11  12
HETATM   12  C   UNL     1      -9.766  11.247  63.108  1.00  0.00    -0.408 C  
BRANCH  12  13
HETATM   13  C   UNL     1      -9.268  10.493  64.334  1.00  0.00    -0.245 C  
HETATM   14  O   UNL     1      -8.630  11.407  65.223  1.00  0.00    -0.387 OA 
HETATM   15  H   UNL     1      -8.320  10.938  65.987  1.00  0.00     0.000 HD 
ENDBRANCH  12  13
ENDBRANCH  11  12
ENDBRANCH   9  11
ENDBRANCH   4   7
ENDBRANCH   2   4
BRANCH   2  16
HETATM   16  C   UNL     1     -12.002  13.886  69.010  1.00  0.00    -0.364 C  
HETATM   17  O   UNL     1     -11.107  13.808  70.113  1.00  0.00    -0.467 OA 
HETATM   18  H   UNL     1     -11.488  14.170  70.905  1.00  0.00     0.000 HD 
ENDBRANCH   2  16
TORSDOF 6
ENDMDL
MODEL       44
REMARK 921   NORMALIZED FREE ENERGY PREDICTED BY IDOCK:   -4.05 KCAL/MOL
REMARK 922        TOTAL FREE ENERGY PREDICTED BY IDOCK:   -6.00 KCAL/MOL
REMARK 923 INTER-LIGAND FREE ENERGY PREDICTED BY IDOCK:   -5.74 KCAL/MOL
REMARK 924 INTRA-LIGAND FREE ENERGY PREDICTED BY IDOCK:   -0.26 KCAL/MOL
REMARK 927      BINDING AFFINITY PREDICTED BY RF-SCORE:    0.00 PKD
ROOT
HETATM    1  C   UNL     1     -11.658  12.113  65.294  1.00  0.00    -0.376 C  
HETATM    2  C   UNL     1     -11.084  12.804  66.555  1.00  0.00    -0.321 C  
HETATM    3  C   UNL     1     -11.407  11.887  67.753  1.00  0.00    -0.361 C  
ENDROOT
BRANCH   2   4
HETATM    4  C   UNL     1     -11.734  14.212  66.725  1.00  0.00    -0.410 C  
HETATM    5  O   UNL     1     -13.152  14.186  66.515  1.00  0.00    -0.302 OA 
HETATM    6  H   UNL     1     -13.548  15.043  66.618  1.00  0.00     0.000 HD 
BRANCH   4   7
HETATM    7  C   UNL     1     -11.463  14.879  68.096  1.00  0.00    -0.330 C  
HETATM    8  O   UNL     1     -10.415  15.446  68.397  1.00  0.00    -0.232 OA 
HETATM    9  N   UNL     1     -12.534  14.832  68.966  1.00  0.00    -0.578 N  
HETATM   10  H   UNL     1     -13.404  14.387  68.674  1.00  0.00     0.000 HD 
BRANCH   9  11
HETATM   11  C   UNL     1     -12.433  15.410  70.290  1.00  0.00    -0.374 C  
BRANCH  11  12
HETATM   12  C   UNL     1     -13.680  15.202  71.143  1.00  0.00    -0.510 C  
BRANCH  12  13
HETATM   13  C   UNL     1     -13.417  14.529  72.483  1.00  0.00    -0.483 C  
HETATM   14  O   UNL     1     -14.141  13.302  72.546  1.00  0.00    -0.709 OA 
HETATM   15  H   UNL     1     -13.977  12.882  73.382  1.00  0.00     0.000 HD 
ENDBRANCH  12  13
ENDBRANCH  11  12
ENDBRANCH   9  11
ENDBRANCH   4   7
ENDBRANCH   2   4
BRANCH   2  16
HETATM   16  C   UNL     1      -9.552  12.953  66.354  1.00  0.00    -0.252 C  
HETATM   17  O   UNL     1      -9.214  14.205  65.767  1.00  0.00    -0.505 OA 
HETATM   18  H   UNL     1      -8.276  14.297  65.643  1.00  0.00     0.000 HD 
ENDBRANCH   2  16
TORSDOF 6
ENDMDL
MODEL       45
REMARK 921   NORMALIZED FREE ENERGY PREDICTED BY IDOCK:   -4.05 KCAL/MOL
REMARK 922        TOTAL FREE ENERGY PREDICTED BY IDOCK:   -5.99 KCAL/MOL
REMARK 923 INTER-LIGAND FREE ENERGY PREDICTED BY IDOCK:   -5.68 KCAL/MOL
REMARK 924 INTRA-LIGAND FREE ENERGY PREDICTED BY IDOCK:   -0.31 KCAL/MOL
REMARK 927      BINDING AFFINITY PREDICTED BY RF-SCORE:    0.00 PKD
ROOT
HETATM    1  C   UNL     1     -10.545  13.824  64.530  1.00  0.00    -0.405 C  
HETATM    2  C   UNL     1     -11.637  12.832  65.001  1.00  0.00    -0.372 C  
HETATM    3  C   UNL     1     -12.718  13.666  65.720  1.00  0.00    -0.470 C  
ENDROOT
BRANCH   2   4
HETATM    4  C   UNL     1     -11.007  11.773  65.957  1.00  0.00    -0.306 C  
HETATM    5  O   UNL     1      -9.676  11.410  65.567  1.00  0.00    -0.215 OA 
HETATM    6  H   UNL     1      -9.292  10.765  66.149  1.00  0.00     0.000 HD 
BRANCH   4   7
HETATM    7  C   UNL     1     -10.973  12.197  67.446  1.00  0.00    -0.260 C  
HETATM    8  O   UNL     1     -10.352  13.166  67.877  1.00  0.00    -0.221 OA 
HETATM    9  N   UNL     1     -11.753  11.414  68.272  1.00  0.00    -0.305 N  
HETATM   10  H   UNL     1     -12.287  10.639  67.879  1.00  0.00     0.000 HD 
BRANCH   9  11
HETATM   11  C   UNL     1     -11.821  11.684  69.694  1.00  0.00    -0.352 C  
BRANCH  11  12
HETATM   12  C   UNL     1     -11.843  10.424  70.553  1.00  0.00    -0.430 C  
BRANCH  12  13
HETATM   13  C   UNL     1     -13.086  10.277  71.419  1.00  0.00    -0.414 C  
HETATM   14  O   UNL     1     -13.895   9.218  70.911  1.00  0.00    -0.579 OA 
HETATM   15  H   UNL     1     -14.670   9.127  71.451  1.00  0.00     0.000 HD 
ENDBRANCH  12  13
ENDBRANCH  11  12
ENDBRANCH   9  11
ENDBRANCH   4   7
ENDBRANCH   2   4
BRANCH   2  16
HETATM   16  C   UNL     1     -12.209  12.129  63.741  1.00  0.00    -0.531 C  
HETATM   17  O   UNL     1     -11.224  11.343  63.079  1.00  0.00    -0.821 OA 
HETATM   18  H   UNL     1     -11.574  10.913  62.307  1.00  0.00     0.000 HD 
ENDBRANCH   2  16
TORSDOF 6
ENDMDL
MODEL       46
REMARK 921   NORMALIZED FREE ENERGY PREDICTED BY IDOCK:   -4.04 KCAL/MOL
REMARK 922        TOTAL FREE ENERGY PREDICTED BY IDOCK:   -5.98 KCAL/MOL
REMARK 923 INTER-LIGAND FREE ENERGY PREDICTED BY IDOCK:   -5.05 KCAL/MOL
REMARK 924 INTRA-LIGAND FREE ENERGY PREDICTED BY IDOCK:   -0.93 KCAL/MOL
REMARK 927      BINDING AFFINITY PREDICTED BY RF-SCORE:    0.00 PKD
ROOT
HETATM    1  C   UNL     1      -9.776   9.265  71.161  1.00  0.00    -0.327 C  
HETATM    2  C   UNL     1     -10.746   8.143  71.606  1.00  0.00    -0.299 C  
HETATM    3  C   UNL     1     -10.176   7.553  72.913  1.00  0.00    -0.331 C  
ENDROOT
BRANCH   2   4
HETATM    4  C   UNL     1     -10.843   7.059  70.488  1.00  0.00    -0.251 C  
HETATM    5  O   UNL     1     -12.201   6.735  70.160  1.00  0.00    -0.634 OA 
HETATM    6  H   UNL     1     -12.260   6.076  69.480  1.00  0.00     0.000 HD 
BRANCH   4   7
HETATM    7  C   UNL     1     -10.106   7.426  69.178  1.00  0.00    -0.189 C  
HETATM    8  O   UNL     1      -8.914   7.213  68.968  1.00  0.00    -0.135 OA 
HETATM    9  N   UNL     1     -10.920   7.985  68.211  1.00  0.00    -0.428 N  
HETATM   10  H   UNL     1     -11.913   8.115  68.401  1.00  0.00     0.000 HD 
BRANCH   9  11
HETATM   11  C   UNL     1     -10.374   8.386  66.931  1.00  0.00    -0.307 C  
BRANCH  11  12
HETATM   12  C   UNL     1     -10.498   9.881  66.658  1.00  0.00    -0.239 C  
BRANCH  12  13
HETATM   13  C   UNL     1     -10.754  10.726  67.898  1.00  0.00    -0.239 C  
HETATM   14  O   UNL     1     -12.156  10.778  68.153  1.00  0.00    -0.802 OA 
HETATM   15  H   UNL     1     -12.315  11.305  68.927  1.00  0.00     0.000 HD 
ENDBRANCH  12  13
ENDBRANCH  11  12
ENDBRANCH   9  11
ENDBRANCH   4   7
ENDBRANCH   2   4
BRANCH   2  16
HETATM   16  C   UNL     1     -12.138   8.788  71.836  1.00  0.00    -0.363 C  
HETATM   17  O   UNL     1     -12.653   9.376  70.646  1.00  0.00    -0.505 OA 
HETATM   18  H   UNL     1     -13.506   9.771  70.786  1.00  0.00     0.000 HD 
ENDBRANCH   2  16
TORSDOF 6
ENDMDL
MODEL       47
REMARK 921   NORMALIZED FREE ENERGY PREDICTED BY IDOCK:   -4.04 KCAL/MOL
REMARK 922        TOTAL FREE ENERGY PREDICTED BY IDOCK:   -5.98 KCAL/MOL
REMARK 923 INTER-LIGAND FREE ENERGY PREDICTED BY IDOCK:   -5.44 KCAL/MOL
REMARK 924 INTRA-LIGAND FREE ENERGY PREDICTED BY IDOCK:   -0.55 KCAL/MOL
REMARK 927      BINDING AFFINITY PREDICTED BY RF-SCORE:    0.00 PKD
ROOT
HETATM    1  C   UNL     1     -12.516   9.477  71.680  1.00  0.00    -0.476 C  
HETATM    2  C   UNL     1     -12.027   8.009  71.624  1.00  0.00    -0.336 C  
HETATM    3  C   UNL     1     -11.244   7.748  72.928  1.00  0.00    -0.434 C  
ENDROOT
BRANCH   2   4
HETATM    4  C   UNL     1     -11.125   7.803  70.368  1.00  0.00    -0.251 C  
HETATM    5  O   UNL     1     -11.738   6.952  69.390  1.00  0.00    -0.585 OA 
HETATM    6  H   UNL     1     -11.189   6.826  68.626  1.00  0.00     0.000 HD 
BRANCH   4   7
HETATM    7  C   UNL     1     -10.702   9.116  69.665  1.00  0.00    -0.225 C  
HETATM    8  O   UNL     1      -9.891   9.918  70.122  1.00  0.00    -0.247 OA 
HETATM    9  N   UNL     1     -11.282   9.303  68.426  1.00  0.00    -0.449 N  
HETATM   10  H   UNL     1     -11.923   8.601  68.056  1.00  0.00     0.000 HD 
BRANCH   9  11
HETATM   11  C   UNL     1     -10.988  10.488  67.647  1.00  0.00    -0.314 C  
BRANCH  11  12
HETATM   12  C   UNL     1     -11.888  11.674  67.977  1.00  0.00    -0.295 C  
BRANCH  12  13
HETATM   13  C   UNL     1     -11.197  12.791  68.746  1.00  0.00    -0.283 C  
HETATM   14  O   UNL     1     -11.438  12.622  70.142  1.00  0.00    -0.526 OA 
HETATM   15  H   UNL     1     -11.007  13.319  70.622  1.00  0.00     0.000 HD 
ENDBRANCH  12  13
ENDBRANCH  11  12
ENDBRANCH   9  11
ENDBRANCH   4   7
ENDBRANCH   2   4
BRANCH   2  16
HETATM   16  C   UNL     1     -13.282   7.100  71.525  1.00  0.00    -0.360 C  
HETATM   17  O   UNL     1     -14.377   7.772  70.915  1.00  0.00    -0.656 OA 
HETATM   18  H   UNL     1     -15.146   7.216  70.855  1.00  0.00     0.000 HD 
ENDBRANCH   2  16
TORSDOF 6
ENDMDL
MODEL       48
REMARK 921   NORMALIZED FREE ENERGY PREDICTED BY IDOCK:   -4.03 KCAL/MOL
REMARK 922        TOTAL FREE ENERGY PREDICTED BY IDOCK:   -5.96 KCAL/MOL
REMARK 923 INTER-LIGAND FREE ENERGY PREDICTED BY IDOCK:   -5.32 KCAL/MOL
REMARK 924 INTRA-LIGAND FREE ENERGY PREDICTED BY IDOCK:   -0.65 KCAL/MOL
REMARK 927      BINDING AFFINITY PREDICTED BY RF-SCORE:    0.00 PKD
ROOT
HETATM    1  C   UNL     1     -10.176  15.103  65.456  1.00  0.00    -0.405 C  
HETATM    2  C   UNL     1     -11.429  14.209  65.287  1.00  0.00    -0.330 C  
HETATM    3  C   UNL     1     -12.061  14.057  66.687  1.00  0.00    -0.487 C  
ENDROOT
BRANCH   2   4
HETATM    4  C   UNL     1     -11.013  12.826  64.698  1.00  0.00    -0.327 C  
HETATM    5  O   UNL     1     -10.050  12.950  63.643  1.00  0.00    -0.676 OA 
HETATM    6  H   UNL     1      -9.796  12.109  63.284  1.00  0.00     0.000 HD 
BRANCH   4   7
HETATM    7  C   UNL     1     -10.455  11.829  65.743  1.00  0.00    -0.260 C  
HETATM    8  O   UNL     1     -11.151  11.138  66.484  1.00  0.00    -0.263 OA 
HETATM    9  N   UNL     1      -9.078  11.732  65.749  1.00  0.00    -0.394 N  
HETATM   10  H   UNL     1      -8.528  12.291  65.096  1.00  0.00     0.000 HD 
BRANCH   9  11
HETATM   11  C   UNL     1      -8.406  10.844  66.675  1.00  0.00    -0.143 C  
BRANCH  11  12
HETATM   12  C   UNL     1      -7.638   9.718  65.991  1.00  0.00    -0.102 C  
BRANCH  12  13
HETATM   13  C   UNL     1      -8.520   8.692  65.293  1.00  0.00    -0.179 C  
HETATM   14  O   UNL     1      -9.782   8.624  65.954  1.00  0.00    -0.418 OA 
HETATM   15  H   UNL     1     -10.332   7.985  65.518  1.00  0.00     0.000 HD 
ENDBRANCH  12  13
ENDBRANCH  11  12
ENDBRANCH   9  11
ENDBRANCH   4   7
ENDBRANCH   2   4
BRANCH   2  16
HETATM   16  C   UNL     1     -12.392  14.930  64.307  1.00  0.00    -0.277 C  
HETATM   17  O   UNL     1     -12.554  14.206  63.093  1.00  0.00    -1.058 OA 
HETATM   18  H   UNL     1     -13.143  14.647  62.492  1.00  0.00     0.000 HD 
ENDBRANCH   2  16
TORSDOF 6
ENDMDL
MODEL       49
REMARK 921   NORMALIZED FREE ENERGY PREDICTED BY IDOCK:   -3.99 KCAL/MOL
REMARK 922        TOTAL FREE ENERGY PREDICTED BY IDOCK:   -5.92 KCAL/MOL
REMARK 923 INTER-LIGAND FREE ENERGY PREDICTED BY IDOCK:   -5.18 KCAL/MOL
REMARK 924 INTRA-LIGAND FREE ENERGY PREDICTED BY IDOCK:   -0.74 KCAL/MOL
REMARK 927      BINDING AFFINITY PREDICTED BY RF-SCORE:    0.00 PKD
ROOT
HETATM    1  C   UNL     1     -11.658  11.945  66.483  1.00  0.00    -0.328 C  
HETATM    2  C   UNL     1     -11.587  13.455  66.146  1.00  0.00    -0.378 C  
HETATM    3  C   UNL     1     -12.867  13.796  65.354  1.00  0.00    -0.455 C  
ENDROOT
BRANCH   2   4
HETATM    4  C   UNL     1     -10.305  13.746  65.307  1.00  0.00    -0.361 C  
HETATM    5  O   UNL     1     -10.448  13.349  63.936  1.00  0.00    -0.543 OA 
HETATM    6  H   UNL     1      -9.668  13.526  63.426  1.00  0.00     0.000 HD 
BRANCH   4   7
HETATM    7  C   UNL     1      -9.848  15.225  65.333  1.00  0.00    -0.283 C  
HETATM    8  O   UNL     1     -10.431  16.143  64.758  1.00  0.00    -0.592 OA 
HETATM    9  N   UNL     1      -8.731  15.456  66.111  1.00  0.00    -0.442 N  
HETATM   10  H   UNL     1      -8.290  14.680  66.606  1.00  0.00     0.000 HD 
BRANCH   9  11
HETATM   11  C   UNL     1      -8.180  16.790  66.231  1.00  0.00    -0.324 C  
BRANCH  11  12
HETATM   12  C   UNL     1      -8.348  17.396  67.621  1.00  0.00    -0.214 C  
BRANCH  12  13
HETATM   13  C   UNL     1      -9.794  17.525  68.078  1.00  0.00    -0.299 C  
HETATM   14  O   UNL     1     -10.568  18.114  67.035  1.00  0.00    -0.378 OA 
HETATM   15  H   UNL     1     -11.471  18.194  67.320  1.00  0.00     0.000 HD 
ENDBRANCH  12  13
ENDBRANCH  11  12
ENDBRANCH   9  11
ENDBRANCH   4   7
ENDBRANCH   2   4
BRANCH   2  16
HETATM   16  C   UNL     1     -11.526  14.234  67.487  1.00  0.00    -0.345 C  
HETATM   17  O   UNL     1     -10.426  13.821  68.290  1.00  0.00    -0.235 OA 
HETATM   18  H   UNL     1     -10.389  14.298  69.112  1.00  0.00     0.000 HD 
ENDBRANCH   2  16
TORSDOF 6
ENDMDL
MODEL       50
REMARK 921   NORMALIZED FREE ENERGY PREDICTED BY IDOCK:   -3.98 KCAL/MOL
REMARK 922        TOTAL FREE ENERGY PREDICTED BY IDOCK:   -5.90 KCAL/MOL
REMARK 923 INTER-LIGAND FREE ENERGY PREDICTED BY IDOCK:   -5.45 KCAL/MOL
REMARK 924 INTRA-LIGAND FREE ENERGY PREDICTED BY IDOCK:   -0.45 KCAL/MOL
REMARK 927      BINDING AFFINITY PREDICTED BY RF-SCORE:    0.00 PKD
ROOT
HETATM    1  C   UNL     1      -9.865  14.625  66.374  1.00  0.00    -0.302 C  
HETATM    2  C   UNL     1     -11.188  14.130  67.010  1.00  0.00    -0.328 C  
HETATM    3  C   UNL     1     -12.181  13.901  65.852  1.00  0.00    -0.497 C  
ENDROOT
BRANCH   2   4
HETATM    4  C   UNL     1     -11.721  15.200  68.012  1.00  0.00    -0.285 C  
HETATM    5  O   UNL     1     -12.365  14.609  69.148  1.00  0.00    -0.543 OA 
HETATM    6  H   UNL     1     -12.690  15.260  69.759  1.00  0.00     0.000 HD 
BRANCH   4   7
HETATM    7  C   UNL     1     -10.642  16.184  68.528  1.00  0.00    -0.284 C  
HETATM    8  O   UNL     1      -9.748  15.883  69.315  1.00  0.00    -0.233 OA 
HETATM    9  N   UNL     1     -10.731  17.451  67.987  1.00  0.00    -0.390 N  
HETATM   10  H   UNL     1     -11.462  17.661  67.308  1.00  0.00     0.000 HD 
BRANCH   9  11
HETATM   11  C   UNL     1      -9.794  18.485  68.376  1.00  0.00    -0.372 C  
BRANCH  11  12
HETATM   12  C   UNL     1      -9.955  19.780  67.588  1.00  0.00    -0.535 C  
BRANCH  12  13
HETATM   13  C   UNL     1      -9.301  19.763  66.213  1.00  0.00    -0.391 C  
HETATM   14  O   UNL     1      -8.807  18.453  65.941  1.00  0.00    -0.491 OA 
HETATM   15  H   UNL     1      -8.400  18.442  65.083  1.00  0.00     0.000 HD 
ENDBRANCH  12  13
ENDBRANCH  11  12
ENDBRANCH   9  11
ENDBRANCH   4   7
ENDBRANCH   2   4
BRANCH   2  16
HETATM   16  C   UNL     1     -10.882  12.809  67.764  1.00  0.00    -0.225 C  
HETATM   17  O   UNL     1     -11.949  11.874  67.650  1.00  0.00    -0.575 OA 
HETATM   18  H   UNL     1     -11.761  11.064  68.112  1.00  0.00     0.000 HD 
ENDBRANCH   2  16
TORSDOF 6
ENDMDL
MODEL       51
REMARK 921   NORMALIZED FREE ENERGY PREDICTED BY IDOCK:   -3.96 KCAL/MOL
REMARK 922        TOTAL FREE ENERGY PREDICTED BY IDOCK:   -5.87 KCAL/MOL
REMARK 923 INTER-LIGAND FREE ENERGY PREDICTED BY IDOCK:   -5.54 KCAL/MOL
REMARK 924 INTRA-LIGAND FREE ENERGY PREDICTED BY IDOCK:   -0.33 KCAL/MOL
REMARK 927      BINDING AFFINITY PREDICTED BY RF-SCORE:    0.00 PKD
ROOT
HETATM    1  C   UNL     1      -9.804  14.935  66.331  1.00  0.00    -0.292 C  
HETATM    2  C   UNL     1     -10.953  14.531  65.375  1.00  0.00    -0.346 C  
HETATM    3  C   UNL     1     -11.310  15.785  64.550  1.00  0.00    -0.324 C  
ENDROOT
BRANCH   2   4
HETATM    4  C   UNL     1     -12.175  14.030  66.205  1.00  0.00    -0.465 C  
HETATM    5  O   UNL     1     -12.848  12.931  65.576  1.00  0.00    -0.531 OA 
HETATM    6  H   UNL     1     -13.592  12.626  66.081  1.00  0.00     0.000 HD 
BRANCH   4   7
HETATM    7  C   UNL     1     -11.833  13.616  67.657  1.00  0.00    -0.369 C  
HETATM    8  O   UNL     1     -11.045  12.722  67.957  1.00  0.00    -0.228 OA 
HETATM    9  N   UNL     1     -12.460  14.379  68.622  1.00  0.00    -0.550 N  
HETATM   10  H   UNL     1     -13.080  15.139  68.343  1.00  0.00     0.000 HD 
BRANCH   9  11
HETATM   11  C   UNL     1     -12.244  14.110  70.029  1.00  0.00    -0.357 C  
BRANCH  11  12
HETATM   12  C   UNL     1     -11.587  15.266  70.777  1.00  0.00    -0.371 C  
BRANCH  12  13
HETATM   13  C   UNL     1     -10.460  15.947  70.013  1.00  0.00    -0.291 C  
HETATM   14  O   UNL     1      -9.303  15.114  70.036  1.00  0.00    -0.456 OA 
HETATM   15  H   UNL     1      -8.600  15.539  69.559  1.00  0.00     0.000 HD 
ENDBRANCH  12  13
ENDBRANCH  11  12
ENDBRANCH   9  11
ENDBRANCH   4   7
ENDBRANCH   2   4
BRANCH   2  16
HETATM   16  C   UNL     1     -10.429  13.386  64.468  1.00  0.00    -0.413 C  
HETATM   17  O   UNL     1     -11.253  13.196  63.323  1.00  0.00    -0.547 OA 
HETATM   18  H   UNL     1     -10.933  12.495  62.768  1.00  0.00     0.000 HD 
ENDBRANCH   2  16
TORSDOF 6
ENDMDL
MODEL       52
REMARK 921   NORMALIZED FREE ENERGY PREDICTED BY IDOCK:   -3.94 KCAL/MOL
REMARK 922        TOTAL FREE ENERGY PREDICTED BY IDOCK:   -5.84 KCAL/MOL
REMARK 923 INTER-LIGAND FREE ENERGY PREDICTED BY IDOCK:   -5.11 KCAL/MOL
REMARK 924 INTRA-LIGAND FREE ENERGY PREDICTED BY IDOCK:   -0.73 KCAL/MOL
REMARK 927      BINDING AFFINITY PREDICTED BY RF-SCORE:    0.00 PKD
ROOT
HETATM    1  C   UNL     1     -11.344   6.669  69.552  1.00  0.00    -0.358 C  
HETATM    2  C   UNL     1     -10.737   6.293  70.926  1.00  0.00    -0.314 C  
HETATM    3  C   UNL     1     -10.258   4.830  70.817  1.00  0.00    -0.246 C  
ENDROOT
BRANCH   2   4
HETATM    4  C   UNL     1     -11.816   6.456  72.040  1.00  0.00    -0.333 C  
HETATM    5  O   UNL     1     -11.249   6.855  73.295  1.00  0.00    -0.503 OA 
HETATM    6  H   UNL     1     -11.906   6.955  73.973  1.00  0.00     0.000 HD 
BRANCH   4   7
HETATM    7  C   UNL     1     -12.950   7.450  71.688  1.00  0.00    -0.366 C  
HETATM    8  O   UNL     1     -14.038   7.124  71.217  1.00  0.00    -0.351 OA 
HETATM    9  N   UNL     1     -12.662   8.765  71.994  1.00  0.00    -0.360 N  
HETATM   10  H   UNL     1     -11.765   9.001  72.418  1.00  0.00     0.000 HD 
BRANCH   9  11
HETATM   11  C   UNL     1     -13.623   9.813  71.719  1.00  0.00    -0.313 C  
BRANCH  11  12
HETATM   12  C   UNL     1     -12.994  11.195  71.577  1.00  0.00    -0.542 C  
BRANCH  12  13
HETATM   13  C   UNL     1     -12.112  11.359  70.347  1.00  0.00    -0.384 C  
HETATM   14  O   UNL     1     -12.536  10.446  69.337  1.00  0.00    -0.687 OA 
HETATM   15  H   UNL     1     -11.986  10.548  68.569  1.00  0.00     0.000 HD 
ENDBRANCH  12  13
ENDBRANCH  11  12
ENDBRANCH   9  11
ENDBRANCH   4   7
ENDBRANCH   2   4
BRANCH   2  16
HETATM   16  C   UNL     1      -9.552   7.258  71.196  1.00  0.00    -0.160 C  
HETATM   17  O   UNL     1      -9.951   8.622  71.122  1.00  0.00    -0.192 OA 
HETATM   18  H   UNL     1      -9.225   9.213  71.287  1.00  0.00     0.000 HD 
ENDBRANCH   2  16
TORSDOF 6
ENDMDL
MODEL       53
REMARK 921   NORMALIZED FREE ENERGY PREDICTED BY IDOCK:   -3.93 KCAL/MOL
REMARK 922        TOTAL FREE ENERGY PREDICTED BY IDOCK:   -5.83 KCAL/MOL
REMARK 923 INTER-LIGAND FREE ENERGY PREDICTED BY IDOCK:   -5.53 KCAL/MOL
REMARK 924 INTRA-LIGAND FREE ENERGY PREDICTED BY IDOCK:   -0.30 KCAL/MOL
REMARK 927      BINDING AFFINITY PREDICTED BY RF-SCORE:    0.00 PKD
ROOT
HETATM    1  C   UNL     1     -10.280  19.150  68.268  1.00  0.00    -0.486 C  
HETATM    2  C   UNL     1      -9.825  18.670  66.868  1.00  0.00    -0.356 C  
HETATM    3  C   UNL     1     -10.348  19.705  65.850  1.00  0.00    -0.584 C  
ENDROOT
BRANCH   2   4
HETATM    4  C   UNL     1     -10.406  17.251  66.584  1.00  0.00    -0.305 C  
HETATM    5  O   UNL     1      -9.753  16.604  65.484  1.00  0.00    -0.538 OA 
HETATM    6  H   UNL     1     -10.107  15.740  65.312  1.00  0.00     0.000 HD 
BRANCH   4   7
HETATM    7  C   UNL     1     -10.367  16.291  67.799  1.00  0.00    -0.287 C  
HETATM    8  O   UNL     1      -9.337  15.922  68.359  1.00  0.00    -0.193 OA 
HETATM    9  N   UNL     1     -11.613  15.906  68.252  1.00  0.00    -0.325 N  
HETATM   10  H   UNL     1     -12.451  16.259  67.790  1.00  0.00     0.000 HD 
BRANCH   9  11
HETATM   11  C   UNL     1     -11.740  15.006  69.379  1.00  0.00    -0.326 C  
BRANCH  11  12
HETATM   12  C   UNL     1     -12.354  15.657  70.614  1.00  0.00    -0.457 C  
BRANCH  12  13
HETATM   13  C   UNL     1     -11.530  15.495  71.884  1.00  0.00    -0.423 C  
HETATM   14  O   UNL     1     -11.966  16.445  72.854  1.00  0.00    -0.525 OA 
HETATM   15  H   UNL     1     -11.452  16.344  73.646  1.00  0.00     0.000 HD 
ENDBRANCH  12  13
ENDBRANCH  11  12
ENDBRANCH   9  11
ENDBRANCH   4   7
ENDBRANCH   2   4
BRANCH   2  16
HETATM   16  C   UNL     1      -8.274  18.612  66.872  1.00  0.00    -0.261 C  
HETATM   17  O   UNL     1      -7.726  18.997  65.616  1.00  0.00    -0.465 OA 
HETATM   18  H   UNL     1      -6.776  18.961  65.618  1.00  0.00     0.000 HD 
ENDBRANCH   2  16
TORSDOF 6
ENDMDL
MODEL       54
REMARK 921   NORMALIZED FREE ENERGY PREDICTED BY IDOCK:   -3.92 KCAL/MOL
REMARK 922        TOTAL FREE ENERGY PREDICTED BY IDOCK:   -5.81 KCAL/MOL
REMARK 923 INTER-LIGAND FREE ENERGY PREDICTED BY IDOCK:   -5.52 KCAL/MOL
REMARK 924 INTRA-LIGAND FREE ENERGY PREDICTED BY IDOCK:   -0.30 KCAL/MOL
REMARK 927      BINDING AFFINITY PREDICTED BY RF-SCORE:    0.00 PKD
ROOT
HETATM    1  C   UNL     1     -12.362  14.659  64.402  1.00  0.00    -0.420 C  
HETATM    2  C   UNL     1     -11.750  13.270  64.711  1.00  0.00    -0.390 C  
HETATM    3  C   UNL     1     -12.409  12.265  63.743  1.00  0.00    -0.637 C  
ENDROOT
BRANCH   2   4
HETATM    4  C   UNL     1     -12.028  12.893  66.198  1.00  0.00    -0.429 C  
HETATM    5  O   UNL     1     -11.695  11.528  66.486  1.00  0.00    -0.455 OA 
HETATM    6  H   UNL     1     -11.864  11.298  67.392  1.00  0.00     0.000 HD 
BRANCH   4   7
HETATM    7  C   UNL     1     -11.305  13.792  67.230  1.00  0.00    -0.321 C  
HETATM    8  O   UNL     1     -10.172  13.585  67.659  1.00  0.00    -0.233 OA 
HETATM    9  N   UNL     1     -12.028  14.905  67.611  1.00  0.00    -0.492 N  
HETATM   10  H   UNL     1     -12.951  15.070  67.210  1.00  0.00     0.000 HD 
BRANCH   9  11
HETATM   11  C   UNL     1     -11.486  15.841  68.575  1.00  0.00    -0.379 C  
BRANCH  11  12
HETATM   12  C   UNL     1     -10.844  17.068  67.938  1.00  0.00    -0.302 C  
BRANCH  12  13
HETATM   13  C   UNL     1      -9.954  17.870  68.879  1.00  0.00    -0.334 C  
HETATM   14  O   UNL     1     -10.018  19.250  68.527  1.00  0.00    -0.384 OA 
HETATM   15  H   UNL     1      -9.464  19.750  69.114  1.00  0.00     0.000 HD 
ENDBRANCH  12  13
ENDBRANCH  11  12
ENDBRANCH   9  11
ENDBRANCH   4   7
ENDBRANCH   2   4
BRANCH   2  16
HETATM   16  C   UNL     1     -10.220  13.367  64.470  1.00  0.00    -0.297 C  
HETATM   17  O   UNL     1      -9.560  12.136  64.742  1.00  0.00    -0.443 OA 
HETATM   18  H   UNL     1      -8.623  12.195  64.595  1.00  0.00     0.000 HD 
ENDBRANCH   2  16
TORSDOF 6
ENDMDL
MODEL       55
REMARK 921   NORMALIZED FREE ENERGY PREDICTED BY IDOCK:   -3.90 KCAL/MOL
REMARK 922        TOTAL FREE ENERGY PREDICTED BY IDOCK:   -5.80 KCAL/MOL
REMARK 923 INTER-LIGAND FREE ENERGY PREDICTED BY IDOCK:   -5.60 KCAL/MOL
REMARK 924 INTRA-LIGAND FREE ENERGY PREDICTED BY IDOCK:   -0.20 KCAL/MOL
REMARK 927      BINDING AFFINITY PREDICTED BY RF-SCORE:    0.00 PKD
ROOT
HETATM    1  C   UNL     1      -9.837  10.251  69.550  1.00  0.00    -0.244 C  
HETATM    2  C   UNL     1      -9.615  10.653  68.071  1.00  0.00    -0.167 C  
HETATM    3  C   UNL     1      -9.081  12.101  68.076  1.00  0.00    -0.190 C  
ENDROOT
BRANCH   2   4
HETATM    4  C   UNL     1     -10.960  10.545  67.289  1.00  0.00    -0.260 C  
HETATM    5  O   UNL     1     -12.089  10.913  68.093  1.00  0.00    -0.785 OA 
HETATM    6  H   UNL     1     -12.908  10.848  67.618  1.00  0.00     0.000 HD 
BRANCH   4   7
HETATM    7  C   UNL     1     -11.008  11.378  65.985  1.00  0.00    -0.226 C  
HETATM    8  O   UNL     1     -10.442  11.065  64.940  1.00  0.00    -0.309 OA 
HETATM    9  N   UNL     1     -11.797  12.508  66.067  1.00  0.00    -0.423 N  
HETATM   10  H   UNL     1     -12.285  12.723  66.937  1.00  0.00     0.000 HD 
BRANCH   9  11
HETATM   11  C   UNL     1     -11.938  13.392  64.929  1.00  0.00    -0.378 C  
BRANCH  11  12
HETATM   12  C   UNL     1     -10.776  14.366  64.766  1.00  0.00    -0.423 C  
BRANCH  12  13
HETATM   13  C   UNL     1     -11.139  15.823  65.018  1.00  0.00    -0.370 C  
HETATM   14  O   UNL     1     -11.577  16.419  63.798  1.00  0.00    -1.605 OA 
HETATM   15  H   UNL     1     -11.804  17.327  63.956  1.00  0.00     0.000 HD 
ENDBRANCH  12  13
ENDBRANCH  11  12
ENDBRANCH   9  11
ENDBRANCH   4   7
ENDBRANCH   2   4
BRANCH   2  16
HETATM   16  C   UNL     1      -8.576   9.669  67.468  1.00  0.00    -0.126 C  
HETATM   17  O   UNL     1      -7.376  10.332  67.087  1.00  0.00    -0.089 OA 
HETATM   18  H   UNL     1      -6.740   9.730  66.718  1.00  0.00     0.000 HD 
ENDBRANCH   2  16
TORSDOF 6
ENDMDL
MODEL       56
REMARK 921   NORMALIZED FREE ENERGY PREDICTED BY IDOCK:   -3.90 KCAL/MOL
REMARK 922        TOTAL FREE ENERGY PREDICTED BY IDOCK:   -5.78 KCAL/MOL
REMARK 923 INTER-LIGAND FREE ENERGY PREDICTED BY IDOCK:   -5.76 KCAL/MOL
REMARK 924 INTRA-LIGAND FREE ENERGY PREDICTED BY IDOCK:   -0.03 KCAL/MOL
REMARK 927      BINDING AFFINITY PREDICTED BY RF-SCORE:    0.00 PKD
ROOT
HETATM    1  C   UNL     1     -11.087  14.455  64.643  1.00  0.00    -0.363 C  
HETATM    2  C   UNL     1     -11.253  12.917  64.703  1.00  0.00    -0.353 C  
HETATM    3  C   UNL     1     -12.767  12.635  64.801  1.00  0.00    -0.460 C  
ENDROOT
BRANCH   2   4
HETATM    4  C   UNL     1     -10.489  12.353  65.940  1.00  0.00    -0.256 C  
HETATM    5  O   UNL     1      -9.259  13.049  66.184  1.00  0.00    -0.440 OA 
HETATM    6  H   UNL     1      -8.794  12.706  66.937  1.00  0.00     0.000 HD 
BRANCH   4   7
HETATM    7  C   UNL     1     -11.310  12.354  67.252  1.00  0.00    -0.323 C  
HETATM    8  O   UNL     1     -12.075  11.455  67.594  1.00  0.00    -0.630 OA 
HETATM    9  N   UNL     1     -11.079  13.450  68.060  1.00  0.00    -0.246 N  
HETATM   10  H   UNL     1     -10.411  14.163  67.767  1.00  0.00     0.000 HD 
BRANCH   9  11
HETATM   11  C   UNL     1     -11.778  13.596  69.320  1.00  0.00    -0.325 C  
BRANCH  11  12
HETATM   12  C   UNL     1     -11.853  15.038  69.812  1.00  0.00    -0.357 C  
BRANCH  12  13
HETATM   13  C   UNL     1     -12.891  15.276  70.900  1.00  0.00    -0.449 C  
HETATM   14  O   UNL     1     -13.373  14.020  71.375  1.00  0.00    -0.340 OA 
HETATM   15  H   UNL     1     -14.021  14.169  72.054  1.00  0.00     0.000 HD 
ENDBRANCH  12  13
ENDBRANCH  11  12
ENDBRANCH   9  11
ENDBRANCH   4   7
ENDBRANCH   2   4
BRANCH   2  16
HETATM   16  C   UNL     1     -10.651  12.328  63.399  1.00  0.00    -0.385 C  
HETATM   17  O   UNL     1     -11.436  11.256  62.888  1.00  0.00    -0.829 OA 
HETATM   18  H   UNL     1     -11.067  10.896  62.090  1.00  0.00     0.000 HD 
ENDBRANCH   2  16
TORSDOF 6
ENDMDL
MODEL       57
REMARK 921   NORMALIZED FREE ENERGY PREDICTED BY IDOCK:   -3.89 KCAL/MOL
REMARK 922        TOTAL FREE ENERGY PREDICTED BY IDOCK:   -5.78 KCAL/MOL
REMARK 923 INTER-LIGAND FREE ENERGY PREDICTED BY IDOCK:   -4.93 KCAL/MOL
REMARK 924 INTRA-LIGAND FREE ENERGY PREDICTED BY IDOCK:   -0.85 KCAL/MOL
REMARK 927      BINDING AFFINITY PREDICTED BY RF-SCORE:    0.00 PKD
ROOT
HETATM    1  C   UNL     1     -10.650   8.265  67.200  1.00  0.00    -0.340 C  
HETATM    2  C   UNL     1      -9.957   9.509  67.810  1.00  0.00    -0.216 C  
HETATM    3  C   UNL     1      -8.699   9.781  66.959  1.00  0.00    -0.141 C  
ENDROOT
BRANCH   2   4
HETATM    4  C   UNL     1      -9.587   9.228  69.299  1.00  0.00    -0.161 C  
HETATM    5  O   UNL     1      -9.961  10.306  70.167  1.00  0.00    -0.418 OA 
HETATM    6  H   UNL     1      -9.735  10.135  71.073  1.00  0.00     0.000 HD 
BRANCH   4   7
HETATM    7  C   UNL     1     -10.190   7.921  69.869  1.00  0.00    -0.210 C  
HETATM    8  O   UNL     1      -9.586   6.853  69.945  1.00  0.00    -0.157 OA 
HETATM    9  N   UNL     1     -11.478   8.056  70.347  1.00  0.00    -0.436 N  
HETATM   10  H   UNL     1     -11.940   8.964  70.305  1.00  0.00     0.000 HD 
BRANCH   9  11
HETATM   11  C   UNL     1     -12.179   6.920  70.908  1.00  0.00    -0.353 C  
BRANCH  11  12
HETATM   12  C   UNL     1     -13.559   7.265  71.458  1.00  0.00    -0.442 C  
BRANCH  12  13
HETATM   13  C   UNL     1     -13.718   8.718  71.885  1.00  0.00    -0.433 C  
HETATM   14  O   UNL     1     -13.802   9.545  70.726  1.00  0.00    -0.552 OA 
HETATM   15  H   UNL     1     -13.901  10.451  70.993  1.00  0.00     0.000 HD 
ENDBRANCH  12  13
ENDBRANCH  11  12
ENDBRANCH   9  11
ENDBRANCH   4   7
ENDBRANCH   2   4
BRANCH   2  16
HETATM   16  C   UNL     1     -10.960  10.691  67.731  1.00  0.00    -0.306 C  
HETATM   17  O   UNL     1     -12.133  10.443  68.498  1.00  0.00    -0.767 OA 
HETATM   18  H   UNL     1     -12.748  11.167  68.450  1.00  0.00     0.000 HD 
ENDBRANCH   2  16
TORSDOF 6
ENDMDL
MODEL       58
REMARK 921   NORMALIZED FREE ENERGY PREDICTED BY IDOCK:   -3.89 KCAL/MOL
REMARK 922        TOTAL FREE ENERGY PREDICTED BY IDOCK:   -5.78 KCAL/MOL
REMARK 923 INTER-LIGAND FREE ENERGY PREDICTED BY IDOCK:   -5.02 KCAL/MOL
REMARK 924 INTRA-LIGAND FREE ENERGY PREDICTED BY IDOCK:   -0.76 KCAL/MOL
REMARK 927      BINDING AFFINITY PREDICTED BY RF-SCORE:    0.00 PKD
ROOT
HETATM    1  C   UNL     1      -8.887  10.958  68.675  1.00  0.00    -0.158 C  
HETATM    2  C   UNL     1     -10.376  10.721  68.321  1.00  0.00    -0.195 C  
HETATM    3  C   UNL     1     -10.402  10.023  66.945  1.00  0.00    -0.297 C  
ENDROOT
BRANCH   2   4
HETATM    4  C   UNL     1     -11.130  12.086  68.281  1.00  0.00    -0.243 C  
HETATM    5  O   UNL     1     -10.664  12.996  69.286  1.00  0.00    -0.435 OA 
HETATM    6  H   UNL     1     -11.123  13.826  69.262  1.00  0.00     0.000 HD 
BRANCH   4   7
HETATM    7  C   UNL     1     -11.070  12.808  66.913  1.00  0.00    -0.270 C  
HETATM    8  O   UNL     1     -10.133  13.510  66.539  1.00  0.00    -0.268 OA 
HETATM    9  N   UNL     1     -12.156  12.561  66.098  1.00  0.00    -0.369 N  
HETATM   10  H   UNL     1     -12.902  11.944  66.421  1.00  0.00     0.000 HD 
BRANCH   9  11
HETATM   11  C   UNL     1     -12.247  13.170  64.787  1.00  0.00    -0.425 C  
BRANCH  11  12
HETATM   12  C   UNL     1     -12.051  12.183  63.641  1.00  0.00    -0.648 C  
BRANCH  12  13
HETATM   13  C   UNL     1     -10.605  11.766  63.413  1.00  0.00    -0.420 C  
HETATM   14  O   UNL     1      -9.742  12.852  63.743  1.00  0.00    -0.669 OA 
HETATM   15  H   UNL     1      -8.840  12.591  63.601  1.00  0.00     0.000 HD 
ENDBRANCH  12  13
ENDBRANCH  11  12
ENDBRANCH   9  11
ENDBRANCH   4   7
ENDBRANCH   2   4
BRANCH   2  16
HETATM   16  C   UNL     1     -10.983   9.816  69.426  1.00  0.00    -0.212 C  
HETATM   17  O   UNL     1     -11.020  10.473  70.688  1.00  0.00    -0.415 OA 
HETATM   18  H   UNL     1     -11.392   9.919  71.365  1.00  0.00     0.000 HD 
ENDBRANCH   2  16
TORSDOF 6
ENDMDL
MODEL       59
REMARK 921   NORMALIZED FREE ENERGY PREDICTED BY IDOCK:   -3.87 KCAL/MOL
REMARK 922        TOTAL FREE ENERGY PREDICTED BY IDOCK:   -5.76 KCAL/MOL
REMARK 923 INTER-LIGAND FREE ENERGY PREDICTED BY IDOCK:   -5.37 KCAL/MOL
REMARK 924 INTRA-LIGAND FREE ENERGY PREDICTED BY IDOCK:   -0.39 KCAL/MOL
REMARK 927      BINDING AFFINITY PREDICTED BY RF-SCORE:    0.00 PKD
ROOT
HETATM    1  C   UNL     1     -10.253  10.006  66.576  1.00  0.00    -0.291 C  
HETATM    2  C   UNL     1     -10.461  11.540  66.528  1.00  0.00    -0.284 C  
HETATM    3  C   UNL     1      -9.299  12.174  67.321  1.00  0.00    -0.183 C  
ENDROOT
BRANCH   2   4
HETATM    4  C   UNL     1     -11.842  11.902  67.157  1.00  0.00    -0.139 C  
HETATM    5  O   UNL     1     -12.258  10.950  68.145  1.00  0.00    -0.781 OA 
HETATM    6  H   UNL     1     -13.098  11.170  68.528  1.00  0.00     0.000 HD 
BRANCH   4   7
HETATM    7  C   UNL     1     -11.903  13.313  67.793  1.00  0.00    -0.353 C  
HETATM    8  O   UNL     1     -11.863  14.363  67.156  1.00  0.00    -0.388 OA 
HETATM    9  N   UNL     1     -12.060  13.305  69.164  1.00  0.00    -0.284 N  
HETATM   10  H   UNL     1     -12.128  12.417  69.661  1.00  0.00     0.000 HD 
BRANCH   9  11
HETATM   11  C   UNL     1     -12.130  14.549  69.904  1.00  0.00    -0.336 C  
BRANCH  11  12
HETATM   12  C   UNL     1     -12.336  14.356  71.403  1.00  0.00    -0.433 C  
BRANCH  12  13
HETATM   13  C   UNL     1     -11.736  15.458  72.265  1.00  0.00    -0.469 C  
HETATM   14  O   UNL     1     -11.705  16.675  71.521  1.00  0.00    -0.641 OA 
HETATM   15  H   UNL     1     -11.331  17.363  72.059  1.00  0.00     0.000 HD 
ENDBRANCH  12  13
ENDBRANCH  11  12
ENDBRANCH   9  11
ENDBRANCH   4   7
ENDBRANCH   2   4
BRANCH   2  16
HETATM   16  C   UNL     1     -10.432  11.972  65.038  1.00  0.00    -0.287 C  
HETATM   17  O   UNL     1     -10.081  13.343  64.889  1.00  0.00    -0.501 OA 
HETATM   18  H   UNL     1     -10.064  13.608  63.977  1.00  0.00     0.000 HD 
ENDBRANCH   2  16
TORSDOF 6
ENDMDL
MODEL       60
REMARK 921   NORMALIZED FREE ENERGY PREDICTED BY IDOCK:   -3.87 KCAL/MOL
REMARK 922        TOTAL FREE ENERGY PREDICTED BY IDOCK:   -5.74 KCAL/MOL
REMARK 923 INTER-LIGAND FREE ENERGY PREDICTED BY IDOCK:   -5.54 KCAL/MOL
REMARK 924 INTRA-LIGAND FREE ENERGY PREDICTED BY IDOCK:   -0.21 KCAL/MOL
REMARK 927      BINDING AFFINITY PREDICTED BY RF-SCORE:    0.00 PKD
ROOT
HETATM    1  C   UNL     1      -9.083   7.038  65.879  1.00  0.00    -0.048 C  
HETATM    2  C   UNL     1      -9.836   7.583  67.118  1.00  0.00    -0.263 C  
HETATM    3  C   UNL     1      -8.830   7.583  68.289  1.00  0.00    -0.125 C  
ENDROOT
BRANCH   2   4
HETATM    4  C   UNL     1     -11.067   6.676  67.426  1.00  0.00    -0.320 C  
HETATM    5  O   UNL     1     -11.133   5.535  66.560  1.00  0.00    -0.603 OA 
HETATM    6  H   UNL     1     -11.883   4.983  66.747  1.00  0.00     0.000 HD 
BRANCH   4   7
HETATM    7  C   UNL     1     -11.139   6.174  68.889  1.00  0.00    -0.345 C  
HETATM    8  O   UNL     1     -10.570   5.168  69.307  1.00  0.00    -0.192 OA 
HETATM    9  N   UNL     1     -11.873   6.989  69.728  1.00  0.00    -0.590 N  
HETATM   10  H   UNL     1     -12.303   7.838  69.361  1.00  0.00     0.000 HD 
BRANCH   9  11
HETATM   11  C   UNL     1     -12.036   6.649  71.126  1.00  0.00    -0.357 C  
BRANCH  11  12
HETATM   12  C   UNL     1     -12.223   7.863  72.031  1.00  0.00    -0.357 C  
BRANCH  12  13
HETATM   13  C   UNL     1     -13.604   8.498  71.949  1.00  0.00    -0.396 C  
HETATM   14  O   UNL     1     -13.993   8.952  73.244  1.00  0.00    -1.203 OA 
HETATM   15  H   UNL     1     -14.854   9.349  73.193  1.00  0.00     0.000 HD 
ENDBRANCH  12  13
ENDBRANCH  11  12
ENDBRANCH   9  11
ENDBRANCH   4   7
ENDBRANCH   2   4
BRANCH   2  16
HETATM   16  C   UNL     1     -10.313   9.021  66.783  1.00  0.00    -0.240 C  
HETATM   17  O   UNL     1     -11.206   9.528  67.769  1.00  0.00    -0.500 OA 
HETATM   18  H   UNL     1     -11.498  10.409  67.563  1.00  0.00     0.000 HD 
ENDBRANCH   2  16
TORSDOF 6
ENDMDL
MODEL       61
REMARK 921   NORMALIZED FREE ENERGY PREDICTED BY IDOCK:   -3.86 KCAL/MOL
REMARK 922        TOTAL FREE ENERGY PREDICTED BY IDOCK:   -5.74 KCAL/MOL
REMARK 923 INTER-LIGAND FREE ENERGY PREDICTED BY IDOCK:   -5.05 KCAL/MOL
REMARK 924 INTRA-LIGAND FREE ENERGY PREDICTED BY IDOCK:   -0.68 KCAL/MOL
REMARK 927      BINDING AFFINITY PREDICTED BY RF-SCORE:    0.00 PKD
ROOT
HETATM    1  C   UNL     1     -10.398  14.191  65.431  1.00  0.00    -0.384 C  
HETATM    2  C   UNL     1     -11.358  13.002  65.181  1.00  0.00    -0.320 C  
HETATM    3  C   UNL     1     -11.709  12.413  66.564  1.00  0.00    -0.443 C  
ENDROOT
BRANCH   2   4
HETATM    4  C   UNL     1     -10.658  11.944  64.274  1.00  0.00    -0.334 C  
HETATM    5  O   UNL     1      -9.811  12.547  63.287  1.00  0.00    -0.581 OA 
HETATM    6  H   UNL     1      -9.385  11.903  62.734  1.00  0.00     0.000 HD 
BRANCH   4   7
HETATM    7  C   UNL     1      -9.824  10.892  65.046  1.00  0.00    -0.281 C  
HETATM    8  O   UNL     1     -10.226   9.770  65.344  1.00  0.00    -0.246 OA 
HETATM    9  N   UNL     1      -8.539  11.301  65.343  1.00  0.00    -0.386 N  
HETATM   10  H   UNL     1      -8.222  12.225  65.050  1.00  0.00     0.000 HD 
BRANCH   9  11
HETATM   11  C   UNL     1      -7.638  10.429  66.067  1.00  0.00    -0.137 C  
BRANCH  11  12
HETATM   12  C   UNL     1      -7.184  10.999  67.407  1.00  0.00    -0.103 C  
BRANCH  12  13
HETATM   13  C   UNL     1      -7.925  12.258  67.837  1.00  0.00    -0.152 C  
HETATM   14  O   UNL     1      -7.427  13.373  67.100  1.00  0.00    -0.355 OA 
HETATM   15  H   UNL     1      -7.890  14.158  67.368  1.00  0.00     0.000 HD 
ENDBRANCH  12  13
ENDBRANCH  11  12
ENDBRANCH   9  11
ENDBRANCH   4   7
ENDBRANCH   2   4
BRANCH   2  16
HETATM   16  C   UNL     1     -12.619  13.557  64.466  1.00  0.00    -0.206 C  
HETATM   17  O   UNL     1     -12.345  13.925  63.119  1.00  0.00    -1.122 OA 
HETATM   18  H   UNL     1     -13.117  14.265  62.681  1.00  0.00     0.000 HD 
ENDBRANCH   2  16
TORSDOF 6
ENDMDL
MODEL       62
REMARK 921   NORMALIZED FREE ENERGY PREDICTED BY IDOCK:   -3.85 KCAL/MOL
REMARK 922        TOTAL FREE ENERGY PREDICTED BY IDOCK:   -5.72 KCAL/MOL
REMARK 923 INTER-LIGAND FREE ENERGY PREDICTED BY IDOCK:   -5.23 KCAL/MOL
REMARK 924 INTRA-LIGAND FREE ENERGY PREDICTED BY IDOCK:   -0.48 KCAL/MOL
REMARK 927      BINDING AFFINITY PREDICTED BY RF-SCORE:    0.00 PKD
ROOT
HETATM    1  C   UNL     1      -9.006  12.952  67.009  1.00  0.00    -0.225 C  
HETATM    2  C   UNL     1     -10.113  13.879  66.447  1.00  0.00    -0.298 C  
HETATM    3  C   UNL     1      -9.507  15.295  66.360  1.00  0.00    -0.326 C  
ENDROOT
BRANCH   2   4
HETATM    4  C   UNL     1     -11.353  13.848  67.393  1.00  0.00    -0.326 C  
HETATM    5  O   UNL     1     -12.544  14.312  66.744  1.00  0.00    -0.563 OA 
HETATM    6  H   UNL     1     -13.299  14.294  67.319  1.00  0.00     0.000 HD 
BRANCH   4   7
HETATM    7  C   UNL     1     -11.651  12.460  68.009  1.00  0.00    -0.347 C  
HETATM    8  O   UNL     1     -12.101  11.503  67.382  1.00  0.00    -0.593 OA 
HETATM    9  N   UNL     1     -11.318  12.355  69.346  1.00  0.00    -0.401 N  
HETATM   10  H   UNL     1     -10.912  13.154  69.830  1.00  0.00     0.000 HD 
BRANCH   9  11
HETATM   11  C   UNL     1     -11.543  11.118  70.064  1.00  0.00    -0.338 C  
BRANCH  11  12
HETATM   12  C   UNL     1     -10.349  10.169  70.032  1.00  0.00    -0.301 C  
BRANCH  12  13
HETATM   13  C   UNL     1     -10.652   8.800  69.439  1.00  0.00    -0.209 C  
HETATM   14  O   UNL     1     -11.139   8.959  68.108  1.00  0.00    -0.472 OA 
HETATM   15  H   UNL     1     -11.328   8.105  67.738  1.00  0.00     0.000 HD 
ENDBRANCH  12  13
ENDBRANCH  11  12
ENDBRANCH   9  11
ENDBRANCH   4   7
ENDBRANCH   2   4
BRANCH   2  16
HETATM   16  C   UNL     1     -10.507  13.344  65.045  1.00  0.00    -0.365 C  
HETATM   17  O   UNL     1      -9.603  12.345  64.585  1.00  0.00    -0.471 OA 
HETATM   18  H   UNL     1      -9.844  12.017  63.726  1.00  0.00     0.000 HD 
ENDBRANCH   2  16
TORSDOF 6
ENDMDL
MODEL       63
REMARK 921   NORMALIZED FREE ENERGY PREDICTED BY IDOCK:   -3.83 KCAL/MOL
REMARK 922        TOTAL FREE ENERGY PREDICTED BY IDOCK:   -5.69 KCAL/MOL
REMARK 923 INTER-LIGAND FREE ENERGY PREDICTED BY IDOCK:   -5.33 KCAL/MOL
REMARK 924 INTRA-LIGAND FREE ENERGY PREDICTED BY IDOCK:   -0.36 KCAL/MOL
REMARK 927      BINDING AFFINITY PREDICTED BY RF-SCORE:    0.00 PKD
ROOT
HETATM    1  C   UNL     1      -8.895  15.687  66.236  1.00  0.00    -0.364 C  
HETATM    2  C   UNL     1     -10.161  16.576  66.302  1.00  0.00    -0.347 C  
HETATM    3  C   UNL     1     -10.632  16.574  67.772  1.00  0.00    -0.332 C  
ENDROOT
BRANCH   2   4
HETATM    4  C   UNL     1     -11.257  16.001  65.353  1.00  0.00    -0.047 C  
HETATM    5  O   UNL     1     -11.247  16.630  64.064  1.00  0.00    -1.449 OA 
HETATM    6  H   UNL     1     -11.914  16.280  63.486  1.00  0.00     0.000 HD 
BRANCH   4   7
HETATM    7  C   UNL     1     -11.178  14.470  65.141  1.00  0.00    -0.367 C  
HETATM    8  O   UNL     1     -10.590  13.927  64.208  1.00  0.00    -0.328 OA 
HETATM    9  N   UNL     1     -11.793  13.731  66.133  1.00  0.00    -0.376 N  
HETATM   10  H   UNL     1     -12.240  14.209  66.915  1.00  0.00     0.000 HD 
BRANCH   9  11
HETATM   11  C   UNL     1     -11.807  12.285  66.072  1.00  0.00    -0.341 C  
BRANCH  11  12
HETATM   12  C   UNL     1     -11.432  11.616  67.390  1.00  0.00    -0.357 C  
BRANCH  12  13
HETATM   13  C   UNL     1     -10.507  12.443  68.273  1.00  0.00    -0.225 C  
HETATM   14  O   UNL     1     -11.094  12.590  69.564  1.00  0.00    -0.447 OA 
HETATM   15  H   UNL     1     -10.517  13.106  70.114  1.00  0.00     0.000 HD 
ENDBRANCH  12  13
ENDBRANCH  11  12
ENDBRANCH   9  11
ENDBRANCH   4   7
ENDBRANCH   2   4
BRANCH   2  16
HETATM   16  C   UNL     1      -9.758  18.002  65.839  1.00  0.00     0.018 C  
HETATM   17  O   UNL     1     -10.862  18.900  65.866  1.00  0.00    -0.367 OA 
HETATM   18  H   UNL     1     -10.616  19.773  65.582  1.00  0.00     0.000 HD 
ENDBRANCH   2  16
TORSDOF 6
ENDMDL
MODEL       64
REMARK 921   NORMALIZED FREE ENERGY PREDICTED BY IDOCK:   -3.80 KCAL/MOL
REMARK 922        TOTAL FREE ENERGY PREDICTED BY IDOCK:   -5.65 KCAL/MOL
REMARK 923 INTER-LIGAND FREE ENERGY PREDICTED BY IDOCK:   -5.28 KCAL/MOL
REMARK 924 INTRA-LIGAND FREE ENERGY PREDICTED BY IDOCK:   -0.38 KCAL/MOL
REMARK 927      BINDING AFFINITY PREDICTED BY RF-SCORE:    0.00 PKD
ROOT
HETATM    1  C   UNL     1     -10.342   8.649  72.189  1.00  0.00    -0.403 C  
HETATM    2  C   UNL     1     -11.485   8.669  71.144  1.00  0.00    -0.332 C  
HETATM    3  C   UNL     1     -11.905   7.202  70.913  1.00  0.00    -0.379 C  
ENDROOT
BRANCH   2   4
HETATM    4  C   UNL     1     -10.978   9.328  69.824  1.00  0.00    -0.196 C  
HETATM    5  O   UNL     1     -10.145  10.469  70.070  1.00  0.00    -0.427 OA 
HETATM    6  H   UNL     1      -9.836  10.871  69.268  1.00  0.00     0.000 HD 
BRANCH   4   7
HETATM    7  C   UNL     1     -10.210   8.367  68.884  1.00  0.00    -0.210 C  
HETATM    8  O   UNL     1      -9.073   7.951  69.094  1.00  0.00    -0.145 OA 
HETATM    9  N   UNL     1     -10.936   7.958  67.783  1.00  0.00    -0.498 N  
HETATM   10  H   UNL     1     -11.892   8.291  67.655  1.00  0.00     0.000 HD 
BRANCH   9  11
HETATM   11  C   UNL     1     -10.352   7.061  66.808  1.00  0.00    -0.221 C  
BRANCH  11  12
HETATM   12  C   UNL     1     -10.621   5.588  67.097  1.00  0.00    -0.313 C  
BRANCH  12  13
HETATM   13  C   UNL     1     -10.350   4.659  65.922  1.00  0.00    -0.283 C  
HETATM   14  O   UNL     1     -11.533   4.533  65.137  1.00  0.00    -1.105 OA 
HETATM   15  H   UNL     1     -11.364   3.953  64.403  1.00  0.00     0.000 HD 
ENDBRANCH  12  13
ENDBRANCH  11  12
ENDBRANCH   9  11
ENDBRANCH   4   7
ENDBRANCH   2   4
BRANCH   2  16
HETATM   16  C   UNL     1     -12.650   9.505  71.736  1.00  0.00    -0.405 C  
HETATM   17  O   UNL     1     -12.832  10.731  71.037  1.00  0.00    -0.359 OA 
HETATM   18  H   UNL     1     -13.546  11.244  71.399  1.00  0.00     0.000 HD 
ENDBRANCH   2  16
TORSDOF 6
ENDMDL
MODEL       65
REMARK 921   NORMALIZED FREE ENERGY PREDICTED BY IDOCK:   -3.79 KCAL/MOL
REMARK 922        TOTAL FREE ENERGY PREDICTED BY IDOCK:   -5.65 KCAL/MOL
REMARK 923 INTER-LIGAND FREE ENERGY PREDICTED BY IDOCK:   -5.71 KCAL/MOL
REMARK 924 INTRA-LIGAND FREE ENERGY PREDICTED BY IDOCK:    0.07 KCAL/MOL
REMARK 927      BINDING AFFINITY PREDICTED BY RF-SCORE:    0.00 PKD
ROOT
HETATM    1  C   UNL     1     -10.304   8.861  72.016  1.00  0.00    -0.378 C  
HETATM    2  C   UNL     1     -11.303   8.727  70.840  1.00  0.00    -0.322 C  
HETATM    3  C   UNL     1     -11.321   7.238  70.436  1.00  0.00    -0.299 C  
ENDROOT
BRANCH   2   4
HETATM    4  C   UNL     1     -10.844   9.631  69.655  1.00  0.00    -0.244 C  
HETATM    5  O   UNL     1     -10.801   8.920  68.411  1.00  0.00    -0.427 OA 
HETATM    6  H   UNL     1     -10.521   9.470  67.689  1.00  0.00     0.000 HD 
BRANCH   4   7
HETATM    7  C   UNL     1     -11.704  10.902  69.452  1.00  0.00    -0.325 C  
HETATM    8  O   UNL     1     -12.518  11.053  68.544  1.00  0.00    -0.440 OA 
HETATM    9  N   UNL     1     -11.521  11.867  70.423  1.00  0.00    -0.440 N  
HETATM   10  H   UNL     1     -10.865  11.699  71.186  1.00  0.00     0.000 HD 
BRANCH   9  11
HETATM   11  C   UNL     1     -12.253  13.116  70.368  1.00  0.00    -0.316 C  
BRANCH  11  12
HETATM   12  C   UNL     1     -13.119  13.370  71.597  1.00  0.00    -0.463 C  
BRANCH  12  13
HETATM   13  C   UNL     1     -13.353  14.842  71.905  1.00  0.00    -0.363 C  
HETATM   14  O   UNL     1     -13.581  15.549  70.688  1.00  0.00    -0.826 OA 
HETATM   15  H   UNL     1     -13.727  16.467  70.880  1.00  0.00     0.000 HD 
ENDBRANCH  12  13
ENDBRANCH  11  12
ENDBRANCH   9  11
ENDBRANCH   4   7
ENDBRANCH   2   4
BRANCH   2  16
HETATM   16  C   UNL     1     -12.693   9.193  71.349  1.00  0.00    -0.318 C  
HETATM   17  O   UNL     1     -13.686   8.189  71.174  1.00  0.00    -0.550 OA 
HETATM   18  H   UNL     1     -14.538   8.474  71.486  1.00  0.00     0.000 HD 
ENDBRANCH   2  16
TORSDOF 6
ENDMDL
MODEL       66
REMARK 921   NORMALIZED FREE ENERGY PREDICTED BY IDOCK:   -3.79 KCAL/MOL
REMARK 922        TOTAL FREE ENERGY PREDICTED BY IDOCK:   -5.64 KCAL/MOL
REMARK 923 INTER-LIGAND FREE ENERGY PREDICTED BY IDOCK:   -4.91 KCAL/MOL
REMARK 924 INTRA-LIGAND FREE ENERGY PREDICTED BY IDOCK:   -0.73 KCAL/MOL
REMARK 927      BINDING AFFINITY PREDICTED BY RF-SCORE:    0.00 PKD
ROOT
HETATM    1  C   UNL     1     -10.874  16.820  68.220  1.00  0.00    -0.366 C  
HETATM    2  C   UNL     1      -9.947  17.878  67.572  1.00  0.00    -0.322 C  
HETATM    3  C   UNL     1     -10.741  19.199  67.524  1.00  0.00    -0.555 C  
ENDROOT
BRANCH   2   4
HETATM    4  C   UNL     1      -9.534  17.410  66.143  1.00  0.00    -0.169 C  
HETATM    5  O   UNL     1      -8.211  17.836  65.791  1.00  0.00    -0.538 OA 
HETATM    6  H   UNL     1      -7.959  17.551  64.921  1.00  0.00     0.000 HD 
BRANCH   4   7
HETATM    7  C   UNL     1      -9.620  15.880  65.923  1.00  0.00    -0.343 C  
HETATM    8  O   UNL     1      -8.833  15.064  66.397  1.00  0.00    -0.273 OA 
HETATM    9  N   UNL     1     -10.708  15.480  65.172  1.00  0.00    -0.418 N  
HETATM   10  H   UNL     1     -11.366  16.177  64.823  1.00  0.00     0.000 HD 
BRANCH   9  11
HETATM   11  C   UNL     1     -10.924  14.079  64.876  1.00  0.00    -0.392 C  
BRANCH  11  12
HETATM   12  C   UNL     1     -12.238  13.534  65.426  1.00  0.00    -0.482 C  
BRANCH  12  13
HETATM   13  C   UNL     1     -12.160  13.043  66.865  1.00  0.00    -0.285 C  
HETATM   14  O   UNL     1     -10.828  12.618  67.147  1.00  0.00    -0.244 OA 
HETATM   15  H   UNL     1     -10.779  12.312  68.045  1.00  0.00     0.000 HD 
ENDBRANCH  12  13
ENDBRANCH  11  12
ENDBRANCH   9  11
ENDBRANCH   4   7
ENDBRANCH   2   4
BRANCH   2  16
HETATM   16  C   UNL     1      -8.686  18.008  68.468  1.00  0.00    -0.295 C  
HETATM   17  O   UNL     1      -8.055  16.750  68.682  1.00  0.00    -0.228 OA 
HETATM   18  H   UNL     1      -7.283  16.829  69.230  1.00  0.00     0.000 HD 
ENDBRANCH   2  16
TORSDOF 6
ENDMDL
MODEL       67
REMARK 921   NORMALIZED FREE ENERGY PREDICTED BY IDOCK:   -3.78 KCAL/MOL
REMARK 922        TOTAL FREE ENERGY PREDICTED BY IDOCK:   -5.63 KCAL/MOL
REMARK 923 INTER-LIGAND FREE ENERGY PREDICTED BY IDOCK:   -4.98 KCAL/MOL
REMARK 924 INTRA-LIGAND FREE ENERGY PREDICTED BY IDOCK:   -0.65 KCAL/MOL
REMARK 927      BINDING AFFINITY PREDICTED BY RF-SCORE:    0.00 PKD
ROOT
HETATM    1  C   UNL     1     -11.150  12.120  66.639  1.00  0.00    -0.353 C  
HETATM    2  C   UNL     1     -11.403  12.959  65.362  1.00  0.00    -0.336 C  
HETATM    3  C   UNL     1     -12.700  13.759  65.603  1.00  0.00    -0.523 C  
ENDROOT
BRANCH   2   4
HETATM    4  C   UNL     1     -11.539  12.012  64.130  1.00  0.00    -0.379 C  
HETATM    5  O   UNL     1     -12.082  12.682  62.985  1.00  0.00    -0.664 OA 
HETATM    6  H   UNL     1     -12.165  12.105  62.235  1.00  0.00     0.000 HD 
BRANCH   4   7
HETATM    7  C   UNL     1     -10.218  11.326  63.704  1.00  0.00    -0.392 C  
HETATM    8  O   UNL     1      -9.358  11.851  63.000  1.00  0.00    -0.326 OA 
HETATM    9  N   UNL     1     -10.047  10.059  64.228  1.00  0.00    -0.443 N  
HETATM   10  H   UNL     1     -10.761   9.664  64.840  1.00  0.00     0.000 HD 
BRANCH   9  11
HETATM   11  C   UNL     1      -8.862   9.288  63.916  1.00  0.00    -0.126 C  
BRANCH  11  12
HETATM   12  C   UNL     1      -7.980   9.008  65.129  1.00  0.00    -0.119 C  
BRANCH  12  13
HETATM   13  C   UNL     1      -6.926  10.074  65.396  1.00  0.00    -0.127 C  
HETATM   14  O   UNL     1      -7.570  11.318  65.664  1.00  0.00    -0.362 OA 
HETATM   15  H   UNL     1      -6.912  11.983  65.831  1.00  0.00     0.000 HD 
ENDBRANCH  12  13
ENDBRANCH  11  12
ENDBRANCH   9  11
ENDBRANCH   4   7
ENDBRANCH   2   4
BRANCH   2  16
HETATM   16  C   UNL     1     -10.184  13.901  65.169  1.00  0.00    -0.358 C  
HETATM   17  O   UNL     1      -9.174  13.667  66.144  1.00  0.00    -0.475 OA 
HETATM   18  H   UNL     1      -8.427  14.243  66.026  1.00  0.00     0.000 HD 
ENDBRANCH   2  16
TORSDOF 6
ENDMDL
MODEL       68
REMARK 921   NORMALIZED FREE ENERGY PREDICTED BY IDOCK:   -3.76 KCAL/MOL
REMARK 922        TOTAL FREE ENERGY PREDICTED BY IDOCK:   -5.61 KCAL/MOL
REMARK 923 INTER-LIGAND FREE ENERGY PREDICTED BY IDOCK:   -5.00 KCAL/MOL
REMARK 924 INTRA-LIGAND FREE ENERGY PREDICTED BY IDOCK:   -0.61 KCAL/MOL
REMARK 927      BINDING AFFINITY PREDICTED BY RF-SCORE:    0.00 PKD
ROOT
HETATM    1  C   UNL     1      -9.744  15.154  66.170  1.00  0.00    -0.338 C  
HETATM    2  C   UNL     1     -10.925  14.714  65.270  1.00  0.00    -0.374 C  
HETATM    3  C   UNL     1     -11.352  15.953  64.455  1.00  0.00    -0.316 C  
ENDROOT
BRANCH   2   4
HETATM    4  C   UNL     1     -12.094  14.187  66.158  1.00  0.00    -0.435 C  
HETATM    5  O   UNL     1     -13.338  14.132  65.446  1.00  0.00    -0.705 OA 
HETATM    6  H   UNL     1     -14.049  13.811  65.986  1.00  0.00     0.000 HD 
BRANCH   4   7
HETATM    7  C   UNL     1     -11.839  12.796  66.788  1.00  0.00    -0.382 C  
HETATM    8  O   UNL     1     -12.024  11.727  66.211  1.00  0.00    -0.490 OA 
HETATM    9  N   UNL     1     -11.327  12.845  68.070  1.00  0.00    -0.272 N  
HETATM   10  H   UNL     1     -11.149  13.747  68.510  1.00  0.00     0.000 HD 
BRANCH   9  11
HETATM   11  C   UNL     1     -11.041  11.624  68.795  1.00  0.00    -0.230 C  
BRANCH  11  12
HETATM   12  C   UNL     1      -9.569  11.225  68.758  1.00  0.00    -0.160 C  
BRANCH  12  13
HETATM   13  C   UNL     1      -8.755  11.928  67.680  1.00  0.00    -0.162 C  
HETATM   14  O   UNL     1      -8.956  11.269  66.432  1.00  0.00    -0.176 OA 
HETATM   15  H   UNL     1      -8.448  11.708  65.759  1.00  0.00     0.000 HD 
ENDBRANCH  12  13
ENDBRANCH  11  12
ENDBRANCH   9  11
ENDBRANCH   4   7
ENDBRANCH   2   4
BRANCH   2  16
HETATM   16  C   UNL     1     -10.413  13.578  64.345  1.00  0.00    -0.346 C  
HETATM   17  O   UNL     1     -11.409  13.157  63.420  1.00  0.00    -0.613 OA 
HETATM   18  H   UNL     1     -11.096  12.461  62.854  1.00  0.00     0.000 HD 
ENDBRANCH   2  16
TORSDOF 6
ENDMDL
MODEL       69
REMARK 921   NORMALIZED FREE ENERGY PREDICTED BY IDOCK:   -3.75 KCAL/MOL
REMARK 922        TOTAL FREE ENERGY PREDICTED BY IDOCK:   -5.59 KCAL/MOL
REMARK 923 INTER-LIGAND FREE ENERGY PREDICTED BY IDOCK:   -5.40 KCAL/MOL
REMARK 924 INTRA-LIGAND FREE ENERGY PREDICTED BY IDOCK:   -0.19 KCAL/MOL
REMARK 927      BINDING AFFINITY PREDICTED BY RF-SCORE:    0.00 PKD
ROOT
HETATM    1  C   UNL     1      -8.217   9.360  67.607  1.00  0.00    -0.114 C  
HETATM    2  C   UNL     1      -9.669   9.682  67.176  1.00  0.00    -0.222 C  
HETATM    3  C   UNL     1     -10.329   8.342  66.791  1.00  0.00    -0.361 C  
ENDROOT
BRANCH   2   4
HETATM    4  C   UNL     1      -9.652  10.674  65.973  1.00  0.00    -0.198 C  
HETATM    5  O   UNL     1     -10.314  10.142  64.818  1.00  0.00    -0.259 OA 
HETATM    6  H   UNL     1     -10.303  10.745  64.085  1.00  0.00     0.000 HD 
BRANCH   4   7
HETATM    7  C   UNL     1     -10.265  12.062  66.281  1.00  0.00    -0.222 C  
HETATM    8  O   UNL     1      -9.680  12.962  66.880  1.00  0.00    -0.227 OA 
HETATM    9  N   UNL     1     -11.538  12.239  65.777  1.00  0.00    -0.380 N  
HETATM   10  H   UNL     1     -11.984  11.487  65.252  1.00  0.00     0.000 HD 
BRANCH   9  11
HETATM   11  C   UNL     1     -12.247  13.485  65.988  1.00  0.00    -0.445 C  
BRANCH  11  12
HETATM   12  C   UNL     1     -12.308  14.369  64.747  1.00  0.00    -0.427 C  
BRANCH  12  13
HETATM   13  C   UNL     1     -11.219  15.431  64.680  1.00  0.00    -0.364 C  
HETATM   14  O   UNL     1     -11.604  16.444  63.752  1.00  0.00    -1.605 OA 
HETATM   15  H   UNL     1     -10.925  17.107  63.711  1.00  0.00     0.000 HD 
ENDBRANCH  12  13
ENDBRANCH  11  12
ENDBRANCH   9  11
ENDBRANCH   4   7
ENDBRANCH   2   4
BRANCH   2  16
HETATM   16  C   UNL     1     -10.384  10.337  68.388  1.00  0.00    -0.177 C  
HETATM   17  O   UNL     1      -9.464  10.980  69.263  1.00  0.00    -0.397 OA 
HETATM   18  H   UNL     1      -9.902  11.381  70.005  1.00  0.00     0.000 HD 
ENDBRANCH   2  16
TORSDOF 6
ENDMDL
MODEL       70
REMARK 921   NORMALIZED FREE ENERGY PREDICTED BY IDOCK:   -3.75 KCAL/MOL
REMARK 922        TOTAL FREE ENERGY PREDICTED BY IDOCK:   -5.58 KCAL/MOL
REMARK 923 INTER-LIGAND FREE ENERGY PREDICTED BY IDOCK:   -5.53 KCAL/MOL
REMARK 924 INTRA-LIGAND FREE ENERGY PREDICTED BY IDOCK:   -0.06 KCAL/MOL
REMARK 927      BINDING AFFINITY PREDICTED BY RF-SCORE:    0.00 PKD
ROOT
HETATM    1  C   UNL     1     -10.995   9.808  70.071  1.00  0.00    -0.319 C  
HETATM    2  C   UNL     1     -10.576  10.504  68.752  1.00  0.00    -0.233 C  
HETATM    3  C   UNL     1      -9.076  10.840  68.880  1.00  0.00    -0.170 C  
ENDROOT
BRANCH   2   4
HETATM    4  C   UNL     1     -11.431  11.792  68.543  1.00  0.00    -0.296 C  
HETATM    5  O   UNL     1     -11.557  12.564  69.744  1.00  0.00    -0.406 OA 
HETATM    6  H   UNL     1     -12.077  13.347  69.617  1.00  0.00     0.000 HD 
BRANCH   4   7
HETATM    7  C   UNL     1     -10.913  12.727  67.423  1.00  0.00    -0.253 C  
HETATM    8  O   UNL     1     -10.095  13.628  67.594  1.00  0.00    -0.235 OA 
HETATM    9  N   UNL     1     -11.414  12.435  66.169  1.00  0.00    -0.359 N  
HETATM   10  H   UNL     1     -12.062  11.657  66.052  1.00  0.00     0.000 HD 
BRANCH   9  11
HETATM   11  C   UNL     1     -11.025  13.226  65.020  1.00  0.00    -0.313 C  
BRANCH  11  12
HETATM   12  C   UNL     1     -11.976  14.381  64.725  1.00  0.00    -0.455 C  
BRANCH  12  13
HETATM   13  C   UNL     1     -11.375  15.761  64.951  1.00  0.00    -0.280 C  
HETATM   14  O   UNL     1     -11.509  16.536  63.762  1.00  0.00    -1.615 OA 
HETATM   15  H   UNL     1     -11.134  17.397  63.903  1.00  0.00     0.000 HD 
ENDBRANCH  12  13
ENDBRANCH  11  12
ENDBRANCH   9  11
ENDBRANCH   4   7
ENDBRANCH   2   4
BRANCH   2  16
HETATM   16  C   UNL     1     -10.836   9.506  67.591  1.00  0.00    -0.187 C  
HETATM   17  O   UNL     1     -10.711   8.154  68.017  1.00  0.00    -0.406 OA 
HETATM   18  H   UNL     1     -10.870   7.543  67.306  1.00  0.00     0.000 HD 
ENDBRANCH   2  16
TORSDOF 6
ENDMDL
MODEL       71
REMARK 921   NORMALIZED FREE ENERGY PREDICTED BY IDOCK:   -3.74 KCAL/MOL
REMARK 922        TOTAL FREE ENERGY PREDICTED BY IDOCK:   -5.58 KCAL/MOL
REMARK 923 INTER-LIGAND FREE ENERGY PREDICTED BY IDOCK:   -4.96 KCAL/MOL
REMARK 924 INTRA-LIGAND FREE ENERGY PREDICTED BY IDOCK:   -0.61 KCAL/MOL
REMARK 927      BINDING AFFINITY PREDICTED BY RF-SCORE:    0.00 PKD
ROOT
HETATM    1  C   UNL     1      -9.407   9.853  68.391  1.00  0.00    -0.135 C  
HETATM    2  C   UNL     1     -10.110  11.181  68.016  1.00  0.00    -0.191 C  
HETATM    3  C   UNL     1      -9.058  12.300  68.163  1.00  0.00    -0.196 C  
ENDROOT
BRANCH   2   4
HETATM    4  C   UNL     1     -11.327  11.417  68.964  1.00  0.00    -0.280 C  
HETATM    5  O   UNL     1     -11.107  10.883  70.276  1.00  0.00    -0.441 OA 
HETATM    6  H   UNL     1     -11.847  11.026  70.853  1.00  0.00     0.000 HD 
BRANCH   4   7
HETATM    7  C   UNL     1     -11.741  12.901  69.112  1.00  0.00    -0.324 C  
HETATM    8  O   UNL     1     -12.155  13.602  68.191  1.00  0.00    -0.359 OA 
HETATM    9  N   UNL     1     -11.656  13.383  70.404  1.00  0.00    -0.525 N  
HETATM   10  H   UNL     1     -11.345  12.767  71.154  1.00  0.00     0.000 HD 
BRANCH   9  11
HETATM   11  C   UNL     1     -12.006  14.756  70.701  1.00  0.00    -0.309 C  
BRANCH  11  12
HETATM   12  C   UNL     1     -13.406  14.915  71.287  1.00  0.00    -0.490 C  
BRANCH  12  13
HETATM   13  C   UNL     1     -13.568  14.342  72.688  1.00  0.00    -0.490 C  
HETATM   14  O   UNL     1     -13.915  12.962  72.596  1.00  0.00    -0.727 OA 
HETATM   15  H   UNL     1     -14.016  12.604  73.470  1.00  0.00     0.000 HD 
ENDBRANCH  12  13
ENDBRANCH  11  12
ENDBRANCH   9  11
ENDBRANCH   4   7
ENDBRANCH   2   4
BRANCH   2  16
HETATM   16  C   UNL     1     -10.603  11.055  66.550  1.00  0.00    -0.254 C  
HETATM   17  O   UNL     1     -10.422  12.265  65.823  1.00  0.00    -0.243 OA 
HETATM   18  H   UNL     1     -10.723  12.188  64.925  1.00  0.00     0.000 HD 
ENDBRANCH   2  16
TORSDOF 6
ENDMDL
MODEL       72
REMARK 921   NORMALIZED FREE ENERGY PREDICTED BY IDOCK:   -3.73 KCAL/MOL
REMARK 922        TOTAL FREE ENERGY PREDICTED BY IDOCK:   -5.56 KCAL/MOL
REMARK 923 INTER-LIGAND FREE ENERGY PREDICTED BY IDOCK:   -5.17 KCAL/MOL
REMARK 924 INTRA-LIGAND FREE ENERGY PREDICTED BY IDOCK:   -0.39 KCAL/MOL
REMARK 927      BINDING AFFINITY PREDICTED BY RF-SCORE:    0.00 PKD
ROOT
HETATM    1  C   UNL     1      -8.914  11.542  68.244  1.00  0.00    -0.177 C  
HETATM    2  C   UNL     1      -9.754  10.924  67.100  1.00  0.00    -0.199 C  
HETATM    3  C   UNL     1      -9.763  11.949  65.947  1.00  0.00    -0.258 C  
ENDROOT
BRANCH   2   4
HETATM    4  C   UNL     1     -11.199  10.630  67.610  1.00  0.00    -0.290 C  
HETATM    5  O   UNL     1     -11.305   9.345  68.238  1.00  0.00    -0.495 OA 
HETATM    6  H   UNL     1     -12.184   9.166  68.548  1.00  0.00     0.000 HD 
BRANCH   4   7
HETATM    7  C   UNL     1     -11.758  11.690  68.589  1.00  0.00    -0.325 C  
HETATM    8  O   UNL     1     -12.011  12.854  68.283  1.00  0.00    -0.332 OA 
HETATM    9  N   UNL     1     -12.006  11.208  69.859  1.00  0.00    -0.332 N  
HETATM   10  H   UNL     1     -11.822  10.229  70.074  1.00  0.00     0.000 HD 
BRANCH   9  11
HETATM   11  C   UNL     1     -12.527  12.083  70.890  1.00  0.00    -0.288 C  
BRANCH  11  12
HETATM   12  C   UNL     1     -13.195  11.338  72.041  1.00  0.00    -0.437 C  
BRANCH  12  13
HETATM   13  C   UNL     1     -13.247   9.827  71.863  1.00  0.00    -0.449 C  
HETATM   14  O   UNL     1     -13.957   9.247  72.956  1.00  0.00    -0.978 OA 
HETATM   15  H   UNL     1     -13.990   8.304  72.845  1.00  0.00     0.000 HD 
ENDBRANCH  12  13
ENDBRANCH  11  12
ENDBRANCH   9  11
ENDBRANCH   4   7
ENDBRANCH   2   4
BRANCH   2  16
HETATM   16  C   UNL     1      -9.067   9.599  66.675  1.00  0.00    -0.148 C  
HETATM   17  O   UNL     1      -9.806   8.916  65.669  1.00  0.00    -0.469 OA 
HETATM   18  H   UNL     1      -9.385   8.105  65.408  1.00  0.00     0.000 HD 
ENDBRANCH   2  16
TORSDOF 6
ENDMDL
MODEL       73
REMARK 921   NORMALIZED FREE ENERGY PREDICTED BY IDOCK:   -3.73 KCAL/MOL
REMARK 922        TOTAL FREE ENERGY PREDICTED BY IDOCK:   -5.56 KCAL/MOL
REMARK 923 INTER-LIGAND FREE ENERGY PREDICTED BY IDOCK:   -5.51 KCAL/MOL
REMARK 924 INTRA-LIGAND FREE ENERGY PREDICTED BY IDOCK:   -0.05 KCAL/MOL
REMARK 927      BINDING AFFINITY PREDICTED BY RF-SCORE:    0.00 PKD
ROOT
HETATM    1  C   UNL     1      -8.862   9.478  70.090  1.00  0.00    -0.266 C  
HETATM    2  C   UNL     1     -10.387   9.227  70.199  1.00  0.00    -0.258 C  
HETATM    3  C   UNL     1     -10.682   7.926  69.424  1.00  0.00    -0.174 C  
ENDROOT
BRANCH   2   4
HETATM    4  C   UNL     1     -11.163  10.438  69.595  1.00  0.00    -0.277 C  
HETATM    5  O   UNL     1     -11.706  10.146  68.301  1.00  0.00    -0.673 OA 
HETATM    6  H   UNL     1     -12.179  10.883  67.933  1.00  0.00     0.000 HD 
BRANCH   4   7
HETATM    7  C   UNL     1     -12.309  10.971  70.489  1.00  0.00    -0.373 C  
HETATM    8  O   UNL     1     -13.286  10.309  70.834  1.00  0.00    -0.395 OA 
HETATM    9  N   UNL     1     -12.126  12.268  70.924  1.00  0.00    -0.425 N  
HETATM   10  H   UNL     1     -11.287  12.780  70.652  1.00  0.00     0.000 HD 
BRANCH   9  11
HETATM   11  C   UNL     1     -13.116  12.909  71.765  1.00  0.00    -0.360 C  
BRANCH  11  12
HETATM   12  C   UNL     1     -12.906  14.412  71.917  1.00  0.00    -0.426 C  
BRANCH  12  13
HETATM   13  C   UNL     1     -14.193  15.214  72.056  1.00  0.00    -0.577 C  
HETATM   14  O   UNL     1     -14.127  16.012  73.235  1.00  0.00    -0.676 OA 
HETATM   15  H   UNL     1     -14.930  16.513  73.322  1.00  0.00     0.000 HD 
ENDBRANCH  12  13
ENDBRANCH  11  12
ENDBRANCH   9  11
ENDBRANCH   4   7
ENDBRANCH   2   4
BRANCH   2  16
HETATM   16  C   UNL     1     -10.732   9.080  71.705  1.00  0.00    -0.367 C  
HETATM   17  O   UNL     1     -11.626   7.998  71.941  1.00  0.00    -0.268 OA 
HETATM   18  H   UNL     1     -11.838   7.908  72.863  1.00  0.00     0.000 HD 
ENDBRANCH   2  16
TORSDOF 6
ENDMDL
MODEL       74
REMARK 921   NORMALIZED FREE ENERGY PREDICTED BY IDOCK:   -3.72 KCAL/MOL
REMARK 922        TOTAL FREE ENERGY PREDICTED BY IDOCK:   -5.55 KCAL/MOL
REMARK 923 INTER-LIGAND FREE ENERGY PREDICTED BY IDOCK:   -5.33 KCAL/MOL
REMARK 924 INTRA-LIGAND FREE ENERGY PREDICTED BY IDOCK:   -0.22 KCAL/MOL
REMARK 927      BINDING AFFINITY PREDICTED BY RF-SCORE:    0.00 PKD
ROOT
HETATM    1  C   UNL     1     -11.089  11.540  66.527  1.00  0.00    -0.341 C  
HETATM    2  C   UNL     1     -10.977  12.716  67.530  1.00  0.00    -0.280 C  
HETATM    3  C   UNL     1     -11.483  12.192  68.890  1.00  0.00    -0.350 C  
ENDROOT
BRANCH   2   4
HETATM    4  C   UNL     1     -11.836  13.917  67.028  1.00  0.00    -0.415 C  
HETATM    5  O   UNL     1     -12.453  14.634  68.106  1.00  0.00    -0.587 OA 
HETATM    6  H   UNL     1     -12.976  15.365  67.801  1.00  0.00     0.000 HD 
BRANCH   4   7
HETATM    7  C   UNL     1     -11.061  14.935  66.155  1.00  0.00    -0.335 C  
HETATM    8  O   UNL     1     -10.845  14.796  64.953  1.00  0.00    -0.389 OA 
HETATM    9  N   UNL     1     -10.660  16.068  66.835  1.00  0.00    -0.314 N  
HETATM   10  H   UNL     1     -10.886  16.172  67.824  1.00  0.00     0.000 HD 
BRANCH   9  11
HETATM   11  C   UNL     1      -9.920  17.110  66.155  1.00  0.00    -0.281 C  
BRANCH  11  12
HETATM   12  C   UNL     1      -9.666  18.341  67.019  1.00  0.00    -0.305 C  
BRANCH  12  13
HETATM   13  C   UNL     1     -10.517  19.550  66.655  1.00  0.00    -0.488 C  
HETATM   14  O   UNL     1      -9.734  20.735  66.785  1.00  0.00    -0.649 OA 
HETATM   15  H   UNL     1     -10.265  21.489  66.558  1.00  0.00     0.000 HD 
ENDBRANCH  12  13
ENDBRANCH  11  12
ENDBRANCH   9  11
ENDBRANCH   4   7
ENDBRANCH   2   4
BRANCH   2  16
HETATM   16  C   UNL     1      -9.483  13.130  67.602  1.00  0.00    -0.207 C  
HETATM   17  O   UNL     1      -9.170  13.774  68.832  1.00  0.00    -0.390 OA 
HETATM   18  H   UNL     1      -8.256  14.028  68.876  1.00  0.00     0.000 HD 
ENDBRANCH   2  16
TORSDOF 6
ENDMDL
MODEL       75
REMARK 921   NORMALIZED FREE ENERGY PREDICTED BY IDOCK:   -3.72 KCAL/MOL
REMARK 922        TOTAL FREE ENERGY PREDICTED BY IDOCK:   -5.55 KCAL/MOL
REMARK 923 INTER-LIGAND FREE ENERGY PREDICTED BY IDOCK:   -4.96 KCAL/MOL
REMARK 924 INTRA-LIGAND FREE ENERGY PREDICTED BY IDOCK:   -0.59 KCAL/MOL
REMARK 927      BINDING AFFINITY PREDICTED BY RF-SCORE:    0.00 PKD
ROOT
HETATM    1  C   UNL     1      -9.288  11.006  68.775  1.00  0.00    -0.185 C  
HETATM    2  C   UNL     1     -10.596  10.190  68.922  1.00  0.00    -0.237 C  
HETATM    3  C   UNL     1     -10.769   9.384  67.618  1.00  0.00    -0.295 C  
ENDROOT
BRANCH   2   4
HETATM    4  C   UNL     1     -11.796  11.159  69.155  1.00  0.00    -0.350 C  
HETATM    5  O   UNL     1     -11.859  11.635  70.506  1.00  0.00    -0.437 OA 
HETATM    6  H   UNL     1     -12.589  12.225  70.648  1.00  0.00     0.000 HD 
BRANCH   4   7
HETATM    7  C   UNL     1     -11.817  12.387  68.211  1.00  0.00    -0.309 C  
HETATM    8  O   UNL     1     -12.043  12.332  67.005  1.00  0.00    -0.575 OA 
HETATM    9  N   UNL     1     -11.603  13.592  68.851  1.00  0.00    -0.299 N  
HETATM   10  H   UNL     1     -11.455  13.610  69.860  1.00  0.00     0.000 HD 
BRANCH   9  11
HETATM   11  C   UNL     1     -11.589  14.831  68.102  1.00  0.00    -0.332 C  
BRANCH  11  12
HETATM   12  C   UNL     1     -11.640  16.076  68.981  1.00  0.00    -0.350 C  
BRANCH  12  13
HETATM   13  C   UNL     1     -12.082  15.813  70.414  1.00  0.00    -0.370 C  
HETATM   14  O   UNL     1     -13.415  15.305  70.412  1.00  0.00    -0.684 OA 
HETATM   15  H   UNL     1     -13.690  15.141  71.306  1.00  0.00     0.000 HD 
ENDBRANCH  12  13
ENDBRANCH  11  12
ENDBRANCH   9  11
ENDBRANCH   4   7
ENDBRANCH   2   4
BRANCH   2  16
HETATM   16  C   UNL     1     -10.431   9.254  70.149  1.00  0.00    -0.230 C  
HETATM   17  O   UNL     1      -9.454   9.743  71.061  1.00  0.00    -0.308 OA 
HETATM   18  H   UNL     1      -9.352   9.170  71.813  1.00  0.00     0.000 HD 
ENDBRANCH   2  16
TORSDOF 6
ENDMDL
MODEL       76
REMARK 921   NORMALIZED FREE ENERGY PREDICTED BY IDOCK:   -3.72 KCAL/MOL
REMARK 922        TOTAL FREE ENERGY PREDICTED BY IDOCK:   -5.54 KCAL/MOL
REMARK 923 INTER-LIGAND FREE ENERGY PREDICTED BY IDOCK:   -5.03 KCAL/MOL
REMARK 924 INTRA-LIGAND FREE ENERGY PREDICTED BY IDOCK:   -0.51 KCAL/MOL
REMARK 927      BINDING AFFINITY PREDICTED BY RF-SCORE:    0.00 PKD
ROOT
HETATM    1  C   UNL     1     -11.654  12.100  66.247  1.00  0.00    -0.424 C  
HETATM    2  C   UNL     1     -11.128  11.896  67.690  1.00  0.00    -0.314 C  
HETATM    3  C   UNL     1      -9.591  11.795  67.595  1.00  0.00    -0.184 C  
ENDROOT
BRANCH   2   4
HETATM    4  C   UNL     1     -11.747  10.599  68.296  1.00  0.00    -0.057 C  
HETATM    5  O   UNL     1     -11.138   9.410  67.776  1.00  0.00    -0.504 OA 
HETATM    6  H   UNL     1     -11.515   8.620  68.144  1.00  0.00     0.000 HD 
BRANCH   4   7
HETATM    7  C   UNL     1     -11.695  10.529  69.841  1.00  0.00    -0.294 C  
HETATM    8  O   UNL     1     -10.662  10.590  70.505  1.00  0.00    -0.166 OA 
HETATM    9  N   UNL     1     -12.934  10.439  70.443  1.00  0.00    -0.517 N  
HETATM   10  H   UNL     1     -13.776  10.427  69.868  1.00  0.00     0.000 HD 
BRANCH   9  11
HETATM   11  C   UNL     1     -13.049  10.360  71.885  1.00  0.00    -0.458 C  
BRANCH  11  12
HETATM   12  C   UNL     1     -13.303   8.948  72.400  1.00  0.00    -0.488 C  
BRANCH  12  13
HETATM   13  C   UNL     1     -13.877   7.995  71.360  1.00  0.00    -0.263 C  
HETATM   14  O   UNL     1     -12.818   7.239  70.777  1.00  0.00    -0.598 OA 
HETATM   15  H   UNL     1     -13.176   6.644  70.129  1.00  0.00     0.000 HD 
ENDBRANCH  12  13
ENDBRANCH  11  12
ENDBRANCH   9  11
ENDBRANCH   4   7
ENDBRANCH   2   4
BRANCH   2  16
HETATM   16  C   UNL     1     -11.564  13.128  68.527  1.00  0.00    -0.326 C  
HETATM   17  O   UNL     1     -10.498  13.631  69.325  1.00  0.00    -0.434 OA 
HETATM   18  H   UNL     1     -10.765  14.385  69.838  1.00  0.00     0.000 HD 
ENDBRANCH   2  16
TORSDOF 6
ENDMDL
MODEL       77
REMARK 921   NORMALIZED FREE ENERGY PREDICTED BY IDOCK:   -3.71 KCAL/MOL
REMARK 922        TOTAL FREE ENERGY PREDICTED BY IDOCK:   -5.54 KCAL/MOL
REMARK 923 INTER-LIGAND FREE ENERGY PREDICTED BY IDOCK:   -5.19 KCAL/MOL
REMARK 924 INTRA-LIGAND FREE ENERGY PREDICTED BY IDOCK:   -0.35 KCAL/MOL
REMARK 927      BINDING AFFINITY PREDICTED BY RF-SCORE:    0.00 PKD
ROOT
HETATM    1  C   UNL     1     -12.154  12.469  66.126  1.00  0.00    -0.357 C  
HETATM    2  C   UNL     1     -11.912  13.068  64.719  1.00  0.00    -0.443 C  
HETATM    3  C   UNL     1     -12.759  12.240  63.729  1.00  0.00    -0.516 C  
ENDROOT
BRANCH   2   4
HETATM    4  C   UNL     1     -10.394  12.993  64.370  1.00  0.00    -0.374 C  
HETATM    5  O   UNL     1      -9.603  13.866  65.186  1.00  0.00    -0.559 OA 
HETATM    6  H   UNL     1      -8.678  13.820  64.974  1.00  0.00     0.000 HD 
BRANCH   4   7
HETATM    7  C   UNL     1      -9.789  11.571  64.460  1.00  0.00    -0.241 C  
HETATM    8  O   UNL     1      -9.939  10.696  63.609  1.00  0.00    -0.319 OA 
HETATM    9  N   UNL     1      -9.002  11.363  65.576  1.00  0.00    -0.367 N  
HETATM   10  H   UNL     1      -8.865  12.120  66.246  1.00  0.00     0.000 HD 
BRANCH   9  11
HETATM   11  C   UNL     1      -8.370  10.081  65.803  1.00  0.00    -0.132 C  
BRANCH  11  12
HETATM   12  C   UNL     1      -9.212   9.126  66.643  1.00  0.00    -0.207 C  
BRANCH  12  13
HETATM   13  C   UNL     1      -9.690   9.710  67.965  1.00  0.00    -0.146 C  
HETATM   14  O   UNL     1     -10.876   9.035  68.379  1.00  0.00    -0.415 OA 
HETATM   15  H   UNL     1     -11.173   9.399  69.204  1.00  0.00     0.000 HD 
ENDBRANCH  12  13
ENDBRANCH  11  12
ENDBRANCH   9  11
ENDBRANCH   4   7
ENDBRANCH   2   4
BRANCH   2  16
HETATM   16  C   UNL     1     -12.371  14.550  64.754  1.00  0.00    -0.391 C  
HETATM   17  O   UNL     1     -11.518  15.388  63.982  1.00  0.00    -0.725 OA 
HETATM   18  H   UNL     1     -11.799  16.296  64.004  1.00  0.00     0.000 HD 
ENDBRANCH   2  16
TORSDOF 6
ENDMDL
MODEL       78
REMARK 921   NORMALIZED FREE ENERGY PREDICTED BY IDOCK:   -3.71 KCAL/MOL
REMARK 922        TOTAL FREE ENERGY PREDICTED BY IDOCK:   -5.53 KCAL/MOL
REMARK 923 INTER-LIGAND FREE ENERGY PREDICTED BY IDOCK:   -4.95 KCAL/MOL
REMARK 924 INTRA-LIGAND FREE ENERGY PREDICTED BY IDOCK:   -0.58 KCAL/MOL
REMARK 927      BINDING AFFINITY PREDICTED BY RF-SCORE:    0.00 PKD
ROOT
HETATM    1  C   UNL     1      -9.710  14.271  67.813  1.00  0.00    -0.222 C  
HETATM    2  C   UNL     1     -11.132  14.875  67.919  1.00  0.00    -0.304 C  
HETATM    3  C   UNL     1     -11.945  14.316  66.733  1.00  0.00    -0.462 C  
ENDROOT
BRANCH   2   4
HETATM    4  C   UNL     1     -11.047  16.432  67.867  1.00  0.00    -0.249 C  
HETATM    5  O   UNL     1     -10.639  16.998  69.119  1.00  0.00    -0.329 OA 
HETATM    6  H   UNL     1     -10.588  17.946  69.087  1.00  0.00     0.000 HD 
BRANCH   4   7
HETATM    7  C   UNL     1     -10.112  16.982  66.763  1.00  0.00    -0.300 C  
HETATM    8  O   UNL     1     -10.317  16.865  65.556  1.00  0.00    -0.572 OA 
HETATM    9  N   UNL     1      -9.021  17.678  67.245  1.00  0.00    -0.237 N  
HETATM   10  H   UNL     1      -8.897  17.790  68.251  1.00  0.00     0.000 HD 
BRANCH   9  11
HETATM   11  C   UNL     1      -8.051  18.250  66.334  1.00  0.00    -0.258 C  
BRANCH  11  12
HETATM   12  C   UNL     1      -7.092  19.230  67.001  1.00  0.00    -0.216 C  
BRANCH  12  13
HETATM   13  C   UNL     1      -7.680  20.612  67.249  1.00  0.00    -0.311 C  
HETATM   14  O   UNL     1      -9.069  20.599  66.927  1.00  0.00    -0.571 OA 
HETATM   15  H   UNL     1      -9.437  21.461  67.082  1.00  0.00     0.000 HD 
ENDBRANCH  12  13
ENDBRANCH  11  12
ENDBRANCH   9  11
ENDBRANCH   4   7
ENDBRANCH   2   4
BRANCH   2  16
HETATM   16  C   UNL     1     -11.732  14.427  69.279  1.00  0.00    -0.317 C  
HETATM   17  O   UNL     1     -12.804  15.269  69.689  1.00  0.00    -0.601 OA 
HETATM   18  H   UNL     1     -13.171  14.994  70.522  1.00  0.00     0.000 HD 
ENDBRANCH   2  16
TORSDOF 6
ENDMDL
MODEL       79
REMARK 921   NORMALIZED FREE ENERGY PREDICTED BY IDOCK:   -3.69 KCAL/MOL
REMARK 922        TOTAL FREE ENERGY PREDICTED BY IDOCK:   -5.51 KCAL/MOL
REMARK 923 INTER-LIGAND FREE ENERGY PREDICTED BY IDOCK:   -5.16 KCAL/MOL
REMARK 924 INTRA-LIGAND FREE ENERGY PREDICTED BY IDOCK:   -0.35 KCAL/MOL
REMARK 927      BINDING AFFINITY PREDICTED BY RF-SCORE:    0.00 PKD
ROOT
HETATM    1  C   UNL     1     -10.377  15.126  68.942  1.00  0.00    -0.243 C  
HETATM    2  C   UNL     1     -11.231  13.878  68.606  1.00  0.00    -0.298 C  
HETATM    3  C   UNL     1     -12.071  13.560  69.861  1.00  0.00    -0.408 C  
ENDROOT
BRANCH   2   4
HETATM    4  C   UNL     1     -10.296  12.687  68.231  1.00  0.00    -0.241 C  
HETATM    5  O   UNL     1      -9.011  12.784  68.859  1.00  0.00    -0.375 OA 
HETATM    6  H   UNL     1      -8.442  12.059  68.630  1.00  0.00     0.000 HD 
BRANCH   4   7
HETATM    7  C   UNL     1     -10.883  11.290  68.550  1.00  0.00    -0.205 C  
HETATM    8  O   UNL     1     -11.731  10.721  67.866  1.00  0.00    -0.543 OA 
HETATM    9  N   UNL     1     -10.333  10.690  69.665  1.00  0.00    -0.385 N  
HETATM   10  H   UNL     1      -9.604  11.171  70.191  1.00  0.00     0.000 HD 
BRANCH   9  11
HETATM   11  C   UNL     1     -10.783   9.382  70.094  1.00  0.00    -0.243 C  
BRANCH  11  12
HETATM   12  C   UNL     1     -11.464   9.389  71.459  1.00  0.00    -0.467 C  
BRANCH  12  13
HETATM   13  C   UNL     1     -12.733  10.228  71.521  1.00  0.00    -0.452 C  
HETATM   14  O   UNL     1     -13.513   9.822  72.644  1.00  0.00    -0.626 OA 
HETATM   15  H   UNL     1     -14.304  10.345  72.684  1.00  0.00     0.000 HD 
ENDBRANCH  12  13
ENDBRANCH  11  12
ENDBRANCH   9  11
ENDBRANCH   4   7
ENDBRANCH   2   4
BRANCH   2  16
HETATM   16  C   UNL     1     -12.134  14.239  67.397  1.00  0.00    -0.336 C  
HETATM   17  O   UNL     1     -11.538  13.866  66.159  1.00  0.00    -0.335 OA 
HETATM   18  H   UNL     1     -12.091  14.087  65.418  1.00  0.00     0.000 HD 
ENDBRANCH   2  16
TORSDOF 6
ENDMDL
MODEL       80
REMARK 921   NORMALIZED FREE ENERGY PREDICTED BY IDOCK:   -3.69 KCAL/MOL
REMARK 922        TOTAL FREE ENERGY PREDICTED BY IDOCK:   -5.51 KCAL/MOL
REMARK 923 INTER-LIGAND FREE ENERGY PREDICTED BY IDOCK:   -4.54 KCAL/MOL
REMARK 924 INTRA-LIGAND FREE ENERGY PREDICTED BY IDOCK:   -0.96 KCAL/MOL
REMARK 927      BINDING AFFINITY PREDICTED BY RF-SCORE:    0.00 PKD
ROOT
HETATM    1  C   UNL     1     -12.070   6.916  70.709  1.00  0.00    -0.400 C  
HETATM    2  C   UNL     1     -10.863   6.861  71.678  1.00  0.00    -0.252 C  
HETATM    3  C   UNL     1     -11.125   5.694  72.653  1.00  0.00    -0.331 C  
ENDROOT
BRANCH   2   4
HETATM    4  C   UNL     1     -10.735   8.218  72.436  1.00  0.00    -0.341 C  
HETATM    5  O   UNL     1      -9.396   8.730  72.414  1.00  0.00    -0.331 OA 
HETATM    6  H   UNL     1      -9.318   9.556  72.876  1.00  0.00     0.000 HD 
BRANCH   4   7
HETATM    7  C   UNL     1     -11.683   9.328  71.921  1.00  0.00    -0.350 C  
HETATM    8  O   UNL     1     -12.812   9.535  72.360  1.00  0.00    -0.363 OA 
HETATM    9  N   UNL     1     -11.134  10.125  70.936  1.00  0.00    -0.345 N  
HETATM   10  H   UNL     1     -10.180   9.952  70.618  1.00  0.00     0.000 HD 
BRANCH   9  11
HETATM   11  C   UNL     1     -11.901  11.205  70.351  1.00  0.00    -0.369 C  
BRANCH  11  12
HETATM   12  C   UNL     1     -12.022  11.113  68.833  1.00  0.00    -0.367 C  
BRANCH  12  13
HETATM   13  C   UNL     1     -10.821  10.479  68.146  1.00  0.00    -0.253 C  
HETATM   14  O   UNL     1     -11.109   9.112  67.859  1.00  0.00    -0.508 OA 
HETATM   15  H   UNL     1     -10.360   8.716  67.430  1.00  0.00     0.000 HD 
ENDBRANCH  12  13
ENDBRANCH  11  12
ENDBRANCH   9  11
ENDBRANCH   4   7
ENDBRANCH   2   4
BRANCH   2  16
HETATM   16  C   UNL     1      -9.589   6.611  70.827  1.00  0.00    -0.175 C  
HETATM   17  O   UNL     1      -9.469   7.550  69.764  1.00  0.00    -0.157 OA 
HETATM   18  H   UNL     1      -8.689   7.398  69.242  1.00  0.00     0.000 HD 
ENDBRANCH   2  16
TORSDOF 6
ENDMDL
MODEL       81
REMARK 921   NORMALIZED FREE ENERGY PREDICTED BY IDOCK:   -3.68 KCAL/MOL
REMARK 922        TOTAL FREE ENERGY PREDICTED BY IDOCK:   -5.50 KCAL/MOL
REMARK 923 INTER-LIGAND FREE ENERGY PREDICTED BY IDOCK:   -5.32 KCAL/MOL
REMARK 924 INTRA-LIGAND FREE ENERGY PREDICTED BY IDOCK:   -0.17 KCAL/MOL
REMARK 927      BINDING AFFINITY PREDICTED BY RF-SCORE:    0.00 PKD
ROOT
HETATM    1  C   UNL     1     -11.908   5.969  72.448  1.00  0.00    -0.283 C  
HETATM    2  C   UNL     1     -12.163   7.225  71.579  1.00  0.00    -0.387 C  
HETATM    3  C   UNL     1     -11.432   6.997  70.239  1.00  0.00    -0.333 C  
ENDROOT
BRANCH   2   4
HETATM    4  C   UNL     1     -11.621   8.491  72.313  1.00  0.00    -0.374 C  
HETATM    5  O   UNL     1     -10.243   8.357  72.684  1.00  0.00    -0.302 OA 
HETATM    6  H   UNL     1      -9.913   9.127  73.131  1.00  0.00     0.000 HD 
BRANCH   4   7
HETATM    7  C   UNL     1     -11.778   9.808  71.514  1.00  0.00    -0.375 C  
HETATM    8  O   UNL     1     -11.080  10.125  70.553  1.00  0.00    -0.294 OA 
HETATM    9  N   UNL     1     -12.823  10.604  71.941  1.00  0.00    -0.432 N  
HETATM   10  H   UNL     1     -13.408  10.297  72.718  1.00  0.00     0.000 HD 
BRANCH   9  11
HETATM   11  C   UNL     1     -13.094  11.871  71.295  1.00  0.00    -0.133 C  
BRANCH  11  12
HETATM   12  C   UNL     1     -13.504  12.974  72.265  1.00  0.00    -0.645 C  
BRANCH  12  13
HETATM   13  C   UNL     1     -13.846  14.300  71.599  1.00  0.00    -0.393 C  
HETATM   14  O   UNL     1     -13.005  14.488  70.463  1.00  0.00    -0.442 OA 
HETATM   15  H   UNL     1     -13.219  15.315  70.047  1.00  0.00     0.000 HD 
ENDBRANCH  12  13
ENDBRANCH  11  12
ENDBRANCH   9  11
ENDBRANCH   4   7
ENDBRANCH   2   4
BRANCH   2  16
HETATM   16  C   UNL     1     -13.696   7.352  71.374  1.00  0.00    -0.323 C  
HETATM   17  O   UNL     1     -14.330   7.976  72.485  1.00  0.00    -0.609 OA 
HETATM   18  H   UNL     1     -15.269   8.054  72.360  1.00  0.00     0.000 HD 
ENDBRANCH   2  16
TORSDOF 6
ENDMDL
MODEL       82
REMARK 921   NORMALIZED FREE ENERGY PREDICTED BY IDOCK:   -3.67 KCAL/MOL
REMARK 922        TOTAL FREE ENERGY PREDICTED BY IDOCK:   -5.49 KCAL/MOL
REMARK 923 INTER-LIGAND FREE ENERGY PREDICTED BY IDOCK:   -5.16 KCAL/MOL
REMARK 924 INTRA-LIGAND FREE ENERGY PREDICTED BY IDOCK:   -0.32 KCAL/MOL
REMARK 927      BINDING AFFINITY PREDICTED BY RF-SCORE:    0.00 PKD
ROOT
HETATM    1  C   UNL     1     -12.498   9.489  71.788  1.00  0.00    -0.484 C  
HETATM    2  C   UNL     1     -12.062   8.003  71.744  1.00  0.00    -0.344 C  
HETATM    3  C   UNL     1     -11.279   7.728  73.044  1.00  0.00    -0.380 C  
ENDROOT
BRANCH   2   4
HETATM    4  C   UNL     1     -11.179   7.752  70.484  1.00  0.00    -0.257 C  
HETATM    5  O   UNL     1     -11.852   6.964  69.494  1.00  0.00    -0.602 OA 
HETATM    6  H   UNL     1     -11.314   6.811  68.726  1.00  0.00     0.000 HD 
BRANCH   4   7
HETATM    7  C   UNL     1     -10.661   9.042  69.801  1.00  0.00    -0.225 C  
HETATM    8  O   UNL     1      -9.772   9.759  70.254  1.00  0.00    -0.248 OA 
HETATM    9  N   UNL     1     -11.255   9.311  68.583  1.00  0.00    -0.450 N  
HETATM   10  H   UNL     1     -11.965   8.678  68.215  1.00  0.00     0.000 HD 
BRANCH   9  11
HETATM   11  C   UNL     1     -10.880  10.486  67.825  1.00  0.00    -0.294 C  
BRANCH  11  12
HETATM   12  C   UNL     1      -9.583  10.316  67.040  1.00  0.00    -0.205 C  
BRANCH  12  13
HETATM   13  C   UNL     1      -9.740   9.563  65.726  1.00  0.00    -0.287 C  
HETATM   14  O   UNL     1      -9.493   8.176  65.945  1.00  0.00    -0.399 OA 
HETATM   15  H   UNL     1      -9.591   7.706  65.125  1.00  0.00     0.000 HD 
ENDBRANCH  12  13
ENDBRANCH  11  12
ENDBRANCH   9  11
ENDBRANCH   4   7
ENDBRANCH   2   4
BRANCH   2  16
HETATM   16  C   UNL     1     -13.349   7.138  71.665  1.00  0.00    -0.331 C  
HETATM   17  O   UNL     1     -14.386   7.795  70.944  1.00  0.00    -0.656 OA 
HETATM   18  H   UNL     1     -15.174   7.266  70.896  1.00  0.00     0.000 HD 
ENDBRANCH   2  16
TORSDOF 6
ENDMDL
MODEL       83
REMARK 921   NORMALIZED FREE ENERGY PREDICTED BY IDOCK:   -3.67 KCAL/MOL
REMARK 922        TOTAL FREE ENERGY PREDICTED BY IDOCK:   -5.48 KCAL/MOL
REMARK 923 INTER-LIGAND FREE ENERGY PREDICTED BY IDOCK:   -5.01 KCAL/MOL
REMARK 924 INTRA-LIGAND FREE ENERGY PREDICTED BY IDOCK:   -0.48 KCAL/MOL
REMARK 927      BINDING AFFINITY PREDICTED BY RF-SCORE:    0.00 PKD
ROOT
HETATM    1  C   UNL     1     -12.655   6.992  71.711  1.00  0.00    -0.388 C  
HETATM    2  C   UNL     1     -11.480   7.888  71.246  1.00  0.00    -0.293 C  
HETATM    3  C   UNL     1     -10.523   8.030  72.449  1.00  0.00    -0.368 C  
ENDROOT
BRANCH   2   4
HETATM    4  C   UNL     1     -12.026   9.275  70.788  1.00  0.00    -0.210 C  
HETATM    5  O   UNL     1     -12.286  10.151  71.893  1.00  0.00    -0.362 OA 
HETATM    6  H   UNL     1     -12.619  10.995  71.614  1.00  0.00     0.000 HD 
BRANCH   4   7
HETATM    7  C   UNL     1     -11.110  10.023  69.788  1.00  0.00    -0.274 C  
HETATM    8  O   UNL     1      -9.925  10.281  69.990  1.00  0.00    -0.208 OA 
HETATM    9  N   UNL     1     -11.725  10.347  68.595  1.00  0.00    -0.518 N  
HETATM   10  H   UNL     1     -12.700  10.087  68.441  1.00  0.00     0.000 HD 
BRANCH   9  11
HETATM   11  C   UNL     1     -10.999  11.052  67.560  1.00  0.00    -0.281 C  
BRANCH  11  12
HETATM   12  C   UNL     1     -11.563  12.436  67.254  1.00  0.00    -0.435 C  
BRANCH  12  13
HETATM   13  C   UNL     1     -11.706  13.338  68.473  1.00  0.00    -0.352 C  
HETATM   14  O   UNL     1     -10.586  13.148  69.335  1.00  0.00    -0.433 OA 
HETATM   15  H   UNL     1     -10.675  13.711  70.095  1.00  0.00     0.000 HD 
ENDBRANCH  12  13
ENDBRANCH  11  12
ENDBRANCH   9  11
ENDBRANCH   4   7
ENDBRANCH   2   4
BRANCH   2  16
HETATM   16  C   UNL     1     -10.788   7.175  70.053  1.00  0.00    -0.254 C  
HETATM   17  O   UNL     1     -11.732   6.703  69.098  1.00  0.00    -0.629 OA 
HETATM   18  H   UNL     1     -11.309   6.266  68.368  1.00  0.00     0.000 HD 
ENDBRANCH   2  16
TORSDOF 6
ENDMDL
MODEL       84
REMARK 921   NORMALIZED FREE ENERGY PREDICTED BY IDOCK:   -3.67 KCAL/MOL
REMARK 922        TOTAL FREE ENERGY PREDICTED BY IDOCK:   -5.48 KCAL/MOL
REMARK 923 INTER-LIGAND FREE ENERGY PREDICTED BY IDOCK:   -5.33 KCAL/MOL
REMARK 924 INTRA-LIGAND FREE ENERGY PREDICTED BY IDOCK:   -0.15 KCAL/MOL
REMARK 927      BINDING AFFINITY PREDICTED BY RF-SCORE:    0.00 PKD
ROOT
HETATM    1  C   UNL     1      -9.369  12.348  67.800  1.00  0.00    -0.196 C  
HETATM    2  C   UNL     1     -10.691  11.865  67.156  1.00  0.00    -0.280 C  
HETATM    3  C   UNL     1     -11.814  12.765  67.713  1.00  0.00    -0.387 C  
ENDROOT
BRANCH   2   4
HETATM    4  C   UNL     1     -10.933  10.366  67.514  1.00  0.00    -0.295 C  
HETATM    5  O   UNL     1     -10.252   9.475  66.621  1.00  0.00    -0.242 OA 
HETATM    6  H   UNL     1     -10.399   8.563  66.838  1.00  0.00     0.000 HD 
BRANCH   4   7
HETATM    7  C   UNL     1     -10.543   9.986  68.963  1.00  0.00    -0.214 C  
HETATM    8  O   UNL     1      -9.401   9.710  69.325  1.00  0.00    -0.161 OA 
HETATM    9  N   UNL     1     -11.593  10.026  69.858  1.00  0.00    -0.389 N  
HETATM   10  H   UNL     1     -12.523  10.295  69.536  1.00  0.00     0.000 HD 
BRANCH   9  11
HETATM   11  C   UNL     1     -11.386   9.691  71.252  1.00  0.00    -0.388 C  
BRANCH  11  12
HETATM   12  C   UNL     1     -12.415   8.708  71.802  1.00  0.00    -0.397 C  
BRANCH  12  13
HETATM   13  C   UNL     1     -13.759   9.335  72.146  1.00  0.00    -0.453 C  
HETATM   14  O   UNL     1     -14.185   8.867  73.423  1.00  0.00    -1.241 OA 
HETATM   15  H   UNL     1     -15.024   9.258  73.638  1.00  0.00     0.000 HD 
ENDBRANCH  12  13
ENDBRANCH  11  12
ENDBRANCH   9  11
ENDBRANCH   4   7
ENDBRANCH   2   4
BRANCH   2  16
HETATM   16  C   UNL     1     -10.550  12.022  65.618  1.00  0.00    -0.265 C  
HETATM   17  O   UNL     1      -9.192  11.937  65.199  1.00  0.00    -0.424 OA 
HETATM   18  H   UNL     1      -9.105  12.034  64.257  1.00  0.00     0.000 HD 
ENDBRANCH   2  16
TORSDOF 6
ENDMDL
MODEL       85
REMARK 921   NORMALIZED FREE ENERGY PREDICTED BY IDOCK:   -3.65 KCAL/MOL
REMARK 922        TOTAL FREE ENERGY PREDICTED BY IDOCK:   -5.45 KCAL/MOL
REMARK 923 INTER-LIGAND FREE ENERGY PREDICTED BY IDOCK:   -4.65 KCAL/MOL
REMARK 924 INTRA-LIGAND FREE ENERGY PREDICTED BY IDOCK:   -0.80 KCAL/MOL
REMARK 927      BINDING AFFINITY PREDICTED BY RF-SCORE:    0.00 PKD
ROOT
HETATM    1  C   UNL     1     -10.222   8.694  66.720  1.00  0.00    -0.361 C  
HETATM    2  C   UNL     1      -9.212   9.810  67.086  1.00  0.00    -0.159 C  
HETATM    3  C   UNL     1      -7.996   9.116  67.735  1.00  0.00    -0.101 C  
ENDROOT
BRANCH   2   4
HETATM    4  C   UNL     1      -9.880  10.821  68.068  1.00  0.00    -0.165 C  
HETATM    5  O   UNL     1      -8.917  11.535  68.855  1.00  0.00    -0.356 OA 
HETATM    6  H   UNL     1      -9.324  12.150  69.452  1.00  0.00     0.000 HD 
BRANCH   4   7
HETATM    7  C   UNL     1     -10.805  11.857  67.384  1.00  0.00    -0.243 C  
HETATM    8  O   UNL     1     -11.971  11.641  67.060  1.00  0.00    -0.593 OA 
HETATM    9  N   UNL     1     -10.225  13.097  67.203  1.00  0.00    -0.243 N  
HETATM   10  H   UNL     1      -9.268  13.258  67.517  1.00  0.00     0.000 HD 
BRANCH   9  11
HETATM   11  C   UNL     1     -10.964  14.171  66.572  1.00  0.00    -0.309 C  
BRANCH  11  12
HETATM   12  C   UNL     1     -10.872  14.161  65.050  1.00  0.00    -0.408 C  
BRANCH  12  13
HETATM   13  C   UNL     1     -12.220  14.151  64.341  1.00  0.00    -0.439 C  
HETATM   14  O   UNL     1     -12.939  12.976  64.709  1.00  0.00    -0.735 OA 
HETATM   15  H   UNL     1     -13.779  12.970  64.267  1.00  0.00     0.000 HD 
ENDBRANCH  12  13
ENDBRANCH  11  12
ENDBRANCH   9  11
ENDBRANCH   4   7
ENDBRANCH   2   4
BRANCH   2  16
HETATM   16  C   UNL     1      -8.816  10.536  65.773  1.00  0.00    -0.175 C  
HETATM   17  O   UNL     1      -7.730  11.434  65.970  1.00  0.00    -0.365 OA 
HETATM   18  H   UNL     1      -7.487  11.879  65.165  1.00  0.00     0.000 HD 
ENDBRANCH   2  16
TORSDOF 6
ENDMDL
MODEL       86
REMARK 921   NORMALIZED FREE ENERGY PREDICTED BY IDOCK:   -3.64 KCAL/MOL
REMARK 922        TOTAL FREE ENERGY PREDICTED BY IDOCK:   -5.44 KCAL/MOL
REMARK 923 INTER-LIGAND FREE ENERGY PREDICTED BY IDOCK:   -5.29 KCAL/MOL
REMARK 924 INTRA-LIGAND FREE ENERGY PREDICTED BY IDOCK:   -0.15 KCAL/MOL
REMARK 927      BINDING AFFINITY PREDICTED BY RF-SCORE:    0.00 PKD
ROOT
HETATM    1  C   UNL     1      -8.644   8.761  67.769  1.00  0.00    -0.129 C  
HETATM    2  C   UNL     1      -9.132  10.028  67.023  1.00  0.00    -0.159 C  
HETATM    3  C   UNL     1      -8.446  11.235  67.696  1.00  0.00    -0.124 C  
ENDROOT
BRANCH   2   4
HETATM    4  C   UNL     1     -10.685  10.129  67.121  1.00  0.00    -0.221 C  
HETATM    5  O   UNL     1     -11.181   9.691  68.393  1.00  0.00    -0.487 OA 
HETATM    6  H   UNL     1     -12.127   9.752  68.453  1.00  0.00     0.000 HD 
BRANCH   4   7
HETATM    7  C   UNL     1     -11.251  11.544  66.847  1.00  0.00    -0.298 C  
HETATM    8  O   UNL     1     -11.559  12.350  67.722  1.00  0.00    -0.311 OA 
HETATM    9  N   UNL     1     -11.343  11.863  65.506  1.00  0.00    -0.308 N  
HETATM   10  H   UNL     1     -11.045  11.186  64.804  1.00  0.00     0.000 HD 
BRANCH   9  11
HETATM   11  C   UNL     1     -11.858  13.150  65.090  1.00  0.00    -0.359 C  
BRANCH  11  12
HETATM   12  C   UNL     1     -10.778  14.112  64.606  1.00  0.00    -0.408 C  
BRANCH  12  13
HETATM   13  C   UNL     1     -11.021  15.568  64.979  1.00  0.00    -0.440 C  
HETATM   14  O   UNL     1     -11.524  16.269  63.844  1.00  0.00    -1.484 OA 
HETATM   15  H   UNL     1     -11.676  17.177  64.077  1.00  0.00     0.000 HD 
ENDBRANCH  12  13
ENDBRANCH  11  12
ENDBRANCH   9  11
ENDBRANCH   4   7
ENDBRANCH   2   4
BRANCH   2  16
HETATM   16  C   UNL     1      -8.707   9.890  65.537  1.00  0.00    -0.151 C  
HETATM   17  O   UNL     1      -9.510   8.944  64.840  1.00  0.00    -0.414 OA 
HETATM   18  H   UNL     1      -9.250   8.860  63.930  1.00  0.00     0.000 HD 
ENDBRANCH   2  16
TORSDOF 6
ENDMDL
MODEL       87
REMARK 921   NORMALIZED FREE ENERGY PREDICTED BY IDOCK:   -3.62 KCAL/MOL
REMARK 922        TOTAL FREE ENERGY PREDICTED BY IDOCK:   -5.42 KCAL/MOL
REMARK 923 INTER-LIGAND FREE ENERGY PREDICTED BY IDOCK:   -5.14 KCAL/MOL
REMARK 924 INTRA-LIGAND FREE ENERGY PREDICTED BY IDOCK:   -0.28 KCAL/MOL
REMARK 927      BINDING AFFINITY PREDICTED BY RF-SCORE:    0.00 PKD
ROOT
HETATM    1  C   UNL     1     -12.748  14.933  73.489  1.00  0.00    -0.629 C  
HETATM    2  C   UNL     1     -12.638  14.998  71.946  1.00  0.00    -0.403 C  
HETATM    3  C   UNL     1     -14.003  15.492  71.422  1.00  0.00    -0.476 C  
ENDROOT
BRANCH   2   4
HETATM    4  C   UNL     1     -12.292  13.584  71.385  1.00  0.00    -0.170 C  
HETATM    5  O   UNL     1     -13.349  12.639  71.599  1.00  0.00    -0.367 OA 
HETATM    6  H   UNL     1     -13.138  11.778  71.257  1.00  0.00     0.000 HD 
BRANCH   4   7
HETATM    7  C   UNL     1     -11.930  13.567  69.879  1.00  0.00    -0.348 C  
HETATM    8  O   UNL     1     -12.526  14.203  69.014  1.00  0.00    -0.211 OA 
HETATM    9  N   UNL     1     -10.823  12.799  69.576  1.00  0.00    -0.432 N  
HETATM   10  H   UNL     1     -10.325  12.312  70.321  1.00  0.00     0.000 HD 
BRANCH   9  11
HETATM   11  C   UNL     1     -10.362  12.680  68.208  1.00  0.00    -0.241 C  
BRANCH  11  12
HETATM   12  C   UNL     1      -9.889  11.276  67.845  1.00  0.00    -0.187 C  
BRANCH  12  13
HETATM   13  C   UNL     1     -11.004  10.328  67.425  1.00  0.00    -0.252 C  
HETATM   14  O   UNL     1     -12.171  10.601  68.197  1.00  0.00    -0.719 OA 
HETATM   15  H   UNL     1     -12.867  10.010  67.934  1.00  0.00     0.000 HD 
ENDBRANCH  12  13
ENDBRANCH  11  12
ENDBRANCH   9  11
ENDBRANCH   4   7
ENDBRANCH   2   4
BRANCH   2  16
HETATM   16  C   UNL     1     -11.502  15.995  71.596  1.00  0.00    -0.362 C  
HETATM   17  O   UNL     1     -11.747  16.669  70.367  1.00  0.00    -0.343 OA 
HETATM   18  H   UNL     1     -11.051  17.280  70.152  1.00  0.00     0.000 HD 
ENDBRANCH   2  16
TORSDOF 6
ENDMDL
MODEL       88
REMARK 921   NORMALIZED FREE ENERGY PREDICTED BY IDOCK:   -3.61 KCAL/MOL
REMARK 922        TOTAL FREE ENERGY PREDICTED BY IDOCK:   -5.40 KCAL/MOL
REMARK 923 INTER-LIGAND FREE ENERGY PREDICTED BY IDOCK:   -4.62 KCAL/MOL
REMARK 924 INTRA-LIGAND FREE ENERGY PREDICTED BY IDOCK:   -0.78 KCAL/MOL
REMARK 927      BINDING AFFINITY PREDICTED BY RF-SCORE:    0.00 PKD
ROOT
HETATM    1  C   UNL     1     -10.165   5.722  67.338  1.00  0.00    -0.243 C  
HETATM    2  C   UNL     1      -9.744   6.579  68.559  1.00  0.00    -0.129 C  
HETATM    3  C   UNL     1      -8.346   6.087  68.988  1.00  0.00    -0.111 C  
ENDROOT
BRANCH   2   4
HETATM    4  C   UNL     1     -10.786   6.404  69.707  1.00  0.00    -0.283 C  
HETATM    5  O   UNL     1     -10.639   5.153  70.391  1.00  0.00    -0.249 OA 
HETATM    6  H   UNL     1     -11.273   5.046  71.089  1.00  0.00     0.000 HD 
BRANCH   4   7
HETATM    7  C   UNL     1     -10.765   7.535  70.764  1.00  0.00    -0.229 C  
HETATM    8  O   UNL     1      -9.880   7.685  71.603  1.00  0.00    -0.161 OA 
HETATM    9  N   UNL     1     -11.821   8.420  70.663  1.00  0.00    -0.473 N  
HETATM   10  H   UNL     1     -12.521   8.291  69.932  1.00  0.00     0.000 HD 
BRANCH   9  11
HETATM   11  C   UNL     1     -11.942   9.529  71.585  1.00  0.00    -0.401 C  
BRANCH  11  12
HETATM   12  C   UNL     1     -12.684  10.728  71.003  1.00  0.00    -0.513 C  
BRANCH  12  13
HETATM   13  C   UNL     1     -11.976  11.394  69.831  1.00  0.00    -0.359 C  
HETATM   14  O   UNL     1     -12.230  10.650  68.641  1.00  0.00    -0.814 OA 
HETATM   15  H   UNL     1     -11.789  11.066  67.910  1.00  0.00     0.000 HD 
ENDBRANCH  12  13
ENDBRANCH  11  12
ENDBRANCH   9  11
ENDBRANCH   4   7
ENDBRANCH   2   4
BRANCH   2  16
HETATM   16  C   UNL     1      -9.708   8.061  68.102  1.00  0.00    -0.160 C  
HETATM   17  O   UNL     1     -10.941   8.467  67.519  1.00  0.00    -0.495 OA 
HETATM   18  H   UNL     1     -10.919   9.375  67.239  1.00  0.00     0.000 HD 
ENDBRANCH   2  16
TORSDOF 6
ENDMDL
MODEL       89
REMARK 921   NORMALIZED FREE ENERGY PREDICTED BY IDOCK:   -3.61 KCAL/MOL
REMARK 922        TOTAL FREE ENERGY PREDICTED BY IDOCK:   -5.40 KCAL/MOL
REMARK 923 INTER-LIGAND FREE ENERGY PREDICTED BY IDOCK:   -4.93 KCAL/MOL
REMARK 924 INTRA-LIGAND FREE ENERGY PREDICTED BY IDOCK:   -0.48 KCAL/MOL
REMARK 927      BINDING AFFINITY PREDICTED BY RF-SCORE:    0.00 PKD
ROOT
HETATM    1  C   UNL     1      -7.978  15.350  69.156  1.00  0.00    -0.222 C  
HETATM    2  C   UNL     1      -8.537  15.140  67.727  1.00  0.00    -0.157 C  
HETATM    3  C   UNL     1      -7.602  15.902  66.765  1.00  0.00    -0.215 C  
ENDROOT
BRANCH   2   4
HETATM    4  C   UNL     1      -9.998  15.682  67.649  1.00  0.00    -0.237 C  
HETATM    5  O   UNL     1     -10.057  17.109  67.775  1.00  0.00    -0.283 OA 
HETATM    6  H   UNL     1     -10.945  17.440  67.728  1.00  0.00     0.000 HD 
BRANCH   4   7
HETATM    7  C   UNL     1     -10.760  15.281  66.363  1.00  0.00    -0.318 C  
HETATM    8  O   UNL     1     -10.516  15.727  65.244  1.00  0.00    -0.384 OA 
HETATM    9  N   UNL     1     -11.731  14.320  66.561  1.00  0.00    -0.379 N  
HETATM   10  H   UNL     1     -11.886  13.941  67.495  1.00  0.00     0.000 HD 
BRANCH   9  11
HETATM   11  C   UNL     1     -12.533  13.845  65.452  1.00  0.00    -0.501 C  
BRANCH  11  12
HETATM   12  C   UNL     1     -12.076  12.497  64.904  1.00  0.00    -0.499 C  
BRANCH  12  13
HETATM   13  C   UNL     1     -11.462  12.562  63.512  1.00  0.00    -0.496 C  
HETATM   14  O   UNL     1     -10.156  13.126  63.599  1.00  0.00    -0.681 OA 
HETATM   15  H   UNL     1      -9.772  13.166  62.730  1.00  0.00     0.000 HD 
ENDBRANCH  12  13
ENDBRANCH  11  12
ENDBRANCH   9  11
ENDBRANCH   4   7
ENDBRANCH   2   4
BRANCH   2  16
HETATM   16  C   UNL     1      -8.526  13.615  67.438  1.00  0.00    -0.201 C  
HETATM   17  O   UNL     1      -8.772  12.850  68.612  1.00  0.00    -0.351 OA 
HETATM   18  H   UNL     1      -8.765  11.917  68.435  1.00  0.00     0.000 HD 
ENDBRANCH   2  16
TORSDOF 6
ENDMDL
MODEL       90
REMARK 921   NORMALIZED FREE ENERGY PREDICTED BY IDOCK:   -3.61 KCAL/MOL
REMARK 922        TOTAL FREE ENERGY PREDICTED BY IDOCK:   -5.40 KCAL/MOL
REMARK 923 INTER-LIGAND FREE ENERGY PREDICTED BY IDOCK:   -5.31 KCAL/MOL
REMARK 924 INTRA-LIGAND FREE ENERGY PREDICTED BY IDOCK:   -0.08 KCAL/MOL
REMARK 927      BINDING AFFINITY PREDICTED BY RF-SCORE:    0.00 PKD
ROOT
HETATM    1  C   UNL     1     -10.262  18.997  68.325  1.00  0.00    -0.460 C  
HETATM    2  C   UNL     1      -9.824  18.548  66.909  1.00  0.00    -0.350 C  
HETATM    3  C   UNL     1     -10.243  19.669  65.935  1.00  0.00    -0.536 C  
ENDROOT
BRANCH   2   4
HETATM    4  C   UNL     1     -10.514  17.196  66.550  1.00  0.00    -0.255 C  
HETATM    5  O   UNL     1     -10.173  16.743  65.233  1.00  0.00    -0.607 OA 
HETATM    6  H   UNL     1     -10.593  15.920  65.014  1.00  0.00     0.000 HD 
BRANCH   4   7
HETATM    7  C   UNL     1     -10.220  16.046  67.544  1.00  0.00    -0.275 C  
HETATM    8  O   UNL     1      -9.095  15.727  67.924  1.00  0.00    -0.184 OA 
HETATM    9  N   UNL     1     -11.350  15.417  68.027  1.00  0.00    -0.339 N  
HETATM   10  H   UNL     1     -12.272  15.729  67.722  1.00  0.00     0.000 HD 
BRANCH   9  11
HETATM   11  C   UNL     1     -11.238  14.318  68.963  1.00  0.00    -0.266 C  
BRANCH  11  12
HETATM   12  C   UNL     1     -11.702  12.982  68.393  1.00  0.00    -0.386 C  
BRANCH  12  13
HETATM   13  C   UNL     1     -11.693  11.835  69.395  1.00  0.00    -0.341 C  
HETATM   14  O   UNL     1     -12.245  10.670  68.785  1.00  0.00    -0.790 OA 
HETATM   15  H   UNL     1     -12.239   9.955  69.411  1.00  0.00     0.000 HD 
ENDBRANCH  12  13
ENDBRANCH  11  12
ENDBRANCH   9  11
ENDBRANCH   4   7
ENDBRANCH   2   4
BRANCH   2  16
HETATM   16  C   UNL     1      -8.283  18.363  66.930  1.00  0.00    -0.247 C  
HETATM   17  O   UNL     1      -7.761  18.412  68.253  1.00  0.00    -0.273 OA 
HETATM   18  H   UNL     1      -6.818  18.299  68.267  1.00  0.00     0.000 HD 
ENDBRANCH   2  16
TORSDOF 6
ENDMDL
MODEL       91
REMARK 921   NORMALIZED FREE ENERGY PREDICTED BY IDOCK:   -3.61 KCAL/MOL
REMARK 922        TOTAL FREE ENERGY PREDICTED BY IDOCK:   -5.39 KCAL/MOL
REMARK 923 INTER-LIGAND FREE ENERGY PREDICTED BY IDOCK:   -5.14 KCAL/MOL
REMARK 924 INTRA-LIGAND FREE ENERGY PREDICTED BY IDOCK:   -0.26 KCAL/MOL
REMARK 927      BINDING AFFINITY PREDICTED BY RF-SCORE:    0.00 PKD
ROOT
HETATM    1  C   UNL     1      -8.556  11.252  68.335  1.00  0.00    -0.155 C  
HETATM    2  C   UNL     1      -9.679  10.278  67.897  1.00  0.00    -0.165 C  
HETATM    3  C   UNL     1      -9.090   9.392  66.780  1.00  0.00    -0.168 C  
ENDROOT
BRANCH   2   4
HETATM    4  C   UNL     1     -10.909  11.091  67.388  1.00  0.00    -0.274 C  
HETATM    5  O   UNL     1     -12.103  10.787  68.122  1.00  0.00    -0.802 OA 
HETATM    6  H   UNL     1     -12.853  11.281  67.813  1.00  0.00     0.000 HD 
BRANCH   4   7
HETATM    7  C   UNL     1     -10.712  12.626  67.406  1.00  0.00    -0.229 C  
HETATM    8  O   UNL     1     -10.747  13.320  68.420  1.00  0.00    -0.242 OA 
HETATM    9  N   UNL     1     -10.436  13.172  66.168  1.00  0.00    -0.276 N  
HETATM   10  H   UNL     1     -10.377  12.566  65.349  1.00  0.00     0.000 HD 
BRANCH   9  11
HETATM   11  C   UNL     1     -10.231  14.598  66.021  1.00  0.00    -0.311 C  
BRANCH  11  12
HETATM   12  C   UNL     1     -10.933  15.193  64.805  1.00  0.00    -0.394 C  
BRANCH  12  13
HETATM   13  C   UNL     1     -12.320  14.623  64.540  1.00  0.00    -0.398 C  
HETATM   14  O   UNL     1     -12.303  13.890  63.317  1.00  0.00    -1.115 OA 
HETATM   15  H   UNL     1     -13.168  13.534  63.152  1.00  0.00     0.000 HD 
ENDBRANCH  12  13
ENDBRANCH  11  12
ENDBRANCH   9  11
ENDBRANCH   4   7
ENDBRANCH   2   4
BRANCH   2  16
HETATM   16  C   UNL     1     -10.080   9.436  69.137  1.00  0.00    -0.195 C  
HETATM   17  O   UNL     1     -10.244  10.243  70.297  1.00  0.00    -0.413 OA 
HETATM   18  H   UNL     1     -10.490   9.728  71.056  1.00  0.00     0.000 HD 
ENDBRANCH   2  16
TORSDOF 6
ENDMDL
MODEL       92
REMARK 921   NORMALIZED FREE ENERGY PREDICTED BY IDOCK:   -3.59 KCAL/MOL
REMARK 922        TOTAL FREE ENERGY PREDICTED BY IDOCK:   -5.38 KCAL/MOL
REMARK 923 INTER-LIGAND FREE ENERGY PREDICTED BY IDOCK:   -4.98 KCAL/MOL
REMARK 924 INTRA-LIGAND FREE ENERGY PREDICTED BY IDOCK:   -0.40 KCAL/MOL
REMARK 927      BINDING AFFINITY PREDICTED BY RF-SCORE:    0.00 PKD
ROOT
HETATM    1  C   UNL     1     -10.519  11.046  67.245  1.00  0.00    -0.270 C  
HETATM    2  C   UNL     1      -9.554  11.807  66.302  1.00  0.00    -0.242 C  
HETATM    3  C   UNL     1      -8.121  11.435  66.736  1.00  0.00    -0.161 C  
ENDROOT
BRANCH   2   4
HETATM    4  C   UNL     1      -9.804  13.342  66.423  1.00  0.00    -0.296 C  
HETATM    5  O   UNL     1      -9.761  14.003  65.152  1.00  0.00    -0.578 OA 
HETATM    6  H   UNL     1      -9.913  14.938  65.225  1.00  0.00     0.000 HD 
BRANCH   4   7
HETATM    7  C   UNL     1     -11.136  13.719  67.116  1.00  0.00    -0.302 C  
HETATM    8  O   UNL     1     -12.242  13.641  66.585  1.00  0.00    -0.415 OA 
HETATM    9  N   UNL     1     -10.994  14.116  68.431  1.00  0.00    -0.246 N  
HETATM   10  H   UNL     1     -10.068  14.135  68.857  1.00  0.00     0.000 HD 
BRANCH   9  11
HETATM   11  C   UNL     1     -12.150  14.505  69.212  1.00  0.00    -0.290 C  
BRANCH  11  12
HETATM   12  C   UNL     1     -12.113  13.998  70.650  1.00  0.00    -0.424 C  
BRANCH  12  13
HETATM   13  C   UNL     1     -13.141  14.644  71.569  1.00  0.00    -0.348 C  
HETATM   14  O   UNL     1     -14.080  15.377  70.786  1.00  0.00    -0.836 OA 
HETATM   15  H   UNL     1     -14.722  15.780  71.359  1.00  0.00     0.000 HD 
ENDBRANCH  12  13
ENDBRANCH  11  12
ENDBRANCH   9  11
ENDBRANCH   4   7
ENDBRANCH   2   4
BRANCH   2  16
HETATM   16  C   UNL     1      -9.847  11.339  64.852  1.00  0.00    -0.264 C  
HETATM   17  O   UNL     1     -11.225  11.470  64.520  1.00  0.00    -0.305 OA 
HETATM   18  H   UNL     1     -11.405  11.183  63.632  1.00  0.00     0.000 HD 
ENDBRANCH   2  16
TORSDOF 6
ENDMDL
MODEL       93
REMARK 921   NORMALIZED FREE ENERGY PREDICTED BY IDOCK:   -3.59 KCAL/MOL
REMARK 922        TOTAL FREE ENERGY PREDICTED BY IDOCK:   -5.38 KCAL/MOL
REMARK 923 INTER-LIGAND FREE ENERGY PREDICTED BY IDOCK:   -5.25 KCAL/MOL
REMARK 924 INTRA-LIGAND FREE ENERGY PREDICTED BY IDOCK:   -0.13 KCAL/MOL
REMARK 927      BINDING AFFINITY PREDICTED BY RF-SCORE:    0.00 PKD
ROOT
HETATM    1  C   UNL     1     -12.640  12.593  64.800  1.00  0.00    -0.530 C  
HETATM    2  C   UNL     1     -11.292  12.871  65.510  1.00  0.00    -0.340 C  
HETATM    3  C   UNL     1     -10.810  11.527  66.095  1.00  0.00    -0.330 C  
ENDROOT
BRANCH   2   4
HETATM    4  C   UNL     1     -11.498  13.937  66.629  1.00  0.00    -0.355 C  
HETATM    5  O   UNL     1     -12.851  14.407  66.692  1.00  0.00    -0.394 OA 
HETATM    6  H   UNL     1     -12.977  15.056  67.374  1.00  0.00     0.000 HD 
BRANCH   4   7
HETATM    7  C   UNL     1     -11.088  13.463  68.045  1.00  0.00    -0.255 C  
HETATM    8  O   UNL     1      -9.938  13.485  68.479  1.00  0.00    -0.234 OA 
HETATM    9  N   UNL     1     -12.146  13.047  68.828  1.00  0.00    -0.244 N  
HETATM   10  H   UNL     1     -13.094  13.075  68.454  1.00  0.00     0.000 HD 
BRANCH   9  11
HETATM   11  C   UNL     1     -11.921  12.570  70.177  1.00  0.00    -0.301 C  
BRANCH  11  12
HETATM   12  C   UNL     1     -11.825  11.052  70.279  1.00  0.00    -0.456 C  
BRANCH  12  13
HETATM   13  C   UNL     1     -12.931  10.408  71.104  1.00  0.00    -0.412 C  
HETATM   14  O   UNL     1     -13.249  11.253  72.208  1.00  0.00    -0.597 OA 
HETATM   15  H   UNL     1     -13.940  10.851  72.723  1.00  0.00     0.000 HD 
ENDBRANCH  12  13
ENDBRANCH  11  12
ENDBRANCH   9  11
ENDBRANCH   4   7
ENDBRANCH   2   4
BRANCH   2  16
HETATM   16  C   UNL     1     -10.302  13.412  64.444  1.00  0.00    -0.325 C  
HETATM   17  O   UNL     1     -10.290  12.604  63.273  1.00  0.00    -0.477 OA 
HETATM   18  H   UNL     1      -9.684  12.934  62.620  1.00  0.00     0.000 HD 
ENDBRANCH   2  16
TORSDOF 6
ENDMDL
MODEL       94
REMARK 921   NORMALIZED FREE ENERGY PREDICTED BY IDOCK:   -3.59 KCAL/MOL
REMARK 922        TOTAL FREE ENERGY PREDICTED BY IDOCK:   -5.37 KCAL/MOL
REMARK 923 INTER-LIGAND FREE ENERGY PREDICTED BY IDOCK:   -5.28 KCAL/MOL
REMARK 924 INTRA-LIGAND FREE ENERGY PREDICTED BY IDOCK:   -0.09 KCAL/MOL
REMARK 927      BINDING AFFINITY PREDICTED BY RF-SCORE:    0.00 PKD
ROOT
HETATM    1  C   UNL     1      -9.975  11.988  63.134  1.00  0.00    -0.229 C  
HETATM    2  C   UNL     1     -11.142  12.258  64.116  1.00  0.00    -0.423 C  
HETATM    3  C   UNL     1     -12.441  11.859  63.386  1.00  0.00    -0.582 C  
ENDROOT
BRANCH   2   4
HETATM    4  C   UNL     1     -11.154  13.765  64.516  1.00  0.00    -0.380 C  
HETATM    5  O   UNL     1     -12.087  14.528  63.739  1.00  0.00    -0.848 OA 
HETATM    6  H   UNL     1     -12.094  15.446  63.982  1.00  0.00     0.000 HD 
BRANCH   4   7
HETATM    7  C   UNL     1     -11.450  14.026  66.013  1.00  0.00    -0.338 C  
HETATM    8  O   UNL     1     -12.577  14.065  66.502  1.00  0.00    -0.393 OA 
HETATM    9  N   UNL     1     -10.320  14.167  66.794  1.00  0.00    -0.272 N  
HETATM   10  H   UNL     1      -9.397  14.093  66.367  1.00  0.00     0.000 HD 
BRANCH   9  11
HETATM   11  C   UNL     1     -10.434  14.420  68.215  1.00  0.00    -0.245 C  
BRANCH  11  12
HETATM   12  C   UNL     1     -10.740  15.876  68.553  1.00  0.00    -0.274 C  
BRANCH  12  13
HETATM   13  C   UNL     1     -11.034  16.130  70.025  1.00  0.00    -0.364 C  
HETATM   14  O   UNL     1     -10.967  14.898  70.739  1.00  0.00    -0.495 OA 
HETATM   15  H   UNL     1     -11.150  15.056  71.658  1.00  0.00     0.000 HD 
ENDBRANCH  12  13
ENDBRANCH  11  12
ENDBRANCH   9  11
ENDBRANCH   4   7
ENDBRANCH   2   4
BRANCH   2  16
HETATM   16  C   UNL     1     -10.908  11.381  65.376  1.00  0.00    -0.229 C  
HETATM   17  O   UNL     1      -9.523  11.183  65.635  1.00  0.00    -0.208 OA 
HETATM   18  H   UNL     1      -9.380  10.646  66.406  1.00  0.00     0.000 HD 
ENDBRANCH   2  16
TORSDOF 6
ENDMDL
MODEL       95
REMARK 921   NORMALIZED FREE ENERGY PREDICTED BY IDOCK:   -3.58 KCAL/MOL
REMARK 922        TOTAL FREE ENERGY PREDICTED BY IDOCK:   -5.36 KCAL/MOL
REMARK 923 INTER-LIGAND FREE ENERGY PREDICTED BY IDOCK:   -4.99 KCAL/MOL
REMARK 924 INTRA-LIGAND FREE ENERGY PREDICTED BY IDOCK:   -0.38 KCAL/MOL
REMARK 927      BINDING AFFINITY PREDICTED BY RF-SCORE:    0.00 PKD
ROOT
HETATM    1  C   UNL     1     -11.281   7.603  72.964  1.00  0.00    -0.388 C  
HETATM    2  C   UNL     1     -10.802   8.193  71.614  1.00  0.00    -0.306 C  
HETATM    3  C   UNL     1     -11.661   9.446  71.344  1.00  0.00    -0.451 C  
ENDROOT
BRANCH   2   4
HETATM    4  C   UNL     1     -10.976   7.131  70.485  1.00  0.00    -0.262 C  
HETATM    5  O   UNL     1     -12.354   6.895  70.167  1.00  0.00    -0.628 OA 
HETATM    6  H   UNL     1     -12.460   6.248  69.480  1.00  0.00     0.000 HD 
BRANCH   4   7
HETATM    7  C   UNL     1     -10.230   7.468  69.171  1.00  0.00    -0.202 C  
HETATM    8  O   UNL     1      -9.051   7.199  68.953  1.00  0.00    -0.133 OA 
HETATM    9  N   UNL     1     -11.022   8.069  68.213  1.00  0.00    -0.428 N  
HETATM   10  H   UNL     1     -12.007   8.247  68.409  1.00  0.00     0.000 HD 
BRANCH   9  11
HETATM   11  C   UNL     1     -10.465   8.450  66.931  1.00  0.00    -0.289 C  
BRANCH  11  12
HETATM   12  C   UNL     1     -10.423   9.958  66.708  1.00  0.00    -0.261 C  
BRANCH  12  13
HETATM   13  C   UNL     1     -10.730  10.784  67.950  1.00  0.00    -0.239 C  
HETATM   14  O   UNL     1     -12.142  10.841  68.142  1.00  0.00    -0.802 OA 
HETATM   15  H   UNL     1     -12.334  11.355  68.917  1.00  0.00     0.000 HD 
ENDBRANCH  12  13
ENDBRANCH  11  12
ENDBRANCH   9  11
ENDBRANCH   4   7
ENDBRANCH   2   4
BRANCH   2  16
HETATM   16  C   UNL     1      -9.301   8.557  71.767  1.00  0.00    -0.253 C  
HETATM   17  O   UNL     1      -8.948   9.693  70.986  1.00  0.00    -0.345 OA 
HETATM   18  H   UNL     1      -8.029   9.916  71.080  1.00  0.00     0.000 HD 
ENDBRANCH   2  16
TORSDOF 6
ENDMDL
MODEL       96
REMARK 921   NORMALIZED FREE ENERGY PREDICTED BY IDOCK:   -3.58 KCAL/MOL
REMARK 922        TOTAL FREE ENERGY PREDICTED BY IDOCK:   -5.36 KCAL/MOL
REMARK 923 INTER-LIGAND FREE ENERGY PREDICTED BY IDOCK:   -4.65 KCAL/MOL
REMARK 924 INTRA-LIGAND FREE ENERGY PREDICTED BY IDOCK:   -0.71 KCAL/MOL
REMARK 927      BINDING AFFINITY PREDICTED BY RF-SCORE:    0.00 PKD
ROOT
HETATM    1  C   UNL     1      -9.642  15.140  66.437  1.00  0.00    -0.309 C  
HETATM    2  C   UNL     1      -9.914  14.409  67.775  1.00  0.00    -0.226 C  
HETATM    3  C   UNL     1     -11.444  14.249  67.893  1.00  0.00    -0.341 C  
ENDROOT
BRANCH   2   4
HETATM    4  C   UNL     1      -9.337  15.245  68.958  1.00  0.00    -0.231 C  
HETATM    5  O   UNL     1      -8.214  14.607  69.580  1.00  0.00    -0.380 OA 
HETATM    6  H   UNL     1      -7.862  15.116  70.300  1.00  0.00     0.000 HD 
BRANCH   4   7
HETATM    7  C   UNL     1      -8.919  16.686  68.576  1.00  0.00    -0.235 C  
HETATM    8  O   UNL     1      -7.838  16.987  68.075  1.00  0.00    -0.174 OA 
HETATM    9  N   UNL     1      -9.898  17.634  68.801  1.00  0.00    -0.335 N  
HETATM   10  H   UNL     1     -10.800  17.350  69.183  1.00  0.00     0.000 HD 
BRANCH   9  11
HETATM   11  C   UNL     1      -9.656  19.029  68.497  1.00  0.00    -0.386 C  
BRANCH  11  12
HETATM   12  C   UNL     1     -10.573  19.586  67.414  1.00  0.00    -0.607 C  
BRANCH  12  13
HETATM   13  C   UNL     1     -10.346  18.990  66.032  1.00  0.00    -0.446 C  
HETATM   14  O   UNL     1      -8.955  18.730  65.853  1.00  0.00    -0.462 OA 
HETATM   15  H   UNL     1      -8.813  18.357  64.991  1.00  0.00     0.000 HD 
ENDBRANCH  12  13
ENDBRANCH  11  12
ENDBRANCH   9  11
ENDBRANCH   4   7
ENDBRANCH   2   4
BRANCH   2  16
HETATM   16  C   UNL     1      -9.204  13.030  67.710  1.00  0.00    -0.200 C  
HETATM   17  O   UNL     1      -7.885  13.137  67.187  1.00  0.00    -0.323 OA 
HETATM   18  H   UNL     1      -7.450  12.293  67.147  1.00  0.00     0.000 HD 
ENDBRANCH   2  16
TORSDOF 6
ENDMDL
MODEL       97
REMARK 921   NORMALIZED FREE ENERGY PREDICTED BY IDOCK:   -3.58 KCAL/MOL
REMARK 922        TOTAL FREE ENERGY PREDICTED BY IDOCK:   -5.36 KCAL/MOL
REMARK 923 INTER-LIGAND FREE ENERGY PREDICTED BY IDOCK:   -5.13 KCAL/MOL
REMARK 924 INTRA-LIGAND FREE ENERGY PREDICTED BY IDOCK:   -0.23 KCAL/MOL
REMARK 927      BINDING AFFINITY PREDICTED BY RF-SCORE:    0.00 PKD
ROOT
HETATM    1  C   UNL     1     -10.577  13.979  64.743  1.00  0.00    -0.441 C  
HETATM    2  C   UNL     1     -11.272  12.605  64.571  1.00  0.00    -0.375 C  
HETATM    3  C   UNL     1     -11.844  12.218  65.950  1.00  0.00    -0.420 C  
ENDROOT
BRANCH   2   4
HETATM    4  C   UNL     1     -10.236  11.552  64.069  1.00  0.00    -0.345 C  
HETATM    5  O   UNL     1      -9.235  12.132  63.223  1.00  0.00    -0.653 OA 
HETATM    6  H   UNL     1      -8.605  11.491  62.917  1.00  0.00     0.000 HD 
BRANCH   4   7
HETATM    7  C   UNL     1      -9.519  10.774  65.199  1.00  0.00    -0.226 C  
HETATM    8  O   UNL     1      -8.784  11.289  66.039  1.00  0.00    -0.188 OA 
HETATM    9  N   UNL     1      -9.812   9.425  65.227  1.00  0.00    -0.438 N  
HETATM   10  H   UNL     1     -10.455   9.032  64.540  1.00  0.00     0.000 HD 
BRANCH   9  11
HETATM   11  C   UNL     1      -9.213   8.562  66.225  1.00  0.00    -0.207 C  
BRANCH  11  12
HETATM   12  C   UNL     1      -8.240   7.542  65.644  1.00  0.00    -0.133 C  
BRANCH  12  13
HETATM   13  C   UNL     1      -7.885   7.776  64.182  1.00  0.00    -0.133 C  
HETATM   14  O   UNL     1      -7.170   9.004  64.059  1.00  0.00    -0.094 OA 
HETATM   15  H   UNL     1      -6.949   9.150  63.147  1.00  0.00     0.000 HD 
ENDBRANCH  12  13
ENDBRANCH  11  12
ENDBRANCH   9  11
ENDBRANCH   4   7
ENDBRANCH   2   4
BRANCH   2  16
HETATM   16  C   UNL     1     -12.399  12.778  63.518  1.00  0.00    -0.467 C  
HETATM   17  O   UNL     1     -12.334  14.046  62.874  1.00  0.00    -1.011 OA 
HETATM   18  H   UNL     1     -13.024  14.152  62.229  1.00  0.00     0.000 HD 
ENDBRANCH   2  16
TORSDOF 6
ENDMDL
MODEL       98
REMARK 921   NORMALIZED FREE ENERGY PREDICTED BY IDOCK:   -3.57 KCAL/MOL
REMARK 922        TOTAL FREE ENERGY PREDICTED BY IDOCK:   -5.34 KCAL/MOL
REMARK 923 INTER-LIGAND FREE ENERGY PREDICTED BY IDOCK:   -4.52 KCAL/MOL
REMARK 924 INTRA-LIGAND FREE ENERGY PREDICTED BY IDOCK:   -0.82 KCAL/MOL
REMARK 927      BINDING AFFINITY PREDICTED BY RF-SCORE:    0.00 PKD
ROOT
HETATM    1  C   UNL     1     -11.919   6.333  72.057  1.00  0.00    -0.353 C  
HETATM    2  C   UNL     1     -10.990   7.487  71.602  1.00  0.00    -0.263 C  
HETATM    3  C   UNL     1     -11.771   8.800  71.818  1.00  0.00    -0.416 C  
ENDROOT
BRANCH   2   4
HETATM    4  C   UNL     1     -10.608   7.293  70.102  1.00  0.00    -0.232 C  
HETATM    5  O   UNL     1     -11.671   6.705  69.340  1.00  0.00    -0.643 OA 
HETATM    6  H   UNL     1     -11.439   6.587  68.427  1.00  0.00     0.000 HD 
BRANCH   4   7
HETATM    7  C   UNL     1     -10.163   8.590  69.384  1.00  0.00    -0.211 C  
HETATM    8  O   UNL     1      -9.170   9.248  69.690  1.00  0.00    -0.156 OA 
HETATM    9  N   UNL     1     -10.959   8.942  68.312  1.00  0.00    -0.466 N  
HETATM   10  H   UNL     1     -11.755   8.356  68.059  1.00  0.00     0.000 HD 
BRANCH   9  11
HETATM   11  C   UNL     1     -10.672  10.135  67.543  1.00  0.00    -0.290 C  
BRANCH  11  12
HETATM   12  C   UNL     1     -11.732  11.222  67.687  1.00  0.00    -0.215 C  
BRANCH  12  13
HETATM   13  C   UNL     1     -12.020  11.630  69.125  1.00  0.00    -0.313 C  
HETATM   14  O   UNL     1     -10.793  11.715  69.847  1.00  0.00    -0.450 OA 
HETATM   15  H   UNL     1     -10.972  11.970  70.744  1.00  0.00     0.000 HD 
ENDBRANCH  12  13
ENDBRANCH  11  12
ENDBRANCH   9  11
ENDBRANCH   4   7
ENDBRANCH   2   4
BRANCH   2  16
HETATM   16  C   UNL     1      -9.712   7.436  72.481  1.00  0.00    -0.160 C  
HETATM   17  O   UNL     1      -9.156   8.730  72.684  1.00  0.00    -0.354 OA 
HETATM   18  H   UNL     1      -8.373   8.699  73.222  1.00  0.00     0.000 HD 
ENDBRANCH   2  16
TORSDOF 6
ENDMDL
MODEL       99
REMARK 921   NORMALIZED FREE ENERGY PREDICTED BY IDOCK:   -3.57 KCAL/MOL
REMARK 922        TOTAL FREE ENERGY PREDICTED BY IDOCK:   -5.34 KCAL/MOL
REMARK 923 INTER-LIGAND FREE ENERGY PREDICTED BY IDOCK:   -5.12 KCAL/MOL
REMARK 924 INTRA-LIGAND FREE ENERGY PREDICTED BY IDOCK:   -0.22 KCAL/MOL
REMARK 927      BINDING AFFINITY PREDICTED BY RF-SCORE:    0.00 PKD
ROOT
HETATM    1  C   UNL     1     -10.340  11.725  67.083  1.00  0.00    -0.242 C  
HETATM    2  C   UNL     1      -9.595  11.046  65.907  1.00  0.00    -0.255 C  
HETATM    3  C   UNL     1      -8.089  11.299  66.127  1.00  0.00    -0.065 C  
ENDROOT
BRANCH   2   4
HETATM    4  C   UNL     1     -10.082  11.655  64.556  1.00  0.00    -0.278 C  
HETATM    5  O   UNL     1     -10.846  10.721  63.781  1.00  0.00    -0.490 OA 
HETATM    6  H   UNL     1     -11.143  11.091  62.959  1.00  0.00     0.000 HD 
BRANCH   4   7
HETATM    7  C   UNL     1     -10.915  12.951  64.704  1.00  0.00    -0.332 C  
HETATM    8  O   UNL     1     -12.139  12.981  64.820  1.00  0.00    -0.369 OA 
HETATM    9  N   UNL     1     -10.158  14.105  64.747  1.00  0.00    -0.592 N  
HETATM   10  H   UNL     1      -9.142  14.046  64.685  1.00  0.00     0.000 HD 
BRANCH   9  11
HETATM   11  C   UNL     1     -10.795  15.399  64.878  1.00  0.00    -0.425 C  
BRANCH  11  12
HETATM   12  C   UNL     1     -10.608  16.034  66.252  1.00  0.00    -0.288 C  
BRANCH  12  13
HETATM   13  C   UNL     1     -10.388  17.540  66.222  1.00  0.00    -0.335 C  
HETATM   14  O   UNL     1     -10.960  18.078  65.031  1.00  0.00    -0.748 OA 
HETATM   15  H   UNL     1     -10.822  19.017  65.013  1.00  0.00     0.000 HD 
ENDBRANCH  12  13
ENDBRANCH  11  12
ENDBRANCH   9  11
ENDBRANCH   4   7
ENDBRANCH   2   4
BRANCH   2  16
HETATM   16  C   UNL     1      -9.927   9.531  65.951  1.00  0.00    -0.272 C  
HETATM   17  O   UNL     1      -9.259   8.810  64.922  1.00  0.00    -0.433 OA 
HETATM   18  H   UNL     1      -9.463   7.882  64.949  1.00  0.00     0.000 HD 
ENDBRANCH   2  16
TORSDOF 6
ENDMDL
MODEL      100
REMARK 921   NORMALIZED FREE ENERGY PREDICTED BY IDOCK:   -3.56 KCAL/MOL
REMARK 922        TOTAL FREE ENERGY PREDICTED BY IDOCK:   -5.33 KCAL/MOL
REMARK 923 INTER-LIGAND FREE ENERGY PREDICTED BY IDOCK:   -5.03 KCAL/MOL
REMARK 924 INTRA-LIGAND FREE ENERGY PREDICTED BY IDOCK:   -0.30 KCAL/MOL
REMARK 927      BINDING AFFINITY PREDICTED BY RF-SCORE:    0.00 PKD
ROOT
HETATM    1  C   UNL     1     -10.312  12.412  66.190  1.00  0.00    -0.271 C  
HETATM    2  C   UNL     1     -10.530  13.679  67.053  1.00  0.00    -0.270 C  
HETATM    3  C   UNL     1      -9.586  14.766  66.498  1.00  0.00    -0.304 C  
ENDROOT
BRANCH   2   4
HETATM    4  C   UNL     1     -10.214  13.359  68.546  1.00  0.00    -0.223 C  
HETATM    5  O   UNL     1      -9.665  14.487  69.241  1.00  0.00    -0.397 OA 
HETATM    6  H   UNL     1      -9.472  14.292  70.150  1.00  0.00     0.000 HD 
BRANCH   4   7
HETATM    7  C   UNL     1     -11.425  12.838  69.357  1.00  0.00    -0.257 C  
HETATM    8  O   UNL     1     -11.998  11.772  69.143  1.00  0.00    -0.314 OA 
HETATM    9  N   UNL     1     -11.798  13.660  70.403  1.00  0.00    -0.495 N  
HETATM   10  H   UNL     1     -11.280  14.521  70.579  1.00  0.00     0.000 HD 
BRANCH   9  11
HETATM   11  C   UNL     1     -12.918  13.309  71.251  1.00  0.00    -0.270 C  
BRANCH  11  12
HETATM   12  C   UNL     1     -13.495  14.494  72.019  1.00  0.00    -0.476 C  
BRANCH  12  13
HETATM   13  C   UNL     1     -12.626  14.978  73.172  1.00  0.00    -0.469 C  
HETATM   14  O   UNL     1     -11.802  16.052  72.723  1.00  0.00    -0.467 OA 
HETATM   15  H   UNL     1     -11.260  16.354  73.442  1.00  0.00     0.000 HD 
ENDBRANCH  12  13
ENDBRANCH  11  12
ENDBRANCH   9  11
ENDBRANCH   4   7
ENDBRANCH   2   4
BRANCH   2  16
HETATM   16  C   UNL     1     -12.019  14.095  66.908  1.00  0.00    -0.449 C  
HETATM   17  O   UNL     1     -12.708  13.280  65.967  1.00  0.00    -0.367 OA 
HETATM   18  H   UNL     1     -13.620  13.534  65.878  1.00  0.00     0.000 HD 
ENDBRANCH   2  16
TORSDOF 6
ENDMDL
MODEL      101
REMARK 921   NORMALIZED FREE ENERGY PREDICTED BY IDOCK:   -3.55 KCAL/MOL
REMARK 922        TOTAL FREE ENERGY PREDICTED BY IDOCK:   -5.32 KCAL/MOL
REMARK 923 INTER-LIGAND FREE ENERGY PREDICTED BY IDOCK:   -5.11 KCAL/MOL
REMARK 924 INTRA-LIGAND FREE ENERGY PREDICTED BY IDOCK:   -0.21 KCAL/MOL
REMARK 927      BINDING AFFINITY PREDICTED BY RF-SCORE:    0.00 PKD
ROOT
HETATM    1  C   UNL     1     -11.397   6.388  70.171  1.00  0.00    -0.485 C  
HETATM    2  C   UNL     1     -11.826   6.916  71.563  1.00  0.00    -0.366 C  
HETATM    3  C   UNL     1     -13.318   7.293  71.458  1.00  0.00    -0.435 C  
ENDROOT
BRANCH   2   4
HETATM    4  C   UNL     1     -10.954   8.150  71.948  1.00  0.00    -0.275 C  
HETATM    5  O   UNL     1      -9.551   7.897  71.793  1.00  0.00    -0.154 OA 
HETATM    6  H   UNL     1      -9.020   8.648  72.028  1.00  0.00     0.000 HD 
BRANCH   4   7
HETATM    7  C   UNL     1     -11.297   9.442  71.167  1.00  0.00    -0.351 C  
HETATM    8  O   UNL     1     -10.855   9.720  70.054  1.00  0.00    -0.239 OA 
HETATM    9  N   UNL     1     -12.202  10.264  71.809  1.00  0.00    -0.292 N  
HETATM   10  H   UNL     1     -12.581   9.990  72.715  1.00  0.00     0.000 HD 
BRANCH   9  11
HETATM   11  C   UNL     1     -12.619  11.513  71.206  1.00  0.00    -0.347 C  
BRANCH  11  12
HETATM   12  C   UNL     1     -13.513  12.358  72.108  1.00  0.00    -0.481 C  
BRANCH  12  13
HETATM   13  C   UNL     1     -13.296  13.859  71.977  1.00  0.00    -0.435 C  
HETATM   14  O   UNL     1     -13.424  14.468  73.260  1.00  0.00    -0.581 OA 
HETATM   15  H   UNL     1     -13.288  15.405  73.178  1.00  0.00     0.000 HD 
ENDBRANCH  12  13
ENDBRANCH  11  12
ENDBRANCH   9  11
ENDBRANCH   4   7
ENDBRANCH   2   4
BRANCH   2  16
HETATM   16  C   UNL     1     -11.601   5.773  72.588  1.00  0.00    -0.253 C  
HETATM   17  O   UNL     1     -10.897   6.224  73.740  1.00  0.00    -0.418 OA 
HETATM   18  H   UNL     1     -10.759   5.524  74.368  1.00  0.00     0.000 HD 
ENDBRANCH   2  16
TORSDOF 6
ENDMDL
MODEL      102
REMARK 921   NORMALIZED FREE ENERGY PREDICTED BY IDOCK:   -3.55 KCAL/MOL
REMARK 922        TOTAL FREE ENERGY PREDICTED BY IDOCK:   -5.31 KCAL/MOL
REMARK 923 INTER-LIGAND FREE ENERGY PREDICTED BY IDOCK:   -4.93 KCAL/MOL
REMARK 924 INTRA-LIGAND FREE ENERGY PREDICTED BY IDOCK:   -0.38 KCAL/MOL
REMARK 927      BINDING AFFINITY PREDICTED BY RF-SCORE:    0.00 PKD
ROOT
HETATM    1  C   UNL     1      -9.448   6.134  71.492  1.00  0.00    -0.161 C  
HETATM    2  C   UNL     1     -10.740   6.815  72.008  1.00  0.00    -0.245 C  
HETATM    3  C   UNL     1     -11.652   5.693  72.545  1.00  0.00    -0.303 C  
ENDROOT
BRANCH   2   4
HETATM    4  C   UNL     1     -11.424   7.595  70.843  1.00  0.00    -0.282 C  
HETATM    5  O   UNL     1     -12.093   6.723  69.922  1.00  0.00    -0.656 OA 
HETATM    6  H   UNL     1     -12.509   7.197  69.213  1.00  0.00     0.000 HD 
BRANCH   4   7
HETATM    7  C   UNL     1     -12.434   8.673  71.304  1.00  0.00    -0.252 C  
HETATM    8  O   UNL     1     -13.502   8.431  71.862  1.00  0.00    -0.340 OA 
HETATM    9  N   UNL     1     -12.014   9.970  71.080  1.00  0.00    -0.362 N  
HETATM   10  H   UNL     1     -11.106  10.140  70.649  1.00  0.00     0.000 HD 
BRANCH   9  11
HETATM   11  C   UNL     1     -12.853  11.090  71.453  1.00  0.00    -0.443 C  
BRANCH  11  12
HETATM   12  C   UNL     1     -12.414  12.413  70.835  1.00  0.00    -0.367 C  
BRANCH  12  13
HETATM   13  C   UNL     1     -11.905  12.298  69.404  1.00  0.00    -0.310 C  
HETATM   14  O   UNL     1     -10.533  11.909  69.421  1.00  0.00    -0.435 OA 
HETATM   15  H   UNL     1     -10.216  11.837  68.529  1.00  0.00     0.000 HD 
ENDBRANCH  12  13
ENDBRANCH  11  12
ENDBRANCH   9  11
ENDBRANCH   4   7
ENDBRANCH   2   4
BRANCH   2  16
HETATM   16  C   UNL     1     -10.333   7.802  73.134  1.00  0.00    -0.340 C  
HETATM   17  O   UNL     1     -10.177   7.144  74.386  1.00  0.00    -0.435 OA 
HETATM   18  H   UNL     1      -9.928   7.748  75.076  1.00  0.00     0.000 HD 
ENDBRANCH   2  16
TORSDOF 6
ENDMDL
MODEL      103
REMARK 921   NORMALIZED FREE ENERGY PREDICTED BY IDOCK:   -3.54 KCAL/MOL
REMARK 922        TOTAL FREE ENERGY PREDICTED BY IDOCK:   -5.31 KCAL/MOL
REMARK 923 INTER-LIGAND FREE ENERGY PREDICTED BY IDOCK:   -4.91 KCAL/MOL
REMARK 924 INTRA-LIGAND FREE ENERGY PREDICTED BY IDOCK:   -0.40 KCAL/MOL
REMARK 927      BINDING AFFINITY PREDICTED BY RF-SCORE:    0.00 PKD
ROOT
HETATM    1  C   UNL     1      -9.453   8.508  69.145  1.00  0.00    -0.154 C  
HETATM    2  C   UNL     1      -9.612   7.555  67.935  1.00  0.00    -0.161 C  
HETATM    3  C   UNL     1      -9.972   8.432  66.719  1.00  0.00    -0.354 C  
ENDROOT
BRANCH   2   4
HETATM    4  C   UNL     1     -10.730   6.509  68.234  1.00  0.00    -0.278 C  
HETATM    5  O   UNL     1     -10.427   5.217  67.692  1.00  0.00    -0.151 OA 
HETATM    6  H   UNL     1     -11.108   4.580  67.873  1.00  0.00     0.000 HD 
BRANCH   4   7
HETATM    7  C   UNL     1     -11.056   6.335  69.737  1.00  0.00    -0.406 C  
HETATM    8  O   UNL     1     -10.316   5.785  70.549  1.00  0.00    -0.214 OA 
HETATM    9  N   UNL     1     -12.255   6.903  70.122  1.00  0.00    -0.623 N  
HETATM   10  H   UNL     1     -12.831   7.386  69.433  1.00  0.00     0.000 HD 
BRANCH   9  11
HETATM   11  C   UNL     1     -12.700   6.819  71.498  1.00  0.00    -0.290 C  
BRANCH  11  12
HETATM   12  C   UNL     1     -14.116   7.343  71.713  1.00  0.00    -0.510 C  
BRANCH  12  13
HETATM   13  C   UNL     1     -14.192   8.828  72.043  1.00  0.00    -0.414 C  
HETATM   14  O   UNL     1     -14.153   8.999  73.458  1.00  0.00    -1.136 OA 
HETATM   15  H   UNL     1     -14.200   9.925  73.664  1.00  0.00     0.000 HD 
ENDBRANCH  12  13
ENDBRANCH  11  12
ENDBRANCH   9  11
ENDBRANCH   4   7
ENDBRANCH   2   4
BRANCH   2  16
HETATM   16  C   UNL     1      -8.255   6.829  67.728  1.00  0.00    -0.120 C  
HETATM   17  O   UNL     1      -7.819   6.172  68.913  1.00  0.00    -0.097 OA 
HETATM   18  H   UNL     1      -6.988   5.728  68.786  1.00  0.00     0.000 HD 
ENDBRANCH   2  16
TORSDOF 6
ENDMDL
MODEL      104
REMARK 921   NORMALIZED FREE ENERGY PREDICTED BY IDOCK:   -3.52 KCAL/MOL
REMARK 922        TOTAL FREE ENERGY PREDICTED BY IDOCK:   -5.28 KCAL/MOL
REMARK 923 INTER-LIGAND FREE ENERGY PREDICTED BY IDOCK:   -4.43 KCAL/MOL
REMARK 924 INTRA-LIGAND FREE ENERGY PREDICTED BY IDOCK:   -0.84 KCAL/MOL
REMARK 927      BINDING AFFINITY PREDICTED BY RF-SCORE:    0.00 PKD
ROOT
HETATM    1  C   UNL     1     -10.774   9.892  67.240  1.00  0.00    -0.304 C  
HETATM    2  C   UNL     1     -10.293  11.182  67.949  1.00  0.00    -0.211 C  
HETATM    3  C   UNL     1     -10.751  11.082  69.419  1.00  0.00    -0.247 C  
ENDROOT
BRANCH   2   4
HETATM    4  C   UNL     1     -10.910  12.430  67.245  1.00  0.00    -0.243 C  
HETATM    5  O   UNL     1     -12.274  12.218  66.858  1.00  0.00    -0.530 OA 
HETATM    6  H   UNL     1     -12.651  12.977  66.429  1.00  0.00     0.000 HD 
BRANCH   4   7
HETATM    7  C   UNL     1     -10.844  13.731  68.080  1.00  0.00    -0.246 C  
HETATM    8  O   UNL     1      -9.801  14.283  68.426  1.00  0.00    -0.221 OA 
HETATM    9  N   UNL     1     -12.079  14.272  68.378  1.00  0.00    -0.558 N  
HETATM   10  H   UNL     1     -12.927  13.812  68.046  1.00  0.00     0.000 HD 
BRANCH   9  11
HETATM   11  C   UNL     1     -12.182  15.488  69.158  1.00  0.00    -0.146 C  
BRANCH  11  12
HETATM   12  C   UNL     1     -12.853  15.289  70.513  1.00  0.00    -0.421 C  
BRANCH  12  13
HETATM   13  C   UNL     1     -11.928  14.760  71.600  1.00  0.00    -0.345 C  
HETATM   14  O   UNL     1     -10.573  14.918  71.184  1.00  0.00    -0.478 OA 
HETATM   15  H   UNL     1      -9.995  14.588  71.863  1.00  0.00     0.000 HD 
ENDBRANCH  12  13
ENDBRANCH  11  12
ENDBRANCH   9  11
ENDBRANCH   4   7
ENDBRANCH   2   4
BRANCH   2  16
HETATM   16  C   UNL     1      -8.745  11.229  67.839  1.00  0.00    -0.138 C  
HETATM   17  O   UNL     1      -8.147  11.782  69.007  1.00  0.00    -0.345 OA 
HETATM   18  H   UNL     1      -7.200  11.811  68.940  1.00  0.00     0.000 HD 
ENDBRANCH   2  16
TORSDOF 6
ENDMDL
MODEL      105
REMARK 921   NORMALIZED FREE ENERGY PREDICTED BY IDOCK:   -3.51 KCAL/MOL
REMARK 922        TOTAL FREE ENERGY PREDICTED BY IDOCK:   -5.26 KCAL/MOL
REMARK 923 INTER-LIGAND FREE ENERGY PREDICTED BY IDOCK:   -4.75 KCAL/MOL
REMARK 924 INTRA-LIGAND FREE ENERGY PREDICTED BY IDOCK:   -0.52 KCAL/MOL
REMARK 927      BINDING AFFINITY PREDICTED BY RF-SCORE:    0.00 PKD
ROOT
HETATM    1  C   UNL     1     -11.808   7.723  70.180  1.00  0.00     0.219 C  
HETATM    2  C   UNL     1     -11.981   8.852  71.226  1.00  0.00    -0.365 C  
HETATM    3  C   UNL     1     -13.476   9.234  71.229  1.00  0.00    -0.314 C  
ENDROOT
BRANCH   2   4
HETATM    4  C   UNL     1     -11.084  10.068  70.839  1.00  0.00    -0.314 C  
HETATM    5  O   UNL     1      -9.916   9.673  70.107  1.00  0.00    -0.230 OA 
HETATM    6  H   UNL     1      -9.370  10.413  69.871  1.00  0.00     0.000 HD 
BRANCH   4   7
HETATM    7  C   UNL     1     -11.813  11.165  70.025  1.00  0.00    -0.361 C  
HETATM    8  O   UNL     1     -12.369  10.975  68.946  1.00  0.00    -0.516 OA 
HETATM    9  N   UNL     1     -11.837  12.401  70.641  1.00  0.00    -0.472 N  
HETATM   10  H   UNL     1     -11.399  12.519  71.555  1.00  0.00     0.000 HD 
BRANCH   9  11
HETATM   11  C   UNL     1     -12.479  13.530  70.001  1.00  0.00    -0.167 C  
BRANCH  11  12
HETATM   12  C   UNL     1     -13.229  14.436  70.972  1.00  0.00    -0.395 C  
BRANCH  12  13
HETATM   13  C   UNL     1     -13.182  13.975  72.423  1.00  0.00    -0.488 C  
HETATM   14  O   UNL     1     -14.098  12.898  72.606  1.00  0.00    -0.709 OA 
HETATM   15  H   UNL     1     -14.068  12.610  73.511  1.00  0.00     0.000 HD 
ENDBRANCH  12  13
ENDBRANCH  11  12
ENDBRANCH   9  11
ENDBRANCH   4   7
ENDBRANCH   2   4
BRANCH   2  16
HETATM   16  C   UNL     1     -11.538   8.289  72.603  1.00  0.00    -0.349 C  
HETATM   17  O   UNL     1     -10.132   8.403  72.796  1.00  0.00    -0.286 OA 
HETATM   18  H   UNL     1      -9.861   8.058  73.639  1.00  0.00     0.000 HD 
ENDBRANCH   2  16
TORSDOF 6
ENDMDL
MODEL      106
REMARK 921   NORMALIZED FREE ENERGY PREDICTED BY IDOCK:   -3.50 KCAL/MOL
REMARK 922        TOTAL FREE ENERGY PREDICTED BY IDOCK:   -5.26 KCAL/MOL
REMARK 923 INTER-LIGAND FREE ENERGY PREDICTED BY IDOCK:   -4.76 KCAL/MOL
REMARK 924 INTRA-LIGAND FREE ENERGY PREDICTED BY IDOCK:   -0.50 KCAL/MOL
REMARK 927      BINDING AFFINITY PREDICTED BY RF-SCORE:    0.00 PKD
ROOT
HETATM    1  C   UNL     1      -8.804   7.950  68.397  1.00  0.00    -0.130 C  
HETATM    2  C   UNL     1      -9.522   7.583  67.075  1.00  0.00    -0.206 C  
HETATM    3  C   UNL     1      -9.723   8.900  66.296  1.00  0.00    -0.345 C  
ENDROOT
BRANCH   2   4
HETATM    4  C   UNL     1     -10.886   6.896  67.392  1.00  0.00    -0.326 C  
HETATM    5  O   UNL     1     -11.216   5.875  66.441  1.00  0.00    -0.749 OA 
HETATM    6  H   UNL     1     -12.046   5.457  66.634  1.00  0.00     0.000 HD 
BRANCH   4   7
HETATM    7  C   UNL     1     -10.976   6.280  68.809  1.00  0.00    -0.352 C  
HETATM    8  O   UNL     1     -10.437   5.228  69.145  1.00  0.00    -0.219 OA 
HETATM    9  N   UNL     1     -11.687   7.046  69.712  1.00  0.00    -0.580 N  
HETATM   10  H   UNL     1     -12.092   7.934  69.414  1.00  0.00     0.000 HD 
BRANCH   9  11
HETATM   11  C   UNL     1     -11.863   6.600  71.078  1.00  0.00    -0.372 C  
BRANCH  11  12
HETATM   12  C   UNL     1     -12.355   7.695  72.019  1.00  0.00    -0.312 C  
BRANCH  12  13
HETATM   13  C   UNL     1     -11.687   9.047  71.811  1.00  0.00    -0.369 C  
HETATM   14  O   UNL     1     -10.272   8.873  71.767  1.00  0.00    -0.303 OA 
HETATM   15  H   UNL     1      -9.855   9.716  71.636  1.00  0.00     0.000 HD 
ENDBRANCH  12  13
ENDBRANCH  11  12
ENDBRANCH   9  11
ENDBRANCH   4   7
ENDBRANCH   2   4
BRANCH   2  16
HETATM   16  C   UNL     1      -8.606   6.600  66.299  1.00  0.00    -0.138 C  
HETATM   17  O   UNL     1      -8.732   6.757  64.890  1.00  0.00    -0.354 OA 
HETATM   18  H   UNL     1      -8.171   6.155  64.415  1.00  0.00     0.000 HD 
ENDBRANCH   2  16
TORSDOF 6
ENDMDL
MODEL      107
REMARK 921   NORMALIZED FREE ENERGY PREDICTED BY IDOCK:   -3.49 KCAL/MOL
REMARK 922        TOTAL FREE ENERGY PREDICTED BY IDOCK:   -5.24 KCAL/MOL
REMARK 923 INTER-LIGAND FREE ENERGY PREDICTED BY IDOCK:   -4.96 KCAL/MOL
REMARK 924 INTRA-LIGAND FREE ENERGY PREDICTED BY IDOCK:   -0.29 KCAL/MOL
REMARK 927      BINDING AFFINITY PREDICTED BY RF-SCORE:    0.00 PKD
ROOT
HETATM    1  C   UNL     1     -11.377  10.979  67.789  1.00  0.00    -0.365 C  
HETATM    2  C   UNL     1     -11.174  12.341  67.079  1.00  0.00    -0.367 C  
HETATM    3  C   UNL     1     -11.987  12.287  65.769  1.00  0.00    -0.362 C  
ENDROOT
BRANCH   2   4
HETATM    4  C   UNL     1      -9.656  12.565  66.797  1.00  0.00    -0.231 C  
HETATM    5  O   UNL     1      -9.273  12.117  65.490  1.00  0.00    -0.431 OA 
HETATM    6  H   UNL     1      -8.349  12.254  65.319  1.00  0.00     0.000 HD 
BRANCH   4   7
HETATM    7  C   UNL     1      -9.187  14.031  66.960  1.00  0.00    -0.254 C  
HETATM    8  O   UNL     1      -8.505  14.443  67.896  1.00  0.00    -0.147 OA 
HETATM    9  N   UNL     1      -9.561  14.860  65.921  1.00  0.00    -0.404 N  
HETATM   10  H   UNL     1     -10.095  14.482  65.139  1.00  0.00     0.000 HD 
BRANCH   9  11
HETATM   11  C   UNL     1      -9.199  16.263  65.932  1.00  0.00    -0.233 C  
BRANCH  11  12
HETATM   12  C   UNL     1     -10.388  17.197  66.136  1.00  0.00    -0.327 C  
BRANCH  12  13
HETATM   13  C   UNL     1     -10.007  18.636  66.455  1.00  0.00    -0.388 C  
HETATM   14  O   UNL     1     -10.785  19.520  65.650  1.00  0.00    -0.491 OA 
HETATM   15  H   UNL     1     -10.547  20.417  65.850  1.00  0.00     0.000 HD 
ENDBRANCH  12  13
ENDBRANCH  11  12
ENDBRANCH   9  11
ENDBRANCH   4   7
ENDBRANCH   2   4
BRANCH   2  16
HETATM   16  C   UNL     1     -11.702  13.449  68.029  1.00  0.00    -0.356 C  
HETATM   17  O   UNL     1     -12.420  14.455  67.323  1.00  0.00    -0.601 OA 
HETATM   18  H   UNL     1     -12.744  15.133  67.905  1.00  0.00     0.000 HD 
ENDBRANCH   2  16
TORSDOF 6
ENDMDL
MODEL      108
REMARK 921   NORMALIZED FREE ENERGY PREDICTED BY IDOCK:   -3.49 KCAL/MOL
REMARK 922        TOTAL FREE ENERGY PREDICTED BY IDOCK:   -5.24 KCAL/MOL
REMARK 923 INTER-LIGAND FREE ENERGY PREDICTED BY IDOCK:   -4.88 KCAL/MOL
REMARK 924 INTRA-LIGAND FREE ENERGY PREDICTED BY IDOCK:   -0.36 KCAL/MOL
REMARK 927      BINDING AFFINITY PREDICTED BY RF-SCORE:    0.00 PKD
ROOT
HETATM    1  C   UNL     1     -10.183  13.468  65.013  1.00  0.00    -0.345 C  
HETATM    2  C   UNL     1     -11.215  12.317  65.107  1.00  0.00    -0.369 C  
HETATM    3  C   UNL     1     -11.297  11.911  66.593  1.00  0.00    -0.400 C  
ENDROOT
BRANCH   2   4
HETATM    4  C   UNL     1     -10.753  11.123  64.216  1.00  0.00    -0.333 C  
HETATM    5  O   UNL     1     -10.356  11.543  62.903  1.00  0.00    -0.628 OA 
HETATM    6  H   UNL     1     -10.075  10.817  62.361  1.00  0.00     0.000 HD 
BRANCH   4   7
HETATM    7  C   UNL     1      -9.600  10.285  64.820  1.00  0.00    -0.307 C  
HETATM    8  O   UNL     1      -8.441  10.679  64.935  1.00  0.00    -0.172 OA 
HETATM    9  N   UNL     1      -9.988   9.042  65.280  1.00  0.00    -0.229 N  
HETATM   10  H   UNL     1     -10.964   8.757  65.205  1.00  0.00     0.000 HD 
BRANCH   9  11
HETATM   11  C   UNL     1      -9.020   8.140  65.869  1.00  0.00    -0.151 C  
BRANCH  11  12
HETATM   12  C   UNL     1      -9.527   7.438  67.125  1.00  0.00    -0.187 C  
BRANCH  12  13
HETATM   13  C   UNL     1     -11.023   7.157  67.126  1.00  0.00    -0.272 C  
HETATM   14  O   UNL     1     -11.309   6.123  68.066  1.00  0.00    -0.440 OA 
HETATM   15  H   UNL     1     -12.242   5.948  68.067  1.00  0.00     0.000 HD 
ENDBRANCH  12  13
ENDBRANCH  11  12
ENDBRANCH   9  11
ENDBRANCH   4   7
ENDBRANCH   2   4
BRANCH   2  16
HETATM   16  C   UNL     1     -12.574  12.861  64.592  1.00  0.00    -0.391 C  
HETATM   17  O   UNL     1     -13.210  11.948  63.705  1.00  0.00    -0.655 OA 
HETATM   18  H   UNL     1     -14.043  12.281  63.390  1.00  0.00     0.000 HD 
ENDBRANCH   2  16
TORSDOF 6
ENDMDL
MODEL      109
REMARK 921   NORMALIZED FREE ENERGY PREDICTED BY IDOCK:   -3.49 KCAL/MOL
REMARK 922        TOTAL FREE ENERGY PREDICTED BY IDOCK:   -5.24 KCAL/MOL
REMARK 923 INTER-LIGAND FREE ENERGY PREDICTED BY IDOCK:   -4.99 KCAL/MOL
REMARK 924 INTRA-LIGAND FREE ENERGY PREDICTED BY IDOCK:   -0.25 KCAL/MOL
REMARK 927      BINDING AFFINITY PREDICTED BY RF-SCORE:    0.00 PKD
ROOT
HETATM    1  C   UNL     1     -12.601  12.127  63.906  1.00  0.00    -0.545 C  
HETATM    2  C   UNL     1     -11.185  12.281  64.516  1.00  0.00    -0.378 C  
HETATM    3  C   UNL     1     -10.184  11.776  63.457  1.00  0.00    -0.483 C  
ENDROOT
BRANCH   2   4
HETATM    4  C   UNL     1     -11.088  11.450  65.833  1.00  0.00    -0.162 C  
HETATM    5  O   UNL     1     -10.115  10.401  65.744  1.00  0.00    -0.251 OA 
HETATM    6  H   UNL     1     -10.055   9.895  66.546  1.00  0.00     0.000 HD 
BRANCH   4   7
HETATM    7  C   UNL     1     -10.775  12.290  67.095  1.00  0.00    -0.233 C  
HETATM    8  O   UNL     1      -9.648  12.653  67.427  1.00  0.00    -0.187 OA 
HETATM    9  N   UNL     1     -11.893  12.656  67.819  1.00  0.00    -0.348 N  
HETATM   10  H   UNL     1     -12.818  12.372  67.499  1.00  0.00     0.000 HD 
BRANCH   9  11
HETATM   11  C   UNL     1     -11.761  13.440  69.030  1.00  0.00    -0.323 C  
BRANCH  11  12
HETATM   12  C   UNL     1     -12.224  12.706  70.284  1.00  0.00    -0.347 C  
BRANCH  12  13
HETATM   13  C   UNL     1     -11.824  11.238  70.335  1.00  0.00    -0.350 C  
HETATM   14  O   UNL     1     -12.871  10.444  69.780  1.00  0.00    -0.579 OA 
HETATM   15  H   UNL     1     -12.621   9.529  69.811  1.00  0.00     0.000 HD 
ENDBRANCH  12  13
ENDBRANCH  11  12
ENDBRANCH   9  11
ENDBRANCH   4   7
ENDBRANCH   2   4
BRANCH   2  16
HETATM   16  C   UNL     1     -10.969  13.786  64.827  1.00  0.00    -0.392 C  
HETATM   17  O   UNL     1     -12.198  14.504  64.857  1.00  0.00    -0.412 OA 
HETATM   18  H   UNL     1     -12.066  15.426  65.047  1.00  0.00     0.000 HD 
ENDBRANCH   2  16
TORSDOF 6
ENDMDL
MODEL      110
REMARK 921   NORMALIZED FREE ENERGY PREDICTED BY IDOCK:   -3.49 KCAL/MOL
REMARK 922        TOTAL FREE ENERGY PREDICTED BY IDOCK:   -5.23 KCAL/MOL
REMARK 923 INTER-LIGAND FREE ENERGY PREDICTED BY IDOCK:   -4.51 KCAL/MOL
REMARK 924 INTRA-LIGAND FREE ENERGY PREDICTED BY IDOCK:   -0.72 KCAL/MOL
REMARK 927      BINDING AFFINITY PREDICTED BY RF-SCORE:    0.00 PKD
ROOT
HETATM    1  C   UNL     1     -10.584   8.874  67.623  1.00  0.00    -0.292 C  
HETATM    2  C   UNL     1      -9.846  10.236  67.633  1.00  0.00    -0.199 C  
HETATM    3  C   UNL     1      -8.441   9.988  67.045  1.00  0.00    -0.125 C  
ENDROOT
BRANCH   2   4
HETATM    4  C   UNL     1      -9.764  10.779  69.093  1.00  0.00    -0.163 C  
HETATM    5  O   UNL     1      -9.920  12.203  69.155  1.00  0.00    -0.411 OA 
HETATM    6  H   UNL     1      -9.870  12.533  70.043  1.00  0.00     0.000 HD 
BRANCH   4   7
HETATM    7  C   UNL     1     -10.783  10.141  70.068  1.00  0.00    -0.305 C  
HETATM    8  O   UNL     1     -12.001  10.299  70.002  1.00  0.00    -0.250 OA 
HETATM    9  N   UNL     1     -10.213   9.318  71.019  1.00  0.00    -0.297 N  
HETATM   10  H   UNL     1      -9.203   9.177  71.027  1.00  0.00     0.000 HD 
BRANCH   9  11
HETATM   11  C   UNL     1     -11.038   8.653  72.006  1.00  0.00    -0.367 C  
BRANCH  11  12
HETATM   12  C   UNL     1     -11.075   7.136  71.847  1.00  0.00    -0.268 C  
BRANCH  12  13
HETATM   13  C   UNL     1     -11.910   6.650  70.671  1.00  0.00    -0.383 C  
HETATM   14  O   UNL     1     -13.140   7.371  70.634  1.00  0.00    -0.569 OA 
HETATM   15  H   UNL     1     -13.660   7.068  69.900  1.00  0.00     0.000 HD 
ENDBRANCH  12  13
ENDBRANCH  11  12
ENDBRANCH   9  11
ENDBRANCH   4   7
ENDBRANCH   2   4
BRANCH   2  16
HETATM   16  C   UNL     1     -10.663  11.219  66.751  1.00  0.00    -0.275 C  
HETATM   17  O   UNL     1     -11.952  11.476  67.297  1.00  0.00    -0.605 OA 
HETATM   18  H   UNL     1     -12.452  12.077  66.758  1.00  0.00     0.000 HD 
ENDBRANCH   2  16
TORSDOF 6
ENDMDL
MODEL      111
REMARK 921   NORMALIZED FREE ENERGY PREDICTED BY IDOCK:   -3.48 KCAL/MOL
REMARK 922        TOTAL FREE ENERGY PREDICTED BY IDOCK:   -5.22 KCAL/MOL
REMARK 923 INTER-LIGAND FREE ENERGY PREDICTED BY IDOCK:   -5.12 KCAL/MOL
REMARK 924 INTRA-LIGAND FREE ENERGY PREDICTED BY IDOCK:   -0.10 KCAL/MOL
REMARK 927      BINDING AFFINITY PREDICTED BY RF-SCORE:    0.00 PKD
ROOT
HETATM    1  C   UNL     1      -9.673  14.029  66.378  1.00  0.00    -0.309 C  
HETATM    2  C   UNL     1     -11.067  14.695  66.261  1.00  0.00    -0.336 C  
HETATM    3  C   UNL     1     -11.005  15.652  65.053  1.00  0.00    -0.445 C  
ENDROOT
BRANCH   2   4
HETATM    4  C   UNL     1     -11.394  15.463  67.579  1.00  0.00    -0.269 C  
HETATM    5  O   UNL     1     -12.224  14.699  68.463  1.00  0.00    -0.573 OA 
HETATM    6  H   UNL     1     -12.424  15.166  69.265  1.00  0.00     0.000 HD 
BRANCH   4   7
HETATM    7  C   UNL     1     -10.149  15.929  68.371  1.00  0.00    -0.223 C  
HETATM    8  O   UNL     1      -9.655  15.315  69.314  1.00  0.00    -0.227 OA 
HETATM    9  N   UNL     1      -9.585  17.098  67.898  1.00  0.00    -0.260 N  
HETATM   10  H   UNL     1      -9.995  17.566  67.090  1.00  0.00     0.000 HD 
BRANCH   9  11
HETATM   11  C   UNL     1      -8.416  17.664  68.538  1.00  0.00    -0.289 C  
BRANCH  11  12
HETATM   12  C   UNL     1      -8.485  19.179  68.704  1.00  0.00    -0.397 C  
BRANCH  12  13
HETATM   13  C   UNL     1      -7.128  19.866  68.753  1.00  0.00    -0.297 C  
HETATM   14  O   UNL     1      -6.438  19.466  69.935  1.00  0.00    -0.286 OA 
HETATM   15  H   UNL     1      -5.591  19.895  69.965  1.00  0.00     0.000 HD 
ENDBRANCH  12  13
ENDBRANCH  11  12
ENDBRANCH   9  11
ENDBRANCH   4   7
ENDBRANCH   2   4
BRANCH   2  16
HETATM   16  C   UNL     1     -12.108  13.566  66.037  1.00  0.00    -0.445 C  
HETATM   17  O   UNL     1     -13.284  14.049  65.396  1.00  0.00    -0.761 OA 
HETATM   18  H   UNL     1     -13.922  13.358  65.259  1.00  0.00     0.000 HD 
ENDBRANCH   2  16
TORSDOF 6
ENDMDL
MODEL      112
REMARK 921   NORMALIZED FREE ENERGY PREDICTED BY IDOCK:   -3.47 KCAL/MOL
REMARK 922        TOTAL FREE ENERGY PREDICTED BY IDOCK:   -5.21 KCAL/MOL
REMARK 923 INTER-LIGAND FREE ENERGY PREDICTED BY IDOCK:   -4.82 KCAL/MOL
REMARK 924 INTRA-LIGAND FREE ENERGY PREDICTED BY IDOCK:   -0.39 KCAL/MOL
REMARK 927      BINDING AFFINITY PREDICTED BY RF-SCORE:    0.00 PKD
ROOT
HETATM    1  C   UNL     1      -9.229   6.398  71.550  1.00  0.00    -0.145 C  
HETATM    2  C   UNL     1     -10.635   7.047  71.529  1.00  0.00    -0.232 C  
HETATM    3  C   UNL     1     -11.112   7.033  70.062  1.00  0.00    -0.316 C  
ENDROOT
BRANCH   2   4
HETATM    4  C   UNL     1     -10.551   8.502  72.086  1.00  0.00    -0.349 C  
HETATM    5  O   UNL     1      -9.263   9.095  71.869  1.00  0.00    -0.354 OA 
HETATM    6  H   UNL     1      -9.212   9.980  72.208  1.00  0.00     0.000 HD 
BRANCH   4   7
HETATM    7  C   UNL     1     -11.624   9.464  71.520  1.00  0.00    -0.397 C  
HETATM    8  O   UNL     1     -12.826   9.384  71.763  1.00  0.00    -0.342 OA 
HETATM    9  N   UNL     1     -11.113  10.481  70.738  1.00  0.00    -0.371 N  
HETATM   10  H   UNL     1     -10.106  10.544  70.585  1.00  0.00     0.000 HD 
BRANCH   9  11
HETATM   11  C   UNL     1     -11.993  11.459  70.134  1.00  0.00    -0.377 C  
BRANCH  11  12
HETATM   12  C   UNL     1     -11.833  11.572  68.622  1.00  0.00    -0.382 C  
BRANCH  12  13
HETATM   13  C   UNL     1     -11.858  12.999  68.093  1.00  0.00    -0.340 C  
HETATM   14  O   UNL     1     -12.146  12.981  66.696  1.00  0.00    -0.388 OA 
HETATM   15  H   UNL     1     -12.162  13.871  66.367  1.00  0.00     0.000 HD 
ENDBRANCH  12  13
ENDBRANCH  11  12
ENDBRANCH   9  11
ENDBRANCH   4   7
ENDBRANCH   2   4
BRANCH   2  16
HETATM   16  C   UNL     1     -11.561   6.191  72.434  1.00  0.00    -0.292 C  
HETATM   17  O   UNL     1     -12.937   6.471  72.201  1.00  0.00    -0.539 OA 
HETATM   18  H   UNL     1     -13.504   5.947  72.755  1.00  0.00     0.000 HD 
ENDBRANCH   2  16
TORSDOF 6
ENDMDL
MODEL      113
REMARK 921   NORMALIZED FREE ENERGY PREDICTED BY IDOCK:   -3.46 KCAL/MOL
REMARK 922        TOTAL FREE ENERGY PREDICTED BY IDOCK:   -5.20 KCAL/MOL
REMARK 923 INTER-LIGAND FREE ENERGY PREDICTED BY IDOCK:   -4.53 KCAL/MOL
REMARK 924 INTRA-LIGAND FREE ENERGY PREDICTED BY IDOCK:   -0.67 KCAL/MOL
REMARK 927      BINDING AFFINITY PREDICTED BY RF-SCORE:    0.00 PKD
ROOT
HETATM    1  C   UNL     1     -11.831  14.328  67.018  1.00  0.00    -0.455 C  
HETATM    2  C   UNL     1     -10.811  13.500  66.197  1.00  0.00    -0.284 C  
HETATM    3  C   UNL     1     -10.742  14.139  64.794  1.00  0.00    -0.436 C  
ENDROOT
BRANCH   2   4
HETATM    4  C   UNL     1     -11.281  12.014  66.122  1.00  0.00    -0.343 C  
HETATM    5  O   UNL     1     -10.489  11.237  65.215  1.00  0.00    -0.270 OA 
HETATM    6  H   UNL     1     -10.775  10.333  65.169  1.00  0.00     0.000 HD 
BRANCH   4   7
HETATM    7  C   UNL     1     -11.304  11.283  67.487  1.00  0.00    -0.288 C  
HETATM    8  O   UNL     1     -12.272  11.255  68.244  1.00  0.00    -0.611 OA 
HETATM    9  N   UNL     1     -10.138  10.603  67.781  1.00  0.00    -0.170 N  
HETATM   10  H   UNL     1      -9.365  10.614  67.116  1.00  0.00     0.000 HD 
BRANCH   9  11
HETATM   11  C   UNL     1     -10.005   9.874  69.025  1.00  0.00    -0.187 C  
BRANCH  11  12
HETATM   12  C   UNL     1      -9.297   8.532  68.872  1.00  0.00    -0.146 C  
BRANCH  12  13
HETATM   13  C   UNL     1      -9.722   7.735  67.647  1.00  0.00    -0.155 C  
HETATM   14  O   UNL     1     -11.143   7.762  67.536  1.00  0.00    -0.519 OA 
HETATM   15  H   UNL     1     -11.408   7.265  66.771  1.00  0.00     0.000 HD 
ENDBRANCH  12  13
ENDBRANCH  11  12
ENDBRANCH   9  11
ENDBRANCH   4   7
ENDBRANCH   2   4
BRANCH   2  16
HETATM   16  C   UNL     1      -9.444  13.583  66.925  1.00  0.00    -0.258 C  
HETATM   17  O   UNL     1      -8.482  12.706  66.350  1.00  0.00    -0.413 OA 
HETATM   18  H   UNL     1      -7.644  12.757  66.796  1.00  0.00     0.000 HD 
ENDBRANCH   2  16
TORSDOF 6
ENDMDL
MODEL      114
REMARK 921   NORMALIZED FREE ENERGY PREDICTED BY IDOCK:   -3.45 KCAL/MOL
REMARK 922        TOTAL FREE ENERGY PREDICTED BY IDOCK:   -5.19 KCAL/MOL
REMARK 923 INTER-LIGAND FREE ENERGY PREDICTED BY IDOCK:   -4.48 KCAL/MOL
REMARK 924 INTRA-LIGAND FREE ENERGY PREDICTED BY IDOCK:   -0.71 KCAL/MOL
REMARK 927      BINDING AFFINITY PREDICTED BY RF-SCORE:    0.00 PKD
ROOT
HETATM    1  C   UNL     1      -9.278  10.717  66.533  1.00  0.00    -0.187 C  
HETATM    2  C   UNL     1     -10.098   9.847  67.519  1.00  0.00    -0.244 C  
HETATM    3  C   UNL     1     -10.279   8.467  66.852  1.00  0.00    -0.375 C  
ENDROOT
BRANCH   2   4
HETATM    4  C   UNL     1     -11.472  10.527  67.801  1.00  0.00    -0.061 C  
HETATM    5  O   UNL     1     -11.817  10.503  69.193  1.00  0.00    -0.465 OA 
HETATM    6  H   UNL     1     -12.654  10.917  69.365  1.00  0.00     0.000 HD 
BRANCH   4   7
HETATM    7  C   UNL     1     -11.574  11.991  67.307  1.00  0.00    -0.313 C  
HETATM    8  O   UNL     1     -12.070  12.329  66.234  1.00  0.00    -0.626 OA 
HETATM    9  N   UNL     1     -11.095  12.923  68.206  1.00  0.00    -0.249 N  
HETATM   10  H   UNL     1     -10.722  12.615  69.104  1.00  0.00     0.000 HD 
BRANCH   9  11
HETATM   11  C   UNL     1     -11.117  14.335  67.884  1.00  0.00    -0.278 C  
BRANCH  11  12
HETATM   12  C   UNL     1     -11.767  15.195  68.963  1.00  0.00    -0.358 C  
BRANCH  12  13
HETATM   13  C   UNL     1     -10.813  15.659  70.054  1.00  0.00    -0.330 C  
HETATM   14  O   UNL     1      -9.575  14.963  69.926  1.00  0.00    -0.442 OA 
HETATM   15  H   UNL     1      -8.979  15.253  70.607  1.00  0.00     0.000 HD 
ENDBRANCH  12  13
ENDBRANCH  11  12
ENDBRANCH   9  11
ENDBRANCH   4   7
ENDBRANCH   2   4
BRANCH   2  16
HETATM   16  C   UNL     1      -9.284   9.737  68.836  1.00  0.00    -0.155 C  
HETATM   17  O   UNL     1      -8.923  11.016  69.345  1.00  0.00    -0.395 OA 
HETATM   18  H   UNL     1      -8.425  10.949  70.151  1.00  0.00     0.000 HD 
ENDBRANCH   2  16
TORSDOF 6
ENDMDL
MODEL      115
REMARK 921   NORMALIZED FREE ENERGY PREDICTED BY IDOCK:   -3.45 KCAL/MOL
REMARK 922        TOTAL FREE ENERGY PREDICTED BY IDOCK:   -5.19 KCAL/MOL
REMARK 923 INTER-LIGAND FREE ENERGY PREDICTED BY IDOCK:   -5.14 KCAL/MOL
REMARK 924 INTRA-LIGAND FREE ENERGY PREDICTED BY IDOCK:   -0.05 KCAL/MOL
REMARK 927      BINDING AFFINITY PREDICTED BY RF-SCORE:    0.00 PKD
ROOT
HETATM    1  C   UNL     1      -9.232   9.669  70.081  1.00  0.00    -0.287 C  
HETATM    2  C   UNL     1     -10.399  10.374  69.346  1.00  0.00    -0.259 C  
HETATM    3  C   UNL     1     -10.910   9.390  68.273  1.00  0.00    -0.163 C  
ENDROOT
BRANCH   2   4
HETATM    4  C   UNL     1      -9.890  11.701  68.704  1.00  0.00    -0.165 C  
HETATM    5  O   UNL     1      -8.465  11.833  68.782  1.00  0.00    -0.309 OA 
HETATM    6  H   UNL     1      -8.154  12.641  68.392  1.00  0.00     0.000 HD 
BRANCH   4   7
HETATM    7  C   UNL     1     -10.310  11.897  67.226  1.00  0.00    -0.205 C  
HETATM    8  O   UNL     1      -9.611  11.598  66.260  1.00  0.00    -0.209 OA 
HETATM    9  N   UNL     1     -11.585  12.402  67.066  1.00  0.00    -0.357 N  
HETATM   10  H   UNL     1     -12.156  12.605  67.886  1.00  0.00     0.000 HD 
BRANCH   9  11
HETATM   11  C   UNL     1     -12.119  12.645  65.742  1.00  0.00    -0.423 C  
BRANCH  11  12
HETATM   12  C   UNL     1     -12.289  14.125  65.415  1.00  0.00    -0.475 C  
BRANCH  12  13
HETATM   13  C   UNL     1     -11.915  14.498  63.988  1.00  0.00    -0.209 C  
HETATM   14  O   UNL     1     -12.042  15.909  63.820  1.00  0.00    -1.239 OA 
HETATM   15  H   UNL     1     -11.809  16.142  62.929  1.00  0.00     0.000 HD 
ENDBRANCH  12  13
ENDBRANCH  11  12
ENDBRANCH   9  11
ENDBRANCH   4   7
ENDBRANCH   2   4
BRANCH   2  16
HETATM   16  C   UNL     1     -11.497  10.685  70.398  1.00  0.00    -0.334 C  
HETATM   17  O   UNL     1     -12.661   9.890  70.201  1.00  0.00    -0.505 OA 
HETATM   18  H   UNL     1     -13.333  10.081  70.845  1.00  0.00     0.000 HD 
ENDBRANCH   2  16
TORSDOF 6
ENDMDL
MODEL      116
REMARK 921   NORMALIZED FREE ENERGY PREDICTED BY IDOCK:   -3.45 KCAL/MOL
REMARK 922        TOTAL FREE ENERGY PREDICTED BY IDOCK:   -5.19 KCAL/MOL
REMARK 923 INTER-LIGAND FREE ENERGY PREDICTED BY IDOCK:   -4.80 KCAL/MOL
REMARK 924 INTRA-LIGAND FREE ENERGY PREDICTED BY IDOCK:   -0.39 KCAL/MOL
REMARK 927      BINDING AFFINITY PREDICTED BY RF-SCORE:    0.00 PKD
ROOT
HETATM    1  C   UNL     1     -11.111   9.148  70.020  1.00  0.00    -0.208 C  
HETATM    2  C   UNL     1     -11.607   8.602  71.382  1.00  0.00    -0.354 C  
HETATM    3  C   UNL     1     -10.383   8.569  72.322  1.00  0.00    -0.402 C  
ENDROOT
BRANCH   2   4
HETATM    4  C   UNL     1     -12.213   7.178  71.188  1.00  0.00    -0.365 C  
HETATM    5  O   UNL     1     -13.517   7.217  70.595  1.00  0.00    -0.497 OA 
HETATM    6  H   UNL     1     -13.887   6.350  70.477  1.00  0.00     0.000 HD 
BRANCH   4   7
HETATM    7  C   UNL     1     -11.332   6.218  70.350  1.00  0.00    -0.372 C  
HETATM    8  O   UNL     1     -11.342   6.161  69.123  1.00  0.00    -0.399 OA 
HETATM    9  N   UNL     1     -10.473   5.442  71.102  1.00  0.00    -0.233 N  
HETATM   10  H   UNL     1     -10.461   5.538  72.117  1.00  0.00     0.000 HD 
BRANCH   9  11
HETATM   11  C   UNL     1      -9.588   4.491  70.461  1.00  0.00    -0.204 C  
BRANCH  11  12
HETATM   12  C   UNL     1      -9.641   3.097  71.078  1.00  0.00    -0.228 C  
BRANCH  12  13
HETATM   13  C   UNL     1      -9.623   3.085  72.600  1.00  0.00    -0.116 C  
HETATM   14  O   UNL     1     -10.959   3.171  73.090  1.00  0.00    -0.164 OA 
HETATM   15  H   UNL     1     -10.948   3.162  74.039  1.00  0.00     0.000 HD 
ENDBRANCH  12  13
ENDBRANCH  11  12
ENDBRANCH   9  11
ENDBRANCH   4   7
ENDBRANCH   2   4
BRANCH   2  16
HETATM   16  C   UNL     1     -12.699   9.571  71.908  1.00  0.00    -0.411 C  
HETATM   17  O   UNL     1     -13.296   9.096  73.109  1.00  0.00    -0.844 OA 
HETATM   18  H   UNL     1     -13.965   9.690  73.431  1.00  0.00     0.000 HD 
ENDBRANCH   2  16
TORSDOF 6
ENDMDL
MODEL      117
REMARK 921   NORMALIZED FREE ENERGY PREDICTED BY IDOCK:   -3.45 KCAL/MOL
REMARK 922        TOTAL FREE ENERGY PREDICTED BY IDOCK:   -5.18 KCAL/MOL
REMARK 923 INTER-LIGAND FREE ENERGY PREDICTED BY IDOCK:   -4.45 KCAL/MOL
REMARK 924 INTRA-LIGAND FREE ENERGY PREDICTED BY IDOCK:   -0.73 KCAL/MOL
REMARK 927      BINDING AFFINITY PREDICTED BY RF-SCORE:    0.00 PKD
ROOT
HETATM    1  C   UNL     1     -11.728  12.576  66.753  1.00  0.00    -0.453 C  
HETATM    2  C   UNL     1     -10.609  11.801  67.492  1.00  0.00    -0.247 C  
HETATM    3  C   UNL     1     -10.129  10.689  66.535  1.00  0.00    -0.275 C  
ENDROOT
BRANCH   2   4
HETATM    4  C   UNL     1     -11.172  11.204  68.819  1.00  0.00    -0.253 C  
HETATM    5  O   UNL     1     -12.524  10.747  68.681  1.00  0.00    -0.793 OA 
HETATM    6  H   UNL     1     -12.866  10.385  69.489  1.00  0.00     0.000 HD 
BRANCH   4   7
HETATM    7  C   UNL     1     -10.330  10.045  69.404  1.00  0.00    -0.227 C  
HETATM    8  O   UNL     1      -9.164  10.153  69.779  1.00  0.00    -0.208 OA 
HETATM    9  N   UNL     1     -11.018   8.854  69.524  1.00  0.00    -0.405 N  
HETATM   10  H   UNL     1     -11.996   8.804  69.239  1.00  0.00     0.000 HD 
BRANCH   9  11
HETATM   11  C   UNL     1     -10.364   7.675  70.052  1.00  0.00    -0.223 C  
BRANCH  11  12
HETATM   12  C   UNL     1      -9.815   6.748  68.972  1.00  0.00    -0.152 C  
BRANCH  12  13
HETATM   13  C   UNL     1     -10.874   6.180  68.037  1.00  0.00    -0.313 C  
HETATM   14  O   UNL     1     -11.290   7.193  67.124  1.00  0.00    -0.565 OA 
HETATM   15  H   UNL     1     -11.950   6.838  66.540  1.00  0.00     0.000 HD 
ENDBRANCH  12  13
ENDBRANCH  11  12
ENDBRANCH   9  11
ENDBRANCH   4   7
ENDBRANCH   2   4
BRANCH   2  16
HETATM   16  C   UNL     1      -9.471  12.807  67.808  1.00  0.00    -0.205 C  
HETATM   17  O   UNL     1      -8.187  12.197  67.732  1.00  0.00    -0.134 OA 
HETATM   18  H   UNL     1      -7.489  12.812  67.925  1.00  0.00     0.000 HD 
ENDBRANCH   2  16
TORSDOF 6
ENDMDL
MODEL      118
REMARK 921   NORMALIZED FREE ENERGY PREDICTED BY IDOCK:   -3.45 KCAL/MOL
REMARK 922        TOTAL FREE ENERGY PREDICTED BY IDOCK:   -5.18 KCAL/MOL
REMARK 923 INTER-LIGAND FREE ENERGY PREDICTED BY IDOCK:   -5.16 KCAL/MOL
REMARK 924 INTRA-LIGAND FREE ENERGY PREDICTED BY IDOCK:   -0.01 KCAL/MOL
REMARK 927      BINDING AFFINITY PREDICTED BY RF-SCORE:    0.00 PKD
ROOT
HETATM    1  C   UNL     1     -10.115  10.776  64.690  1.00  0.00    -0.410 C  
HETATM    2  C   UNL     1      -9.912  10.257  66.135  1.00  0.00    -0.300 C  
HETATM    3  C   UNL     1     -10.110   8.727  66.092  1.00  0.00    -0.154 C  
ENDROOT
BRANCH   2   4
HETATM    4  C   UNL     1     -10.943  10.937  67.087  1.00  0.00    -0.272 C  
HETATM    5  O   UNL     1     -11.202  10.154  68.259  1.00  0.00    -0.423 OA 
HETATM    6  H   UNL     1     -11.830  10.568  68.839  1.00  0.00     0.000 HD 
BRANCH   4   7
HETATM    7  C   UNL     1     -10.548  12.364  67.540  1.00  0.00    -0.219 C  
HETATM    8  O   UNL     1      -9.947  12.621  68.581  1.00  0.00    -0.194 OA 
HETATM    9  N   UNL     1     -10.888  13.355  66.640  1.00  0.00    -0.281 N  
HETATM   10  H   UNL     1     -11.353  13.107  65.767  1.00  0.00     0.000 HD 
BRANCH   9  11
HETATM   11  C   UNL     1     -10.588  14.743  66.924  1.00  0.00    -0.294 C  
BRANCH  11  12
HETATM   12  C   UNL     1     -10.239  15.558  65.684  1.00  0.00    -0.403 C  
BRANCH  12  13
HETATM   13  C   UNL     1     -11.357  15.642  64.654  1.00  0.00    -0.349 C  
HETATM   14  O   UNL     1     -11.328  16.923  64.029  1.00  0.00    -1.375 OA 
HETATM   15  H   UNL     1     -12.026  16.976  63.386  1.00  0.00     0.000 HD 
ENDBRANCH  12  13
ENDBRANCH  11  12
ENDBRANCH   9  11
ENDBRANCH   4   7
ENDBRANCH   2   4
BRANCH   2  16
HETATM   16  C   UNL     1      -8.469  10.630  66.569  1.00  0.00    -0.144 C  
HETATM   17  O   UNL     1      -7.619  10.853  65.450  1.00  0.00    -0.347 OA 
HETATM   18  H   UNL     1      -6.736  11.081  65.716  1.00  0.00     0.000 HD 
ENDBRANCH   2  16
TORSDOF 6
ENDMDL
MODEL      119
REMARK 921   NORMALIZED FREE ENERGY PREDICTED BY IDOCK:   -3.44 KCAL/MOL
REMARK 922        TOTAL FREE ENERGY PREDICTED BY IDOCK:   -5.17 KCAL/MOL
REMARK 923 INTER-LIGAND FREE ENERGY PREDICTED BY IDOCK:   -4.70 KCAL/MOL
REMARK 924 INTRA-LIGAND FREE ENERGY PREDICTED BY IDOCK:   -0.48 KCAL/MOL
REMARK 927      BINDING AFFINITY PREDICTED BY RF-SCORE:    0.00 PKD
ROOT
HETATM    1  C   UNL     1      -9.176  10.748  68.818  1.00  0.00    -0.192 C  
HETATM    2  C   UNL     1      -9.759  10.908  67.391  1.00  0.00    -0.190 C  
HETATM    3  C   UNL     1      -8.597  11.360  66.483  1.00  0.00    -0.175 C  
ENDROOT
BRANCH   2   4
HETATM    4  C   UNL     1     -10.910  11.960  67.409  1.00  0.00    -0.243 C  
HETATM    5  O   UNL     1     -11.775  11.842  66.272  1.00  0.00    -0.482 OA 
HETATM    6  H   UNL     1     -12.475  12.482  66.282  1.00  0.00     0.000 HD 
BRANCH   4   7
HETATM    7  C   UNL     1     -11.786  11.926  68.685  1.00  0.00    -0.323 C  
HETATM    8  O   UNL     1     -12.525  10.994  68.995  1.00  0.00    -0.449 OA 
HETATM    9  N   UNL     1     -11.637  13.031  69.500  1.00  0.00    -0.374 N  
HETATM   10  H   UNL     1     -10.988  13.772  69.234  1.00  0.00     0.000 HD 
BRANCH   9  11
HETATM   11  C   UNL     1     -12.395  13.147  70.729  1.00  0.00    -0.321 C  
BRANCH  11  12
HETATM   12  C   UNL     1     -11.996  14.348  71.579  1.00  0.00    -0.300 C  
BRANCH  12  13
HETATM   13  C   UNL     1     -12.110  15.688  70.865  1.00  0.00    -0.407 C  
HETATM   14  O   UNL     1     -12.894  15.528  69.684  1.00  0.00    -0.601 OA 
HETATM   15  H   UNL     1     -12.966  16.364  69.239  1.00  0.00     0.000 HD 
ENDBRANCH  12  13
ENDBRANCH  11  12
ENDBRANCH   9  11
ENDBRANCH   4   7
ENDBRANCH   2   4
BRANCH   2  16
HETATM   16  C   UNL     1     -10.316   9.527  66.954  1.00  0.00    -0.237 C  
HETATM   17  O   UNL     1     -10.145   9.304  65.559  1.00  0.00    -0.404 OA 
HETATM   18  H   UNL     1     -10.486   8.458  65.291  1.00  0.00     0.000 HD 
ENDBRANCH   2  16
TORSDOF 6
ENDMDL
MODEL      120
REMARK 921   NORMALIZED FREE ENERGY PREDICTED BY IDOCK:   -3.43 KCAL/MOL
REMARK 922        TOTAL FREE ENERGY PREDICTED BY IDOCK:   -5.16 KCAL/MOL
REMARK 923 INTER-LIGAND FREE ENERGY PREDICTED BY IDOCK:   -4.46 KCAL/MOL
REMARK 924 INTRA-LIGAND FREE ENERGY PREDICTED BY IDOCK:   -0.69 KCAL/MOL
REMARK 927      BINDING AFFINITY PREDICTED BY RF-SCORE:    0.00 PKD
ROOT
HETATM    1  C   UNL     1     -11.653  14.477  66.050  1.00  0.00    -0.356 C  
HETATM    2  C   UNL     1     -10.744  15.087  67.147  1.00  0.00    -0.303 C  
HETATM    3  C   UNL     1     -10.045  16.311  66.519  1.00  0.00    -0.301 C  
ENDROOT
BRANCH   2   4
HETATM    4  C   UNL     1      -9.708  14.022  67.622  1.00  0.00    -0.228 C  
HETATM    5  O   UNL     1      -9.593  13.973  69.051  1.00  0.00    -0.398 OA 
HETATM    6  H   UNL     1      -8.963  13.325  69.340  1.00  0.00     0.000 HD 
BRANCH   4   7
HETATM    7  C   UNL     1      -9.989  12.587  67.113  1.00  0.00    -0.216 C  
HETATM    8  O   UNL     1      -9.510  12.108  66.088  1.00  0.00    -0.234 OA 
HETATM    9  N   UNL     1     -10.803  11.844  67.945  1.00  0.00    -0.203 N  
HETATM   10  H   UNL     1     -11.156  12.257  68.808  1.00  0.00     0.000 HD 
BRANCH   9  11
HETATM   11  C   UNL     1     -11.160  10.483  67.601  1.00  0.00    -0.309 C  
BRANCH  11  12
HETATM   12  C   UNL     1     -10.534   9.439  68.520  1.00  0.00    -0.239 C  
BRANCH  12  13
HETATM   13  C   UNL     1     -11.002   9.515  69.967  1.00  0.00    -0.251 C  
HETATM   14  O   UNL     1     -12.357   9.958  70.002  1.00  0.00    -0.485 OA 
HETATM   15  H   UNL     1     -12.648  10.005  70.905  1.00  0.00     0.000 HD 
ENDBRANCH  12  13
ENDBRANCH  11  12
ENDBRANCH   9  11
ENDBRANCH   4   7
ENDBRANCH   2   4
BRANCH   2  16
HETATM   16  C   UNL     1     -11.655  15.502  68.333  1.00  0.00    -0.357 C  
HETATM   17  O   UNL     1     -12.477  14.426  68.773  1.00  0.00    -0.582 OA 
HETATM   18  H   UNL     1     -13.034  14.680  69.500  1.00  0.00     0.000 HD 
ENDBRANCH   2  16
TORSDOF 6
ENDMDL
MODEL      121
REMARK 921   NORMALIZED FREE ENERGY PREDICTED BY IDOCK:   -3.42 KCAL/MOL
REMARK 922        TOTAL FREE ENERGY PREDICTED BY IDOCK:   -5.15 KCAL/MOL
REMARK 923 INTER-LIGAND FREE ENERGY PREDICTED BY IDOCK:   -4.92 KCAL/MOL
REMARK 924 INTRA-LIGAND FREE ENERGY PREDICTED BY IDOCK:   -0.23 KCAL/MOL
REMARK 927      BINDING AFFINITY PREDICTED BY RF-SCORE:    0.00 PKD
ROOT
HETATM    1  C   UNL     1      -8.624   7.933  68.451  1.00  0.00    -0.128 C  
HETATM    2  C   UNL     1      -9.834   8.558  67.715  1.00  0.00    -0.218 C  
HETATM    3  C   UNL     1     -10.671   7.389  67.157  1.00  0.00    -0.400 C  
ENDROOT
BRANCH   2   4
HETATM    4  C   UNL     1      -9.328   9.492  66.572  1.00  0.00    -0.171 C  
HETATM    5  O   UNL     1      -9.681   9.002  65.272  1.00  0.00    -0.452 OA 
HETATM    6  H   UNL     1      -9.373   9.570  64.576  1.00  0.00     0.000 HD 
BRANCH   4   7
HETATM    7  C   UNL     1      -9.816  10.957  66.682  1.00  0.00    -0.198 C  
HETATM    8  O   UNL     1      -9.265  11.824  67.358  1.00  0.00    -0.169 OA 
HETATM    9  N   UNL     1     -10.921  11.242  65.905  1.00  0.00    -0.209 N  
HETATM   10  H   UNL     1     -11.335  10.512  65.326  1.00  0.00     0.000 HD 
BRANCH   9  11
HETATM   11  C   UNL     1     -11.498  12.571  65.905  1.00  0.00    -0.373 C  
BRANCH  11  12
HETATM   12  C   UNL     1     -12.618  12.748  64.886  1.00  0.00    -0.541 C  
BRANCH  12  13
HETATM   13  C   UNL     1     -12.142  12.860  63.444  1.00  0.00    -0.530 C  
HETATM   14  O   UNL     1     -11.746  11.573  62.976  1.00  0.00    -0.872 OA 
HETATM   15  H   UNL     1     -11.449  11.642  62.077  1.00  0.00     0.000 HD 
ENDBRANCH  12  13
ENDBRANCH  11  12
ENDBRANCH   9  11
ENDBRANCH   4   7
ENDBRANCH   2   4
BRANCH   2  16
HETATM   16  C   UNL     1     -10.639   9.386  68.753  1.00  0.00    -0.208 C  
HETATM   17  O   UNL     1     -11.318   8.552  69.685  1.00  0.00    -0.448 OA 
HETATM   18  H   UNL     1     -11.811   9.058  70.320  1.00  0.00     0.000 HD 
ENDBRANCH   2  16
TORSDOF 6
ENDMDL
MODEL      122
REMARK 921   NORMALIZED FREE ENERGY PREDICTED BY IDOCK:   -3.42 KCAL/MOL
REMARK 922        TOTAL FREE ENERGY PREDICTED BY IDOCK:   -5.15 KCAL/MOL
REMARK 923 INTER-LIGAND FREE ENERGY PREDICTED BY IDOCK:   -4.81 KCAL/MOL
REMARK 924 INTRA-LIGAND FREE ENERGY PREDICTED BY IDOCK:   -0.34 KCAL/MOL
REMARK 927      BINDING AFFINITY PREDICTED BY RF-SCORE:    0.00 PKD
ROOT
HETATM    1  C   UNL     1      -8.996   6.726  71.490  1.00  0.00    -0.137 C  
HETATM    2  C   UNL     1     -10.519   6.782  71.767  1.00  0.00    -0.228 C  
HETATM    3  C   UNL     1     -10.911   5.424  72.387  1.00  0.00    -0.297 C  
ENDROOT
BRANCH   2   4
HETATM    4  C   UNL     1     -11.287   7.042  70.435  1.00  0.00    -0.310 C  
HETATM    5  O   UNL     1     -12.707   6.925  70.592  1.00  0.00    -0.559 OA 
HETATM    6  H   UNL     1     -13.174   7.083  69.780  1.00  0.00     0.000 HD 
BRANCH   4   7
HETATM    7  C   UNL     1     -10.986   8.413  69.782  1.00  0.00    -0.127 C  
HETATM    8  O   UNL     1     -10.120   8.602  68.931  1.00  0.00    -0.191 OA 
HETATM    9  N   UNL     1     -11.819   9.431  70.203  1.00  0.00    -0.466 N  
HETATM   10  H   UNL     1     -12.553   9.236  70.883  1.00  0.00     0.000 HD 
BRANCH   9  11
HETATM   11  C   UNL     1     -11.659  10.774  69.685  1.00  0.00    -0.316 C  
BRANCH  11  12
HETATM   12  C   UNL     1     -12.172  11.856  70.630  1.00  0.00    -0.424 C  
BRANCH  12  13
HETATM   13  C   UNL     1     -12.101  13.268  70.063  1.00  0.00    -0.315 C  
HETATM   14  O   UNL     1     -11.950  14.199  71.133  1.00  0.00    -0.414 OA 
HETATM   15  H   UNL     1     -11.905  15.079  70.780  1.00  0.00     0.000 HD 
ENDBRANCH  12  13
ENDBRANCH  11  12
ENDBRANCH   9  11
ENDBRANCH   4   7
ENDBRANCH   2   4
BRANCH   2  16
HETATM   16  C   UNL     1     -10.774   7.950  72.757  1.00  0.00    -0.371 C  
HETATM   17  O   UNL     1     -12.134   8.008  73.171  1.00  0.00    -0.656 OA 
HETATM   18  H   UNL     1     -12.290   8.723  73.777  1.00  0.00     0.000 HD 
ENDBRANCH   2  16
TORSDOF 6
ENDMDL
MODEL      123
REMARK 921   NORMALIZED FREE ENERGY PREDICTED BY IDOCK:   -3.42 KCAL/MOL
REMARK 922        TOTAL FREE ENERGY PREDICTED BY IDOCK:   -5.14 KCAL/MOL
REMARK 923 INTER-LIGAND FREE ENERGY PREDICTED BY IDOCK:   -4.51 KCAL/MOL
REMARK 924 INTRA-LIGAND FREE ENERGY PREDICTED BY IDOCK:   -0.63 KCAL/MOL
REMARK 927      BINDING AFFINITY PREDICTED BY RF-SCORE:    0.00 PKD
ROOT
HETATM    1  C   UNL     1     -12.797  13.872  66.573  1.00  0.00     0.162 C  
HETATM    2  C   UNL     1     -11.268  13.831  66.328  1.00  0.00    -0.310 C  
HETATM    3  C   UNL     1     -10.672  15.076  67.017  1.00  0.00    -0.304 C  
ENDROOT
BRANCH   2   4
HETATM    4  C   UNL     1     -10.982  13.838  64.795  1.00  0.00    -0.392 C  
HETATM    5  O   UNL     1      -9.804  14.586  64.463  1.00  0.00    -0.548 OA 
HETATM    6  H   UNL     1      -9.630  14.590  63.530  1.00  0.00     0.000 HD 
BRANCH   4   7
HETATM    7  C   UNL     1     -10.850  12.430  64.164  1.00  0.00    -0.372 C  
HETATM    8  O   UNL     1     -11.752  11.595  64.135  1.00  0.00    -0.312 OA 
HETATM    9  N   UNL     1      -9.625  12.190  63.574  1.00  0.00    -0.562 N  
HETATM   10  H   UNL     1      -8.909  12.916  63.581  1.00  0.00     0.000 HD 
BRANCH   9  11
HETATM   11  C   UNL     1      -9.348  10.915  62.946  1.00  0.00    -0.349 C  
BRANCH  11  12
HETATM   12  C   UNL     1      -8.082  10.242  63.464  1.00  0.00    -0.152 C  
BRANCH  12  13
HETATM   13  C   UNL     1      -8.271   9.460  64.757  1.00  0.00    -0.145 C  
HETATM   14  O   UNL     1      -9.656   9.431  65.092  1.00  0.00    -0.416 OA 
HETATM   15  H   UNL     1      -9.775   8.943  65.899  1.00  0.00     0.000 HD 
ENDBRANCH  12  13
ENDBRANCH  11  12
ENDBRANCH   9  11
ENDBRANCH   4   7
ENDBRANCH   2   4
BRANCH   2  16
HETATM   16  C   UNL     1     -10.726  12.520  66.958  1.00  0.00    -0.242 C  
HETATM   17  O   UNL     1     -11.750  11.545  67.116  1.00  0.00    -0.567 OA 
HETATM   18  H   UNL     1     -11.419  10.742  67.502  1.00  0.00     0.000 HD 
ENDBRANCH   2  16
TORSDOF 6
ENDMDL
MODEL      124
REMARK 921   NORMALIZED FREE ENERGY PREDICTED BY IDOCK:   -3.39 KCAL/MOL
REMARK 922        TOTAL FREE ENERGY PREDICTED BY IDOCK:   -5.11 KCAL/MOL
REMARK 923 INTER-LIGAND FREE ENERGY PREDICTED BY IDOCK:   -4.84 KCAL/MOL
REMARK 924 INTRA-LIGAND FREE ENERGY PREDICTED BY IDOCK:   -0.27 KCAL/MOL
REMARK 927      BINDING AFFINITY PREDICTED BY RF-SCORE:    0.00 PKD
ROOT
HETATM    1  C   UNL     1      -8.101  17.176  67.861  1.00  0.00    -0.201 C  
HETATM    2  C   UNL     1      -9.486  16.600  67.475  1.00  0.00    -0.229 C  
HETATM    3  C   UNL     1     -10.526  17.698  67.778  1.00  0.00    -0.379 C  
ENDROOT
BRANCH   2   4
HETATM    4  C   UNL     1      -9.766  15.307  68.301  1.00  0.00    -0.210 C  
HETATM    5  O   UNL     1     -10.210  15.597  69.633  1.00  0.00    -0.256 OA 
HETATM    6  H   UNL     1     -10.380  14.811  70.137  1.00  0.00     0.000 HD 
BRANCH   4   7
HETATM    7  C   UNL     1     -10.791  14.345  67.652  1.00  0.00    -0.273 C  
HETATM    8  O   UNL     1     -11.988  14.591  67.521  1.00  0.00    -0.382 OA 
HETATM    9  N   UNL     1     -10.239  13.174  67.173  1.00  0.00    -0.243 N  
HETATM   10  H   UNL     1      -9.235  13.014  67.263  1.00  0.00     0.000 HD 
BRANCH   9  11
HETATM   11  C   UNL     1     -11.072  12.171  66.543  1.00  0.00    -0.307 C  
BRANCH  11  12
HETATM   12  C   UNL     1     -10.789  10.753  67.026  1.00  0.00    -0.311 C  
BRANCH  12  13
HETATM   13  C   UNL     1     -10.997  10.547  68.520  1.00  0.00    -0.252 C  
HETATM   14  O   UNL     1     -12.385  10.658  68.824  1.00  0.00    -0.814 OA 
HETATM   15  H   UNL     1     -12.515  10.529  69.756  1.00  0.00     0.000 HD 
ENDBRANCH  12  13
ENDBRANCH  11  12
ENDBRANCH   9  11
ENDBRANCH   4   7
ENDBRANCH   2   4
BRANCH   2  16
HETATM   16  C   UNL     1      -9.447  16.259  65.961  1.00  0.00    -0.334 C  
HETATM   17  O   UNL     1     -10.414  17.000  65.226  1.00  0.00    -0.649 OA 
HETATM   18  H   UNL     1     -10.391  16.792  64.299  1.00  0.00     0.000 HD 
ENDBRANCH   2  16
TORSDOF 6
ENDMDL
MODEL      125
REMARK 921   NORMALIZED FREE ENERGY PREDICTED BY IDOCK:   -3.39 KCAL/MOL
REMARK 922        TOTAL FREE ENERGY PREDICTED BY IDOCK:   -5.10 KCAL/MOL
REMARK 923 INTER-LIGAND FREE ENERGY PREDICTED BY IDOCK:   -4.81 KCAL/MOL
REMARK 924 INTRA-LIGAND FREE ENERGY PREDICTED BY IDOCK:   -0.29 KCAL/MOL
REMARK 927      BINDING AFFINITY PREDICTED BY RF-SCORE:    0.00 PKD
ROOT
HETATM    1  C   UNL     1     -10.707   8.387  68.794  1.00  0.00    -0.086 C  
HETATM    2  C   UNL     1     -10.118   9.683  68.184  1.00  0.00    -0.205 C  
HETATM    3  C   UNL     1     -11.308  10.622  67.897  1.00  0.00    -0.342 C  
ENDROOT
BRANCH   2   4
HETATM    4  C   UNL     1      -9.336   9.341  66.879  1.00  0.00    -0.151 C  
HETATM    5  O   UNL     1      -9.927   8.251  66.159  1.00  0.00    -0.455 OA 
HETATM    6  H   UNL     1      -9.451   8.043  65.364  1.00  0.00     0.000 HD 
BRANCH   4   7
HETATM    7  C   UNL     1      -9.174  10.531  65.902  1.00  0.00    -0.179 C  
HETATM    8  O   UNL     1      -8.366  11.446  66.049  1.00  0.00    -0.129 OA 
HETATM    9  N   UNL     1      -9.994  10.464  64.793  1.00  0.00    -0.334 N  
HETATM   10  H   UNL     1     -10.629   9.674  64.679  1.00  0.00     0.000 HD 
BRANCH   9  11
HETATM   11  C   UNL     1      -9.962  11.508  63.789  1.00  0.00    -0.349 C  
BRANCH  11  12
HETATM   12  C   UNL     1     -10.848  12.704  64.125  1.00  0.00    -0.431 C  
BRANCH  12  13
HETATM   13  C   UNL     1     -12.176  12.728  63.381  1.00  0.00    -0.504 C  
HETATM   14  O   UNL     1     -12.483  14.069  63.007  1.00  0.00    -1.101 OA 
HETATM   15  H   UNL     1     -13.312  14.084  62.543  1.00  0.00     0.000 HD 
ENDBRANCH  12  13
ENDBRANCH  11  12
ENDBRANCH   9  11
ENDBRANCH   4   7
ENDBRANCH   2   4
BRANCH   2  16
HETATM   16  C   UNL     1      -9.151  10.298  69.231  1.00  0.00    -0.194 C  
HETATM   17  O   UNL     1      -8.760  11.620  68.880  1.00  0.00    -0.351 OA 
HETATM   18  H   UNL     1      -8.168  11.997  69.521  1.00  0.00     0.000 HD 
ENDBRANCH   2  16
TORSDOF 6
ENDMDL
MODEL      126
REMARK 921   NORMALIZED FREE ENERGY PREDICTED BY IDOCK:   -3.39 KCAL/MOL
REMARK 922        TOTAL FREE ENERGY PREDICTED BY IDOCK:   -5.10 KCAL/MOL
REMARK 923 INTER-LIGAND FREE ENERGY PREDICTED BY IDOCK:   -4.40 KCAL/MOL
REMARK 924 INTRA-LIGAND FREE ENERGY PREDICTED BY IDOCK:   -0.69 KCAL/MOL
REMARK 927      BINDING AFFINITY PREDICTED BY RF-SCORE:    0.00 PKD
ROOT
HETATM    1  C   UNL     1      -9.644  10.074  64.233  1.00  0.00    -0.301 C  
HETATM    2  C   UNL     1      -9.074   9.894  65.662  1.00  0.00    -0.220 C  
HETATM    3  C   UNL     1      -9.958   8.843  66.366  1.00  0.00    -0.354 C  
ENDROOT
BRANCH   2   4
HETATM    4  C   UNL     1      -9.105  11.259  66.416  1.00  0.00    -0.192 C  
HETATM    5  O   UNL     1      -7.884  11.994  66.261  1.00  0.00    -0.371 OA 
HETATM    6  H   UNL     1      -7.902  12.825  66.720  1.00  0.00     0.000 HD 
BRANCH   4   7
HETATM    7  C   UNL     1     -10.278  12.184  66.012  1.00  0.00    -0.237 C  
HETATM    8  O   UNL     1     -11.460  11.956  66.260  1.00  0.00    -0.350 OA 
HETATM    9  N   UNL     1      -9.886  13.346  65.377  1.00  0.00    -0.509 N  
HETATM   10  H   UNL     1      -8.895  13.526  65.218  1.00  0.00     0.000 HD 
BRANCH   9  11
HETATM   11  C   UNL     1     -10.870  14.311  64.934  1.00  0.00    -0.416 C  
BRANCH  11  12
HETATM   12  C   UNL     1     -10.890  15.589  65.767  1.00  0.00    -0.337 C  
BRANCH  12  13
HETATM   13  C   UNL     1     -11.065  15.359  67.262  1.00  0.00    -0.302 C  
HETATM   14  O   UNL     1     -12.236  14.577  67.485  1.00  0.00    -0.598 OA 
HETATM   15  H   UNL     1     -12.345  14.433  68.418  1.00  0.00     0.000 HD 
ENDBRANCH  12  13
ENDBRANCH  11  12
ENDBRANCH   9  11
ENDBRANCH   4   7
ENDBRANCH   2   4
BRANCH   2  16
HETATM   16  C   UNL     1      -7.609   9.401  65.524  1.00  0.00    -0.099 C  
HETATM   17  O   UNL     1      -6.986   9.910  64.350  1.00  0.00    -0.119 OA 
HETATM   18  H   UNL     1      -6.089   9.608  64.266  1.00  0.00     0.000 HD 
ENDBRANCH   2  16
TORSDOF 6
ENDMDL
MODEL      127
REMARK 921   NORMALIZED FREE ENERGY PREDICTED BY IDOCK:   -3.37 KCAL/MOL
REMARK 922        TOTAL FREE ENERGY PREDICTED BY IDOCK:   -5.07 KCAL/MOL
REMARK 923 INTER-LIGAND FREE ENERGY PREDICTED BY IDOCK:   -4.61 KCAL/MOL
REMARK 924 INTRA-LIGAND FREE ENERGY PREDICTED BY IDOCK:   -0.47 KCAL/MOL
REMARK 927      BINDING AFFINITY PREDICTED BY RF-SCORE:    0.00 PKD
ROOT
HETATM    1  C   UNL     1     -11.103   9.163  70.213  1.00  0.00    -0.272 C  
HETATM    2  C   UNL     1     -11.595   8.626  71.580  1.00  0.00    -0.379 C  
HETATM    3  C   UNL     1     -10.381   8.648  72.532  1.00  0.00    -0.229 C  
ENDROOT
BRANCH   2   4
HETATM    4  C   UNL     1     -12.155   7.181  71.406  1.00  0.00    -0.344 C  
HETATM    5  O   UNL     1     -13.513   7.174  70.948  1.00  0.00    -0.550 OA 
HETATM    6  H   UNL     1     -13.854   6.294  70.842  1.00  0.00     0.000 HD 
BRANCH   4   7
HETATM    7  C   UNL     1     -11.323   6.285  70.456  1.00  0.00    -0.361 C  
HETATM    8  O   UNL     1     -11.506   6.201  69.243  1.00  0.00    -0.404 OA 
HETATM    9  N   UNL     1     -10.297   5.603  71.079  1.00  0.00    -0.222 N  
HETATM   10  H   UNL     1     -10.146   5.722  72.081  1.00  0.00     0.000 HD 
BRANCH   9  11
HETATM   11  C   UNL     1      -9.433   4.721  70.323  1.00  0.00    -0.174 C  
BRANCH  11  12
HETATM   12  C   UNL     1      -8.030   5.279  70.108  1.00  0.00    -0.080 C  
BRANCH  12  13
HETATM   13  C   UNL     1      -7.990   6.764  69.775  1.00  0.00    -0.124 C  
HETATM   14  O   UNL     1      -8.443   6.960  68.437  1.00  0.00    -0.122 OA 
HETATM   15  H   UNL     1      -8.418   7.886  68.229  1.00  0.00     0.000 HD 
ENDBRANCH  12  13
ENDBRANCH  11  12
ENDBRANCH   9  11
ENDBRANCH   4   7
ENDBRANCH   2   4
BRANCH   2  16
HETATM   16  C   UNL     1     -12.722   9.570  72.077  1.00  0.00    -0.396 C  
HETATM   17  O   UNL     1     -13.428   9.018  73.182  1.00  0.00    -0.948 OA 
HETATM   18  H   UNL     1     -14.119   9.595  73.487  1.00  0.00     0.000 HD 
ENDBRANCH   2  16
TORSDOF 6
ENDMDL
MODEL      128
REMARK 921   NORMALIZED FREE ENERGY PREDICTED BY IDOCK:   -3.36 KCAL/MOL
REMARK 922        TOTAL FREE ENERGY PREDICTED BY IDOCK:   -5.06 KCAL/MOL
REMARK 923 INTER-LIGAND FREE ENERGY PREDICTED BY IDOCK:   -4.77 KCAL/MOL
REMARK 924 INTRA-LIGAND FREE ENERGY PREDICTED BY IDOCK:   -0.30 KCAL/MOL
REMARK 927      BINDING AFFINITY PREDICTED BY RF-SCORE:    0.00 PKD
ROOT
HETATM    1  C   UNL     1     -10.050  10.013  65.245  1.00  0.00    -0.299 C  
HETATM    2  C   UNL     1     -10.224  11.550  65.318  1.00  0.00    -0.315 C  
HETATM    3  C   UNL     1     -11.303  11.827  66.386  1.00  0.00    -0.361 C  
ENDROOT
BRANCH   2   4
HETATM    4  C   UNL     1     -10.652  12.098  63.922  1.00  0.00    -0.415 C  
HETATM    5  O   UNL     1     -11.369  11.124  63.151  1.00  0.00    -0.808 OA 
HETATM    6  H   UNL     1     -11.629  11.457  62.301  1.00  0.00     0.000 HD 
BRANCH   4   7
HETATM    7  C   UNL     1     -11.505  13.389  63.977  1.00  0.00    -0.352 C  
HETATM    8  O   UNL     1     -12.724  13.423  63.825  1.00  0.00    -0.685 OA 
HETATM    9  N   UNL     1     -10.782  14.529  64.266  1.00  0.00    -0.478 N  
HETATM   10  H   UNL     1      -9.776  14.464  64.424  1.00  0.00     0.000 HD 
BRANCH   9  11
HETATM   11  C   UNL     1     -11.439  15.817  64.348  1.00  0.00    -0.263 C  
BRANCH  11  12
HETATM   12  C   UNL     1     -10.841  16.741  65.403  1.00  0.00    -0.149 C  
BRANCH  12  13
HETATM   13  C   UNL     1      -9.546  16.232  66.020  1.00  0.00    -0.337 C  
HETATM   14  O   UNL     1      -9.835  15.583  67.257  1.00  0.00    -0.222 OA 
HETATM   15  H   UNL     1      -9.027  15.265  67.642  1.00  0.00     0.000 HD 
ENDBRANCH  12  13
ENDBRANCH  11  12
ENDBRANCH   9  11
ENDBRANCH   4   7
ENDBRANCH   2   4
BRANCH   2  16
HETATM   16  C   UNL     1      -8.856  12.159  65.725  1.00  0.00     0.269 C  
HETATM   17  O   UNL     1      -7.824  11.180  65.744  1.00  0.00    -0.352 OA 
HETATM   18  H   UNL     1      -6.986  11.553  65.993  1.00  0.00     0.000 HD 
ENDBRANCH   2  16
TORSDOF 6
ENDMDL
MODEL      129
REMARK 921   NORMALIZED FREE ENERGY PREDICTED BY IDOCK:   -3.35 KCAL/MOL
REMARK 922        TOTAL FREE ENERGY PREDICTED BY IDOCK:   -5.05 KCAL/MOL
REMARK 923 INTER-LIGAND FREE ENERGY PREDICTED BY IDOCK:   -4.38 KCAL/MOL
REMARK 924 INTRA-LIGAND FREE ENERGY PREDICTED BY IDOCK:   -0.67 KCAL/MOL
REMARK 927      BINDING AFFINITY PREDICTED BY RF-SCORE:    0.00 PKD
ROOT
HETATM    1  C   UNL     1     -12.955   7.133  71.727  1.00  0.00    -0.367 C  
HETATM    2  C   UNL     1     -11.699   7.940  71.315  1.00  0.00    -0.313 C  
HETATM    3  C   UNL     1     -10.884   8.187  72.601  1.00  0.00    -0.429 C  
ENDROOT
BRANCH   2   4
HETATM    4  C   UNL     1     -12.133   9.283  70.650  1.00  0.00    -0.100 C  
HETATM    5  O   UNL     1     -12.456  10.290  71.617  1.00  0.00    -0.389 OA 
HETATM    6  H   UNL     1     -12.720  11.108  71.213  1.00  0.00     0.000 HD 
BRANCH   4   7
HETATM    7  C   UNL     1     -11.091   9.874  69.669  1.00  0.00    -0.241 C  
HETATM    8  O   UNL     1     -10.092  10.502  70.012  1.00  0.00    -0.121 OA 
HETATM    9  N   UNL     1     -11.347   9.596  68.341  1.00  0.00    -0.502 N  
HETATM   10  H   UNL     1     -12.164   9.041  68.088  1.00  0.00     0.000 HD 
BRANCH   9  11
HETATM   11  C   UNL     1     -10.464  10.086  67.303  1.00  0.00    -0.254 C  
BRANCH  11  12
HETATM   12  C   UNL     1      -9.171   9.287  67.175  1.00  0.00    -0.157 C  
BRANCH  12  13
HETATM   13  C   UNL     1      -9.373   7.784  67.047  1.00  0.00    -0.157 C  
HETATM   14  O   UNL     1     -10.692   7.523  66.571  1.00  0.00    -0.455 OA 
HETATM   15  H   UNL     1     -10.817   6.585  66.490  1.00  0.00     0.000 HD 
ENDBRANCH  12  13
ENDBRANCH  11  12
ENDBRANCH   9  11
ENDBRANCH   4   7
ENDBRANCH   2   4
BRANCH   2  16
HETATM   16  C   UNL     1     -10.903   7.082  70.296  1.00  0.00    -0.254 C  
HETATM   17  O   UNL     1     -11.742   6.556  69.274  1.00  0.00    -0.644 OA 
HETATM   18  H   UNL     1     -11.255   6.030  68.650  1.00  0.00     0.000 HD 
ENDBRANCH   2  16
TORSDOF 6
ENDMDL
MODEL      130
REMARK 921   NORMALIZED FREE ENERGY PREDICTED BY IDOCK:   -3.35 KCAL/MOL
REMARK 922        TOTAL FREE ENERGY PREDICTED BY IDOCK:   -5.05 KCAL/MOL
REMARK 923 INTER-LIGAND FREE ENERGY PREDICTED BY IDOCK:   -5.15 KCAL/MOL
REMARK 924 INTRA-LIGAND FREE ENERGY PREDICTED BY IDOCK:    0.10 KCAL/MOL
REMARK 927      BINDING AFFINITY PREDICTED BY RF-SCORE:    0.00 PKD
ROOT
HETATM    1  C   UNL     1     -12.014  14.744  72.961  1.00  0.00    -0.235 C  
HETATM    2  C   UNL     1     -13.175  14.422  71.988  1.00  0.00    -0.453 C  
HETATM    3  C   UNL     1     -13.450  12.908  72.106  1.00  0.00    -0.619 C  
ENDROOT
BRANCH   2   4
HETATM    4  C   UNL     1     -12.766  14.813  70.535  1.00  0.00    -0.343 C  
HETATM    5  O   UNL     1     -12.230  16.141  70.458  1.00  0.00    -0.445 OA 
HETATM    6  H   UNL     1     -11.981  16.379  69.573  1.00  0.00     0.000 HD 
BRANCH   4   7
HETATM    7  C   UNL     1     -11.752  13.847  69.875  1.00  0.00    -0.291 C  
HETATM    8  O   UNL     1     -11.786  12.623  69.985  1.00  0.00    -0.329 OA 
HETATM    9  N   UNL     1     -10.805  14.474  69.090  1.00  0.00    -0.259 N  
HETATM   10  H   UNL     1     -10.824  15.489  68.987  1.00  0.00     0.000 HD 
BRANCH   9  11
HETATM   11  C   UNL     1      -9.785  13.703  68.410  1.00  0.00    -0.217 C  
BRANCH  11  12
HETATM   12  C   UNL     1      -9.413  14.259  67.039  1.00  0.00    -0.259 C  
BRANCH  12  13
HETATM   13  C   UNL     1     -10.579  14.869  66.273  1.00  0.00    -0.308 C  
HETATM   14  O   UNL     1     -10.825  16.187  66.757  1.00  0.00    -0.277 OA 
HETATM   15  H   UNL     1     -11.552  16.568  66.279  1.00  0.00     0.000 HD 
ENDBRANCH  12  13
ENDBRANCH  11  12
ENDBRANCH   9  11
ENDBRANCH   4   7
ENDBRANCH   2   4
BRANCH   2  16
HETATM   16  C   UNL     1     -14.405  15.257  72.431  1.00  0.00    -0.384 C  
HETATM   17  O   UNL     1     -14.035  16.336  73.282  1.00  0.00    -0.731 OA 
HETATM   18  H   UNL     1     -14.789  16.848  73.553  1.00  0.00     0.000 HD 
ENDBRANCH   2  16
TORSDOF 6
ENDMDL
MODEL      131
REMARK 921   NORMALIZED FREE ENERGY PREDICTED BY IDOCK:   -3.35 KCAL/MOL
REMARK 922        TOTAL FREE ENERGY PREDICTED BY IDOCK:   -5.05 KCAL/MOL
REMARK 923 INTER-LIGAND FREE ENERGY PREDICTED BY IDOCK:   -4.69 KCAL/MOL
REMARK 924 INTRA-LIGAND FREE ENERGY PREDICTED BY IDOCK:   -0.36 KCAL/MOL
REMARK 927      BINDING AFFINITY PREDICTED BY RF-SCORE:    0.00 PKD
ROOT
HETATM    1  C   UNL     1      -9.839   9.104  70.699  1.00  0.00    -0.308 C  
HETATM    2  C   UNL     1      -9.441   9.105  69.203  1.00  0.00    -0.156 C  
HETATM    3  C   UNL     1      -8.397  10.227  69.019  1.00  0.00    -0.148 C  
ENDROOT
BRANCH   2   4
HETATM    4  C   UNL     1     -10.704   9.355  68.323  1.00  0.00    -0.171 C  
HETATM    5  O   UNL     1     -11.673  10.181  68.982  1.00  0.00    -0.490 OA 
HETATM    6  H   UNL     1     -12.442  10.333  68.447  1.00  0.00     0.000 HD 
BRANCH   4   7
HETATM    7  C   UNL     1     -10.404   9.979  66.938  1.00  0.00    -0.234 C  
HETATM    8  O   UNL     1      -9.912   9.366  65.993  1.00  0.00    -0.293 OA 
HETATM    9  N   UNL     1     -10.786  11.301  66.821  1.00  0.00    -0.264 N  
HETATM   10  H   UNL     1     -11.226  11.772  67.611  1.00  0.00     0.000 HD 
BRANCH   9  11
HETATM   11  C   UNL     1     -10.566  12.024  65.586  1.00  0.00    -0.265 C  
BRANCH  11  12
HETATM   12  C   UNL     1     -11.816  12.718  65.055  1.00  0.00    -0.423 C  
BRANCH  12  13
HETATM   13  C   UNL     1     -11.818  12.940  63.549  1.00  0.00    -0.536 C  
HETATM   14  O   UNL     1     -12.453  14.183  63.256  1.00  0.00    -1.146 OA 
HETATM   15  H   UNL     1     -12.454  14.322  62.317  1.00  0.00     0.000 HD 
ENDBRANCH  12  13
ENDBRANCH  11  12
ENDBRANCH   9  11
ENDBRANCH   4   7
ENDBRANCH   2   4
BRANCH   2  16
HETATM   16  C   UNL     1      -8.839   7.713  68.875  1.00  0.00    -0.135 C  
HETATM   17  O   UNL     1      -8.013   7.750  67.717  1.00  0.00    -0.120 OA 
HETATM   18  H   UNL     1      -7.644   6.898  67.516  1.00  0.00     0.000 HD 
ENDBRANCH   2  16
TORSDOF 6
ENDMDL
MODEL      132
REMARK 921   NORMALIZED FREE ENERGY PREDICTED BY IDOCK:   -3.35 KCAL/MOL
REMARK 922        TOTAL FREE ENERGY PREDICTED BY IDOCK:   -5.05 KCAL/MOL
REMARK 923 INTER-LIGAND FREE ENERGY PREDICTED BY IDOCK:   -4.27 KCAL/MOL
REMARK 924 INTRA-LIGAND FREE ENERGY PREDICTED BY IDOCK:   -0.77 KCAL/MOL
REMARK 927      BINDING AFFINITY PREDICTED BY RF-SCORE:    0.00 PKD
ROOT
HETATM    1  C   UNL     1     -10.087   9.535  66.165  1.00  0.00    -0.326 C  
HETATM    2  C   UNL     1     -10.022  10.827  67.017  1.00  0.00    -0.236 C  
HETATM    3  C   UNL     1     -11.478  11.225  67.338  1.00  0.00    -0.300 C  
ENDROOT
BRANCH   2   4
HETATM    4  C   UNL     1      -9.291  11.948  66.215  1.00  0.00    -0.227 C  
HETATM    5  O   UNL     1      -9.106  11.600  64.837  1.00  0.00    -0.417 OA 
HETATM    6  H   UNL     1      -8.660  12.282  64.349  1.00  0.00     0.000 HD 
BRANCH   4   7
HETATM    7  C   UNL     1      -9.985  13.330  66.273  1.00  0.00    -0.291 C  
HETATM    8  O   UNL     1     -10.602  13.837  65.339  1.00  0.00    -0.295 OA 
HETATM    9  N   UNL     1      -9.900  13.952  67.503  1.00  0.00    -0.232 N  
HETATM   10  H   UNL     1      -9.413  13.490  68.271  1.00  0.00     0.000 HD 
BRANCH   9  11
HETATM   11  C   UNL     1     -10.497  15.254  67.713  1.00  0.00    -0.253 C  
BRANCH  11  12
HETATM   12  C   UNL     1     -11.773  15.213  68.548  1.00  0.00    -0.347 C  
BRANCH  12  13
HETATM   13  C   UNL     1     -11.552  14.868  70.014  1.00  0.00    -0.289 C  
HETATM   14  O   UNL     1     -11.409  13.456  70.151  1.00  0.00    -0.498 OA 
HETATM   15  H   UNL     1     -11.270  13.241  71.066  1.00  0.00     0.000 HD 
ENDBRANCH  12  13
ENDBRANCH  11  12
ENDBRANCH   9  11
ENDBRANCH   4   7
ENDBRANCH   2   4
BRANCH   2  16
HETATM   16  C   UNL     1      -9.226  10.499  68.308  1.00  0.00    -0.152 C  
HETATM   17  O   UNL     1      -9.604  11.341  69.392  1.00  0.00    -0.410 OA 
HETATM   18  H   UNL     1      -9.116  11.140  70.183  1.00  0.00     0.000 HD 
ENDBRANCH   2  16
TORSDOF 6
ENDMDL
MODEL      133
REMARK 921   NORMALIZED FREE ENERGY PREDICTED BY IDOCK:   -3.35 KCAL/MOL
REMARK 922        TOTAL FREE ENERGY PREDICTED BY IDOCK:   -5.04 KCAL/MOL
REMARK 923 INTER-LIGAND FREE ENERGY PREDICTED BY IDOCK:   -4.50 KCAL/MOL
REMARK 924 INTRA-LIGAND FREE ENERGY PREDICTED BY IDOCK:   -0.54 KCAL/MOL
REMARK 927      BINDING AFFINITY PREDICTED BY RF-SCORE:    0.00 PKD
ROOT
HETATM    1  C   UNL     1     -11.224   7.620  70.441  1.00  0.00    -0.258 C  
HETATM    2  C   UNL     1     -10.531   8.857  69.818  1.00  0.00    -0.217 C  
HETATM    3  C   UNL     1      -9.304   9.173  70.699  1.00  0.00    -0.312 C  
ENDROOT
BRANCH   2   4
HETATM    4  C   UNL     1     -11.529  10.056  69.783  1.00  0.00    -0.184 C  
HETATM    5  O   UNL     1     -11.562  10.775  71.023  1.00  0.00    -0.298 OA 
HETATM    6  H   UNL     1     -12.169  11.504  71.001  1.00  0.00     0.000 HD 
BRANCH   4   7
HETATM    7  C   UNL     1     -11.265  11.072  68.645  1.00  0.00    -0.263 C  
HETATM    8  O   UNL     1     -11.945  11.165  67.625  1.00  0.00    -0.613 OA 
HETATM    9  N   UNL     1     -10.207  11.926  68.887  1.00  0.00    -0.391 N  
HETATM   10  H   UNL     1      -9.684  11.849  69.759  1.00  0.00     0.000 HD 
BRANCH   9  11
HETATM   11  C   UNL     1      -9.834  12.930  67.912  1.00  0.00    -0.227 C  
BRANCH  11  12
HETATM   12  C   UNL     1      -9.949  14.358  68.434  1.00  0.00    -0.241 C  
BRANCH  12  13
HETATM   13  C   UNL     1     -11.264  14.665  69.136  1.00  0.00    -0.270 C  
HETATM   14  O   UNL     1     -12.348  14.199  68.334  1.00  0.00    -0.559 OA 
HETATM   15  H   UNL     1     -13.168  14.390  68.773  1.00  0.00     0.000 HD 
ENDBRANCH  12  13
ENDBRANCH  11  12
ENDBRANCH   9  11
ENDBRANCH   4   7
ENDBRANCH   2   4
BRANCH   2  16
HETATM   16  C   UNL     1     -10.109   8.482  68.373  1.00  0.00    -0.194 C  
HETATM   17  O   UNL     1     -11.015   7.559  67.778  1.00  0.00    -0.476 OA 
HETATM   18  H   UNL     1     -10.756   7.328  66.893  1.00  0.00     0.000 HD 
ENDBRANCH   2  16
TORSDOF 6
ENDMDL
MODEL      134
REMARK 921   NORMALIZED FREE ENERGY PREDICTED BY IDOCK:   -3.34 KCAL/MOL
REMARK 922        TOTAL FREE ENERGY PREDICTED BY IDOCK:   -5.04 KCAL/MOL
REMARK 923 INTER-LIGAND FREE ENERGY PREDICTED BY IDOCK:   -4.83 KCAL/MOL
REMARK 924 INTRA-LIGAND FREE ENERGY PREDICTED BY IDOCK:   -0.21 KCAL/MOL
REMARK 927      BINDING AFFINITY PREDICTED BY RF-SCORE:    0.00 PKD
ROOT
HETATM    1  C   UNL     1     -11.016   6.153  68.419  1.00  0.00    -0.391 C  
HETATM    2  C   UNL     1     -10.577   6.825  69.744  1.00  0.00    -0.263 C  
HETATM    3  C   UNL     1      -9.425   5.974  70.316  1.00  0.00    -0.186 C  
ENDROOT
BRANCH   2   4
HETATM    4  C   UNL     1     -11.785   6.883  70.729  1.00  0.00    -0.369 C  
HETATM    5  O   UNL     1     -11.740   5.837  71.708  1.00  0.00    -0.172 OA 
HETATM    6  H   UNL     1     -12.475   5.871  72.308  1.00  0.00     0.000 HD 
BRANCH   4   7
HETATM    7  C   UNL     1     -11.938   8.232  71.473  1.00  0.00    -0.296 C  
HETATM    8  O   UNL     1     -11.312   8.542  72.485  1.00  0.00    -0.368 OA 
HETATM    9  N   UNL     1     -12.820   9.109  70.874  1.00  0.00    -0.516 N  
HETATM   10  H   UNL     1     -13.297   8.838  70.014  1.00  0.00     0.000 HD 
BRANCH   9  11
HETATM   11  C   UNL     1     -13.073  10.411  71.455  1.00  0.00    -0.413 C  
BRANCH  11  12
HETATM   12  C   UNL     1     -12.250  11.530  70.825  1.00  0.00    -0.463 C  
BRANCH  12  13
HETATM   13  C   UNL     1     -12.640  12.929  71.283  1.00  0.00    -0.256 C  
HETATM   14  O   UNL     1     -11.737  13.879  70.722  1.00  0.00    -0.503 OA 
HETATM   15  H   UNL     1     -11.980  14.751  71.007  1.00  0.00     0.000 HD 
ENDBRANCH  12  13
ENDBRANCH  11  12
ENDBRANCH   9  11
ENDBRANCH   4   7
ENDBRANCH   2   4
BRANCH   2  16
HETATM   16  C   UNL     1     -10.105   8.265  69.407  1.00  0.00    -0.198 C  
HETATM   17  O   UNL     1     -10.857   8.834  68.341  1.00  0.00    -0.431 OA 
HETATM   18  H   UNL     1     -10.568   9.716  68.134  1.00  0.00     0.000 HD 
ENDBRANCH   2  16
TORSDOF 6
ENDMDL
MODEL      135
REMARK 921   NORMALIZED FREE ENERGY PREDICTED BY IDOCK:   -3.34 KCAL/MOL
REMARK 922        TOTAL FREE ENERGY PREDICTED BY IDOCK:   -5.03 KCAL/MOL
REMARK 923 INTER-LIGAND FREE ENERGY PREDICTED BY IDOCK:   -4.27 KCAL/MOL
REMARK 924 INTRA-LIGAND FREE ENERGY PREDICTED BY IDOCK:   -0.76 KCAL/MOL
REMARK 927      BINDING AFFINITY PREDICTED BY RF-SCORE:    0.00 PKD
ROOT
HETATM    1  C   UNL     1     -11.495   9.217  70.528  1.00  0.00    -0.296 C  
HETATM    2  C   UNL     1     -12.137   8.399  71.675  1.00  0.00    -0.359 C  
HETATM    3  C   UNL     1     -13.271   9.266  72.261  1.00  0.00    -0.535 C  
ENDROOT
BRANCH   2   4
HETATM    4  C   UNL     1     -11.059   8.068  72.752  1.00  0.00    -0.381 C  
HETATM    5  O   UNL     1     -11.343   6.849  73.451  1.00  0.00    -0.508 OA 
HETATM    6  H   UNL     1     -10.687   6.647  74.107  1.00  0.00     0.000 HD 
BRANCH   4   7
HETATM    7  C   UNL     1      -9.614   7.981  72.203  1.00  0.00    -0.215 C  
HETATM    8  O   UNL     1      -8.788   8.888  72.276  1.00  0.00    -0.397 OA 
HETATM    9  N   UNL     1      -9.294   6.757  71.651  1.00  0.00    -0.152 N  
HETATM   10  H   UNL     1      -9.989   6.010  71.638  1.00  0.00     0.000 HD 
BRANCH   9  11
HETATM   11  C   UNL     1      -7.980   6.523  71.090  1.00  0.00    -0.112 C  
BRANCH  11  12
HETATM   12  C   UNL     1      -7.892   5.253  70.250  1.00  0.00    -0.083 C  
BRANCH  12  13
HETATM   13  C   UNL     1      -8.958   5.142  69.168  1.00  0.00    -0.100 C  
HETATM   14  O   UNL     1     -10.178   4.689  69.750  1.00  0.00    -0.234 OA 
HETATM   15  H   UNL     1     -10.842   4.621  69.075  1.00  0.00     0.000 HD 
ENDBRANCH  12  13
ENDBRANCH  11  12
ENDBRANCH   9  11
ENDBRANCH   4   7
ENDBRANCH   2   4
BRANCH   2  16
HETATM   16  C   UNL     1     -12.689   7.084  71.062  1.00  0.00    -0.246 C  
HETATM   17  O   UNL     1     -12.032   6.749  69.845  1.00  0.00    -0.651 OA 
HETATM   18  H   UNL     1     -12.370   5.944  69.469  1.00  0.00     0.000 HD 
ENDBRANCH   2  16
TORSDOF 6
ENDMDL
MODEL      136
REMARK 921   NORMALIZED FREE ENERGY PREDICTED BY IDOCK:   -3.33 KCAL/MOL
REMARK 922        TOTAL FREE ENERGY PREDICTED BY IDOCK:   -5.03 KCAL/MOL
REMARK 923 INTER-LIGAND FREE ENERGY PREDICTED BY IDOCK:   -4.39 KCAL/MOL
REMARK 924 INTRA-LIGAND FREE ENERGY PREDICTED BY IDOCK:   -0.63 KCAL/MOL
REMARK 927      BINDING AFFINITY PREDICTED BY RF-SCORE:    0.00 PKD
ROOT
HETATM    1  C   UNL     1      -9.797  10.098  66.703  1.00  0.00    -0.253 C  
HETATM    2  C   UNL     1      -9.510   9.451  68.081  1.00  0.00    -0.146 C  
HETATM    3  C   UNL     1     -10.390   8.186  68.172  1.00  0.00    -0.251 C  
ENDROOT
BRANCH   2   4
HETATM    4  C   UNL     1      -9.850  10.463  69.217  1.00  0.00    -0.225 C  
HETATM    5  O   UNL     1      -9.373  11.785  68.931  1.00  0.00    -0.393 OA 
HETATM    6  H   UNL     1      -9.580  12.401  69.623  1.00  0.00     0.000 HD 
BRANCH   4   7
HETATM    7  C   UNL     1     -11.358  10.560  69.555  1.00  0.00    -0.278 C  
HETATM    8  O   UNL     1     -12.203  11.070  68.823  1.00  0.00    -0.546 OA 
HETATM    9  N   UNL     1     -11.705   9.970  70.755  1.00  0.00    -0.323 N  
HETATM   10  H   UNL     1     -10.988   9.521  71.324  1.00  0.00     0.000 HD 
BRANCH   9  11
HETATM   11  C   UNL     1     -13.079   9.982  71.211  1.00  0.00    -0.402 C  
BRANCH  11  12
HETATM   12  C   UNL     1     -13.482   8.721  71.968  1.00  0.00    -0.461 C  
BRANCH  12  13
HETATM   13  C   UNL     1     -12.586   7.518  71.703  1.00  0.00    -0.348 C  
HETATM   14  O   UNL     1     -12.758   7.089  70.354  1.00  0.00    -0.595 OA 
HETATM   15  H   UNL     1     -12.199   6.339  70.189  1.00  0.00     0.000 HD 
ENDBRANCH  12  13
ENDBRANCH  11  12
ENDBRANCH   9  11
ENDBRANCH   4   7
ENDBRANCH   2   4
BRANCH   2  16
HETATM   16  C   UNL     1      -8.000   9.095  68.128  1.00  0.00    -0.100 C  
HETATM   17  O   UNL     1      -7.330   9.765  69.189  1.00  0.00    -0.072 OA 
HETATM   18  H   UNL     1      -6.405   9.548  69.218  1.00  0.00     0.000 HD 
ENDBRANCH   2  16
TORSDOF 6
ENDMDL
MODEL      137
REMARK 921   NORMALIZED FREE ENERGY PREDICTED BY IDOCK:   -3.33 KCAL/MOL
REMARK 922        TOTAL FREE ENERGY PREDICTED BY IDOCK:   -5.02 KCAL/MOL
REMARK 923 INTER-LIGAND FREE ENERGY PREDICTED BY IDOCK:   -4.71 KCAL/MOL
REMARK 924 INTRA-LIGAND FREE ENERGY PREDICTED BY IDOCK:   -0.31 KCAL/MOL
REMARK 927      BINDING AFFINITY PREDICTED BY RF-SCORE:    0.00 PKD
ROOT
HETATM    1  C   UNL     1     -11.031   6.195  68.268  1.00  0.00    -0.397 C  
HETATM    2  C   UNL     1     -10.704   6.938  69.587  1.00  0.00    -0.276 C  
HETATM    3  C   UNL     1     -11.893   6.699  70.541  1.00  0.00    -0.430 C  
ENDROOT
BRANCH   2   4
HETATM    4  C   UNL     1     -10.504   8.458  69.299  1.00  0.00    -0.215 C  
HETATM    5  O   UNL     1     -11.148   8.872  68.087  1.00  0.00    -0.472 OA 
HETATM    6  H   UNL     1     -11.026   9.797  67.911  1.00  0.00     0.000 HD 
BRANCH   4   7
HETATM    7  C   UNL     1     -10.979   9.391  70.439  1.00  0.00    -0.266 C  
HETATM    8  O   UNL     1     -10.463   9.445  71.553  1.00  0.00    -0.337 OA 
HETATM    9  N   UNL     1     -12.026  10.221  70.088  1.00  0.00    -0.391 N  
HETATM   10  H   UNL     1     -12.409  10.180  69.144  1.00  0.00     0.000 HD 
BRANCH   9  11
HETATM   11  C   UNL     1     -12.584  11.149  71.050  1.00  0.00    -0.403 C  
BRANCH  11  12
HETATM   12  C   UNL     1     -12.379  12.613  70.674  1.00  0.00    -0.375 C  
BRANCH  12  13
HETATM   13  C   UNL     1     -11.901  12.832  69.245  1.00  0.00    -0.303 C  
HETATM   14  O   UNL     1     -12.349  14.106  68.788  1.00  0.00    -0.549 OA 
HETATM   15  H   UNL     1     -12.051  14.243  67.896  1.00  0.00     0.000 HD 
ENDBRANCH  12  13
ENDBRANCH  11  12
ENDBRANCH   9  11
ENDBRANCH   4   7
ENDBRANCH   2   4
BRANCH   2  16
HETATM   16  C   UNL     1      -9.392   6.333  70.154  1.00  0.00    -0.156 C  
HETATM   17  O   UNL     1      -8.555   7.328  70.732  1.00  0.00    -0.141 OA 
HETATM   18  H   UNL     1      -7.752   6.958  71.080  1.00  0.00     0.000 HD 
ENDBRANCH   2  16
TORSDOF 6
ENDMDL
MODEL      138
REMARK 921   NORMALIZED FREE ENERGY PREDICTED BY IDOCK:   -3.33 KCAL/MOL
REMARK 922        TOTAL FREE ENERGY PREDICTED BY IDOCK:   -5.02 KCAL/MOL
REMARK 923 INTER-LIGAND FREE ENERGY PREDICTED BY IDOCK:   -4.34 KCAL/MOL
REMARK 924 INTRA-LIGAND FREE ENERGY PREDICTED BY IDOCK:   -0.68 KCAL/MOL
REMARK 927      BINDING AFFINITY PREDICTED BY RF-SCORE:    0.00 PKD
ROOT
HETATM    1  C   UNL     1      -8.746  11.105  67.317  1.00  0.00    -0.139 C  
HETATM    2  C   UNL     1      -9.869  10.213  66.733  1.00  0.00    -0.247 C  
HETATM    3  C   UNL     1      -9.960  10.538  65.227  1.00  0.00    -0.364 C  
ENDROOT
BRANCH   2   4
HETATM    4  C   UNL     1     -11.214  10.516  67.463  1.00  0.00    -0.224 C  
HETATM    5  O   UNL     1     -11.343   9.790  68.692  1.00  0.00    -0.481 OA 
HETATM    6  H   UNL     1     -12.161   9.975  69.137  1.00  0.00     0.000 HD 
BRANCH   4   7
HETATM    7  C   UNL     1     -11.452  12.016  67.763  1.00  0.00    -0.325 C  
HETATM    8  O   UNL     1     -11.271  12.542  68.859  1.00  0.00    -0.251 OA 
HETATM    9  N   UNL     1     -11.848  12.755  66.666  1.00  0.00    -0.401 N  
HETATM   10  H   UNL     1     -11.954  12.297  65.760  1.00  0.00     0.000 HD 
BRANCH   9  11
HETATM   11  C   UNL     1     -12.114  14.173  66.789  1.00  0.00    -0.442 C  
BRANCH  11  12
HETATM   12  C   UNL     1     -11.161  15.045  65.979  1.00  0.00    -0.310 C  
BRANCH  12  13
HETATM   13  C   UNL     1      -9.704  14.951  66.411  1.00  0.00    -0.285 C  
HETATM   14  O   UNL     1      -9.642  14.767  67.824  1.00  0.00    -0.205 OA 
HETATM   15  H   UNL     1      -8.733  14.708  68.094  1.00  0.00     0.000 HD 
ENDBRANCH  12  13
ENDBRANCH  11  12
ENDBRANCH   9  11
ENDBRANCH   4   7
ENDBRANCH   2   4
BRANCH   2  16
HETATM   16  C   UNL     1      -9.464   8.733  66.970  1.00  0.00    -0.169 C  
HETATM   17  O   UNL     1     -10.435   7.829  66.455  1.00  0.00    -0.492 OA 
HETATM   18  H   UNL     1     -10.188   6.923  66.600  1.00  0.00     0.000 HD 
ENDBRANCH   2  16
TORSDOF 6
ENDMDL
MODEL      139
REMARK 921   NORMALIZED FREE ENERGY PREDICTED BY IDOCK:   -3.31 KCAL/MOL
REMARK 922        TOTAL FREE ENERGY PREDICTED BY IDOCK:   -5.00 KCAL/MOL
REMARK 923 INTER-LIGAND FREE ENERGY PREDICTED BY IDOCK:   -4.28 KCAL/MOL
REMARK 924 INTRA-LIGAND FREE ENERGY PREDICTED BY IDOCK:   -0.72 KCAL/MOL
REMARK 927      BINDING AFFINITY PREDICTED BY RF-SCORE:    0.00 PKD
ROOT
HETATM    1  C   UNL     1      -9.666   5.181  68.523  1.00  0.00    -0.205 C  
HETATM    2  C   UNL     1      -9.364   5.935  67.204  1.00  0.00    -0.118 C  
HETATM    3  C   UNL     1      -8.014   6.655  67.400  1.00  0.00    -0.114 C  
ENDROOT
BRANCH   2   4
HETATM    4  C   UNL     1     -10.511   6.948  66.904  1.00  0.00    -0.279 C  
HETATM    5  O   UNL     1     -11.786   6.482  67.366  1.00  0.00    -0.618 OA 
HETATM    6  H   UNL     1     -12.484   7.099  67.183  1.00  0.00     0.000 HD 
BRANCH   4   7
HETATM    7  C   UNL     1     -10.278   8.365  67.483  1.00  0.00    -0.243 C  
HETATM    8  O   UNL     1     -10.292   8.636  68.682  1.00  0.00    -0.196 OA 
HETATM    9  N   UNL     1      -9.997   9.324  66.530  1.00  0.00    -0.256 N  
HETATM   10  H   UNL     1      -9.956   9.062  65.546  1.00  0.00     0.000 HD 
BRANCH   9  11
HETATM   11  C   UNL     1      -9.760  10.699  66.918  1.00  0.00    -0.179 C  
BRANCH  11  12
HETATM   12  C   UNL     1     -10.928  11.630  66.607  1.00  0.00    -0.349 C  
BRANCH  12  13
HETATM   13  C   UNL     1     -11.755  12.025  67.823  1.00  0.00    -0.309 C  
HETATM   14  O   UNL     1     -12.223  10.848  68.479  1.00  0.00    -0.799 OA 
HETATM   15  H   UNL     1     -12.738  11.095  69.237  1.00  0.00     0.000 HD 
ENDBRANCH  12  13
ENDBRANCH  11  12
ENDBRANCH   9  11
ENDBRANCH   4   7
ENDBRANCH   2   4
BRANCH   2  16
HETATM   16  C   UNL     1      -9.284   4.879  66.069  1.00  0.00    -0.151 C  
HETATM   17  O   UNL     1     -10.537   4.240  65.849  1.00  0.00    -0.467 OA 
HETATM   18  H   UNL     1     -10.488   3.594  65.154  1.00  0.00     0.000 HD 
ENDBRANCH   2  16
TORSDOF 6
ENDMDL
MODEL      140
REMARK 921   NORMALIZED FREE ENERGY PREDICTED BY IDOCK:   -3.31 KCAL/MOL
REMARK 922        TOTAL FREE ENERGY PREDICTED BY IDOCK:   -4.99 KCAL/MOL
REMARK 923 INTER-LIGAND FREE ENERGY PREDICTED BY IDOCK:   -4.92 KCAL/MOL
REMARK 924 INTRA-LIGAND FREE ENERGY PREDICTED BY IDOCK:   -0.07 KCAL/MOL
REMARK 927      BINDING AFFINITY PREDICTED BY RF-SCORE:    0.00 PKD
ROOT
HETATM    1  C   UNL     1     -12.066  14.188  66.338  1.00  0.00    -0.475 C  
HETATM    2  C   UNL     1     -10.972  13.093  66.280  1.00  0.00    -0.295 C  
HETATM    3  C   UNL     1     -10.670  12.842  64.788  1.00  0.00    -0.354 C  
ENDROOT
BRANCH   2   4
HETATM    4  C   UNL     1     -11.487  11.798  66.981  1.00  0.00    -0.298 C  
HETATM    5  O   UNL     1     -10.578  10.700  66.834  1.00  0.00    -0.246 OA 
HETATM    6  H   UNL     1     -10.891   9.912  67.261  1.00  0.00     0.000 HD 
BRANCH   4   7
HETATM    7  C   UNL     1     -11.795  11.969  68.489  1.00  0.00    -0.311 C  
HETATM    8  O   UNL     1     -11.941  13.052  69.050  1.00  0.00    -0.303 OA 
HETATM    9  N   UNL     1     -11.947  10.777  69.171  1.00  0.00    -0.500 N  
HETATM   10  H   UNL     1     -11.856   9.893  68.671  1.00  0.00     0.000 HD 
BRANCH   9  11
HETATM   11  C   UNL     1     -12.233  10.773  70.590  1.00  0.00    -0.379 C  
BRANCH  11  12
HETATM   12  C   UNL     1     -12.020   9.415  71.251  1.00  0.00    -0.430 C  
BRANCH  12  13
HETATM   13  C   UNL     1     -10.574   9.122  71.630  1.00  0.00    -0.357 C  
HETATM   14  O   UNL     1      -9.703   9.805  70.731  1.00  0.00    -0.321 OA 
HETATM   15  H   UNL     1      -8.801   9.623  70.968  1.00  0.00     0.000 HD 
ENDBRANCH  12  13
ENDBRANCH  11  12
ENDBRANCH   9  11
ENDBRANCH   4   7
ENDBRANCH   2   4
BRANCH   2  16
HETATM   16  C   UNL     1      -9.725  13.635  67.027  1.00  0.00    -0.251 C  
HETATM   17  O   UNL     1      -8.538  12.951  66.644  1.00  0.00    -0.402 OA 
HETATM   18  H   UNL     1      -7.773  13.283  67.101  1.00  0.00     0.000 HD 
ENDBRANCH   2  16
TORSDOF 6
ENDMDL
MODEL      141
REMARK 921   NORMALIZED FREE ENERGY PREDICTED BY IDOCK:   -3.30 KCAL/MOL
REMARK 922        TOTAL FREE ENERGY PREDICTED BY IDOCK:   -4.98 KCAL/MOL
REMARK 923 INTER-LIGAND FREE ENERGY PREDICTED BY IDOCK:   -4.95 KCAL/MOL
REMARK 924 INTRA-LIGAND FREE ENERGY PREDICTED BY IDOCK:   -0.03 KCAL/MOL
REMARK 927      BINDING AFFINITY PREDICTED BY RF-SCORE:    0.00 PKD
ROOT
HETATM    1  C   UNL     1      -8.876  10.082  69.274  1.00  0.00    -0.184 C  
HETATM    2  C   UNL     1      -9.765   8.990  69.919  1.00  0.00    -0.194 C  
HETATM    3  C   UNL     1      -9.298   7.637  69.343  1.00  0.00    -0.152 C  
ENDROOT
BRANCH   2   4
HETATM    4  C   UNL     1     -11.263   9.265  69.582  1.00  0.00    -0.041 C  
HETATM    5  O   UNL     1     -12.138   8.912  70.661  1.00  0.00    -0.471 OA 
HETATM    6  H   UNL     1     -13.050   9.079  70.457  1.00  0.00     0.000 HD 
BRANCH   4   7
HETATM    7  C   UNL     1     -11.567  10.727  69.176  1.00  0.00    -0.305 C  
HETATM    8  O   UNL     1     -11.735  11.106  68.018  1.00  0.00    -0.517 OA 
HETATM    9  N   UNL     1     -11.687  11.595  70.243  1.00  0.00    -0.492 N  
HETATM   10  H   UNL     1     -11.580  11.244  71.195  1.00  0.00     0.000 HD 
BRANCH   9  11
HETATM   11  C   UNL     1     -11.967  12.999  70.023  1.00  0.00    -0.312 C  
BRANCH  11  12
HETATM   12  C   UNL     1     -12.558  13.701  71.241  1.00  0.00    -0.435 C  
BRANCH  12  13
HETATM   13  C   UNL     1     -12.516  15.221  71.170  1.00  0.00    -0.375 C  
HETATM   14  O   UNL     1     -13.683  15.695  70.501  1.00  0.00    -0.835 OA 
HETATM   15  H   UNL     1     -13.657  16.644  70.457  1.00  0.00     0.000 HD 
ENDBRANCH  12  13
ENDBRANCH  11  12
ENDBRANCH   9  11
ENDBRANCH   4   7
ENDBRANCH   2   4
BRANCH   2  16
HETATM   16  C   UNL     1      -9.550   9.056  71.455  1.00  0.00    -0.285 C  
HETATM   17  O   UNL     1      -8.169   9.036  71.799  1.00  0.00    -0.351 OA 
HETATM   18  H   UNL     1      -8.037   9.076  72.739  1.00  0.00     0.000 HD 
ENDBRANCH   2  16
TORSDOF 6
ENDMDL
MODEL      142
REMARK 921   NORMALIZED FREE ENERGY PREDICTED BY IDOCK:   -3.29 KCAL/MOL
REMARK 922        TOTAL FREE ENERGY PREDICTED BY IDOCK:   -4.97 KCAL/MOL
REMARK 923 INTER-LIGAND FREE ENERGY PREDICTED BY IDOCK:   -4.69 KCAL/MOL
REMARK 924 INTRA-LIGAND FREE ENERGY PREDICTED BY IDOCK:   -0.28 KCAL/MOL
REMARK 927      BINDING AFFINITY PREDICTED BY RF-SCORE:    0.00 PKD
ROOT
HETATM    1  C   UNL     1     -11.855   9.419  71.687  1.00  0.00    -0.464 C  
HETATM    2  C   UNL     1     -10.870   8.224  71.663  1.00  0.00    -0.320 C  
HETATM    3  C   UNL     1      -9.453   8.816  71.510  1.00  0.00    -0.341 C  
ENDROOT
BRANCH   2   4
HETATM    4  C   UNL     1     -11.222   7.278  70.474  1.00  0.00    -0.279 C  
HETATM    5  O   UNL     1     -12.626   6.998  70.396  1.00  0.00    -0.618 OA 
HETATM    6  H   UNL     1     -12.840   6.422  69.672  1.00  0.00     0.000 HD 
BRANCH   4   7
HETATM    7  C   UNL     1     -10.757   7.793  69.090  1.00  0.00    -0.126 C  
HETATM    8  O   UNL     1     -10.828   8.964  68.725  1.00  0.00    -0.135 OA 
HETATM    9  N   UNL     1     -10.194   6.820  68.287  1.00  0.00    -0.164 N  
HETATM   10  H   UNL     1     -10.115   5.863  68.631  1.00  0.00     0.000 HD 
BRANCH   9  11
HETATM   11  C   UNL     1      -9.716   7.147  66.960  1.00  0.00    -0.170 C  
BRANCH  11  12
HETATM   12  C   UNL     1      -9.146   5.950  66.205  1.00  0.00    -0.157 C  
BRANCH  12  13
HETATM   13  C   UNL     1     -10.095   4.764  66.103  1.00  0.00    -0.262 C  
HETATM   14  O   UNL     1     -11.411   5.235  65.819  1.00  0.00    -0.792 OA 
HETATM   15  H   UNL     1     -12.003   4.495  65.755  1.00  0.00     0.000 HD 
ENDBRANCH  12  13
ENDBRANCH  11  12
ENDBRANCH   9  11
ENDBRANCH   4   7
ENDBRANCH   2   4
BRANCH   2  16
HETATM   16  C   UNL     1     -11.023   7.461  73.005  1.00  0.00    -0.374 C  
HETATM   17  O   UNL     1     -11.669   6.205  72.831  1.00  0.00    -0.490 OA 
HETATM   18  H   UNL     1     -11.763   5.737  73.653  1.00  0.00     0.000 HD 
ENDBRANCH   2  16
TORSDOF 6
ENDMDL
MODEL      143
REMARK 921   NORMALIZED FREE ENERGY PREDICTED BY IDOCK:   -3.28 KCAL/MOL
REMARK 922        TOTAL FREE ENERGY PREDICTED BY IDOCK:   -4.96 KCAL/MOL
REMARK 923 INTER-LIGAND FREE ENERGY PREDICTED BY IDOCK:   -4.73 KCAL/MOL
REMARK 924 INTRA-LIGAND FREE ENERGY PREDICTED BY IDOCK:   -0.23 KCAL/MOL
REMARK 927      BINDING AFFINITY PREDICTED BY RF-SCORE:    0.00 PKD
ROOT
HETATM    1  C   UNL     1     -12.150   6.677  70.719  1.00  0.00    -0.364 C  
HETATM    2  C   UNL     1     -11.019   6.737  71.776  1.00  0.00    -0.266 C  
HETATM    3  C   UNL     1     -11.332   5.651  72.826  1.00  0.00    -0.350 C  
ENDROOT
BRANCH   2   4
HETATM    4  C   UNL     1     -10.977   8.156  72.421  1.00  0.00    -0.345 C  
HETATM    5  O   UNL     1      -9.697   8.785  72.273  1.00  0.00    -0.301 OA 
HETATM    6  H   UNL     1      -9.671   9.649  72.666  1.00  0.00     0.000 HD 
BRANCH   4   7
HETATM    7  C   UNL     1     -12.055   9.131  71.889  1.00  0.00    -0.378 C  
HETATM    8  O   UNL     1     -13.230   9.131  72.249  1.00  0.00    -0.408 OA 
HETATM    9  N   UNL     1     -11.577  10.061  70.987  1.00  0.00    -0.372 N  
HETATM   10  H   UNL     1     -10.589  10.060  70.735  1.00  0.00     0.000 HD 
BRANCH   9  11
HETATM   11  C   UNL     1     -12.468  11.039  70.397  1.00  0.00    -0.313 C  
BRANCH  11  12
HETATM   12  C   UNL     1     -11.742  12.138  69.627  1.00  0.00    -0.396 C  
BRANCH  12  13
HETATM   13  C   UNL     1     -12.145  13.552  70.022  1.00  0.00    -0.341 C  
HETATM   14  O   UNL     1     -12.514  14.282  68.854  1.00  0.00    -0.563 OA 
HETATM   15  H   UNL     1     -12.766  15.164  69.101  1.00  0.00     0.000 HD 
ENDBRANCH  12  13
ENDBRANCH  11  12
ENDBRANCH   9  11
ENDBRANCH   4   7
ENDBRANCH   2   4
BRANCH   2  16
HETATM   16  C   UNL     1      -9.679   6.450  71.047  1.00  0.00    -0.176 C  
HETATM   17  O   UNL     1      -9.607   7.113  69.790  1.00  0.00    -0.156 OA 
HETATM   18  H   UNL     1      -8.786   6.938  69.343  1.00  0.00     0.000 HD 
ENDBRANCH   2  16
TORSDOF 6
ENDMDL
MODEL      144
REMARK 921   NORMALIZED FREE ENERGY PREDICTED BY IDOCK:   -3.27 KCAL/MOL
REMARK 922        TOTAL FREE ENERGY PREDICTED BY IDOCK:   -4.95 KCAL/MOL
REMARK 923 INTER-LIGAND FREE ENERGY PREDICTED BY IDOCK:   -4.70 KCAL/MOL
REMARK 924 INTRA-LIGAND FREE ENERGY PREDICTED BY IDOCK:   -0.24 KCAL/MOL
REMARK 927      BINDING AFFINITY PREDICTED BY RF-SCORE:    0.00 PKD
ROOT
HETATM    1  C   UNL     1     -11.542  15.388  67.077  1.00  0.00    -0.021 C  
HETATM    2  C   UNL     1     -10.065  15.389  67.541  1.00  0.00    -0.233 C  
HETATM    3  C   UNL     1      -9.198  15.244  66.273  1.00  0.00    -0.350 C  
ENDROOT
BRANCH   2   4
HETATM    4  C   UNL     1      -9.824  14.208  68.532  1.00  0.00    -0.230 C  
HETATM    5  O   UNL     1      -9.058  14.604  69.676  1.00  0.00    -0.406 OA 
HETATM    6  H   UNL     1      -8.911  13.885  70.279  1.00  0.00     0.000 HD 
BRANCH   4   7
HETATM    7  C   UNL     1     -11.119  13.523  69.034  1.00  0.00    -0.250 C  
HETATM    8  O   UNL     1     -11.719  12.640  68.424  1.00  0.00    -0.298 OA 
HETATM    9  N   UNL     1     -11.538  13.954  70.277  1.00  0.00    -0.488 N  
HETATM   10  H   UNL     1     -10.998  14.662  70.776  1.00  0.00     0.000 HD 
BRANCH   9  11
HETATM   11  C   UNL     1     -12.737  13.409  70.879  1.00  0.00    -0.272 C  
BRANCH  11  12
HETATM   12  C   UNL     1     -13.143  14.111  72.171  1.00  0.00    -0.489 C  
BRANCH  12  13
HETATM   13  C   UNL     1     -13.818  15.461  71.966  1.00  0.00    -0.522 C  
HETATM   14  O   UNL     1     -13.341  16.048  70.758  1.00  0.00    -0.594 OA 
HETATM   15  H   UNL     1     -13.762  16.890  70.630  1.00  0.00     0.000 HD 
ENDBRANCH  12  13
ENDBRANCH  11  12
ENDBRANCH   9  11
ENDBRANCH   4   7
ENDBRANCH   2   4
BRANCH   2  16
HETATM   16  C   UNL     1      -9.799  16.739  68.258  1.00  0.00    -0.257 C  
HETATM   17  O   UNL     1     -10.971  17.542  68.329  1.00  0.00    -0.290 OA 
HETATM   18  H   UNL     1     -10.809  18.369  68.768  1.00  0.00     0.000 HD 
ENDBRANCH   2  16
TORSDOF 6
ENDMDL
MODEL      145
REMARK 921   NORMALIZED FREE ENERGY PREDICTED BY IDOCK:   -3.26 KCAL/MOL
REMARK 922        TOTAL FREE ENERGY PREDICTED BY IDOCK:   -4.93 KCAL/MOL
REMARK 923 INTER-LIGAND FREE ENERGY PREDICTED BY IDOCK:   -4.14 KCAL/MOL
REMARK 924 INTRA-LIGAND FREE ENERGY PREDICTED BY IDOCK:   -0.79 KCAL/MOL
REMARK 927      BINDING AFFINITY PREDICTED BY RF-SCORE:    0.00 PKD
ROOT
HETATM    1  C   UNL     1      -8.371   7.334  67.282  1.00  0.00    -0.119 C  
HETATM    2  C   UNL     1      -9.577   7.796  68.138  1.00  0.00    -0.161 C  
HETATM    3  C   UNL     1     -10.617   8.385  67.163  1.00  0.00    -0.326 C  
ENDROOT
BRANCH   2   4
HETATM    4  C   UNL     1      -9.106   8.860  69.178  1.00  0.00    -0.141 C  
HETATM    5  O   UNL     1      -7.920   9.547  68.756  1.00  0.00    -0.086 OA 
HETATM    6  H   UNL     1      -7.634  10.194  69.389  1.00  0.00     0.000 HD 
BRANCH   4   7
HETATM    7  C   UNL     1     -10.176   9.921  69.533  1.00  0.00    -0.225 C  
HETATM    8  O   UNL     1     -10.232  11.044  69.037  1.00  0.00    -0.210 OA 
HETATM    9  N   UNL     1     -11.121   9.485  70.441  1.00  0.00    -0.259 N  
HETATM   10  H   UNL     1     -11.070   8.535  70.807  1.00  0.00     0.000 HD 
BRANCH   9  11
HETATM   11  C   UNL     1     -12.185  10.366  70.876  1.00  0.00    -0.383 C  
BRANCH  11  12
HETATM   12  C   UNL     1     -13.187   9.697  71.811  1.00  0.00    -0.520 C  
BRANCH  12  13
HETATM   13  C   UNL     1     -12.906   8.224  72.079  1.00  0.00    -0.340 C  
HETATM   14  O   UNL     1     -13.366   7.447  70.976  1.00  0.00    -0.595 OA 
HETATM   15  H   UNL     1     -13.191   6.529  71.143  1.00  0.00     0.000 HD 
ENDBRANCH  12  13
ENDBRANCH  11  12
ENDBRANCH   9  11
ENDBRANCH   4   7
ENDBRANCH   2   4
BRANCH   2  16
HETATM   16  C   UNL     1     -10.134   6.550  68.876  1.00  0.00    -0.164 C  
HETATM   17  O   UNL     1     -11.543   6.629  69.062  1.00  0.00    -0.611 OA 
HETATM   18  H   UNL     1     -11.885   5.866  69.514  1.00  0.00     0.000 HD 
ENDBRANCH   2  16
TORSDOF 6
ENDMDL
MODEL      146
REMARK 921   NORMALIZED FREE ENERGY PREDICTED BY IDOCK:   -3.26 KCAL/MOL
REMARK 922        TOTAL FREE ENERGY PREDICTED BY IDOCK:   -4.92 KCAL/MOL
REMARK 923 INTER-LIGAND FREE ENERGY PREDICTED BY IDOCK:   -4.49 KCAL/MOL
REMARK 924 INTRA-LIGAND FREE ENERGY PREDICTED BY IDOCK:   -0.44 KCAL/MOL
REMARK 927      BINDING AFFINITY PREDICTED BY RF-SCORE:    0.00 PKD
ROOT
HETATM    1  C   UNL     1     -12.365   8.638  72.369  1.00  0.00    -0.426 C  
HETATM    2  C   UNL     1     -11.221   7.759  71.805  1.00  0.00    -0.298 C  
HETATM    3  C   UNL     1     -10.285   8.696  71.014  1.00  0.00    -0.278 C  
ENDROOT
BRANCH   2   4
HETATM    4  C   UNL     1     -11.817   6.646  70.889  1.00  0.00    -0.377 C  
HETATM    5  O   UNL     1     -13.124   6.981  70.403  1.00  0.00    -0.393 OA 
HETATM    6  H   UNL     1     -13.487   6.304  69.846  1.00  0.00     0.000 HD 
BRANCH   4   7
HETATM    7  C   UNL     1     -10.932   6.278  69.673  1.00  0.00    -0.374 C  
HETATM    8  O   UNL     1      -9.874   5.657  69.747  1.00  0.00    -0.162 OA 
HETATM    9  N   UNL     1     -11.457   6.667  68.457  1.00  0.00    -0.559 N  
HETATM   10  H   UNL     1     -12.356   7.148  68.424  1.00  0.00     0.000 HD 
BRANCH   9  11
HETATM   11  C   UNL     1     -10.742   6.398  67.227  1.00  0.00    -0.353 C  
BRANCH  11  12
HETATM   12  C   UNL     1     -10.010   7.613  66.669  1.00  0.00    -0.284 C  
BRANCH  12  13
HETATM   13  C   UNL     1      -8.518   7.641  66.974  1.00  0.00    -0.125 C  
HETATM   14  O   UNL     1      -8.284   8.476  68.106  1.00  0.00    -0.117 OA 
HETATM   15  H   UNL     1      -7.354   8.493  68.297  1.00  0.00     0.000 HD 
ENDBRANCH  12  13
ENDBRANCH  11  12
ENDBRANCH   9  11
ENDBRANCH   4   7
ENDBRANCH   2   4
BRANCH   2  16
HETATM   16  C   UNL     1     -10.488   7.111  73.010  1.00  0.00    -0.292 C  
HETATM   17  O   UNL     1     -11.208   6.002  73.536  1.00  0.00    -0.449 OA 
HETATM   18  H   UNL     1     -10.759   5.606  74.274  1.00  0.00     0.000 HD 
ENDBRANCH   2  16
TORSDOF 6
ENDMDL
MODEL      147
REMARK 921   NORMALIZED FREE ENERGY PREDICTED BY IDOCK:   -3.25 KCAL/MOL
REMARK 922        TOTAL FREE ENERGY PREDICTED BY IDOCK:   -4.92 KCAL/MOL
REMARK 923 INTER-LIGAND FREE ENERGY PREDICTED BY IDOCK:   -4.84 KCAL/MOL
REMARK 924 INTRA-LIGAND FREE ENERGY PREDICTED BY IDOCK:   -0.07 KCAL/MOL
REMARK 927      BINDING AFFINITY PREDICTED BY RF-SCORE:    0.00 PKD
ROOT
HETATM    1  C   UNL     1     -10.542  14.717  68.419  1.00  0.00    -0.242 C  
HETATM    2  C   UNL     1     -10.468  13.941  67.080  1.00  0.00    -0.269 C  
HETATM    3  C   UNL     1      -9.560  12.718  67.323  1.00  0.00    -0.208 C  
ENDROOT
BRANCH   2   4
HETATM    4  C   UNL     1      -9.889  14.868  65.967  1.00  0.00    -0.318 C  
HETATM    5  O   UNL     1     -10.887  15.727  65.400  1.00  0.00    -0.360 OA 
HETATM    6  H   UNL     1     -10.535  16.291  64.722  1.00  0.00     0.000 HD 
BRANCH   4   7
HETATM    7  C   UNL     1      -8.700  15.747  66.424  1.00  0.00    -0.337 C  
HETATM    8  O   UNL     1      -7.666  15.311  66.924  1.00  0.00    -0.199 OA 
HETATM    9  N   UNL     1      -8.870  17.095  66.176  1.00  0.00    -0.225 N  
HETATM   10  H   UNL     1      -9.724  17.424  65.726  1.00  0.00     0.000 HD 
BRANCH   9  11
HETATM   11  C   UNL     1      -7.845  18.047  66.552  1.00  0.00    -0.260 C  
BRANCH  11  12
HETATM   12  C   UNL     1      -8.149  19.475  66.112  1.00  0.00    -0.342 C  
BRANCH  12  13
HETATM   13  C   UNL     1      -9.607  19.884  66.274  1.00  0.00    -0.425 C  
HETATM   14  O   UNL     1      -9.677  21.097  67.022  1.00  0.00    -0.632 OA 
HETATM   15  H   UNL     1     -10.586  21.352  67.123  1.00  0.00     0.000 HD 
ENDBRANCH  12  13
ENDBRANCH  11  12
ENDBRANCH   9  11
ENDBRANCH   4   7
ENDBRANCH   2   4
BRANCH   2  16
HETATM   16  C   UNL     1     -11.912  13.510  66.708  1.00  0.00    -0.404 C  
HETATM   17  O   UNL     1     -12.045  12.094  66.655  1.00  0.00    -0.622 OA 
HETATM   18  H   UNL     1     -12.929  11.829  66.427  1.00  0.00     0.000 HD 
ENDBRANCH   2  16
TORSDOF 6
ENDMDL
MODEL      148
REMARK 921   NORMALIZED FREE ENERGY PREDICTED BY IDOCK:   -3.24 KCAL/MOL
REMARK 922        TOTAL FREE ENERGY PREDICTED BY IDOCK:   -4.91 KCAL/MOL
REMARK 923 INTER-LIGAND FREE ENERGY PREDICTED BY IDOCK:   -4.78 KCAL/MOL
REMARK 924 INTRA-LIGAND FREE ENERGY PREDICTED BY IDOCK:   -0.13 KCAL/MOL
REMARK 927      BINDING AFFINITY PREDICTED BY RF-SCORE:    0.00 PKD
ROOT
HETATM    1  C   UNL     1     -10.051  10.354  64.758  1.00  0.00    -0.387 C  
HETATM    2  C   UNL     1     -10.269  11.050  66.125  1.00  0.00    -0.298 C  
HETATM    3  C   UNL     1     -10.636   9.943  67.136  1.00  0.00    -0.295 C  
ENDROOT
BRANCH   2   4
HETATM    4  C   UNL     1     -11.410  12.106  66.000  1.00  0.00    -0.358 C  
HETATM    5  O   UNL     1     -11.952  12.476  67.275  1.00  0.00    -0.474 OA 
HETATM    6  H   UNL     1     -12.647  13.119  67.199  1.00  0.00     0.000 HD 
BRANCH   4   7
HETATM    7  C   UNL     1     -11.001  13.402  65.258  1.00  0.00    -0.295 C  
HETATM    8  O   UNL     1     -10.722  13.459  64.062  1.00  0.00    -0.342 OA 
HETATM    9  N   UNL     1     -11.020  14.534  66.049  1.00  0.00    -0.317 N  
HETATM   10  H   UNL     1     -11.292  14.462  67.029  1.00  0.00     0.000 HD 
BRANCH   9  11
HETATM   11  C   UNL     1     -10.657  15.823  65.498  1.00  0.00    -0.406 C  
BRANCH  11  12
HETATM   12  C   UNL     1     -10.460  16.904  66.555  1.00  0.00    -0.253 C  
BRANCH  12  13
HETATM   13  C   UNL     1     -10.516  18.327  66.015  1.00  0.00    -0.361 C  
HETATM   14  O   UNL     1     -11.016  19.197  67.028  1.00  0.00    -0.426 OA 
HETATM   15  H   UNL     1     -11.050  20.085  66.691  1.00  0.00     0.000 HD 
ENDBRANCH  12  13
ENDBRANCH  11  12
ENDBRANCH   9  11
ENDBRANCH   4   7
ENDBRANCH   2   4
BRANCH   2  16
HETATM   16  C   UNL     1      -8.941  11.753  66.512  1.00  0.00    -0.196 C  
HETATM   17  O   UNL     1      -7.859  11.334  65.688  1.00  0.00    -0.370 OA 
HETATM   18  H   UNL     1      -7.045  11.764  65.924  1.00  0.00     0.000 HD 
ENDBRANCH   2  16
TORSDOF 6
ENDMDL
MODEL      149
REMARK 921   NORMALIZED FREE ENERGY PREDICTED BY IDOCK:   -3.24 KCAL/MOL
REMARK 922        TOTAL FREE ENERGY PREDICTED BY IDOCK:   -4.90 KCAL/MOL
REMARK 923 INTER-LIGAND FREE ENERGY PREDICTED BY IDOCK:   -4.70 KCAL/MOL
REMARK 924 INTRA-LIGAND FREE ENERGY PREDICTED BY IDOCK:   -0.21 KCAL/MOL
REMARK 927      BINDING AFFINITY PREDICTED BY RF-SCORE:    0.00 PKD
ROOT
HETATM    1  C   UNL     1      -8.944   4.997  67.705  1.00  0.00    -0.117 C  
HETATM    2  C   UNL     1      -9.292   6.484  67.966  1.00  0.00    -0.108 C  
HETATM    3  C   UNL     1      -9.961   6.549  69.355  1.00  0.00    -0.178 C  
ENDROOT
BRANCH   2   4
HETATM    4  C   UNL     1     -10.250   7.003  66.850  1.00  0.00    -0.248 C  
HETATM    5  O   UNL     1     -11.575   6.471  66.977  1.00  0.00    -0.729 OA 
HETATM    6  H   UNL     1     -12.158   6.786  66.297  1.00  0.00     0.000 HD 
BRANCH   4   7
HETATM    7  C   UNL     1     -10.358   8.545  66.768  1.00  0.00    -0.276 C  
HETATM    8  O   UNL     1     -10.770   9.262  67.678  1.00  0.00    -0.269 OA 
HETATM    9  N   UNL     1      -9.897   9.080  65.581  1.00  0.00    -0.465 N  
HETATM   10  H   UNL     1      -9.526   8.463  64.859  1.00  0.00     0.000 HD 
BRANCH   9  11
HETATM   11  C   UNL     1      -9.937  10.510  65.353  1.00  0.00    -0.289 C  
BRANCH  11  12
HETATM   12  C   UNL     1     -10.269  10.888  63.913  1.00  0.00    -0.418 C  
BRANCH  12  13
HETATM   13  C   UNL     1     -11.367  11.934  63.778  1.00  0.00    -0.448 C  
HETATM   14  O   UNL     1     -12.401  11.427  62.937  1.00  0.00    -0.954 OA 
HETATM   15  H   UNL     1     -13.086  12.079  62.852  1.00  0.00     0.000 HD 
ENDBRANCH  12  13
ENDBRANCH  11  12
ENDBRANCH   9  11
ENDBRANCH   4   7
ENDBRANCH   2   4
BRANCH   2  16
HETATM   16  C   UNL     1      -7.966   7.289  67.937  1.00  0.00    -0.119 C  
HETATM   17  O   UNL     1      -7.361   7.269  66.649  1.00  0.00    -0.077 OA 
HETATM   18  H   UNL     1      -6.548   7.762  66.632  1.00  0.00     0.000 HD 
ENDBRANCH   2  16
TORSDOF 6
ENDMDL
MODEL      150
REMARK 921   NORMALIZED FREE ENERGY PREDICTED BY IDOCK:   -3.24 KCAL/MOL
REMARK 922        TOTAL FREE ENERGY PREDICTED BY IDOCK:   -4.90 KCAL/MOL
REMARK 923 INTER-LIGAND FREE ENERGY PREDICTED BY IDOCK:   -4.56 KCAL/MOL
REMARK 924 INTRA-LIGAND FREE ENERGY PREDICTED BY IDOCK:   -0.34 KCAL/MOL
REMARK 927      BINDING AFFINITY PREDICTED BY RF-SCORE:    0.00 PKD
ROOT
HETATM    1  C   UNL     1      -8.898  11.771  68.252  1.00  0.00    -0.172 C  
HETATM    2  C   UNL     1      -8.818  10.397  67.542  1.00  0.00    -0.134 C  
HETATM    3  C   UNL     1      -7.639  10.474  66.550  1.00  0.00    -0.128 C  
ENDROOT
BRANCH   2   4
HETATM    4  C   UNL     1     -10.163  10.108  66.805  1.00  0.00    -0.228 C  
HETATM    5  O   UNL     1     -10.753   8.868  67.215  1.00  0.00    -0.362 OA 
HETATM    6  H   UNL     1     -11.571   8.692  66.767  1.00  0.00     0.000 HD 
BRANCH   4   7
HETATM    7  C   UNL     1     -11.227  11.222  66.960  1.00  0.00    -0.255 C  
HETATM    8  O   UNL     1     -11.987  11.328  67.920  1.00  0.00    -0.630 OA 
HETATM    9  N   UNL     1     -11.229  12.146  65.934  1.00  0.00    -0.326 N  
HETATM   10  H   UNL     1     -10.561  12.053  65.168  1.00  0.00     0.000 HD 
BRANCH   9  11
HETATM   11  C   UNL     1     -12.171  13.245  65.934  1.00  0.00    -0.441 C  
BRANCH  11  12
HETATM   12  C   UNL     1     -12.586  13.694  64.537  1.00  0.00    -0.248 C  
BRANCH  12  13
HETATM   13  C   UNL     1     -11.946  12.898  63.408  1.00  0.00    -0.537 C  
HETATM   14  O   UNL     1     -12.793  11.803  63.064  1.00  0.00    -0.844 OA 
HETATM   15  H   UNL     1     -12.394  11.306  62.359  1.00  0.00     0.000 HD 
ENDBRANCH  12  13
ENDBRANCH  11  12
ENDBRANCH   9  11
ENDBRANCH   4   7
ENDBRANCH   2   4
BRANCH   2  16
HETATM   16  C   UNL     1      -8.573   9.319  68.631  1.00  0.00    -0.127 C  
HETATM   17  O   UNL     1      -8.217   8.063  68.063  1.00  0.00    -0.126 OA 
HETATM   18  H   UNL     1      -8.067   7.402  68.730  1.00  0.00     0.000 HD 
ENDBRANCH   2  16
TORSDOF 6
ENDMDL
MODEL      151
REMARK 921   NORMALIZED FREE ENERGY PREDICTED BY IDOCK:   -3.23 KCAL/MOL
REMARK 922        TOTAL FREE ENERGY PREDICTED BY IDOCK:   -4.89 KCAL/MOL
REMARK 923 INTER-LIGAND FREE ENERGY PREDICTED BY IDOCK:   -4.36 KCAL/MOL
REMARK 924 INTRA-LIGAND FREE ENERGY PREDICTED BY IDOCK:   -0.53 KCAL/MOL
REMARK 927      BINDING AFFINITY PREDICTED BY RF-SCORE:    0.00 PKD
ROOT
HETATM    1  C   UNL     1     -12.610  13.052  65.085  1.00  0.00    -0.530 C  
HETATM    2  C   UNL     1     -11.262  12.753  65.788  1.00  0.00    -0.341 C  
HETATM    3  C   UNL     1     -11.601  12.123  67.155  1.00  0.00    -0.405 C  
ENDROOT
BRANCH   2   4
HETATM    4  C   UNL     1     -10.453  14.076  65.956  1.00  0.00    -0.304 C  
HETATM    5  O   UNL     1     -11.304  15.222  66.092  1.00  0.00    -0.285 OA 
HETATM    6  H   UNL     1     -10.812  16.027  66.195  1.00  0.00     0.000 HD 
BRANCH   4   7
HETATM    7  C   UNL     1      -9.461  14.070  67.145  1.00  0.00    -0.241 C  
HETATM    8  O   UNL     1      -9.751  14.397  68.293  1.00  0.00    -0.209 OA 
HETATM    9  N   UNL     1      -8.199  13.611  66.822  1.00  0.00    -0.396 N  
HETATM   10  H   UNL     1      -7.998  13.311  65.868  1.00  0.00     0.000 HD 
BRANCH   9  11
HETATM   11  C   UNL     1      -7.159  13.550  67.828  1.00  0.00    -0.159 C  
BRANCH  11  12
HETATM   12  C   UNL     1      -6.365  14.846  67.961  1.00  0.00    -0.163 C  
BRANCH  12  13
HETATM   13  C   UNL     1      -6.409  15.467  69.351  1.00  0.00    -0.138 C  
HETATM   14  O   UNL     1      -7.516  14.932  70.073  1.00  0.00    -0.351 OA 
HETATM   15  H   UNL     1      -7.543  15.319  70.939  1.00  0.00     0.000 HD 
ENDBRANCH  12  13
ENDBRANCH  11  12
ENDBRANCH   9  11
ENDBRANCH   4   7
ENDBRANCH   2   4
BRANCH   2  16
HETATM   16  C   UNL     1     -10.473  11.765  64.888  1.00  0.00    -0.287 C  
HETATM   17  O   UNL     1      -9.637  12.445  63.959  1.00  0.00    -0.554 OA 
HETATM   18  H   UNL     1      -9.153  11.840  63.408  1.00  0.00     0.000 HD 
ENDBRANCH   2  16
TORSDOF 6
ENDMDL
MODEL      152
REMARK 921   NORMALIZED FREE ENERGY PREDICTED BY IDOCK:   -3.22 KCAL/MOL
REMARK 922        TOTAL FREE ENERGY PREDICTED BY IDOCK:   -4.88 KCAL/MOL
REMARK 923 INTER-LIGAND FREE ENERGY PREDICTED BY IDOCK:   -4.68 KCAL/MOL
REMARK 924 INTRA-LIGAND FREE ENERGY PREDICTED BY IDOCK:   -0.20 KCAL/MOL
REMARK 927      BINDING AFFINITY PREDICTED BY RF-SCORE:    0.00 PKD
ROOT
HETATM    1  C   UNL     1     -13.010  11.639  71.919  1.00  0.00    -0.442 C  
HETATM    2  C   UNL     1     -12.532  10.531  70.948  1.00  0.00    -0.488 C  
HETATM    3  C   UNL     1     -13.770   9.679  70.598  1.00  0.00     0.246 C  
ENDROOT
BRANCH   2   4
HETATM    4  C   UNL     1     -11.426   9.672  71.634  1.00  0.00    -0.305 C  
HETATM    5  O   UNL     1     -11.970   8.572  72.374  1.00  0.00    -0.376 OA 
HETATM    6  H   UNL     1     -11.297   8.049  72.792  1.00  0.00     0.000 HD 
BRANCH   4   7
HETATM    7  C   UNL     1     -10.356   9.116  70.663  1.00  0.00    -0.246 C  
HETATM    8  O   UNL     1      -9.187   9.495  70.627  1.00  0.00    -0.245 OA 
HETATM    9  N   UNL     1     -10.810   8.098  69.849  1.00  0.00    -0.311 N  
HETATM   10  H   UNL     1     -11.776   7.779  69.928  1.00  0.00     0.000 HD 
BRANCH   9  11
HETATM   11  C   UNL     1      -9.926   7.478  68.883  1.00  0.00    -0.168 C  
BRANCH  11  12
HETATM   12  C   UNL     1     -10.510   6.225  68.239  1.00  0.00    -0.277 C  
BRANCH  12  13
HETATM   13  C   UNL     1     -11.050   6.436  66.831  1.00  0.00    -0.272 C  
HETATM   14  O   UNL     1     -11.195   5.173  66.186  1.00  0.00    -0.675 OA 
HETATM   15  H   UNL     1     -11.532   5.305  65.308  1.00  0.00     0.000 HD 
ENDBRANCH  12  13
ENDBRANCH  11  12
ENDBRANCH   9  11
ENDBRANCH   4   7
ENDBRANCH   2   4
BRANCH   2  16
HETATM   16  C   UNL     1     -11.951  11.229  69.689  1.00  0.00    -0.353 C  
HETATM   17  O   UNL     1     -12.359  10.583  68.489  1.00  0.00    -0.765 OA 
HETATM   18  H   UNL     1     -12.003  11.010  67.718  1.00  0.00     0.000 HD 
ENDBRANCH   2  16
TORSDOF 6
ENDMDL
MODEL      153
REMARK 921   NORMALIZED FREE ENERGY PREDICTED BY IDOCK:   -3.22 KCAL/MOL
REMARK 922        TOTAL FREE ENERGY PREDICTED BY IDOCK:   -4.88 KCAL/MOL
REMARK 923 INTER-LIGAND FREE ENERGY PREDICTED BY IDOCK:   -4.50 KCAL/MOL
REMARK 924 INTRA-LIGAND FREE ENERGY PREDICTED BY IDOCK:   -0.38 KCAL/MOL
REMARK 927      BINDING AFFINITY PREDICTED BY RF-SCORE:    0.00 PKD
ROOT
HETATM    1  C   UNL     1     -12.677   9.771  71.743  1.00  0.00    -0.519 C  
HETATM    2  C   UNL     1     -11.842   8.491  71.488  1.00  0.00    -0.353 C  
HETATM    3  C   UNL     1     -10.856   8.358  72.667  1.00  0.00    -0.308 C  
ENDROOT
BRANCH   2   4
HETATM    4  C   UNL     1     -11.089   8.618  70.128  1.00  0.00    -0.192 C  
HETATM    5  O   UNL     1      -9.871   9.365  70.247  1.00  0.00    -0.209 OA 
HETATM    6  H   UNL     1      -9.412   9.443  69.420  1.00  0.00     0.000 HD 
BRANCH   4   7
HETATM    7  C   UNL     1     -10.758   7.265  69.453  1.00  0.00    -0.225 C  
HETATM    8  O   UNL     1     -10.231   6.313  70.026  1.00  0.00    -0.175 OA 
HETATM    9  N   UNL     1     -11.153   7.183  68.132  1.00  0.00    -0.492 N  
HETATM   10  H   UNL     1     -11.622   7.976  67.694  1.00  0.00     0.000 HD 
BRANCH   9  11
HETATM   11  C   UNL     1     -10.908   5.980  67.364  1.00  0.00    -0.303 C  
BRANCH  11  12
HETATM   12  C   UNL     1      -9.651   6.052  66.504  1.00  0.00    -0.182 C  
BRANCH  12  13
HETATM   13  C   UNL     1      -8.955   7.406  66.522  1.00  0.00    -0.159 C  
HETATM   14  O   UNL     1      -9.817   8.388  65.951  1.00  0.00    -0.471 OA 
HETATM   15  H   UNL     1      -9.383   9.232  65.963  1.00  0.00     0.000 HD 
ENDBRANCH  12  13
ENDBRANCH  11  12
ENDBRANCH   9  11
ENDBRANCH   4   7
ENDBRANCH   2   4
BRANCH   2  16
HETATM   16  C   UNL     1     -12.826   7.292  71.434  1.00  0.00    -0.382 C  
HETATM   17  O   UNL     1     -12.431   6.242  72.310  1.00  0.00    -0.527 OA 
HETATM   18  H   UNL     1     -13.033   5.507  72.277  1.00  0.00     0.000 HD 
ENDBRANCH   2  16
TORSDOF 6
ENDMDL
MODEL      154
REMARK 921   NORMALIZED FREE ENERGY PREDICTED BY IDOCK:   -3.22 KCAL/MOL
REMARK 922        TOTAL FREE ENERGY PREDICTED BY IDOCK:   -4.87 KCAL/MOL
REMARK 923 INTER-LIGAND FREE ENERGY PREDICTED BY IDOCK:   -4.49 KCAL/MOL
REMARK 924 INTRA-LIGAND FREE ENERGY PREDICTED BY IDOCK:   -0.38 KCAL/MOL
REMARK 927      BINDING AFFINITY PREDICTED BY RF-SCORE:    0.00 PKD
ROOT
HETATM    1  C   UNL     1      -8.936  18.095  68.506  1.00  0.00    -0.309 C  
HETATM    2  C   UNL     1      -8.107  16.788  68.451  1.00  0.00    -0.219 C  
HETATM    3  C   UNL     1      -6.782  17.068  69.189  1.00  0.00    -0.241 C  
ENDROOT
BRANCH   2   4
HETATM    4  C   UNL     1      -7.856  16.388  66.964  1.00  0.00    -0.212 C  
HETATM    5  O   UNL     1      -7.076  15.191  66.845  1.00  0.00    -0.296 OA 
HETATM    6  H   UNL     1      -6.923  14.947  65.941  1.00  0.00     0.000 HD 
BRANCH   4   7
HETATM    7  C   UNL     1      -9.145  16.207  66.126  1.00  0.00    -0.347 C  
HETATM    8  O   UNL     1      -9.874  17.128  65.764  1.00  0.00    -0.530 OA 
HETATM    9  N   UNL     1      -9.401  14.899  65.761  1.00  0.00    -0.501 N  
HETATM   10  H   UNL     1      -8.758  14.160  66.045  1.00  0.00     0.000 HD 
BRANCH   9  11
HETATM   11  C   UNL     1     -10.574  14.569  64.979  1.00  0.00    -0.437 C  
BRANCH  11  12
HETATM   12  C   UNL     1     -10.703  13.080  64.674  1.00  0.00    -0.386 C  
BRANCH  12  13
HETATM   13  C   UNL     1     -10.549  12.175  65.888  1.00  0.00    -0.258 C  
HETATM   14  O   UNL     1      -9.162  11.979  66.158  1.00  0.00    -0.251 OA 
HETATM   15  H   UNL     1      -9.066  11.415  66.916  1.00  0.00     0.000 HD 
ENDBRANCH  12  13
ENDBRANCH  11  12
ENDBRANCH   9  11
ENDBRANCH   4   7
ENDBRANCH   2   4
BRANCH   2  16
HETATM   16  C   UNL     1      -8.928  15.680  69.162  1.00  0.00    -0.257 C  
HETATM   17  O   UNL     1      -8.441  14.378  68.855  1.00  0.00    -0.246 OA 
HETATM   18  H   UNL     1      -8.944  13.699  69.291  1.00  0.00     0.000 HD 
ENDBRANCH   2  16
TORSDOF 6
ENDMDL
MODEL      155
REMARK 921   NORMALIZED FREE ENERGY PREDICTED BY IDOCK:   -3.21 KCAL/MOL
REMARK 922        TOTAL FREE ENERGY PREDICTED BY IDOCK:   -4.86 KCAL/MOL
REMARK 923 INTER-LIGAND FREE ENERGY PREDICTED BY IDOCK:   -4.66 KCAL/MOL
REMARK 924 INTRA-LIGAND FREE ENERGY PREDICTED BY IDOCK:   -0.19 KCAL/MOL
REMARK 927      BINDING AFFINITY PREDICTED BY RF-SCORE:    0.00 PKD
ROOT
HETATM    1  C   UNL     1      -9.379  11.993  68.262  1.00  0.00    -0.197 C  
HETATM    2  C   UNL     1     -10.729  11.242  68.366  1.00  0.00    -0.238 C  
HETATM    3  C   UNL     1     -10.688  10.103  67.325  1.00  0.00    -0.316 C  
ENDROOT
BRANCH   2   4
HETATM    4  C   UNL     1     -11.903  12.230  68.081  1.00  0.00    -0.311 C  
HETATM    5  O   UNL     1     -11.879  13.370  68.950  1.00  0.00    -0.302 OA 
HETATM    6  H   UNL     1     -12.593  13.971  68.777  1.00  0.00     0.000 HD 
BRANCH   4   7
HETATM    7  C   UNL     1     -11.968  12.740  66.621  1.00  0.00    -0.341 C  
HETATM    8  O   UNL     1     -12.302  12.051  65.659  1.00  0.00    -0.470 OA 
HETATM    9  N   UNL     1     -11.660  14.078  66.478  1.00  0.00    -0.357 N  
HETATM   10  H   UNL     1     -11.423  14.633  67.300  1.00  0.00     0.000 HD 
BRANCH   9  11
HETATM   11  C   UNL     1     -11.673  14.701  65.171  1.00  0.00    -0.364 C  
BRANCH  11  12
HETATM   12  C   UNL     1     -10.458  15.584  64.904  1.00  0.00    -0.300 C  
BRANCH  12  13
HETATM   13  C   UNL     1      -9.492  15.691  66.077  1.00  0.00    -0.355 C  
HETATM   14  O   UNL     1      -8.774  14.467  66.211  1.00  0.00    -0.457 OA 
HETATM   15  H   UNL     1      -8.172  14.534  66.942  1.00  0.00     0.000 HD 
ENDBRANCH  12  13
ENDBRANCH  11  12
ENDBRANCH   9  11
ENDBRANCH   4   7
ENDBRANCH   2   4
BRANCH   2  16
HETATM   16  C   UNL     1     -10.848  10.686  69.810  1.00  0.00    -0.261 C  
HETATM   17  O   UNL     1      -9.627  10.108  70.258  1.00  0.00    -0.394 OA 
HETATM   18  H   UNL     1      -9.699   9.768  71.142  1.00  0.00     0.000 HD 
ENDBRANCH   2  16
TORSDOF 6
ENDMDL
MODEL      156
REMARK 921   NORMALIZED FREE ENERGY PREDICTED BY IDOCK:   -3.20 KCAL/MOL
REMARK 922        TOTAL FREE ENERGY PREDICTED BY IDOCK:   -4.85 KCAL/MOL
REMARK 923 INTER-LIGAND FREE ENERGY PREDICTED BY IDOCK:   -4.23 KCAL/MOL
REMARK 924 INTRA-LIGAND FREE ENERGY PREDICTED BY IDOCK:   -0.62 KCAL/MOL
REMARK 927      BINDING AFFINITY PREDICTED BY RF-SCORE:    0.00 PKD
ROOT
HETATM    1  C   UNL     1     -10.827   7.006  70.595  1.00  0.00    -0.274 C  
HETATM    2  C   UNL     1     -10.163   8.385  70.355  1.00  0.00    -0.212 C  
HETATM    3  C   UNL     1     -11.037   9.434  71.073  1.00  0.00    -0.414 C  
ENDROOT
BRANCH   2   4
HETATM    4  C   UNL     1     -10.078   8.668  68.823  1.00  0.00    -0.196 C  
HETATM    5  O   UNL     1     -11.107   7.993  68.087  1.00  0.00    -0.438 OA 
HETATM    6  H   UNL     1     -11.055   8.165  67.155  1.00  0.00     0.000 HD 
BRANCH   4   7
HETATM    7  C   UNL     1     -10.124  10.169  68.449  1.00  0.00    -0.164 C  
HETATM    8  O   UNL     1      -9.187  10.950  68.593  1.00  0.00    -0.173 OA 
HETATM    9  N   UNL     1     -11.316  10.570  67.877  1.00  0.00    -0.416 N  
HETATM   10  H   UNL     1     -12.063   9.891  67.735  1.00  0.00     0.000 HD 
BRANCH   9  11
HETATM   11  C   UNL     1     -11.513  11.948  67.477  1.00  0.00    -0.326 C  
BRANCH  11  12
HETATM   12  C   UNL     1     -11.582  12.139  65.965  1.00  0.00    -0.420 C  
BRANCH  12  13
HETATM   13  C   UNL     1     -10.232  12.370  65.300  1.00  0.00    -0.282 C  
HETATM   14  O   UNL     1      -9.286  12.783  66.284  1.00  0.00    -0.376 OA 
HETATM   15  H   UNL     1      -8.443  12.926  65.869  1.00  0.00     0.000 HD 
ENDBRANCH  12  13
ENDBRANCH  11  12
ENDBRANCH   9  11
ENDBRANCH   4   7
ENDBRANCH   2   4
BRANCH   2  16
HETATM   16  C   UNL     1      -8.734   8.329  70.959  1.00  0.00    -0.146 C  
HETATM   17  O   UNL     1      -8.690   8.887  72.268  1.00  0.00    -0.395 OA 
HETATM   18  H   UNL     1      -7.815   8.854  72.638  1.00  0.00     0.000 HD 
ENDBRANCH   2  16
TORSDOF 6
ENDMDL
MODEL      157
REMARK 921   NORMALIZED FREE ENERGY PREDICTED BY IDOCK:   -3.19 KCAL/MOL
REMARK 922        TOTAL FREE ENERGY PREDICTED BY IDOCK:   -4.84 KCAL/MOL
REMARK 923 INTER-LIGAND FREE ENERGY PREDICTED BY IDOCK:   -4.58 KCAL/MOL
REMARK 924 INTRA-LIGAND FREE ENERGY PREDICTED BY IDOCK:   -0.26 KCAL/MOL
REMARK 927      BINDING AFFINITY PREDICTED BY RF-SCORE:    0.00 PKD
ROOT
HETATM    1  C   UNL     1      -9.662   7.198  71.485  1.00  0.00    -0.169 C  
HETATM    2  C   UNL     1     -11.017   6.481  71.257  1.00  0.00    -0.309 C  
HETATM    3  C   UNL     1     -10.861   5.626  69.982  1.00  0.00    -0.366 C  
ENDROOT
BRANCH   2   4
HETATM    4  C   UNL     1     -12.150   7.540  71.096  1.00  0.00    -0.307 C  
HETATM    5  O   UNL     1     -13.052   7.547  72.211  1.00  0.00    -0.500 OA 
HETATM    6  H   UNL     1     -13.743   8.191  72.113  1.00  0.00     0.000 HD 
BRANCH   4   7
HETATM    7  C   UNL     1     -11.645   8.988  70.878  1.00  0.00    -0.290 C  
HETATM    8  O   UNL     1     -11.543   9.829  71.768  1.00  0.00    -0.349 OA 
HETATM    9  N   UNL     1     -11.260   9.260  69.581  1.00  0.00    -0.425 N  
HETATM   10  H   UNL     1     -11.321   8.530  68.871  1.00  0.00     0.000 HD 
BRANCH   9  11
HETATM   11  C   UNL     1     -10.769  10.573  69.219  1.00  0.00    -0.234 C  
BRANCH  11  12
HETATM   12  C   UNL     1     -11.746  11.375  68.365  1.00  0.00    -0.373 C  
BRANCH  12  13
HETATM   13  C   UNL     1     -11.246  11.679  66.959  1.00  0.00    -0.314 C  
HETATM   14  O   UNL     1     -10.291  10.692  66.574  1.00  0.00    -0.232 OA 
HETATM   15  H   UNL     1      -9.980  10.882  65.696  1.00  0.00     0.000 HD 
ENDBRANCH  12  13
ENDBRANCH  11  12
ENDBRANCH   9  11
ENDBRANCH   4   7
ENDBRANCH   2   4
BRANCH   2  16
HETATM   16  C   UNL     1     -11.295   5.597  72.501  1.00  0.00    -0.294 C  
HETATM   17  O   UNL     1     -11.069   6.304  73.716  1.00  0.00    -0.416 OA 
HETATM   18  H   UNL     1     -11.239   5.762  74.478  1.00  0.00     0.000 HD 
ENDBRANCH   2  16
TORSDOF 6
ENDMDL
MODEL      158
REMARK 921   NORMALIZED FREE ENERGY PREDICTED BY IDOCK:   -3.18 KCAL/MOL
REMARK 922        TOTAL FREE ENERGY PREDICTED BY IDOCK:   -4.82 KCAL/MOL
REMARK 923 INTER-LIGAND FREE ENERGY PREDICTED BY IDOCK:   -4.46 KCAL/MOL
REMARK 924 INTRA-LIGAND FREE ENERGY PREDICTED BY IDOCK:   -0.37 KCAL/MOL
REMARK 927      BINDING AFFINITY PREDICTED BY RF-SCORE:    0.00 PKD
ROOT
HETATM    1  C   UNL     1     -11.980  14.069  66.497  1.00  0.00    -0.470 C  
HETATM    2  C   UNL     1     -11.133  14.759  67.595  1.00  0.00    -0.311 C  
HETATM    3  C   UNL     1     -10.733  16.144  67.045  1.00  0.00    -0.254 C  
ENDROOT
BRANCH   2   4
HETATM    4  C   UNL     1      -9.878  13.890  67.914  1.00  0.00    -0.228 C  
HETATM    5  O   UNL     1      -9.349  14.156  69.220  1.00  0.00    -0.393 OA 
HETATM    6  H   UNL     1      -8.585  13.627  69.415  1.00  0.00     0.000 HD 
BRANCH   4   7
HETATM    7  C   UNL     1     -10.111  12.364  67.792  1.00  0.00    -0.203 C  
HETATM    8  O   UNL     1     -10.899  11.724  68.486  1.00  0.00    -0.202 OA 
HETATM    9  N   UNL     1      -9.384  11.762  66.785  1.00  0.00    -0.188 N  
HETATM   10  H   UNL     1      -8.766  12.326  66.201  1.00  0.00     0.000 HD 
BRANCH   9  11
HETATM   11  C   UNL     1      -9.491  10.338  66.549  1.00  0.00    -0.171 C  
BRANCH  11  12
HETATM   12  C   UNL     1      -9.721   9.977  65.085  1.00  0.00    -0.380 C  
BRANCH  12  13
HETATM   13  C   UNL     1     -10.388  11.075  64.267  1.00  0.00    -0.364 C  
HETATM   14  O   UNL     1     -10.400  10.697  62.892  1.00  0.00    -0.707 OA 
HETATM   15  H   UNL     1     -10.817  11.381  62.381  1.00  0.00     0.000 HD 
ENDBRANCH  12  13
ENDBRANCH  11  12
ENDBRANCH   9  11
ENDBRANCH   4   7
ENDBRANCH   2   4
BRANCH   2  16
HETATM   16  C   UNL     1     -12.021  14.887  68.861  1.00  0.00    -0.260 C  
HETATM   17  O   UNL     1     -11.641  15.999  69.665  1.00  0.00    -0.326 OA 
HETATM   18  H   UNL     1     -12.185  16.078  70.441  1.00  0.00     0.000 HD 
ENDBRANCH   2  16
TORSDOF 6
ENDMDL
MODEL      159
REMARK 921   NORMALIZED FREE ENERGY PREDICTED BY IDOCK:   -3.18 KCAL/MOL
REMARK 922        TOTAL FREE ENERGY PREDICTED BY IDOCK:   -4.82 KCAL/MOL
REMARK 923 INTER-LIGAND FREE ENERGY PREDICTED BY IDOCK:   -4.48 KCAL/MOL
REMARK 924 INTRA-LIGAND FREE ENERGY PREDICTED BY IDOCK:   -0.34 KCAL/MOL
REMARK 927      BINDING AFFINITY PREDICTED BY RF-SCORE:    0.00 PKD
ROOT
HETATM    1  C   UNL     1     -11.282   8.193  72.705  1.00  0.00    -0.447 C  
HETATM    2  C   UNL     1     -12.319   8.579  71.621  1.00  0.00    -0.371 C  
HETATM    3  C   UNL     1     -12.942   7.263  71.110  1.00  0.00    -0.313 C  
ENDROOT
BRANCH   2   4
HETATM    4  C   UNL     1     -11.612   9.358  70.470  1.00  0.00    -0.235 C  
HETATM    5  O   UNL     1     -11.249  10.690  70.856  1.00  0.00    -0.351 OA 
HETATM    6  H   UNL     1     -10.818  11.164  70.156  1.00  0.00     0.000 HD 
BRANCH   4   7
HETATM    7  C   UNL     1     -10.349   8.659  69.910  1.00  0.00    -0.209 C  
HETATM    8  O   UNL     1     -10.365   7.779  69.052  1.00  0.00    -0.205 OA 
HETATM    9  N   UNL     1      -9.162   9.144  70.423  1.00  0.00    -0.213 N  
HETATM   10  H   UNL     1      -9.179   9.901  71.107  1.00  0.00     0.000 HD 
BRANCH   9  11
HETATM   11  C   UNL     1      -7.894   8.587  69.999  1.00  0.00    -0.102 C  
BRANCH  11  12
HETATM   12  C   UNL     1      -7.456   7.378  70.818  1.00  0.00    -0.078 C  
BRANCH  12  13
HETATM   13  C   UNL     1      -7.212   7.673  72.291  1.00  0.00    -0.076 C  
HETATM   14  O   UNL     1      -7.138   9.084  72.484  1.00  0.00    -0.328 OA 
HETATM   15  H   UNL     1      -6.986   9.268  73.404  1.00  0.00     0.000 HD 
ENDBRANCH  12  13
ENDBRANCH  11  12
ENDBRANCH   9  11
ENDBRANCH   4   7
ENDBRANCH   2   4
BRANCH   2  16
HETATM   16  C   UNL     1     -13.385   9.486  72.293  1.00  0.00    -0.441 C  
HETATM   17  O   UNL     1     -14.285   8.737  73.102  1.00  0.00    -1.112 OA 
HETATM   18  H   UNL     1     -14.938   9.292  73.514  1.00  0.00     0.000 HD 
ENDBRANCH   2  16
TORSDOF 6
ENDMDL
MODEL      160
REMARK 921   NORMALIZED FREE ENERGY PREDICTED BY IDOCK:   -3.18 KCAL/MOL
REMARK 922        TOTAL FREE ENERGY PREDICTED BY IDOCK:   -4.82 KCAL/MOL
REMARK 923 INTER-LIGAND FREE ENERGY PREDICTED BY IDOCK:   -4.76 KCAL/MOL
REMARK 924 INTRA-LIGAND FREE ENERGY PREDICTED BY IDOCK:   -0.05 KCAL/MOL
REMARK 927      BINDING AFFINITY PREDICTED BY RF-SCORE:    0.00 PKD
ROOT
HETATM    1  C   UNL     1      -9.663  14.476  67.934  1.00  0.00    -0.218 C  
HETATM    2  C   UNL     1     -11.185  14.733  67.805  1.00  0.00    -0.323 C  
HETATM    3  C   UNL     1     -11.898  13.520  68.436  1.00  0.00    -0.408 C  
ENDROOT
BRANCH   2   4
HETATM    4  C   UNL     1     -11.564  14.897  66.301  1.00  0.00    -0.233 C  
HETATM    5  O   UNL     1     -10.584  15.646  65.570  1.00  0.00    -0.353 OA 
HETATM    6  H   UNL     1     -10.815  15.746  64.654  1.00  0.00     0.000 HD 
BRANCH   4   7
HETATM    7  C   UNL     1     -11.803  13.561  65.555  1.00  0.00    -0.363 C  
HETATM    8  O   UNL     1     -12.884  13.210  65.089  1.00  0.00    -0.669 OA 
HETATM    9  N   UNL     1     -10.667  12.791  65.402  1.00  0.00    -0.278 N  
HETATM   10  H   UNL     1      -9.775  13.126  65.767  1.00  0.00     0.000 HD 
BRANCH   9  11
HETATM   11  C   UNL     1     -10.731  11.510  64.729  1.00  0.00    -0.306 C  
BRANCH  11  12
HETATM   12  C   UNL     1     -10.236  10.347  65.582  1.00  0.00    -0.308 C  
BRANCH  12  13
HETATM   13  C   UNL     1     -10.762  10.349  67.011  1.00  0.00    -0.235 C  
HETATM   14  O   UNL     1     -11.148   9.025  67.374  1.00  0.00    -0.415 OA 
HETATM   15  H   UNL     1     -11.476   9.027  68.265  1.00  0.00     0.000 HD 
ENDBRANCH  12  13
ENDBRANCH  11  12
ENDBRANCH   9  11
ENDBRANCH   4   7
ENDBRANCH   2   4
BRANCH   2  16
HETATM   16  C   UNL     1     -11.507  16.042  68.574  1.00  0.00    -0.357 C  
HETATM   17  O   UNL     1     -10.860  16.087  69.841  1.00  0.00    -0.297 OA 
HETATM   18  H   UNL     1     -11.057  16.888  70.312  1.00  0.00     0.000 HD 
ENDBRANCH   2  16
TORSDOF 6
ENDMDL
MODEL      161
REMARK 921   NORMALIZED FREE ENERGY PREDICTED BY IDOCK:   -3.17 KCAL/MOL
REMARK 922        TOTAL FREE ENERGY PREDICTED BY IDOCK:   -4.81 KCAL/MOL
REMARK 923 INTER-LIGAND FREE ENERGY PREDICTED BY IDOCK:   -4.56 KCAL/MOL
REMARK 924 INTRA-LIGAND FREE ENERGY PREDICTED BY IDOCK:   -0.25 KCAL/MOL
REMARK 927      BINDING AFFINITY PREDICTED BY RF-SCORE:    0.00 PKD
ROOT
HETATM    1  C   UNL     1     -11.844   6.543  71.947  1.00  0.00    -0.381 C  
HETATM    2  C   UNL     1     -10.892   7.421  71.098  1.00  0.00    -0.258 C  
HETATM    3  C   UNL     1      -9.605   7.615  71.927  1.00  0.00    -0.191 C  
ENDROOT
BRANCH   2   4
HETATM    4  C   UNL     1     -11.577   8.786  70.783  1.00  0.00    -0.251 C  
HETATM    5  O   UNL     1     -11.787   9.575  71.961  1.00  0.00    -0.341 OA 
HETATM    6  H   UNL     1     -12.205  10.406  71.770  1.00  0.00     0.000 HD 
BRANCH   4   7
HETATM    7  C   UNL     1     -10.820   9.656  69.750  1.00  0.00    -0.250 C  
HETATM    8  O   UNL     1      -9.718  10.165  69.945  1.00  0.00    -0.222 OA 
HETATM    9  N   UNL     1     -11.469   9.785  68.539  1.00  0.00    -0.496 N  
HETATM   10  H   UNL     1     -12.366   9.321  68.393  1.00  0.00     0.000 HD 
BRANCH   9  11
HETATM   11  C   UNL     1     -10.888  10.574  67.472  1.00  0.00    -0.301 C  
BRANCH  11  12
HETATM   12  C   UNL     1     -11.465  11.982  67.372  1.00  0.00    -0.406 C  
BRANCH  12  13
HETATM   13  C   UNL     1     -11.062  12.737  66.112  1.00  0.00    -0.290 C  
HETATM   14  O   UNL     1     -11.668  12.120  64.978  1.00  0.00    -0.351 OA 
HETATM   15  H   UNL     1     -11.417  12.591  64.192  1.00  0.00     0.000 HD 
ENDBRANCH  12  13
ENDBRANCH  11  12
ENDBRANCH   9  11
ENDBRANCH   4   7
ENDBRANCH   2   4
BRANCH   2  16
HETATM   16  C   UNL     1     -10.604   6.659  69.777  1.00  0.00    -0.228 C  
HETATM   17  O   UNL     1     -11.766   6.552  68.962  1.00  0.00    -0.595 OA 
HETATM   18  H   UNL     1     -11.590   6.085  68.153  1.00  0.00     0.000 HD 
ENDBRANCH   2  16
TORSDOF 6
ENDMDL
MODEL      162
REMARK 921   NORMALIZED FREE ENERGY PREDICTED BY IDOCK:   -3.17 KCAL/MOL
REMARK 922        TOTAL FREE ENERGY PREDICTED BY IDOCK:   -4.81 KCAL/MOL
REMARK 923 INTER-LIGAND FREE ENERGY PREDICTED BY IDOCK:   -4.19 KCAL/MOL
REMARK 924 INTRA-LIGAND FREE ENERGY PREDICTED BY IDOCK:   -0.62 KCAL/MOL
REMARK 927      BINDING AFFINITY PREDICTED BY RF-SCORE:    0.00 PKD
ROOT
HETATM    1  C   UNL     1      -9.679   6.933  71.436  1.00  0.00    -0.177 C  
HETATM    2  C   UNL     1     -11.074   7.179  70.809  1.00  0.00    -0.296 C  
HETATM    3  C   UNL     1     -11.191   6.234  69.595  1.00  0.00    -0.506 C  
ENDROOT
BRANCH   2   4
HETATM    4  C   UNL     1     -11.201   8.674  70.381  1.00  0.00    -0.218 C  
HETATM    5  O   UNL     1     -10.838   9.576  71.434  1.00  0.00    -0.347 OA 
HETATM    6  H   UNL     1     -10.915  10.485  71.174  1.00  0.00     0.000 HD 
BRANCH   4   7
HETATM    7  C   UNL     1     -10.379   9.048  69.123  1.00  0.00    -0.219 C  
HETATM    8  O   UNL     1      -9.159   9.198  69.109  1.00  0.00    -0.140 OA 
HETATM    9  N   UNL     1     -11.132   9.159  67.971  1.00  0.00    -0.489 N  
HETATM   10  H   UNL     1     -12.138   8.992  68.006  1.00  0.00     0.000 HD 
BRANCH   9  11
HETATM   11  C   UNL     1     -10.506   9.508  66.713  1.00  0.00    -0.193 C  
BRANCH  11  12
HETATM   12  C   UNL     1     -10.670  10.978  66.338  1.00  0.00    -0.286 C  
BRANCH  12  13
HETATM   13  C   UNL     1      -9.416  11.818  66.536  1.00  0.00    -0.214 C  
HETATM   14  O   UNL     1      -9.218  12.051  67.929  1.00  0.00    -0.176 OA 
HETATM   15  H   UNL     1      -8.436  12.575  68.053  1.00  0.00     0.000 HD 
ENDBRANCH  12  13
ENDBRANCH  11  12
ENDBRANCH   9  11
ENDBRANCH   4   7
ENDBRANCH   2   4
BRANCH   2  16
HETATM   16  C   UNL     1     -12.139   6.849  71.889  1.00  0.00    -0.333 C  
HETATM   17  O   UNL     1     -11.934   7.597  73.082  1.00  0.00    -0.596 OA 
HETATM   18  H   UNL     1     -12.586   7.395  73.743  1.00  0.00     0.000 HD 
ENDBRANCH   2  16
TORSDOF 6
ENDMDL
MODEL      163
REMARK 921   NORMALIZED FREE ENERGY PREDICTED BY IDOCK:   -3.17 KCAL/MOL
REMARK 922        TOTAL FREE ENERGY PREDICTED BY IDOCK:   -4.81 KCAL/MOL
REMARK 923 INTER-LIGAND FREE ENERGY PREDICTED BY IDOCK:   -4.12 KCAL/MOL
REMARK 924 INTRA-LIGAND FREE ENERGY PREDICTED BY IDOCK:   -0.69 KCAL/MOL
REMARK 927      BINDING AFFINITY PREDICTED BY RF-SCORE:    0.00 PKD
ROOT
HETATM    1  C   UNL     1     -11.616  12.567  66.796  1.00  0.00    -0.446 C  
HETATM    2  C   UNL     1     -10.810  12.190  68.064  1.00  0.00    -0.258 C  
HETATM    3  C   UNL     1      -9.771  13.310  68.282  1.00  0.00    -0.225 C  
ENDROOT
BRANCH   2   4
HETATM    4  C   UNL     1     -10.119  10.807  67.855  1.00  0.00    -0.172 C  
HETATM    5  O   UNL     1      -9.277  10.788  66.695  1.00  0.00    -0.162 OA 
HETATM    6  H   UNL     1      -8.856   9.946  66.568  1.00  0.00     0.000 HD 
BRANCH   4   7
HETATM    7  C   UNL     1      -9.283  10.322  69.064  1.00  0.00    -0.183 C  
HETATM    8  O   UNL     1      -8.110  10.629  69.265  1.00  0.00    -0.153 OA 
HETATM    9  N   UNL     1      -9.986   9.535  69.955  1.00  0.00    -0.221 N  
HETATM   10  H   UNL     1     -10.969   9.328  69.781  1.00  0.00     0.000 HD 
BRANCH   9  11
HETATM   11  C   UNL     1      -9.338   9.002  71.136  1.00  0.00    -0.266 C  
BRANCH  11  12
HETATM   12  C   UNL     1     -10.293   8.281  72.081  1.00  0.00    -0.370 C  
BRANCH  12  13
HETATM   13  C   UNL     1     -11.767   8.530  71.794  1.00  0.00    -0.327 C  
HETATM   14  O   UNL     1     -12.046   9.922  71.929  1.00  0.00    -0.357 OA 
HETATM   15  H   UNL     1     -12.966  10.077  71.749  1.00  0.00     0.000 HD 
ENDBRANCH  12  13
ENDBRANCH  11  12
ENDBRANCH   9  11
ENDBRANCH   4   7
ENDBRANCH   2   4
BRANCH   2  16
HETATM   16  C   UNL     1     -11.809  12.105  69.248  1.00  0.00    -0.313 C  
HETATM   17  O   UNL     1     -12.642  10.955  69.159  1.00  0.00    -0.664 OA 
HETATM   18  H   UNL     1     -13.254  10.903  69.884  1.00  0.00     0.000 HD 
ENDBRANCH   2  16
TORSDOF 6
ENDMDL
MODEL      164
REMARK 921   NORMALIZED FREE ENERGY PREDICTED BY IDOCK:   -3.16 KCAL/MOL
REMARK 922        TOTAL FREE ENERGY PREDICTED BY IDOCK:   -4.79 KCAL/MOL
REMARK 923 INTER-LIGAND FREE ENERGY PREDICTED BY IDOCK:   -4.46 KCAL/MOL
REMARK 924 INTRA-LIGAND FREE ENERGY PREDICTED BY IDOCK:   -0.33 KCAL/MOL
REMARK 927      BINDING AFFINITY PREDICTED BY RF-SCORE:    0.00 PKD
ROOT
HETATM    1  C   UNL     1     -10.301  15.204  68.764  1.00  0.00    -0.236 C  
HETATM    2  C   UNL     1     -11.367  14.097  68.577  1.00  0.00    -0.312 C  
HETATM    3  C   UNL     1     -12.239  14.096  69.850  1.00  0.00    -0.416 C  
ENDROOT
BRANCH   2   4
HETATM    4  C   UNL     1     -10.665  12.720  68.368  1.00  0.00    -0.250 C  
HETATM    5  O   UNL     1      -9.305  12.727  68.824  1.00  0.00    -0.401 OA 
HETATM    6  H   UNL     1      -8.877  11.889  68.697  1.00  0.00     0.000 HD 
BRANCH   4   7
HETATM    7  C   UNL     1     -11.389  11.526  69.036  1.00  0.00    -0.276 C  
HETATM    8  O   UNL     1     -12.409  10.998  68.597  1.00  0.00    -0.539 OA 
HETATM    9  N   UNL     1     -10.762  11.050  70.170  1.00  0.00    -0.409 N  
HETATM   10  H   UNL     1      -9.896  11.484  70.490  1.00  0.00     0.000 HD 
BRANCH   9  11
HETATM   11  C   UNL     1     -11.322   9.938  70.910  1.00  0.00    -0.370 C  
BRANCH  11  12
HETATM   12  C   UNL     1     -10.450   8.687  70.883  1.00  0.00    -0.265 C  
BRANCH  12  13
HETATM   13  C   UNL     1     -10.403   7.983  69.534  1.00  0.00    -0.221 C  
HETATM   14  O   UNL     1      -9.258   7.136  69.482  1.00  0.00    -0.149 OA 
HETATM   15  H   UNL     1      -9.229   6.697  68.641  1.00  0.00     0.000 HD 
ENDBRANCH  12  13
ENDBRANCH  11  12
ENDBRANCH   9  11
ENDBRANCH   4   7
ENDBRANCH   2   4
BRANCH   2  16
HETATM   16  C   UNL     1     -12.203  14.457  67.319  1.00  0.00    -0.213 C  
HETATM   17  O   UNL     1     -12.280  13.370  66.405  1.00  0.00    -0.406 OA 
HETATM   18  H   UNL     1     -12.792  13.590  65.634  1.00  0.00     0.000 HD 
ENDBRANCH   2  16
TORSDOF 6
ENDMDL
MODEL      165
REMARK 921   NORMALIZED FREE ENERGY PREDICTED BY IDOCK:   -3.16 KCAL/MOL
REMARK 922        TOTAL FREE ENERGY PREDICTED BY IDOCK:   -4.79 KCAL/MOL
REMARK 923 INTER-LIGAND FREE ENERGY PREDICTED BY IDOCK:   -4.19 KCAL/MOL
REMARK 924 INTRA-LIGAND FREE ENERGY PREDICTED BY IDOCK:   -0.61 KCAL/MOL
REMARK 927      BINDING AFFINITY PREDICTED BY RF-SCORE:    0.00 PKD
ROOT
HETATM    1  C   UNL     1      -8.806   9.628  68.854  1.00  0.00    -0.136 C  
HETATM    2  C   UNL     1     -10.313   9.458  68.540  1.00  0.00    -0.236 C  
HETATM    3  C   UNL     1     -10.477   8.074  67.876  1.00  0.00    -0.259 C  
ENDROOT
BRANCH   2   4
HETATM    4  C   UNL     1     -10.785  10.603  67.592  1.00  0.00    -0.267 C  
HETATM    5  O   UNL     1     -12.095  11.080  67.923  1.00  0.00    -0.721 OA 
HETATM    6  H   UNL     1     -12.383  11.777  67.346  1.00  0.00     0.000 HD 
BRANCH   4   7
HETATM    7  C   UNL     1      -9.830  11.820  67.538  1.00  0.00    -0.186 C  
HETATM    8  O   UNL     1      -8.843  11.898  66.809  1.00  0.00    -0.184 OA 
HETATM    9  N   UNL     1     -10.204  12.866  68.358  1.00  0.00    -0.240 N  
HETATM   10  H   UNL     1     -11.049  12.788  68.925  1.00  0.00     0.000 HD 
BRANCH   9  11
HETATM   11  C   UNL     1      -9.408  14.074  68.421  1.00  0.00    -0.210 C  
BRANCH  11  12
HETATM   12  C   UNL     1     -10.029  15.253  67.679  1.00  0.00    -0.222 C  
BRANCH  12  13
HETATM   13  C   UNL     1     -10.694  14.883  66.360  1.00  0.00    -0.316 C  
HETATM   14  O   UNL     1      -9.702  14.432  65.440  1.00  0.00    -0.530 OA 
HETATM   15  H   UNL     1     -10.117  14.200  64.618  1.00  0.00     0.000 HD 
ENDBRANCH  12  13
ENDBRANCH  11  12
ENDBRANCH   9  11
ENDBRANCH   4   7
ENDBRANCH   2   4
BRANCH   2  16
HETATM   16  C   UNL     1     -11.084   9.536  69.884  1.00  0.00    -0.216 C  
HETATM   17  O   UNL     1     -11.066  10.850  70.431  1.00  0.00    -0.464 OA 
HETATM   18  H   UNL     1     -11.539  10.898  71.254  1.00  0.00     0.000 HD 
ENDBRANCH   2  16
TORSDOF 6
ENDMDL
MODEL      166
REMARK 921   NORMALIZED FREE ENERGY PREDICTED BY IDOCK:   -3.16 KCAL/MOL
REMARK 922        TOTAL FREE ENERGY PREDICTED BY IDOCK:   -4.79 KCAL/MOL
REMARK 923 INTER-LIGAND FREE ENERGY PREDICTED BY IDOCK:   -4.65 KCAL/MOL
REMARK 924 INTRA-LIGAND FREE ENERGY PREDICTED BY IDOCK:   -0.14 KCAL/MOL
REMARK 927      BINDING AFFINITY PREDICTED BY RF-SCORE:    0.00 PKD
ROOT
HETATM    1  C   UNL     1     -10.055   9.936  67.178  1.00  0.00    -0.270 C  
HETATM    2  C   UNL     1      -9.822  11.463  67.297  1.00  0.00    -0.209 C  
HETATM    3  C   UNL     1      -8.462  11.653  68.000  1.00  0.00    -0.151 C  
ENDROOT
BRANCH   2   4
HETATM    4  C   UNL     1     -10.981  12.108  68.117  1.00  0.00    -0.230 C  
HETATM    5  O   UNL     1     -10.691  12.165  69.520  1.00  0.00    -0.445 OA 
HETATM    6  H   UNL     1     -11.396  12.558  70.020  1.00  0.00     0.000 HD 
BRANCH   4   7
HETATM    7  C   UNL     1     -11.378  13.530  67.651  1.00  0.00    -0.296 C  
HETATM    8  O   UNL     1     -12.330  13.779  66.914  1.00  0.00    -0.392 OA 
HETATM    9  N   UNL     1     -10.591  14.535  68.177  1.00  0.00    -0.235 N  
HETATM   10  H   UNL     1      -9.831  14.301  68.815  1.00  0.00     0.000 HD 
BRANCH   9  11
HETATM   11  C   UNL     1     -10.835  15.920  67.829  1.00  0.00    -0.324 C  
BRANCH  11  12
HETATM   12  C   UNL     1      -9.915  16.445  66.733  1.00  0.00    -0.277 C  
BRANCH  12  13
HETATM   13  C   UNL     1     -10.312  17.807  66.179  1.00  0.00    -0.340 C  
HETATM   14  O   UNL     1     -11.011  17.631  64.949  1.00  0.00    -0.886 OA 
HETATM   15  H   UNL     1     -11.260  18.480  64.604  1.00  0.00     0.000 HD 
ENDBRANCH  12  13
ENDBRANCH  11  12
ENDBRANCH   9  11
ENDBRANCH   4   7
ENDBRANCH   2   4
BRANCH   2  16
HETATM   16  C   UNL     1      -9.805  12.049  65.860  1.00  0.00    -0.238 C  
HETATM   17  O   UNL     1      -8.930  11.325  65.002  1.00  0.00    -0.355 OA 
HETATM   18  H   UNL     1      -8.919  11.684  64.122  1.00  0.00     0.000 HD 
ENDBRANCH   2  16
TORSDOF 6
ENDMDL
MODEL      167
REMARK 921   NORMALIZED FREE ENERGY PREDICTED BY IDOCK:   -3.16 KCAL/MOL
REMARK 922        TOTAL FREE ENERGY PREDICTED BY IDOCK:   -4.79 KCAL/MOL
REMARK 923 INTER-LIGAND FREE ENERGY PREDICTED BY IDOCK:   -4.46 KCAL/MOL
REMARK 924 INTRA-LIGAND FREE ENERGY PREDICTED BY IDOCK:   -0.33 KCAL/MOL
REMARK 927      BINDING AFFINITY PREDICTED BY RF-SCORE:    0.00 PKD
ROOT
HETATM    1  C   UNL     1     -11.659   7.679  70.285  1.00  0.00    -0.079 C  
HETATM    2  C   UNL     1     -11.346   8.987  71.053  1.00  0.00    -0.362 C  
HETATM    3  C   UNL     1     -12.702   9.640  71.395  1.00  0.00    -0.466 C  
ENDROOT
BRANCH   2   4
HETATM    4  C   UNL     1     -10.473   9.924  70.161  1.00  0.00    -0.285 C  
HETATM    5  O   UNL     1      -9.677   9.193  69.219  1.00  0.00    -0.159 OA 
HETATM    6  H   UNL     1      -9.146   9.762  68.677  1.00  0.00     0.000 HD 
BRANCH   4   7
HETATM    7  C   UNL     1     -11.277  10.994  69.383  1.00  0.00    -0.268 C  
HETATM    8  O   UNL     1     -12.034  10.749  68.446  1.00  0.00    -0.508 OA 
HETATM    9  N   UNL     1     -11.114  12.279  69.863  1.00  0.00    -0.453 N  
HETATM   10  H   UNL     1     -10.508  12.446  70.666  1.00  0.00     0.000 HD 
BRANCH   9  11
HETATM   11  C   UNL     1     -11.798  13.391  69.236  1.00  0.00    -0.334 C  
BRANCH  11  12
HETATM   12  C   UNL     1     -10.978  14.074  68.146  1.00  0.00    -0.268 C  
BRANCH  12  13
HETATM   13  C   UNL     1     -11.808  14.832  67.119  1.00  0.00    -0.286 C  
HETATM   14  O   UNL     1     -12.777  13.952  66.553  1.00  0.00    -0.444 OA 
HETATM   15  H   UNL     1     -13.295  14.425  65.913  1.00  0.00     0.000 HD 
ENDBRANCH  12  13
ENDBRANCH  11  12
ENDBRANCH   9  11
ENDBRANCH   4   7
ENDBRANCH   2   4
BRANCH   2  16
HETATM   16  C   UNL     1     -10.563   8.602  72.336  1.00  0.00    -0.239 C  
HETATM   17  O   UNL     1      -9.162   8.807  72.184  1.00  0.00    -0.305 OA 
HETATM   18  H   UNL     1      -8.682   8.571  72.970  1.00  0.00     0.000 HD 
ENDBRANCH   2  16
TORSDOF 6
ENDMDL
MODEL      168
REMARK 921   NORMALIZED FREE ENERGY PREDICTED BY IDOCK:   -3.15 KCAL/MOL
REMARK 922        TOTAL FREE ENERGY PREDICTED BY IDOCK:   -4.78 KCAL/MOL
REMARK 923 INTER-LIGAND FREE ENERGY PREDICTED BY IDOCK:   -4.20 KCAL/MOL
REMARK 924 INTRA-LIGAND FREE ENERGY PREDICTED BY IDOCK:   -0.58 KCAL/MOL
REMARK 927      BINDING AFFINITY PREDICTED BY RF-SCORE:    0.00 PKD
ROOT
HETATM    1  C   UNL     1      -9.530   8.329  69.092  1.00  0.00    -0.155 C  
HETATM    2  C   UNL     1     -10.056   9.670  68.523  1.00  0.00    -0.195 C  
HETATM    3  C   UNL     1      -8.850  10.631  68.457  1.00  0.00    -0.148 C  
ENDROOT
BRANCH   2   4
HETATM    4  C   UNL     1     -11.179  10.230  69.449  1.00  0.00    -0.239 C  
HETATM    5  O   UNL     1     -10.768  10.302  70.821  1.00  0.00    -0.393 OA 
HETATM    6  H   UNL     1     -11.451  10.643  71.385  1.00  0.00     0.000 HD 
BRANCH   4   7
HETATM    7  C   UNL     1     -11.714  11.622  69.034  1.00  0.00    -0.324 C  
HETATM    8  O   UNL     1     -12.204  11.878  67.936  1.00  0.00    -0.508 OA 
HETATM    9  N   UNL     1     -11.643  12.573  70.032  1.00  0.00    -0.530 N  
HETATM   10  H   UNL     1     -11.265  12.321  70.945  1.00  0.00     0.000 HD 
BRANCH   9  11
HETATM   11  C   UNL     1     -12.102  13.926  69.793  1.00  0.00    -0.345 C  
BRANCH  11  12
HETATM   12  C   UNL     1     -11.015  14.852  69.257  1.00  0.00    -0.279 C  
BRANCH  12  13
HETATM   13  C   UNL     1     -11.331  15.470  67.901  1.00  0.00    -0.308 C  
HETATM   14  O   UNL     1     -11.171  14.483  66.884  1.00  0.00    -0.316 OA 
HETATM   15  H   UNL     1     -11.368  14.869  66.039  1.00  0.00     0.000 HD 
ENDBRANCH  12  13
ENDBRANCH  11  12
ENDBRANCH   9  11
ENDBRANCH   4   7
ENDBRANCH   2   4
BRANCH   2  16
HETATM   16  C   UNL     1     -10.632   9.387  67.110  1.00  0.00    -0.224 C  
HETATM   17  O   UNL     1     -10.191  10.345  66.155  1.00  0.00    -0.232 OA 
HETATM   18  H   UNL     1     -10.543  10.172  65.289  1.00  0.00     0.000 HD 
ENDBRANCH   2  16
TORSDOF 6
ENDMDL
MODEL      169
REMARK 921   NORMALIZED FREE ENERGY PREDICTED BY IDOCK:   -3.15 KCAL/MOL
REMARK 922        TOTAL FREE ENERGY PREDICTED BY IDOCK:   -4.78 KCAL/MOL
REMARK 923 INTER-LIGAND FREE ENERGY PREDICTED BY IDOCK:   -4.38 KCAL/MOL
REMARK 924 INTRA-LIGAND FREE ENERGY PREDICTED BY IDOCK:   -0.40 KCAL/MOL
REMARK 927      BINDING AFFINITY PREDICTED BY RF-SCORE:    0.00 PKD
ROOT
HETATM    1  C   UNL     1      -8.073   7.359  67.607  1.00  0.00    -0.114 C  
HETATM    2  C   UNL     1      -9.582   7.667  67.436  1.00  0.00    -0.187 C  
HETATM    3  C   UNL     1      -9.696   8.732  66.325  1.00  0.00    -0.342 C  
ENDROOT
BRANCH   2   4
HETATM    4  C   UNL     1     -10.168   8.187  68.784  1.00  0.00    -0.207 C  
HETATM    5  O   UNL     1     -11.241   9.118  68.590  1.00  0.00    -0.448 OA 
HETATM    6  H   UNL     1     -11.598   9.434  69.410  1.00  0.00     0.000 HD 
BRANCH   4   7
HETATM    7  C   UNL     1     -10.666   7.071  69.736  1.00  0.00    -0.241 C  
HETATM    8  O   UNL     1     -11.753   6.507  69.635  1.00  0.00    -0.357 OA 
HETATM    9  N   UNL     1      -9.754   6.711  70.707  1.00  0.00    -0.179 N  
HETATM   10  H   UNL     1      -8.844   7.172  70.743  1.00  0.00     0.000 HD 
BRANCH   9  11
HETATM   11  C   UNL     1     -10.076   5.684  71.675  1.00  0.00    -0.195 C  
BRANCH  11  12
HETATM   12  C   UNL     1     -10.361   6.229  73.071  1.00  0.00    -0.230 C  
BRANCH  12  13
HETATM   13  C   UNL     1     -10.460   7.747  73.143  1.00  0.00    -0.349 C  
HETATM   14  O   UNL     1     -11.796   8.147  72.842  1.00  0.00    -0.559 OA 
HETATM   15  H   UNL     1     -11.858   9.094  72.887  1.00  0.00     0.000 HD 
ENDBRANCH  12  13
ENDBRANCH  11  12
ENDBRANCH   9  11
ENDBRANCH   4   7
ENDBRANCH   2   4
BRANCH   2  16
HETATM   16  C   UNL     1     -10.288   6.346  67.030  1.00  0.00    -0.244 C  
HETATM   17  O   UNL     1     -11.659   6.554  66.709  1.00  0.00    -0.731 OA 
HETATM   18  H   UNL     1     -12.092   5.746  66.460  1.00  0.00     0.000 HD 
ENDBRANCH   2  16
TORSDOF 6
ENDMDL
MODEL      170
REMARK 921   NORMALIZED FREE ENERGY PREDICTED BY IDOCK:   -3.14 KCAL/MOL
REMARK 922        TOTAL FREE ENERGY PREDICTED BY IDOCK:   -4.77 KCAL/MOL
REMARK 923 INTER-LIGAND FREE ENERGY PREDICTED BY IDOCK:   -4.40 KCAL/MOL
REMARK 924 INTRA-LIGAND FREE ENERGY PREDICTED BY IDOCK:   -0.37 KCAL/MOL
REMARK 927      BINDING AFFINITY PREDICTED BY RF-SCORE:    0.00 PKD
ROOT
HETATM    1  C   UNL     1     -10.197  14.729  69.431  1.00  0.00    -0.141 C  
HETATM    2  C   UNL     1     -11.397  13.891  68.925  1.00  0.00    -0.319 C  
HETATM    3  C   UNL     1     -11.168  12.444  69.409  1.00  0.00    -0.225 C  
ENDROOT
BRANCH   2   4
HETATM    4  C   UNL     1     -11.471  13.965  67.369  1.00  0.00    -0.348 C  
HETATM    5  O   UNL     1     -12.780  14.316  66.902  1.00  0.00    -0.495 OA 
HETATM    6  H   UNL     1     -12.826  14.361  65.954  1.00  0.00     0.000 HD 
BRANCH   4   7
HETATM    7  C   UNL     1     -10.455  14.941  66.728  1.00  0.00    -0.284 C  
HETATM    8  O   UNL     1      -9.365  14.605  66.269  1.00  0.00    -0.286 OA 
HETATM    9  N   UNL     1     -10.894  16.248  66.662  1.00  0.00    -0.189 N  
HETATM   10  H   UNL     1     -11.818  16.490  67.018  1.00  0.00     0.000 HD 
BRANCH   9  11
HETATM   11  C   UNL     1     -10.052  17.280  66.093  1.00  0.00    -0.302 C  
BRANCH  11  12
HETATM   12  C   UNL     1      -9.896  18.504  66.989  1.00  0.00    -0.341 C  
BRANCH  12  13
HETATM   13  C   UNL     1     -10.364  19.807  66.358  1.00  0.00    -0.508 C  
HETATM   14  O   UNL     1      -9.478  20.859  66.733  1.00  0.00    -0.660 OA 
HETATM   15  H   UNL     1      -9.770  21.672  66.339  1.00  0.00     0.000 HD 
ENDBRANCH  12  13
ENDBRANCH  11  12
ENDBRANCH   9  11
ENDBRANCH   4   7
ENDBRANCH   2   4
BRANCH   2  16
HETATM   16  C   UNL     1     -12.686  14.497  69.543  1.00  0.00     0.155 C  
HETATM   17  O   UNL     1     -12.656  15.920  69.543  1.00  0.00    -0.459 OA 
HETATM   18  H   UNL     1     -13.445  16.291  69.921  1.00  0.00     0.000 HD 
ENDBRANCH   2  16
TORSDOF 6
ENDMDL
MODEL      171
REMARK 921   NORMALIZED FREE ENERGY PREDICTED BY IDOCK:   -3.13 KCAL/MOL
REMARK 922        TOTAL FREE ENERGY PREDICTED BY IDOCK:   -4.75 KCAL/MOL
REMARK 923 INTER-LIGAND FREE ENERGY PREDICTED BY IDOCK:   -4.56 KCAL/MOL
REMARK 924 INTRA-LIGAND FREE ENERGY PREDICTED BY IDOCK:   -0.19 KCAL/MOL
REMARK 927      BINDING AFFINITY PREDICTED BY RF-SCORE:    0.00 PKD
ROOT
HETATM    1  C   UNL     1      -9.304   6.010  71.247  1.00  0.00    -0.170 C  
HETATM    2  C   UNL     1     -10.745   6.348  71.705  1.00  0.00    -0.274 C  
HETATM    3  C   UNL     1     -11.105   5.348  72.823  1.00  0.00    -0.349 C  
ENDROOT
BRANCH   2   4
HETATM    4  C   UNL     1     -11.722   6.225  70.495  1.00  0.00    -0.219 C  
HETATM    5  O   UNL     1     -12.832   7.127  70.596  1.00  0.00    -0.609 OA 
HETATM    6  H   UNL     1     -13.427   7.052  69.861  1.00  0.00     0.000 HD 
BRANCH   4   7
HETATM    7  C   UNL     1     -11.057   6.434  69.113  1.00  0.00    -0.365 C  
HETATM    8  O   UNL     1     -10.554   5.536  68.441  1.00  0.00    -0.197 OA 
HETATM    9  N   UNL     1     -11.113   7.735  68.653  1.00  0.00    -0.401 N  
HETATM   10  H   UNL     1     -11.570   8.452  69.216  1.00  0.00     0.000 HD 
BRANCH   9  11
HETATM   11  C   UNL     1     -10.529   8.089  67.376  1.00  0.00    -0.287 C  
BRANCH  11  12
HETATM   12  C   UNL     1     -10.711   9.559  67.010  1.00  0.00    -0.220 C  
BRANCH  12  13
HETATM   13  C   UNL     1     -10.146   9.940  65.648  1.00  0.00    -0.237 C  
HETATM   14  O   UNL     1      -9.265   8.913  65.198  1.00  0.00    -0.401 OA 
HETATM   15  H   UNL     1      -8.913   9.151  64.348  1.00  0.00     0.000 HD 
ENDBRANCH  12  13
ENDBRANCH  11  12
ENDBRANCH   9  11
ENDBRANCH   4   7
ENDBRANCH   2   4
BRANCH   2  16
HETATM   16  C   UNL     1     -10.741   7.809  72.230  1.00  0.00    -0.269 C  
HETATM   17  O   UNL     1     -11.544   7.955  73.396  1.00  0.00    -0.566 OA 
HETATM   18  H   UNL     1     -11.541   8.850  73.718  1.00  0.00     0.000 HD 
ENDBRANCH   2  16
TORSDOF 6
ENDMDL
MODEL      172
REMARK 921   NORMALIZED FREE ENERGY PREDICTED BY IDOCK:   -3.10 KCAL/MOL
REMARK 922        TOTAL FREE ENERGY PREDICTED BY IDOCK:   -4.71 KCAL/MOL
REMARK 923 INTER-LIGAND FREE ENERGY PREDICTED BY IDOCK:   -4.73 KCAL/MOL
REMARK 924 INTRA-LIGAND FREE ENERGY PREDICTED BY IDOCK:    0.02 KCAL/MOL
REMARK 927      BINDING AFFINITY PREDICTED BY RF-SCORE:    0.00 PKD
ROOT
HETATM    1  C   UNL     1     -10.584  15.865  68.665  1.00  0.00    -0.250 C  
HETATM    2  C   UNL     1     -10.737  14.769  67.581  1.00  0.00    -0.270 C  
HETATM    3  C   UNL     1     -12.230  14.378  67.549  1.00  0.00    -0.210 C  
ENDROOT
BRANCH   2   4
HETATM    4  C   UNL     1      -9.837  13.547  67.939  1.00  0.00    -0.235 C  
HETATM    5  O   UNL     1     -10.449  12.683  68.906  1.00  0.00    -0.377 OA 
HETATM    6  H   UNL     1      -9.902  11.939  69.125  1.00  0.00     0.000 HD 
BRANCH   4   7
HETATM    7  C   UNL     1      -9.418  12.685  66.723  1.00  0.00    -0.237 C  
HETATM    8  O   UNL     1      -8.254  12.436  66.417  1.00  0.00     0.074 OA 
HETATM    9  N   UNL     1     -10.479  12.161  66.012  1.00  0.00    -0.241 N  
HETATM   10  H   UNL     1     -11.434  12.355  66.312  1.00  0.00     0.000 HD 
BRANCH   9  11
HETATM   11  C   UNL     1     -10.247  11.337  64.844  1.00  0.00    -0.286 C  
BRANCH  11  12
HETATM   12  C   UNL     1     -10.654  12.006  63.536  1.00  0.00    -0.514 C  
BRANCH  12  13
HETATM   13  C   UNL     1     -12.126  12.389  63.459  1.00  0.00    -0.558 C  
HETATM   14  O   UNL     1     -12.237  13.794  63.238  1.00  0.00    -1.021 OA 
HETATM   15  H   UNL     1     -13.155  14.033  63.190  1.00  0.00     0.000 HD 
ENDBRANCH  12  13
ENDBRANCH  11  12
ENDBRANCH   9  11
ENDBRANCH   4   7
ENDBRANCH   2   4
BRANCH   2  16
HETATM   16  C   UNL     1     -10.282  15.379  66.229  1.00  0.00    -0.290 C  
HETATM   17  O   UNL     1     -10.369  16.800  66.231  1.00  0.00    -0.312 OA 
HETATM   18  H   UNL     1     -10.090  17.174  65.403  1.00  0.00     0.000 HD 
ENDBRANCH   2  16
TORSDOF 6
ENDMDL
MODEL      173
REMARK 921   NORMALIZED FREE ENERGY PREDICTED BY IDOCK:   -3.10 KCAL/MOL
REMARK 922        TOTAL FREE ENERGY PREDICTED BY IDOCK:   -4.70 KCAL/MOL
REMARK 923 INTER-LIGAND FREE ENERGY PREDICTED BY IDOCK:   -4.72 KCAL/MOL
REMARK 924 INTRA-LIGAND FREE ENERGY PREDICTED BY IDOCK:    0.02 KCAL/MOL
REMARK 927      BINDING AFFINITY PREDICTED BY RF-SCORE:    0.00 PKD
ROOT
HETATM    1  C   UNL     1     -11.687  14.887  72.493  1.00  0.00    -0.297 C  
HETATM    2  C   UNL     1     -13.114  14.536  72.007  1.00  0.00    -0.425 C  
HETATM    3  C   UNL     1     -13.389  13.081  72.441  1.00  0.00    -0.563 C  
ENDROOT
BRANCH   2   4
HETATM    4  C   UNL     1     -13.194  14.691  70.457  1.00  0.00    -0.120 C  
HETATM    5  O   UNL     1     -13.477  16.038  70.058  1.00  0.00    -0.326 OA 
HETATM    6  H   UNL     1     -13.526  16.133  69.114  1.00  0.00     0.000 HD 
BRANCH   4   7
HETATM    7  C   UNL     1     -11.926  14.222  69.703  1.00  0.00    -0.336 C  
HETATM    8  O   UNL     1     -11.209  14.956  69.026  1.00  0.00    -0.238 OA 
HETATM    9  N   UNL     1     -11.621  12.888  69.890  1.00  0.00    -0.511 N  
HETATM   10  H   UNL     1     -12.214  12.312  70.487  1.00  0.00     0.000 HD 
BRANCH   9  11
HETATM   11  C   UNL     1     -10.465  12.300  69.245  1.00  0.00     0.191 C  
BRANCH  11  12
HETATM   12  C   UNL     1     -10.815  11.177  68.274  1.00  0.00    -0.258 C  
BRANCH  12  13
HETATM   13  C   UNL     1     -10.871   9.794  68.908  1.00  0.00    -0.192 C  
HETATM   14  O   UNL     1     -12.126   9.627  69.564  1.00  0.00    -0.274 OA 
HETATM   15  H   UNL     1     -12.161   8.764  69.960  1.00  0.00     0.000 HD 
ENDBRANCH  12  13
ENDBRANCH  11  12
ENDBRANCH   9  11
ENDBRANCH   4   7
ENDBRANCH   2   4
BRANCH   2  16
HETATM   16  C   UNL     1     -14.099  15.525  72.686  1.00  0.00    -0.450 C  
HETATM   17  O   UNL     1     -13.479  16.248  73.743  1.00  0.00    -0.924 OA 
HETATM   18  H   UNL     1     -14.082  16.854  74.159  1.00  0.00     0.000 HD 
ENDBRANCH   2  16
TORSDOF 6
ENDMDL
MODEL      174
REMARK 921   NORMALIZED FREE ENERGY PREDICTED BY IDOCK:   -3.09 KCAL/MOL
REMARK 922        TOTAL FREE ENERGY PREDICTED BY IDOCK:   -4.70 KCAL/MOL
REMARK 923 INTER-LIGAND FREE ENERGY PREDICTED BY IDOCK:   -4.24 KCAL/MOL
REMARK 924 INTRA-LIGAND FREE ENERGY PREDICTED BY IDOCK:   -0.46 KCAL/MOL
REMARK 927      BINDING AFFINITY PREDICTED BY RF-SCORE:    0.00 PKD
ROOT
HETATM    1  C   UNL     1      -8.655  10.668  66.975  1.00  0.00    -0.128 C  
HETATM    2  C   UNL     1      -9.318   9.584  66.091  1.00  0.00    -0.254 C  
HETATM    3  C   UNL     1      -9.662  10.254  64.744  1.00  0.00    -0.397 C  
ENDROOT
BRANCH   2   4
HETATM    4  C   UNL     1     -10.597   9.039  66.798  1.00  0.00    -0.131 C  
HETATM    5  O   UNL     1     -10.396   7.736  67.360  1.00  0.00    -0.231 OA 
HETATM    6  H   UNL     1     -11.175   7.404  67.791  1.00  0.00     0.000 HD 
BRANCH   4   7
HETATM    7  C   UNL     1     -11.153   9.962  67.910  1.00  0.00    -0.152 C  
HETATM    8  O   UNL     1     -11.790  10.992  67.704  1.00  0.00    -0.599 OA 
HETATM    9  N   UNL     1     -10.915   9.505  69.192  1.00  0.00    -0.390 N  
HETATM   10  H   UNL     1     -10.415   8.627  69.331  1.00  0.00     0.000 HD 
BRANCH   9  11
HETATM   11  C   UNL     1     -11.370  10.262  70.339  1.00  0.00    -0.332 C  
BRANCH  11  12
HETATM   12  C   UNL     1     -11.508   9.424  71.606  1.00  0.00    -0.463 C  
BRANCH  12  13
HETATM   13  C   UNL     1     -12.914   8.894  71.856  1.00  0.00    -0.382 C  
HETATM   14  O   UNL     1     -13.797   9.410  70.863  1.00  0.00    -0.558 OA 
HETATM   15  H   UNL     1     -14.673   9.079  71.019  1.00  0.00     0.000 HD 
ENDBRANCH  12  13
ENDBRANCH  11  12
ENDBRANCH   9  11
ENDBRANCH   4   7
ENDBRANCH   2   4
BRANCH   2  16
HETATM   16  C   UNL     1      -8.290   8.435  65.905  1.00  0.00    -0.134 C  
HETATM   17  O   UNL     1      -7.515   8.223  67.080  1.00  0.00    -0.086 OA 
HETATM   18  H   UNL     1      -6.886   7.520  66.967  1.00  0.00     0.000 HD 
ENDBRANCH   2  16
TORSDOF 6
ENDMDL
MODEL      175
REMARK 921   NORMALIZED FREE ENERGY PREDICTED BY IDOCK:   -3.08 KCAL/MOL
REMARK 922        TOTAL FREE ENERGY PREDICTED BY IDOCK:   -4.69 KCAL/MOL
REMARK 923 INTER-LIGAND FREE ENERGY PREDICTED BY IDOCK:   -4.01 KCAL/MOL
REMARK 924 INTRA-LIGAND FREE ENERGY PREDICTED BY IDOCK:   -0.68 KCAL/MOL
REMARK 927      BINDING AFFINITY PREDICTED BY RF-SCORE:    0.00 PKD
ROOT
HETATM    1  C   UNL     1      -7.475   7.994  68.958  1.00  0.00    -0.093 C  
HETATM    2  C   UNL     1      -8.913   8.290  69.453  1.00  0.00    -0.147 C  
HETATM    3  C   UNL     1      -8.832   9.559  70.326  1.00  0.00    -0.281 C  
ENDROOT
BRANCH   2   4
HETATM    4  C   UNL     1      -9.450   7.073  70.267  1.00  0.00    -0.165 C  
HETATM    5  O   UNL     1      -8.921   7.032  71.599  1.00  0.00    -0.135 OA 
HETATM    6  H   UNL     1      -9.247   6.291  72.095  1.00  0.00     0.000 HD 
BRANCH   4   7
HETATM    7  C   UNL     1     -10.993   6.998  70.360  1.00  0.00    -0.268 C  
HETATM    8  O   UNL     1     -11.700   6.300  69.636  1.00  0.00    -0.382 OA 
HETATM    9  N   UNL     1     -11.533   7.758  71.379  1.00  0.00    -0.255 N  
HETATM   10  H   UNL     1     -10.919   8.298  71.988  1.00  0.00     0.000 HD 
BRANCH   9  11
HETATM   11  C   UNL     1     -12.965   7.794  71.590  1.00  0.00    -0.345 C  
BRANCH  11  12
HETATM   12  C   UNL     1     -13.458   9.102  72.201  1.00  0.00    -0.530 C  
BRANCH  12  13
HETATM   13  C   UNL     1     -12.897  10.353  71.540  1.00  0.00    -0.464 C  
HETATM   14  O   UNL     1     -12.816  10.147  70.131  1.00  0.00    -0.571 OA 
HETATM   15  H   UNL     1     -12.466  10.928  69.719  1.00  0.00     0.000 HD 
ENDBRANCH  12  13
ENDBRANCH  11  12
ENDBRANCH   9  11
ENDBRANCH   4   7
ENDBRANCH   2   4
BRANCH   2  16
HETATM   16  C   UNL     1      -9.802   8.519  68.202  1.00  0.00    -0.165 C  
HETATM   17  O   UNL     1     -10.561   9.719  68.302  1.00  0.00    -0.209 OA 
HETATM   18  H   UNL     1     -11.106   9.859  67.536  1.00  0.00     0.000 HD 
ENDBRANCH   2  16
TORSDOF 6
ENDMDL
MODEL      176
REMARK 921   NORMALIZED FREE ENERGY PREDICTED BY IDOCK:   -3.08 KCAL/MOL
REMARK 922        TOTAL FREE ENERGY PREDICTED BY IDOCK:   -4.68 KCAL/MOL
REMARK 923 INTER-LIGAND FREE ENERGY PREDICTED BY IDOCK:   -4.19 KCAL/MOL
REMARK 924 INTRA-LIGAND FREE ENERGY PREDICTED BY IDOCK:   -0.49 KCAL/MOL
REMARK 927      BINDING AFFINITY PREDICTED BY RF-SCORE:    0.00 PKD
ROOT
HETATM    1  C   UNL     1      -9.717  13.756  66.603  1.00  0.00    -0.293 C  
HETATM    2  C   UNL     1     -11.235  13.947  66.362  1.00  0.00    -0.319 C  
HETATM    3  C   UNL     1     -11.799  14.654  67.612  1.00  0.00    -0.366 C  
ENDROOT
BRANCH   2   4
HETATM    4  C   UNL     1     -11.910  12.559  66.141  1.00  0.00    -0.397 C  
HETATM    5  O   UNL     1     -12.905  12.594  65.109  1.00  0.00    -0.721 OA 
HETATM    6  H   UNL     1     -13.316  11.749  64.974  1.00  0.00     0.000 HD 
BRANCH   4   7
HETATM    7  C   UNL     1     -10.921  11.413  65.816  1.00  0.00    -0.194 C  
HETATM    8  O   UNL     1     -10.270  11.331  64.777  1.00  0.00    -0.254 OA 
HETATM    9  N   UNL     1     -10.783  10.484  66.829  1.00  0.00    -0.221 N  
HETATM   10  H   UNL     1     -11.309  10.598  67.696  1.00  0.00     0.000 HD 
BRANCH   9  11
HETATM   11  C   UNL     1      -9.896   9.350  66.672  1.00  0.00    -0.245 C  
BRANCH  11  12
HETATM   12  C   UNL     1      -8.589   9.487  67.446  1.00  0.00    -0.125 C  
BRANCH  12  13
HETATM   13  C   UNL     1      -8.608  10.562  68.524  1.00  0.00    -0.135 C  
HETATM   14  O   UNL     1      -8.000  10.054  69.710  1.00  0.00    -0.155 OA 
HETATM   15  H   UNL     1      -8.011  10.725  70.382  1.00  0.00     0.000 HD 
ENDBRANCH  12  13
ENDBRANCH  11  12
ENDBRANCH   9  11
ENDBRANCH   4   7
ENDBRANCH   2   4
BRANCH   2  16
HETATM   16  C   UNL     1     -11.403  14.822  65.092  1.00  0.00    -0.379 C  
HETATM   17  O   UNL     1     -10.829  14.207  63.944  1.00  0.00    -0.384 OA 
HETATM   18  H   UNL     1     -10.932  14.743  63.166  1.00  0.00     0.000 HD 
ENDBRANCH   2  16
TORSDOF 6
ENDMDL
MODEL      177
REMARK 921   NORMALIZED FREE ENERGY PREDICTED BY IDOCK:   -3.08 KCAL/MOL
REMARK 922        TOTAL FREE ENERGY PREDICTED BY IDOCK:   -4.68 KCAL/MOL
REMARK 923 INTER-LIGAND FREE ENERGY PREDICTED BY IDOCK:   -4.42 KCAL/MOL
REMARK 924 INTRA-LIGAND FREE ENERGY PREDICTED BY IDOCK:   -0.25 KCAL/MOL
REMARK 927      BINDING AFFINITY PREDICTED BY RF-SCORE:    0.00 PKD
ROOT
HETATM    1  C   UNL     1      -8.508  10.407  68.206  1.00  0.00    -0.123 C  
HETATM    2  C   UNL     1      -7.394  11.429  67.870  1.00  0.00    -0.093 C  
HETATM    3  C   UNL     1      -6.251  11.192  68.880  1.00  0.00    -0.047 C  
ENDROOT
BRANCH   2   4
HETATM    4  C   UNL     1      -7.959  12.879  67.982  1.00  0.00    -0.158 C  
HETATM    5  O   UNL     1      -7.039  13.862  67.490  1.00  0.00    -0.175 OA 
HETATM    6  H   UNL     1      -7.383  14.745  67.558  1.00  0.00     0.000 HD 
BRANCH   4   7
HETATM    7  C   UNL     1      -9.316  13.090  67.268  1.00  0.00    -0.220 C  
HETATM    8  O   UNL     1     -10.412  12.867  67.778  1.00  0.00    -0.214 OA 
HETATM    9  N   UNL     1      -9.207  13.610  65.993  1.00  0.00    -0.491 N  
HETATM   10  H   UNL     1      -8.285  13.821  65.610  1.00  0.00     0.000 HD 
BRANCH   9  11
HETATM   11  C   UNL     1     -10.389  13.860  65.196  1.00  0.00    -0.383 C  
BRANCH  11  12
HETATM   12  C   UNL     1     -10.617  12.822  64.101  1.00  0.00    -0.441 C  
BRANCH  12  13
HETATM   13  C   UNL     1     -12.082  12.566  63.776  1.00  0.00    -0.529 C  
HETATM   14  O   UNL     1     -12.586  13.641  62.986  1.00  0.00    -0.957 OA 
HETATM   15  H   UNL     1     -13.499  13.481  62.782  1.00  0.00     0.000 HD 
ENDBRANCH  12  13
ENDBRANCH  11  12
ENDBRANCH   9  11
ENDBRANCH   4   7
ENDBRANCH   2   4
BRANCH   2  16
HETATM   16  C   UNL     1      -6.929  11.157  66.415  1.00  0.00    -0.093 C  
HETATM   17  O   UNL     1      -5.649  11.721  66.152  1.00  0.00    -0.498 OA 
HETATM   18  H   UNL     1      -5.364  11.554  65.261  1.00  0.00     0.000 HD 
ENDBRANCH   2  16
TORSDOF 6
ENDMDL
MODEL      178
REMARK 921   NORMALIZED FREE ENERGY PREDICTED BY IDOCK:   -3.08 KCAL/MOL
REMARK 922        TOTAL FREE ENERGY PREDICTED BY IDOCK:   -4.68 KCAL/MOL
REMARK 923 INTER-LIGAND FREE ENERGY PREDICTED BY IDOCK:   -4.00 KCAL/MOL
REMARK 924 INTRA-LIGAND FREE ENERGY PREDICTED BY IDOCK:   -0.68 KCAL/MOL
REMARK 927      BINDING AFFINITY PREDICTED BY RF-SCORE:    0.00 PKD
ROOT
HETATM    1  C   UNL     1      -8.717   7.686  68.930  1.00  0.00    -0.135 C  
HETATM    2  C   UNL     1     -10.250   7.690  68.708  1.00  0.00    -0.210 C  
HETATM    3  C   UNL     1     -10.807   8.917  69.459  1.00  0.00    -0.163 C  
ENDROOT
BRANCH   2   4
HETATM    4  C   UNL     1     -10.863   6.363  69.254  1.00  0.00    -0.327 C  
HETATM    5  O   UNL     1      -9.959   5.256  69.135  1.00  0.00    -0.170 OA 
HETATM    6  H   UNL     1     -10.332   4.448  69.467  1.00  0.00     0.000 HD 
BRANCH   4   7
HETATM    7  C   UNL     1     -11.340   6.438  70.725  1.00  0.00    -0.350 C  
HETATM    8  O   UNL     1     -12.475   6.756  71.071  1.00  0.00    -0.367 OA 
HETATM    9  N   UNL     1     -10.382   6.064  71.647  1.00  0.00    -0.208 N  
HETATM   10  H   UNL     1      -9.460   5.770  71.327  1.00  0.00     0.000 HD 
BRANCH   9  11
HETATM   11  C   UNL     1     -10.677   6.087  73.064  1.00  0.00    -0.252 C  
BRANCH  11  12
HETATM   12  C   UNL     1     -10.283   7.391  73.748  1.00  0.00    -0.321 C  
BRANCH  12  13
HETATM   13  C   UNL     1      -8.843   7.820  73.499  1.00  0.00    -0.255 C  
HETATM   14  O   UNL     1      -8.811   8.773  72.439  1.00  0.00    -0.391 OA 
HETATM   15  H   UNL     1      -7.913   9.040  72.284  1.00  0.00     0.000 HD 
ENDBRANCH  12  13
ENDBRANCH  11  12
ENDBRANCH   9  11
ENDBRANCH   4   7
ENDBRANCH   2   4
BRANCH   2  16
HETATM   16  C   UNL     1     -10.503   7.797  67.181  1.00  0.00    -0.343 C  
HETATM   17  O   UNL     1     -10.845   6.539  66.610  1.00  0.00    -0.506 OA 
HETATM   18  H   UNL     1     -11.000   6.605  65.674  1.00  0.00     0.000 HD 
ENDBRANCH   2  16
TORSDOF 6
ENDMDL
MODEL      179
REMARK 921   NORMALIZED FREE ENERGY PREDICTED BY IDOCK:   -3.06 KCAL/MOL
REMARK 922        TOTAL FREE ENERGY PREDICTED BY IDOCK:   -4.65 KCAL/MOL
REMARK 923 INTER-LIGAND FREE ENERGY PREDICTED BY IDOCK:   -4.75 KCAL/MOL
REMARK 924 INTRA-LIGAND FREE ENERGY PREDICTED BY IDOCK:    0.10 KCAL/MOL
REMARK 927      BINDING AFFINITY PREDICTED BY RF-SCORE:    0.00 PKD
ROOT
HETATM    1  C   UNL     1     -10.752   9.321  67.398  1.00  0.00    -0.263 C  
HETATM    2  C   UNL     1     -10.865  10.518  68.374  1.00  0.00    -0.284 C  
HETATM    3  C   UNL     1      -9.518  11.269  68.319  1.00  0.00    -0.190 C  
ENDROOT
BRANCH   2   4
HETATM    4  C   UNL     1     -11.168   9.997  69.812  1.00  0.00    -0.258 C  
HETATM    5  O   UNL     1     -10.016  10.052  70.665  1.00  0.00    -0.363 OA 
HETATM    6  H   UNL     1     -10.200   9.734  71.541  1.00  0.00     0.000 HD 
BRANCH   4   7
HETATM    7  C   UNL     1     -12.329  10.731  70.526  1.00  0.00    -0.369 C  
HETATM    8  O   UNL     1     -13.396  10.205  70.838  1.00  0.00    -0.388 OA 
HETATM    9  N   UNL     1     -12.055  12.047  70.840  1.00  0.00    -0.408 N  
HETATM   10  H   UNL     1     -11.147  12.446  70.602  1.00  0.00     0.000 HD 
BRANCH   9  11
HETATM   11  C   UNL     1     -13.046  12.867  71.506  1.00  0.00    -0.298 C  
BRANCH  11  12
HETATM   12  C   UNL     1     -13.147  14.280  70.941  1.00  0.00    -0.368 C  
BRANCH  12  13
HETATM   13  C   UNL     1     -12.990  15.383  71.980  1.00  0.00    -0.401 C  
HETATM   14  O   UNL     1     -13.492  14.925  73.234  1.00  0.00    -0.536 OA 
HETATM   15  H   UNL     1     -13.394  15.612  73.881  1.00  0.00     0.000 HD 
ENDBRANCH  12  13
ENDBRANCH  11  12
ENDBRANCH   9  11
ENDBRANCH   4   7
ENDBRANCH   2   4
BRANCH   2  16
HETATM   16  C   UNL     1     -12.033  11.415  67.883  1.00  0.00    -0.045 C  
HETATM   17  O   UNL     1     -11.843  11.846  66.540  1.00  0.00    -0.579 OA 
HETATM   18  H   UNL     1     -12.558  12.395  66.239  1.00  0.00     0.000 HD 
ENDBRANCH   2  16
TORSDOF 6
ENDMDL
MODEL      180
REMARK 921   NORMALIZED FREE ENERGY PREDICTED BY IDOCK:   -3.05 KCAL/MOL
REMARK 922        TOTAL FREE ENERGY PREDICTED BY IDOCK:   -4.64 KCAL/MOL
REMARK 923 INTER-LIGAND FREE ENERGY PREDICTED BY IDOCK:   -3.77 KCAL/MOL
REMARK 924 INTRA-LIGAND FREE ENERGY PREDICTED BY IDOCK:   -0.88 KCAL/MOL
REMARK 927      BINDING AFFINITY PREDICTED BY RF-SCORE:    0.00 PKD
ROOT
HETATM    1  C   UNL     1      -9.319   5.519  71.426  1.00  0.00    -0.174 C  
HETATM    2  C   UNL     1     -10.623   6.345  71.557  1.00  0.00    -0.273 C  
HETATM    3  C   UNL     1     -11.527   5.596  72.559  1.00  0.00    -0.335 C  
ENDROOT
BRANCH   2   4
HETATM    4  C   UNL     1     -11.306   6.473  70.161  1.00  0.00    -0.402 C  
HETATM    5  O   UNL     1     -12.642   6.984  70.252  1.00  0.00    -0.603 OA 
HETATM    6  H   UNL     1     -13.059   7.062  69.402  1.00  0.00     0.000 HD 
BRANCH   4   7
HETATM    7  C   UNL     1     -10.526   7.345  69.147  1.00  0.00    -0.213 C  
HETATM    8  O   UNL     1      -9.649   6.922  68.397  1.00  0.00    -0.128 OA 
HETATM    9  N   UNL     1     -10.933   8.664  69.109  1.00  0.00    -0.430 N  
HETATM   10  H   UNL     1     -11.690   8.978  69.717  1.00  0.00     0.000 HD 
BRANCH   9  11
HETATM   11  C   UNL     1     -10.295   9.606  68.213  1.00  0.00    -0.204 C  
BRANCH  11  12
HETATM   12  C   UNL     1      -9.515  10.700  68.935  1.00  0.00    -0.199 C  
BRANCH  12  13
HETATM   13  C   UNL     1      -8.078  10.327  69.273  1.00  0.00    -0.155 C  
HETATM   14  O   UNL     1      -7.726   9.129  68.583  1.00  0.00    -0.090 OA 
HETATM   15  H   UNL     1      -6.830   8.896  68.794  1.00  0.00     0.000 HD 
ENDBRANCH  12  13
ENDBRANCH  11  12
ENDBRANCH   9  11
ENDBRANCH   4   7
ENDBRANCH   2   4
BRANCH   2  16
HETATM   16  C   UNL     1     -10.237   7.752  72.085  1.00  0.00    -0.213 C  
HETATM   17  O   UNL     1     -11.377   8.587  72.254  1.00  0.00    -0.350 OA 
HETATM   18  H   UNL     1     -11.141   9.449  72.577  1.00  0.00     0.000 HD 
ENDBRANCH   2  16
TORSDOF 6
ENDMDL
MODEL      181
REMARK 921   NORMALIZED FREE ENERGY PREDICTED BY IDOCK:   -3.05 KCAL/MOL
REMARK 922        TOTAL FREE ENERGY PREDICTED BY IDOCK:   -4.64 KCAL/MOL
REMARK 923 INTER-LIGAND FREE ENERGY PREDICTED BY IDOCK:   -4.12 KCAL/MOL
REMARK 924 INTRA-LIGAND FREE ENERGY PREDICTED BY IDOCK:   -0.52 KCAL/MOL
REMARK 927      BINDING AFFINITY PREDICTED BY RF-SCORE:    0.00 PKD
ROOT
HETATM    1  C   UNL     1      -7.676  14.691  67.267  1.00  0.00    -0.198 C  
HETATM    2  C   UNL     1      -9.063  14.038  67.487  1.00  0.00    -0.196 C  
HETATM    3  C   UNL     1      -9.901  14.332  66.226  1.00  0.00    -0.323 C  
ENDROOT
BRANCH   2   4
HETATM    4  C   UNL     1      -9.728  14.636  68.765  1.00  0.00    -0.217 C  
HETATM    5  O   UNL     1      -8.772  14.925  69.793  1.00  0.00    -0.444 OA 
HETATM    6  H   UNL     1      -9.177  15.289  70.571  1.00  0.00     0.000 HD 
BRANCH   4   7
HETATM    7  C   UNL     1     -10.561  15.917  68.510  1.00  0.00    -0.263 C  
HETATM    8  O   UNL     1     -11.789  15.956  68.501  1.00  0.00    -0.366 OA 
HETATM    9  N   UNL     1      -9.801  17.057  68.336  1.00  0.00    -0.269 N  
HETATM   10  H   UNL     1      -8.784  16.999  68.385  1.00  0.00     0.000 HD 
BRANCH   9  11
HETATM   11  C   UNL     1     -10.436  18.333  68.083  1.00  0.00    -0.338 C  
BRANCH  11  12
HETATM   12  C   UNL     1      -9.505  19.363  67.452  1.00  0.00    -0.397 C  
BRANCH  12  13
HETATM   13  C   UNL     1      -8.024  19.049  67.610  1.00  0.00    -0.259 C  
HETATM   14  O   UNL     1      -7.690  19.027  68.996  1.00  0.00    -0.321 OA 
HETATM   15  H   UNL     1      -6.766  18.830  69.094  1.00  0.00     0.000 HD 
ENDBRANCH  12  13
ENDBRANCH  11  12
ENDBRANCH   9  11
ENDBRANCH   4   7
ENDBRANCH   2   4
BRANCH   2  16
HETATM   16  C   UNL     1      -8.840  12.513  67.676  1.00  0.00    -0.179 C  
HETATM   17  O   UNL     1      -8.372  12.203  68.984  1.00  0.00    -0.352 OA 
HETATM   18  H   UNL     1      -8.235  11.270  69.099  1.00  0.00     0.000 HD 
ENDBRANCH   2  16
TORSDOF 6
ENDMDL
MODEL      182
REMARK 921   NORMALIZED FREE ENERGY PREDICTED BY IDOCK:   -3.05 KCAL/MOL
REMARK 922        TOTAL FREE ENERGY PREDICTED BY IDOCK:   -4.64 KCAL/MOL
REMARK 923 INTER-LIGAND FREE ENERGY PREDICTED BY IDOCK:   -4.27 KCAL/MOL
REMARK 924 INTRA-LIGAND FREE ENERGY PREDICTED BY IDOCK:   -0.37 KCAL/MOL
REMARK 927      BINDING AFFINITY PREDICTED BY RF-SCORE:    0.00 PKD
ROOT
HETATM    1  C   UNL     1     -13.085  11.421  71.821  1.00  0.00    -0.523 C  
HETATM    2  C   UNL     1     -12.719  10.028  71.254  1.00  0.00    -0.500 C  
HETATM    3  C   UNL     1     -14.028   9.400  70.731  1.00  0.00     0.280 C  
ENDROOT
BRANCH   2   4
HETATM    4  C   UNL     1     -12.079   9.154  72.377  1.00  0.00    -0.154 C  
HETATM    5  O   UNL     1     -12.973   8.141  72.856  1.00  0.00    -0.528 OA 
HETATM    6  H   UNL     1     -12.584   7.610  73.539  1.00  0.00     0.000 HD 
BRANCH   4   7
HETATM    7  C   UNL     1     -10.750   8.471  71.973  1.00  0.00    -0.340 C  
HETATM    8  O   UNL     1      -9.634   8.936  72.194  1.00  0.00    -0.301 OA 
HETATM    9  N   UNL     1     -10.911   7.238  71.372  1.00  0.00    -0.229 N  
HETATM   10  H   UNL     1     -11.848   6.860  71.236  1.00  0.00     0.000 HD 
BRANCH   9  11
HETATM   11  C   UNL     1      -9.760   6.477  70.934  1.00  0.00    -0.176 C  
BRANCH  11  12
HETATM   12  C   UNL     1      -9.697   5.071  71.524  1.00  0.00    -0.227 C  
BRANCH  12  13
HETATM   13  C   UNL     1      -9.765   5.026  73.044  1.00  0.00    -0.146 C  
HETATM   14  O   UNL     1     -11.111   5.246  73.463  1.00  0.00    -0.340 OA 
HETATM   15  H   UNL     1     -11.153   5.217  74.412  1.00  0.00     0.000 HD 
ENDBRANCH  12  13
ENDBRANCH  11  12
ENDBRANCH   9  11
ENDBRANCH   4   7
ENDBRANCH   2   4
BRANCH   2  16
HETATM   16  C   UNL     1     -11.696  10.242  70.106  1.00  0.00    -0.284 C  
HETATM   17  O   UNL     1     -12.327  10.675  68.907  1.00  0.00    -0.800 OA 
HETATM   18  H   UNL     1     -11.701  10.806  68.204  1.00  0.00     0.000 HD 
ENDBRANCH   2  16
TORSDOF 6
ENDMDL
MODEL      183
REMARK 921   NORMALIZED FREE ENERGY PREDICTED BY IDOCK:   -3.05 KCAL/MOL
REMARK 922        TOTAL FREE ENERGY PREDICTED BY IDOCK:   -4.64 KCAL/MOL
REMARK 923 INTER-LIGAND FREE ENERGY PREDICTED BY IDOCK:   -4.04 KCAL/MOL
REMARK 924 INTRA-LIGAND FREE ENERGY PREDICTED BY IDOCK:   -0.60 KCAL/MOL
REMARK 927      BINDING AFFINITY PREDICTED BY RF-SCORE:    0.00 PKD
ROOT
HETATM    1  C   UNL     1     -10.076  14.512  67.360  1.00  0.00    -0.235 C  
HETATM    2  C   UNL     1     -11.366  13.732  67.717  1.00  0.00    -0.331 C  
HETATM    3  C   UNL     1     -11.945  14.386  68.989  1.00  0.00    -0.342 C  
ENDROOT
BRANCH   2   4
HETATM    4  C   UNL     1     -11.021  12.230  67.957  1.00  0.00    -0.225 C  
HETATM    5  O   UNL     1     -12.106  11.359  67.607  1.00  0.00    -0.630 OA 
HETATM    6  H   UNL     1     -11.897  10.445  67.753  1.00  0.00     0.000 HD 
BRANCH   4   7
HETATM    7  C   UNL     1      -9.754  11.740  67.215  1.00  0.00    -0.178 C  
HETATM    8  O   UNL     1      -8.639  11.655  67.726  1.00  0.00    -0.134 OA 
HETATM    9  N   UNL     1      -9.981  11.346  65.911  1.00  0.00    -0.224 N  
HETATM   10  H   UNL     1     -10.925  11.392  65.526  1.00  0.00     0.000 HD 
BRANCH   9  11
HETATM   11  C   UNL     1      -8.892  10.867  65.086  1.00  0.00    -0.156 C  
BRANCH  11  12
HETATM   12  C   UNL     1      -9.054   9.417  64.643  1.00  0.00    -0.228 C  
BRANCH  12  13
HETATM   13  C   UNL     1      -8.855   8.396  65.755  1.00  0.00    -0.165 C  
HETATM   14  O   UNL     1     -10.120   8.069  66.328  1.00  0.00    -0.473 OA 
HETATM   15  H   UNL     1      -9.996   7.432  67.022  1.00  0.00     0.000 HD 
ENDBRANCH  12  13
ENDBRANCH  11  12
ENDBRANCH   9  11
ENDBRANCH   4   7
ENDBRANCH   2   4
BRANCH   2  16
HETATM   16  C   UNL     1     -12.342  13.863  66.518  1.00  0.00    -0.404 C  
HETATM   17  O   UNL     1     -11.653  13.899  65.274  1.00  0.00    -0.311 OA 
HETATM   18  H   UNL     1     -12.250  13.979  64.539  1.00  0.00     0.000 HD 
ENDBRANCH   2  16
TORSDOF 6
ENDMDL
MODEL      184
REMARK 921   NORMALIZED FREE ENERGY PREDICTED BY IDOCK:   -3.04 KCAL/MOL
REMARK 922        TOTAL FREE ENERGY PREDICTED BY IDOCK:   -4.63 KCAL/MOL
REMARK 923 INTER-LIGAND FREE ENERGY PREDICTED BY IDOCK:   -4.32 KCAL/MOL
REMARK 924 INTRA-LIGAND FREE ENERGY PREDICTED BY IDOCK:   -0.31 KCAL/MOL
REMARK 927      BINDING AFFINITY PREDICTED BY RF-SCORE:    0.00 PKD
ROOT
HETATM    1  C   UNL     1      -9.678  19.105  68.608  1.00  0.00    -0.478 C  
HETATM    2  C   UNL     1      -8.385  18.829  67.802  1.00  0.00    -0.293 C  
HETATM    3  C   UNL     1      -8.289  19.925  66.721  1.00  0.00    -0.364 C  
ENDROOT
BRANCH   2   4
HETATM    4  C   UNL     1      -8.456  17.407  67.165  1.00  0.00    -0.211 C  
HETATM    5  O   UNL     1      -7.850  16.407  67.995  1.00  0.00    -0.150 OA 
HETATM    6  H   UNL     1      -7.894  15.541  67.607  1.00  0.00     0.000 HD 
BRANCH   4   7
HETATM    7  C   UNL     1      -9.889  16.937  66.814  1.00  0.00    -0.279 C  
HETATM    8  O   UNL     1     -10.625  17.497  66.004  1.00  0.00    -0.331 OA 
HETATM    9  N   UNL     1     -10.275  15.779  67.460  1.00  0.00    -0.260 N  
HETATM   10  H   UNL     1      -9.629  15.316  68.099  1.00  0.00     0.000 HD 
BRANCH   9  11
HETATM   11  C   UNL     1     -11.591  15.216  67.238  1.00  0.00    -0.223 C  
BRANCH  11  12
HETATM   12  C   UNL     1     -11.584  13.987  66.335  1.00  0.00    -0.381 C  
BRANCH  12  13
HETATM   13  C   UNL     1     -10.394  13.911  65.389  1.00  0.00    -0.348 C  
HETATM   14  O   UNL     1      -9.261  13.406  66.094  1.00  0.00    -0.462 OA 
HETATM   15  H   UNL     1      -8.519  13.358  65.504  1.00  0.00     0.000 HD 
ENDBRANCH  12  13
ENDBRANCH  11  12
ENDBRANCH   9  11
ENDBRANCH   4   7
ENDBRANCH   2   4
BRANCH   2  16
HETATM   16  C   UNL     1      -7.191  18.903  68.791  1.00  0.00    -0.318 C  
HETATM   17  O   UNL     1      -6.103  19.647  68.255  1.00  0.00    -0.222 OA 
HETATM   18  H   UNL     1      -5.371  19.693  68.860  1.00  0.00     0.000 HD 
ENDBRANCH   2  16
TORSDOF 6
ENDMDL
MODEL      185
REMARK 921   NORMALIZED FREE ENERGY PREDICTED BY IDOCK:   -3.03 KCAL/MOL
REMARK 922        TOTAL FREE ENERGY PREDICTED BY IDOCK:   -4.62 KCAL/MOL
REMARK 923 INTER-LIGAND FREE ENERGY PREDICTED BY IDOCK:   -3.78 KCAL/MOL
REMARK 924 INTRA-LIGAND FREE ENERGY PREDICTED BY IDOCK:   -0.83 KCAL/MOL
REMARK 927      BINDING AFFINITY PREDICTED BY RF-SCORE:    0.00 PKD
ROOT
HETATM    1  C   UNL     1      -8.919  15.851  67.085  1.00  0.00    -0.226 C  
HETATM    2  C   UNL     1      -9.486  14.414  67.198  1.00  0.00    -0.225 C  
HETATM    3  C   UNL     1      -8.277  13.468  67.348  1.00  0.00    -0.187 C  
ENDROOT
BRANCH   2   4
HETATM    4  C   UNL     1     -10.318  14.076  65.923  1.00  0.00    -0.318 C  
HETATM    5  O   UNL     1      -9.849  14.777  64.764  1.00  0.00    -0.397 OA 
HETATM    6  H   UNL     1     -10.356  14.571  63.988  1.00  0.00     0.000 HD 
BRANCH   4   7
HETATM    7  C   UNL     1     -10.376  12.567  65.582  1.00  0.00    -0.271 C  
HETATM    8  O   UNL     1     -11.022  11.735  66.216  1.00  0.00    -0.278 OA 
HETATM    9  N   UNL     1      -9.667  12.219  64.449  1.00  0.00    -0.508 N  
HETATM   10  H   UNL     1      -9.170  12.937  63.922  1.00  0.00     0.000 HD 
BRANCH   9  11
HETATM   11  C   UNL     1      -9.621  10.842  64.003  1.00  0.00    -0.291 C  
BRANCH  11  12
HETATM   12  C   UNL     1      -8.215  10.251  63.991  1.00  0.00    -0.151 C  
BRANCH  12  13
HETATM   13  C   UNL     1      -7.511  10.283  65.341  1.00  0.00    -0.145 C  
HETATM   14  O   UNL     1      -8.468  10.082  66.378  1.00  0.00    -0.127 OA 
HETATM   15  H   UNL     1      -8.028  10.101  67.220  1.00  0.00     0.000 HD 
ENDBRANCH  12  13
ENDBRANCH  11  12
ENDBRANCH   9  11
ENDBRANCH   4   7
ENDBRANCH   2   4
BRANCH   2  16
HETATM   16  C   UNL     1     -10.400  14.368  68.451  1.00  0.00    -0.244 C  
HETATM   17  O   UNL     1     -10.420  13.075  69.047  1.00  0.00    -0.412 OA 
HETATM   18  H   UNL     1     -10.980  13.047  69.814  1.00  0.00     0.000 HD 
ENDBRANCH   2  16
TORSDOF 6
ENDMDL
MODEL      186
REMARK 921   NORMALIZED FREE ENERGY PREDICTED BY IDOCK:   -3.00 KCAL/MOL
REMARK 922        TOTAL FREE ENERGY PREDICTED BY IDOCK:   -4.57 KCAL/MOL
REMARK 923 INTER-LIGAND FREE ENERGY PREDICTED BY IDOCK:   -4.69 KCAL/MOL
REMARK 924 INTRA-LIGAND FREE ENERGY PREDICTED BY IDOCK:    0.12 KCAL/MOL
REMARK 927      BINDING AFFINITY PREDICTED BY RF-SCORE:    0.00 PKD
ROOT
HETATM    1  C   UNL     1     -11.665  15.098  72.759  1.00  0.00    -0.442 C  
HETATM    2  C   UNL     1     -12.911  14.623  71.971  1.00  0.00    -0.411 C  
HETATM    3  C   UNL     1     -13.108  13.130  72.304  1.00  0.00    -0.458 C  
ENDROOT
BRANCH   2   4
HETATM    4  C   UNL     1     -12.681  14.840  70.444  1.00  0.00    -0.316 C  
HETATM    5  O   UNL     1     -13.724  15.617  69.840  1.00  0.00    -0.063 OA 
HETATM    6  H   UNL     1     -13.584  15.749  68.910  1.00  0.00     0.000 HD 
BRANCH   4   7
HETATM    7  C   UNL     1     -11.325  15.498  70.090  1.00  0.00    -0.326 C  
HETATM    8  O   UNL     1     -11.161  16.705  69.925  1.00  0.00    -0.305 OA 
HETATM    9  N   UNL     1     -10.270  14.610  70.019  1.00  0.00    -0.414 N  
HETATM   10  H   UNL     1     -10.430  13.619  70.197  1.00  0.00     0.000 HD 
BRANCH   9  11
HETATM   11  C   UNL     1      -8.938  15.075  69.693  1.00  0.00     0.022 C  
BRANCH  11  12
HETATM   12  C   UNL     1      -8.143  14.095  68.836  1.00  0.00    -0.034 C  
BRANCH  12  13
HETATM   13  C   UNL     1      -7.113  14.750  67.926  1.00  0.00    -0.158 C  
HETATM   14  O   UNL     1      -6.645  13.794  66.977  1.00  0.00    -0.390 OA 
HETATM   15  H   UNL     1      -6.003  14.202  66.409  1.00  0.00     0.000 HD 
ENDBRANCH  12  13
ENDBRANCH  11  12
ENDBRANCH   9  11
ENDBRANCH   4   7
ENDBRANCH   2   4
BRANCH   2  16
HETATM   16  C   UNL     1     -14.120  15.473  72.447  1.00  0.00    -0.536 C  
HETATM   17  O   UNL     1     -13.820  16.208  73.628  1.00  0.00    -0.856 OA 
HETATM   18  H   UNL     1     -14.560  16.728  73.920  1.00  0.00     0.000 HD 
ENDBRANCH   2  16
TORSDOF 6
ENDMDL
MODEL      187
REMARK 921   NORMALIZED FREE ENERGY PREDICTED BY IDOCK:   -2.99 KCAL/MOL
REMARK 922        TOTAL FREE ENERGY PREDICTED BY IDOCK:   -4.56 KCAL/MOL
REMARK 923 INTER-LIGAND FREE ENERGY PREDICTED BY IDOCK:   -4.43 KCAL/MOL
REMARK 924 INTRA-LIGAND FREE ENERGY PREDICTED BY IDOCK:   -0.13 KCAL/MOL
REMARK 927      BINDING AFFINITY PREDICTED BY RF-SCORE:    0.00 PKD
ROOT
HETATM    1  C   UNL     1      -7.379   9.398  67.395  1.00  0.00    -0.087 C  
HETATM    2  C   UNL     1      -8.177  10.314  68.356  1.00  0.00    -0.114 C  
HETATM    3  C   UNL     1      -7.648  10.038  69.779  1.00  0.00    -0.167 C  
ENDROOT
BRANCH   2   4
HETATM    4  C   UNL     1      -9.699   9.994  68.243  1.00  0.00    -0.141 C  
HETATM    5  O   UNL     1     -10.161   9.159  69.313  1.00  0.00    -0.197 OA 
HETATM    6  H   UNL     1     -11.088   8.964  69.245  1.00  0.00     0.000 HD 
BRANCH   4   7
HETATM    7  C   UNL     1     -10.611  11.244  68.182  1.00  0.00    -0.192 C  
HETATM    8  O   UNL     1     -10.954  11.903  69.161  1.00  0.00    -0.234 OA 
HETATM    9  N   UNL     1     -10.984  11.606  66.902  1.00  0.00    -0.277 N  
HETATM   10  H   UNL     1     -10.654  11.061  66.106  1.00  0.00     0.000 HD 
BRANCH   9  11
HETATM   11  C   UNL     1     -11.841  12.752  66.682  1.00  0.00    -0.393 C  
BRANCH  11  12
HETATM   12  C   UNL     1     -12.402  12.831  65.266  1.00  0.00    -0.546 C  
BRANCH  12  13
HETATM   13  C   UNL     1     -12.007  14.089  64.505  1.00  0.00    -0.448 C  
HETATM   14  O   UNL     1     -12.502  14.008  63.170  1.00  0.00    -1.137 OA 
HETATM   15  H   UNL     1     -12.256  14.793  62.695  1.00  0.00     0.000 HD 
ENDBRANCH  12  13
ENDBRANCH  11  12
ENDBRANCH   9  11
ENDBRANCH   4   7
ENDBRANCH   2   4
BRANCH   2  16
HETATM   16  C   UNL     1      -7.915  11.783  67.929  1.00  0.00    -0.141 C  
HETATM   17  O   UNL     1      -7.860  11.923  66.514  1.00  0.00    -0.355 OA 
HETATM   18  H   UNL     1      -7.700  12.822  66.252  1.00  0.00     0.000 HD 
ENDBRANCH   2  16
TORSDOF 6
ENDMDL
MODEL      188
REMARK 921   NORMALIZED FREE ENERGY PREDICTED BY IDOCK:   -2.99 KCAL/MOL
REMARK 922        TOTAL FREE ENERGY PREDICTED BY IDOCK:   -4.56 KCAL/MOL
REMARK 923 INTER-LIGAND FREE ENERGY PREDICTED BY IDOCK:   -4.15 KCAL/MOL
REMARK 924 INTRA-LIGAND FREE ENERGY PREDICTED BY IDOCK:   -0.41 KCAL/MOL
REMARK 927      BINDING AFFINITY PREDICTED BY RF-SCORE:    0.00 PKD
ROOT
HETATM    1  C   UNL     1      -8.381   7.280  67.779  1.00  0.00    -0.118 C  
HETATM    2  C   UNL     1      -9.787   7.734  68.244  1.00  0.00    -0.185 C  
HETATM    3  C   UNL     1     -10.734   7.561  67.039  1.00  0.00    -0.367 C  
ENDROOT
BRANCH   2   4
HETATM    4  C   UNL     1      -9.729   9.221  68.714  1.00  0.00    -0.157 C  
HETATM    5  O   UNL     1      -8.952  10.041  67.832  1.00  0.00    -0.131 OA 
HETATM    6  H   UNL     1      -8.916  10.946  68.117  1.00  0.00     0.000 HD 
BRANCH   4   7
HETATM    7  C   UNL     1     -11.115   9.887  68.892  1.00  0.00    -0.140 C  
HETATM    8  O   UNL     1     -11.695  10.530  68.019  1.00  0.00    -0.450 OA 
HETATM    9  N   UNL     1     -11.694   9.660  70.126  1.00  0.00    -0.435 N  
HETATM   10  H   UNL     1     -11.205   9.092  70.817  1.00  0.00     0.000 HD 
BRANCH   9  11
HETATM   11  C   UNL     1     -12.990  10.223  70.445  1.00  0.00    -0.094 C  
BRANCH  11  12
HETATM   12  C   UNL     1     -13.079  10.780  71.862  1.00  0.00    -0.557 C  
BRANCH  12  13
HETATM   13  C   UNL     1     -13.128  12.300  71.935  1.00  0.00    -0.363 C  
HETATM   14  O   UNL     1     -12.444  12.850  70.811  1.00  0.00    -0.349 OA 
HETATM   15  H   UNL     1     -12.474  13.798  70.857  1.00  0.00     0.000 HD 
ENDBRANCH  12  13
ENDBRANCH  11  12
ENDBRANCH   9  11
ENDBRANCH   4   7
ENDBRANCH   2   4
BRANCH   2  16
HETATM   16  C   UNL     1     -10.206   6.824  69.430  1.00  0.00    -0.187 C  
HETATM   17  O   UNL     1     -11.607   6.579  69.440  1.00  0.00    -0.619 OA 
HETATM   18  H   UNL     1     -11.864   6.021  70.166  1.00  0.00     0.000 HD 
ENDBRANCH   2  16
TORSDOF 6
ENDMDL
MODEL      189
REMARK 921   NORMALIZED FREE ENERGY PREDICTED BY IDOCK:   -2.98 KCAL/MOL
REMARK 922        TOTAL FREE ENERGY PREDICTED BY IDOCK:   -4.55 KCAL/MOL
REMARK 923 INTER-LIGAND FREE ENERGY PREDICTED BY IDOCK:   -4.05 KCAL/MOL
REMARK 924 INTRA-LIGAND FREE ENERGY PREDICTED BY IDOCK:   -0.49 KCAL/MOL
REMARK 927      BINDING AFFINITY PREDICTED BY RF-SCORE:    0.00 PKD
ROOT
HETATM    1  C   UNL     1     -10.317   8.466  66.861  1.00  0.00    -0.378 C  
HETATM    2  C   UNL     1      -9.247   9.110  67.778  1.00  0.00    -0.145 C  
HETATM    3  C   UNL     1      -9.424   8.485  69.178  1.00  0.00    -0.154 C  
ENDROOT
BRANCH   2   4
HETATM    4  C   UNL     1      -9.450  10.656  67.816  1.00  0.00    -0.153 C  
HETATM    5  O   UNL     1      -8.366  11.363  67.199  1.00  0.00    -0.143 OA 
HETATM    6  H   UNL     1      -8.489  12.304  67.222  1.00  0.00     0.000 HD 
BRANCH   4   7
HETATM    7  C   UNL     1     -10.770  11.142  67.170  1.00  0.00    -0.259 C  
HETATM    8  O   UNL     1     -11.888  10.947  67.643  1.00  0.00    -0.572 OA 
HETATM    9  N   UNL     1     -10.594  11.876  66.013  1.00  0.00    -0.256 N  
HETATM   10  H   UNL     1      -9.652  12.053  65.665  1.00  0.00     0.000 HD 
BRANCH   9  11
HETATM   11  C   UNL     1     -11.737  12.396  65.291  1.00  0.00    -0.390 C  
BRANCH  11  12
HETATM   12  C   UNL     1     -11.482  12.578  63.798  1.00  0.00    -0.542 C  
BRANCH  12  13
HETATM   13  C   UNL     1     -10.237  11.869  63.284  1.00  0.00    -0.395 C  
HETATM   14  O   UNL     1     -10.333  10.476  63.572  1.00  0.00    -0.475 OA 
HETATM   15  H   UNL     1      -9.556  10.034  63.251  1.00  0.00     0.000 HD 
ENDBRANCH  12  13
ENDBRANCH  11  12
ENDBRANCH   9  11
ENDBRANCH   4   7
ENDBRANCH   2   4
BRANCH   2  16
HETATM   16  C   UNL     1      -7.854   8.776  67.180  1.00  0.00    -0.096 C  
HETATM   17  O   UNL     1      -7.830   8.940  65.767  1.00  0.00    -0.095 OA 
HETATM   18  H   UNL     1      -6.977   8.736  65.400  1.00  0.00     0.000 HD 
ENDBRANCH   2  16
TORSDOF 6
ENDMDL
MODEL      190
REMARK 921   NORMALIZED FREE ENERGY PREDICTED BY IDOCK:   -2.97 KCAL/MOL
REMARK 922        TOTAL FREE ENERGY PREDICTED BY IDOCK:   -4.53 KCAL/MOL
REMARK 923 INTER-LIGAND FREE ENERGY PREDICTED BY IDOCK:   -3.99 KCAL/MOL
REMARK 924 INTRA-LIGAND FREE ENERGY PREDICTED BY IDOCK:   -0.54 KCAL/MOL
REMARK 927      BINDING AFFINITY PREDICTED BY RF-SCORE:    0.00 PKD
ROOT
HETATM    1  C   UNL     1     -10.213   8.605  72.119  1.00  0.00    -0.394 C  
HETATM    2  C   UNL     1     -11.280   8.570  70.997  1.00  0.00    -0.312 C  
HETATM    3  C   UNL     1     -12.327   9.650  71.343  1.00  0.00    -0.468 C  
ENDROOT
BRANCH   2   4
HETATM    4  C   UNL     1     -11.927   7.152  70.930  1.00  0.00    -0.334 C  
HETATM    5  O   UNL     1     -12.031   6.663  69.587  1.00  0.00    -0.653 OA 
HETATM    6  H   UNL     1     -12.424   5.800  69.546  1.00  0.00     0.000 HD 
BRANCH   4   7
HETATM    7  C   UNL     1     -11.201   6.080  71.778  1.00  0.00    -0.275 C  
HETATM    8  O   UNL     1     -11.518   5.768  72.924  1.00  0.00    -0.275 OA 
HETATM    9  N   UNL     1     -10.168   5.444  71.117  1.00  0.00    -0.211 N  
HETATM   10  H   UNL     1      -9.952   5.698  70.153  1.00  0.00     0.000 HD 
BRANCH   9  11
HETATM   11  C   UNL     1      -9.390   4.418  71.780  1.00  0.00    -0.140 C  
BRANCH  11  12
HETATM   12  C   UNL     1      -8.042   4.912  72.293  1.00  0.00    -0.111 C  
BRANCH  12  13
HETATM   13  C   UNL     1      -6.999   5.130  71.205  1.00  0.00    -0.051 C  
HETATM   14  O   UNL     1      -7.396   6.225  70.382  1.00  0.00    -0.083 OA 
HETATM   15  H   UNL     1      -6.745   6.361  69.704  1.00  0.00     0.000 HD 
ENDBRANCH  12  13
ENDBRANCH  11  12
ENDBRANCH   9  11
ENDBRANCH   4   7
ENDBRANCH   2   4
BRANCH   2  16
HETATM   16  C   UNL     1     -10.563   8.885  69.657  1.00  0.00    -0.226 C  
HETATM   17  O   UNL     1     -11.411   9.587  68.754  1.00  0.00    -0.460 OA 
HETATM   18  H   UNL     1     -10.972   9.779  67.933  1.00  0.00     0.000 HD 
ENDBRANCH   2  16
TORSDOF 6
ENDMDL
MODEL      191
REMARK 921   NORMALIZED FREE ENERGY PREDICTED BY IDOCK:   -2.95 KCAL/MOL
REMARK 922        TOTAL FREE ENERGY PREDICTED BY IDOCK:   -4.51 KCAL/MOL
REMARK 923 INTER-LIGAND FREE ENERGY PREDICTED BY IDOCK:   -4.07 KCAL/MOL
REMARK 924 INTRA-LIGAND FREE ENERGY PREDICTED BY IDOCK:   -0.44 KCAL/MOL
REMARK 927      BINDING AFFINITY PREDICTED BY RF-SCORE:    0.00 PKD
ROOT
HETATM    1  C   UNL     1      -9.850  12.669  66.256  1.00  0.00    -0.266 C  
HETATM    2  C   UNL     1     -10.508  12.124  67.548  1.00  0.00    -0.229 C  
HETATM    3  C   UNL     1     -11.006  10.699  67.229  1.00  0.00    -0.348 C  
ENDROOT
BRANCH   2   4
HETATM    4  C   UNL     1     -11.684  13.056  67.972  1.00  0.00    -0.355 C  
HETATM    5  O   UNL     1     -11.862  13.097  69.394  1.00  0.00    -0.304 OA 
HETATM    6  H   UNL     1     -12.578  13.664  69.652  1.00  0.00     0.000 HD 
BRANCH   4   7
HETATM    7  C   UNL     1     -11.561  14.512  67.460  1.00  0.00    -0.381 C  
HETATM    8  O   UNL     1     -12.023  14.915  66.395  1.00  0.00    -0.228 OA 
HETATM    9  N   UNL     1     -10.916  15.363  68.335  1.00  0.00    -0.270 N  
HETATM   10  H   UNL     1     -10.575  15.008  69.229  1.00  0.00     0.000 HD 
BRANCH   9  11
HETATM   11  C   UNL     1     -10.719  16.757  67.995  1.00  0.00    -0.355 C  
BRANCH  11  12
HETATM   12  C   UNL     1      -9.251  17.150  67.860  1.00  0.00    -0.241 C  
BRANCH  12  13
HETATM   13  C   UNL     1      -8.448  16.257  66.924  1.00  0.00    -0.224 C  
HETATM   14  O   UNL     1      -8.892  16.457  65.584  1.00  0.00    -0.406 OA 
HETATM   15  H   UNL     1      -8.390  15.900  65.000  1.00  0.00     0.000 HD 
ENDBRANCH  12  13
ENDBRANCH  11  12
ENDBRANCH   9  11
ENDBRANCH   4   7
ENDBRANCH   2   4
BRANCH   2  16
HETATM   16  C   UNL     1      -9.423  12.109  68.658  1.00  0.00    -0.045 C  
HETATM   17  O   UNL     1      -9.590  11.012  69.549  1.00  0.00    -0.420 OA 
HETATM   18  H   UNL     1      -8.926  11.003  70.229  1.00  0.00     0.000 HD 
ENDBRANCH   2  16
TORSDOF 6
ENDMDL
MODEL      192
REMARK 921   NORMALIZED FREE ENERGY PREDICTED BY IDOCK:   -2.95 KCAL/MOL
REMARK 922        TOTAL FREE ENERGY PREDICTED BY IDOCK:   -4.50 KCAL/MOL
REMARK 923 INTER-LIGAND FREE ENERGY PREDICTED BY IDOCK:   -4.10 KCAL/MOL
REMARK 924 INTRA-LIGAND FREE ENERGY PREDICTED BY IDOCK:   -0.40 KCAL/MOL
REMARK 927      BINDING AFFINITY PREDICTED BY RF-SCORE:    0.00 PKD
ROOT
HETATM    1  C   UNL     1      -6.924  13.883  67.922  1.00  0.00    -0.165 C  
HETATM    2  C   UNL     1      -6.958  15.114  68.861  1.00  0.00    -0.124 C  
HETATM    3  C   UNL     1      -8.427  15.305  69.294  1.00  0.00    -0.238 C  
ENDROOT
BRANCH   2   4
HETATM    4  C   UNL     1      -6.421  16.368  68.105  1.00  0.00    -0.129 C  
HETATM    5  O   UNL     1      -6.694  16.314  66.698  1.00  0.00    -0.250 OA 
HETATM    6  H   UNL     1      -6.367  17.077  66.237  1.00  0.00     0.000 HD 
BRANCH   4   7
HETATM    7  C   UNL     1      -6.954  17.717  68.647  1.00  0.00    -0.237 C  
HETATM    8  O   UNL     1      -6.557  18.257  69.677  1.00  0.00    -0.202 OA 
HETATM    9  N   UNL     1      -7.903  18.312  67.839  1.00  0.00    -0.244 N  
HETATM   10  H   UNL     1      -8.186  17.858  66.971  1.00  0.00     0.000 HD 
BRANCH   9  11
HETATM   11  C   UNL     1      -8.500  19.577  68.215  1.00  0.00    -0.340 C  
BRANCH  11  12
HETATM   12  C   UNL     1     -10.020  19.594  68.091  1.00  0.00    -0.547 C  
BRANCH  12  13
HETATM   13  C   UNL     1     -10.531  19.865  66.683  1.00  0.00    -0.460 C  
HETATM   14  O   UNL     1      -9.438  20.240  65.847  1.00  0.00    -0.613 OA 
HETATM   15  H   UNL     1      -9.757  20.409  64.969  1.00  0.00     0.000 HD 
ENDBRANCH  12  13
ENDBRANCH  11  12
ENDBRANCH   9  11
ENDBRANCH   4   7
ENDBRANCH   2   4
BRANCH   2  16
HETATM   16  C   UNL     1      -6.046  14.802  70.077  1.00  0.00    -0.150 C  
HETATM   17  O   UNL     1      -6.489  13.654  70.792  1.00  0.00    -0.404 OA 
HETATM   18  H   UNL     1      -5.930  13.463  71.537  1.00  0.00     0.000 HD 
ENDBRANCH   2  16
TORSDOF 6
ENDMDL
MODEL      193
REMARK 921   NORMALIZED FREE ENERGY PREDICTED BY IDOCK:   -2.94 KCAL/MOL
REMARK 922        TOTAL FREE ENERGY PREDICTED BY IDOCK:   -4.49 KCAL/MOL
REMARK 923 INTER-LIGAND FREE ENERGY PREDICTED BY IDOCK:   -4.10 KCAL/MOL
REMARK 924 INTRA-LIGAND FREE ENERGY PREDICTED BY IDOCK:   -0.39 KCAL/MOL
REMARK 927      BINDING AFFINITY PREDICTED BY RF-SCORE:    0.00 PKD
ROOT
HETATM    1  C   UNL     1     -11.124  10.343  67.508  1.00  0.00    -0.336 C  
HETATM    2  C   UNL     1     -10.630  11.017  68.812  1.00  0.00    -0.232 C  
HETATM    3  C   UNL     1     -11.874  11.245  69.696  1.00  0.00    -0.430 C  
ENDROOT
BRANCH   2   4
HETATM    4  C   UNL     1      -9.921  12.364  68.470  1.00  0.00    -0.170 C  
HETATM    5  O   UNL     1      -9.332  12.354  67.163  1.00  0.00    -0.187 OA 
HETATM    6  H   UNL     1      -8.900  13.174  66.955  1.00  0.00     0.000 HD 
BRANCH   4   7
HETATM    7  C   UNL     1     -10.834  13.610  68.576  1.00  0.00    -0.257 C  
HETATM    8  O   UNL     1     -11.815  13.815  67.865  1.00  0.00    -0.345 OA 
HETATM    9  N   UNL     1     -10.485  14.479  69.591  1.00  0.00    -0.441 N  
HETATM   10  H   UNL     1      -9.688  14.264  70.190  1.00  0.00     0.000 HD 
BRANCH   9  11
HETATM   11  C   UNL     1     -11.242  15.694  69.814  1.00  0.00    -0.321 C  
BRANCH  11  12
HETATM   12  C   UNL     1     -10.625  16.924  69.157  1.00  0.00    -0.330 C  
BRANCH  12  13
HETATM   13  C   UNL     1      -9.372  16.638  68.341  1.00  0.00    -0.224 C  
HETATM   14  O   UNL     1      -8.324  16.224  69.215  1.00  0.00    -0.228 OA 
HETATM   15  H   UNL     1      -7.542  16.045  68.706  1.00  0.00     0.000 HD 
ENDBRANCH  12  13
ENDBRANCH  11  12
ENDBRANCH   9  11
ENDBRANCH   4   7
ENDBRANCH   2   4
BRANCH   2  16
HETATM   16  C   UNL     1      -9.624  10.050  69.489  1.00  0.00    -0.230 C  
HETATM   17  O   UNL     1      -8.327  10.625  69.599  1.00  0.00    -0.370 OA 
HETATM   18  H   UNL     1      -7.710  10.033  70.014  1.00  0.00     0.000 HD 
ENDBRANCH   2  16
TORSDOF 6
ENDMDL
MODEL      194
REMARK 921   NORMALIZED FREE ENERGY PREDICTED BY IDOCK:   -2.91 KCAL/MOL
REMARK 922        TOTAL FREE ENERGY PREDICTED BY IDOCK:   -4.46 KCAL/MOL
REMARK 923 INTER-LIGAND FREE ENERGY PREDICTED BY IDOCK:   -4.16 KCAL/MOL
REMARK 924 INTRA-LIGAND FREE ENERGY PREDICTED BY IDOCK:   -0.30 KCAL/MOL
REMARK 927      BINDING AFFINITY PREDICTED BY RF-SCORE:    0.00 PKD
ROOT
HETATM    1  C   UNL     1     -11.096  13.151  68.178  1.00  0.00    -0.284 C  
HETATM    2  C   UNL     1     -10.727  11.672  68.453  1.00  0.00    -0.248 C  
HETATM    3  C   UNL     1      -9.195  11.620  68.631  1.00  0.00    -0.112 C  
ENDROOT
BRANCH   2   4
HETATM    4  C   UNL     1     -11.191  10.785  67.257  1.00  0.00    -0.197 C  
HETATM    5  O   UNL     1     -11.149  11.487  66.008  1.00  0.00    -0.291 OA 
HETATM    6  H   UNL     1     -11.431  10.947  65.280  1.00  0.00     0.000 HD 
BRANCH   4   7
HETATM    7  C   UNL     1     -10.395   9.467  67.095  1.00  0.00    -0.258 C  
HETATM    8  O   UNL     1      -9.502   9.292  66.268  1.00  0.00    -0.185 OA 
HETATM    9  N   UNL     1     -10.737   8.486  68.005  1.00  0.00    -0.450 N  
HETATM   10  H   UNL     1     -11.457   8.673  68.703  1.00  0.00     0.000 HD 
BRANCH   9  11
HETATM   11  C   UNL     1     -10.083   7.195  67.976  1.00  0.00    -0.169 C  
BRANCH  11  12
HETATM   12  C   UNL     1     -10.874   6.095  68.677  1.00  0.00    -0.403 C  
BRANCH  12  13
HETATM   13  C   UNL     1     -11.544   6.533  69.972  1.00  0.00    -0.390 C  
HETATM   14  O   UNL     1     -10.692   6.224  71.073  1.00  0.00    -0.237 OA 
HETATM   15  H   UNL     1     -11.110   6.498  71.880  1.00  0.00     0.000 HD 
ENDBRANCH  12  13
ENDBRANCH  11  12
ENDBRANCH   9  11
ENDBRANCH   4   7
ENDBRANCH   2   4
BRANCH   2  16
HETATM   16  C   UNL     1     -11.463  11.237  69.748  1.00  0.00    -0.310 C  
HETATM   17  O   UNL     1     -12.713  10.619  69.465  1.00  0.00    -0.630 OA 
HETATM   18  H   UNL     1     -13.165  10.352  70.258  1.00  0.00     0.000 HD 
ENDBRANCH   2  16
TORSDOF 6
ENDMDL
MODEL      195
REMARK 921   NORMALIZED FREE ENERGY PREDICTED BY IDOCK:   -2.91 KCAL/MOL
REMARK 922        TOTAL FREE ENERGY PREDICTED BY IDOCK:   -4.45 KCAL/MOL
REMARK 923 INTER-LIGAND FREE ENERGY PREDICTED BY IDOCK:   -3.69 KCAL/MOL
REMARK 924 INTRA-LIGAND FREE ENERGY PREDICTED BY IDOCK:   -0.77 KCAL/MOL
REMARK 927      BINDING AFFINITY PREDICTED BY RF-SCORE:    0.00 PKD
ROOT
HETATM    1  C   UNL     1     -11.084   9.089  70.229  1.00  0.00    -0.263 C  
HETATM    2  C   UNL     1     -10.187   9.490  69.032  1.00  0.00    -0.211 C  
HETATM    3  C   UNL     1      -9.347   8.248  68.667  1.00  0.00    -0.143 C  
ENDROOT
BRANCH   2   4
HETATM    4  C   UNL     1      -9.280  10.692  69.434  1.00  0.00    -0.051 C  
HETATM    5  O   UNL     1      -8.161  10.287  70.235  1.00  0.00    -0.377 OA 
HETATM    6  H   UNL     1      -7.608  11.019  70.480  1.00  0.00     0.000 HD 
BRANCH   4   7
HETATM    7  C   UNL     1      -8.742  11.514  68.238  1.00  0.00    -0.162 C  
HETATM    8  O   UNL     1      -7.950  11.086  67.401  1.00  0.00    -0.114 OA 
HETATM    9  N   UNL     1      -9.269  12.787  68.147  1.00  0.00    -0.210 N  
HETATM   10  H   UNL     1      -9.953  13.102  68.835  1.00  0.00     0.000 HD 
BRANCH   9  11
HETATM   11  C   UNL     1      -8.859  13.679  67.082  1.00  0.00    -0.230 C  
BRANCH  11  12
HETATM   12  C   UNL     1     -10.027  14.269  66.298  1.00  0.00    -0.319 C  
BRANCH  12  13
HETATM   13  C   UNL     1     -11.120  13.267  65.953  1.00  0.00    -0.285 C  
HETATM   14  O   UNL     1     -12.156  13.345  66.930  1.00  0.00    -0.388 OA 
HETATM   15  H   UNL     1     -12.839  12.720  66.715  1.00  0.00     0.000 HD 
ENDBRANCH  12  13
ENDBRANCH  11  12
ENDBRANCH   9  11
ENDBRANCH   4   7
ENDBRANCH   2   4
BRANCH   2  16
HETATM   16  C   UNL     1     -11.122   9.904  67.863  1.00  0.00    -0.152 C  
HETATM   17  O   UNL     1     -12.048  10.910  68.256  1.00  0.00    -0.783 OA 
HETATM   18  H   UNL     1     -12.621  11.164  67.541  1.00  0.00     0.000 HD 
ENDBRANCH   2  16
TORSDOF 6
ENDMDL
MODEL      196
REMARK 921   NORMALIZED FREE ENERGY PREDICTED BY IDOCK:   -2.88 KCAL/MOL
REMARK 922        TOTAL FREE ENERGY PREDICTED BY IDOCK:   -4.42 KCAL/MOL
REMARK 923 INTER-LIGAND FREE ENERGY PREDICTED BY IDOCK:   -4.31 KCAL/MOL
REMARK 924 INTRA-LIGAND FREE ENERGY PREDICTED BY IDOCK:   -0.11 KCAL/MOL
REMARK 927      BINDING AFFINITY PREDICTED BY RF-SCORE:    0.00 PKD
ROOT
HETATM    1  C   UNL     1     -10.628  11.090  64.689  1.00  0.00    -0.369 C  
HETATM    2  C   UNL     1      -9.714  11.052  65.939  1.00  0.00    -0.267 C  
HETATM    3  C   UNL     1     -10.269   9.951  66.866  1.00  0.00    -0.302 C  
ENDROOT
BRANCH   2   4
HETATM    4  C   UNL     1      -9.726  12.446  66.640  1.00  0.00    -0.225 C  
HETATM    5  O   UNL     1      -9.622  13.528  65.705  1.00  0.00    -0.468 OA 
HETATM    6  H   UNL     1      -9.629  14.376  66.132  1.00  0.00     0.000 HD 
BRANCH   4   7
HETATM    7  C   UNL     1     -10.965  12.699  67.533  1.00  0.00    -0.246 C  
HETATM    8  O   UNL     1     -12.056  13.082  67.115  1.00  0.00    -0.362 OA 
HETATM    9  N   UNL     1     -10.765  12.409  68.869  1.00  0.00    -0.354 N  
HETATM   10  H   UNL     1      -9.860  12.058  69.180  1.00  0.00     0.000 HD 
BRANCH   9  11
HETATM   11  C   UNL     1     -11.831  12.600  69.831  1.00  0.00    -0.294 C  
BRANCH  11  12
HETATM   12  C   UNL     1     -12.478  11.298  70.289  1.00  0.00    -0.330 C  
BRANCH  12  13
HETATM   13  C   UNL     1     -13.147  11.377  71.655  1.00  0.00    -0.393 C  
HETATM   14  O   UNL     1     -13.298  12.745  72.028  1.00  0.00    -0.488 OA 
HETATM   15  H   UNL     1     -13.715  12.795  72.880  1.00  0.00     0.000 HD 
ENDBRANCH  12  13
ENDBRANCH  11  12
ENDBRANCH   9  11
ENDBRANCH   4   7
ENDBRANCH   2   4
BRANCH   2  16
HETATM   16  C   UNL     1      -8.276  10.717  65.459  1.00  0.00    -0.104 C  
HETATM   17  O   UNL     1      -7.915   9.375  65.763  1.00  0.00    -0.107 OA 
HETATM   18  H   UNL     1      -7.035   9.169  65.469  1.00  0.00     0.000 HD 
ENDBRANCH   2  16
TORSDOF 6
ENDMDL
MODEL      197
REMARK 921   NORMALIZED FREE ENERGY PREDICTED BY IDOCK:   -2.87 KCAL/MOL
REMARK 922        TOTAL FREE ENERGY PREDICTED BY IDOCK:   -4.40 KCAL/MOL
REMARK 923 INTER-LIGAND FREE ENERGY PREDICTED BY IDOCK:   -4.54 KCAL/MOL
REMARK 924 INTRA-LIGAND FREE ENERGY PREDICTED BY IDOCK:    0.14 KCAL/MOL
REMARK 927      BINDING AFFINITY PREDICTED BY RF-SCORE:    0.00 PKD
ROOT
HETATM    1  C   UNL     1      -9.774  11.537  68.175  1.00  0.00    -0.192 C  
HETATM    2  C   UNL     1     -11.059  12.384  68.005  1.00  0.00    -0.288 C  
HETATM    3  C   UNL     1     -11.458  12.296  66.517  1.00  0.00    -0.438 C  
ENDROOT
BRANCH   2   4
HETATM    4  C   UNL     1     -10.778  13.858  68.431  1.00  0.00    -0.257 C  
HETATM    5  O   UNL     1     -10.553  13.984  69.842  1.00  0.00    -0.421 OA 
HETATM    6  H   UNL     1     -10.381  14.881  70.101  1.00  0.00     0.000 HD 
BRANCH   4   7
HETATM    7  C   UNL     1      -9.587  14.519  67.694  1.00  0.00    -0.214 C  
HETATM    8  O   UNL     1      -8.440  14.079  67.693  1.00  0.00    -0.165 OA 
HETATM    9  N   UNL     1      -9.928  15.648  66.975  1.00  0.00    -0.237 N  
HETATM   10  H   UNL     1     -10.896  15.968  66.964  1.00  0.00     0.000 HD 
BRANCH   9  11
HETATM   11  C   UNL     1      -8.921  16.380  66.235  1.00  0.00    -0.333 C  
BRANCH  11  12
HETATM   12  C   UNL     1      -8.884  17.869  66.566  1.00  0.00    -0.281 C  
BRANCH  12  13
HETATM   13  C   UNL     1     -10.211  18.588  66.367  1.00  0.00    -0.420 C  
HETATM   14  O   UNL     1     -10.331  19.633  67.330  1.00  0.00    -0.392 OA 
HETATM   15  H   UNL     1     -11.159  20.082  67.205  1.00  0.00     0.000 HD 
ENDBRANCH  12  13
ENDBRANCH  11  12
ENDBRANCH   9  11
ENDBRANCH   4   7
ENDBRANCH   2   4
BRANCH   2  16
HETATM   16  C   UNL     1     -12.151  11.771  68.921  1.00  0.00    -0.178 C  
HETATM   17  O   UNL     1     -12.165  10.349  68.852  1.00  0.00    -0.729 OA 
HETATM   18  H   UNL     1     -12.834   9.973  69.413  1.00  0.00     0.000 HD 
ENDBRANCH   2  16
TORSDOF 6
ENDMDL
MODEL      198
REMARK 921   NORMALIZED FREE ENERGY PREDICTED BY IDOCK:   -2.86 KCAL/MOL
REMARK 922        TOTAL FREE ENERGY PREDICTED BY IDOCK:   -4.39 KCAL/MOL
REMARK 923 INTER-LIGAND FREE ENERGY PREDICTED BY IDOCK:   -3.70 KCAL/MOL
REMARK 924 INTRA-LIGAND FREE ENERGY PREDICTED BY IDOCK:   -0.69 KCAL/MOL
REMARK 927      BINDING AFFINITY PREDICTED BY RF-SCORE:    0.00 PKD
ROOT
HETATM    1  C   UNL     1     -10.265  11.363  67.688  1.00  0.00    -0.204 C  
HETATM    2  C   UNL     1      -8.721  11.252  67.624  1.00  0.00    -0.131 C  
HETATM    3  C   UNL     1      -8.154  12.458  68.401  1.00  0.00    -0.143 C  
ENDROOT
BRANCH   2   4
HETATM    4  C   UNL     1      -8.255  11.264  66.136  1.00  0.00    -0.088 C  
HETATM    5  O   UNL     1      -7.180  10.347  65.893  1.00  0.00    -0.124 OA 
HETATM    6  H   UNL     1      -6.896  10.354  64.987  1.00  0.00     0.000 HD 
BRANCH   4   7
HETATM    7  C   UNL     1      -9.379  10.969  65.113  1.00  0.00    -0.220 C  
HETATM    8  O   UNL     1      -9.867   9.858  64.919  1.00  0.00    -0.315 OA 
HETATM    9  N   UNL     1      -9.841  12.087  64.446  1.00  0.00    -0.440 N  
HETATM   10  H   UNL     1      -9.442  13.002  64.655  1.00  0.00     0.000 HD 
BRANCH   9  11
HETATM   11  C   UNL     1     -10.889  11.971  63.454  1.00  0.00    -0.405 C  
BRANCH  11  12
HETATM   12  C   UNL     1     -12.140  12.776  63.791  1.00  0.00    -0.596 C  
BRANCH  12  13
HETATM   13  C   UNL     1     -12.276  13.135  65.265  1.00  0.00    -0.455 C  
HETATM   14  O   UNL     1     -11.645  14.390  65.505  1.00  0.00    -0.335 OA 
HETATM   15  H   UNL     1     -11.730  14.614  66.424  1.00  0.00     0.000 HD 
ENDBRANCH  12  13
ENDBRANCH  11  12
ENDBRANCH   9  11
ENDBRANCH   4   7
ENDBRANCH   2   4
BRANCH   2  16
HETATM   16  C   UNL     1      -8.319   9.909  68.290  1.00  0.00    -0.110 C  
HETATM   17  O   UNL     1      -9.028   8.808  67.734  1.00  0.00    -0.135 OA 
HETATM   18  H   UNL     1      -8.782   7.985  68.142  1.00  0.00     0.000 HD 
ENDBRANCH   2  16
TORSDOF 6
ENDMDL
MODEL      199
REMARK 921   NORMALIZED FREE ENERGY PREDICTED BY IDOCK:   -2.86 KCAL/MOL
REMARK 922        TOTAL FREE ENERGY PREDICTED BY IDOCK:   -4.39 KCAL/MOL
REMARK 923 INTER-LIGAND FREE ENERGY PREDICTED BY IDOCK:   -4.13 KCAL/MOL
REMARK 924 INTRA-LIGAND FREE ENERGY PREDICTED BY IDOCK:   -0.26 KCAL/MOL
REMARK 927      BINDING AFFINITY PREDICTED BY RF-SCORE:    0.00 PKD
ROOT
HETATM    1  C   UNL     1      -8.034  14.182  67.241  1.00  0.00    -0.171 C  
HETATM    2  C   UNL     1      -7.758  15.703  67.341  1.00  0.00    -0.215 C  
HETATM    3  C   UNL     1      -6.227  15.884  67.281  1.00  0.00    -0.117 C  
ENDROOT
BRANCH   2   4
HETATM    4  C   UNL     1      -8.344  16.256  68.677  1.00  0.00    -0.220 C  
HETATM    5  O   UNL     1      -7.355  16.924  69.471  1.00  0.00    -0.130 OA 
HETATM    6  H   UNL     1      -7.711  17.260  70.284  1.00  0.00     0.000 HD 
BRANCH   4   7
HETATM    7  C   UNL     1      -9.545  17.216  68.498  1.00  0.00    -0.288 C  
HETATM    8  O   UNL     1     -10.711  16.852  68.360  1.00  0.00    -0.344 OA 
HETATM    9  N   UNL     1      -9.209  18.554  68.553  1.00  0.00    -0.330 N  
HETATM   10  H   UNL     1      -8.238  18.826  68.706  1.00  0.00     0.000 HD 
BRANCH   9  11
HETATM   11  C   UNL     1     -10.224  19.575  68.397  1.00  0.00    -0.431 C  
BRANCH  11  12
HETATM   12  C   UNL     1     -10.555  19.888  66.942  1.00  0.00    -0.534 C  
BRANCH  12  13
HETATM   13  C   UNL     1      -9.353  19.867  66.007  1.00  0.00    -0.292 C  
HETATM   14  O   UNL     1      -8.225  20.427  66.676  1.00  0.00    -0.469 OA 
HETATM   15  H   UNL     1      -7.475  20.413  66.093  1.00  0.00     0.000 HD 
ENDBRANCH  12  13
ENDBRANCH  11  12
ENDBRANCH   9  11
ENDBRANCH   4   7
ENDBRANCH   2   4
BRANCH   2  16
HETATM   16  C   UNL     1      -8.457  16.388  66.137  1.00  0.00    -0.294 C  
HETATM   17  O   UNL     1      -9.381  15.516  65.494  1.00  0.00    -0.291 OA 
HETATM   18  H   UNL     1      -9.809  15.935  64.756  1.00  0.00     0.000 HD 
ENDBRANCH   2  16
TORSDOF 6
ENDMDL
MODEL      200
REMARK 921   NORMALIZED FREE ENERGY PREDICTED BY IDOCK:   -2.84 KCAL/MOL
REMARK 922        TOTAL FREE ENERGY PREDICTED BY IDOCK:   -4.36 KCAL/MOL
REMARK 923 INTER-LIGAND FREE ENERGY PREDICTED BY IDOCK:   -4.41 KCAL/MOL
REMARK 924 INTRA-LIGAND FREE ENERGY PREDICTED BY IDOCK:    0.05 KCAL/MOL
REMARK 927      BINDING AFFINITY PREDICTED BY RF-SCORE:    0.00 PKD
ROOT
HETATM    1  C   UNL     1      -9.989  10.488  66.637  1.00  0.00    -0.260 C  
HETATM    2  C   UNL     1     -10.057  12.007  66.934  1.00  0.00    -0.224 C  
HETATM    3  C   UNL     1      -8.602  12.495  67.098  1.00  0.00    -0.200 C  
ENDROOT
BRANCH   2   4
HETATM    4  C   UNL     1     -10.888  12.252  68.231  1.00  0.00    -0.225 C  
HETATM    5  O   UNL     1     -10.264  11.691  69.393  1.00  0.00    -0.425 OA 
HETATM    6  H   UNL     1     -10.770  11.840  70.182  1.00  0.00     0.000 HD 
BRANCH   4   7
HETATM    7  C   UNL     1     -11.193  13.742  68.521  1.00  0.00    -0.275 C  
HETATM    8  O   UNL     1     -12.224  14.319  68.181  1.00  0.00    -0.284 OA 
HETATM    9  N   UNL     1     -10.215  14.384  69.253  1.00  0.00    -0.415 N  
HETATM   10  H   UNL     1      -9.387  13.870  69.553  1.00  0.00     0.000 HD 
BRANCH   9  11
HETATM   11  C   UNL     1     -10.354  15.784  69.600  1.00  0.00    -0.290 C  
BRANCH  11  12
HETATM   12  C   UNL     1     -10.092  16.730  68.433  1.00  0.00    -0.285 C  
BRANCH  12  13
HETATM   13  C   UNL     1      -9.416  18.036  68.825  1.00  0.00    -0.270 C  
HETATM   14  O   UNL     1     -10.377  19.089  68.812  1.00  0.00    -0.480 OA 
HETATM   15  H   UNL     1      -9.955  19.904  69.057  1.00  0.00     0.000 HD 
ENDBRANCH  12  13
ENDBRANCH  11  12
ENDBRANCH   9  11
ENDBRANCH   4   7
ENDBRANCH   2   4
BRANCH   2  16
HETATM   16  C   UNL     1     -10.751  12.691  65.726  1.00  0.00    -0.268 C  
HETATM   17  O   UNL     1      -9.958  12.618  64.547  1.00  0.00    -0.504 OA 
HETATM   18  H   UNL     1     -10.383  13.037  63.807  1.00  0.00     0.000 HD 
ENDBRANCH   2  16
TORSDOF 6
ENDMDL
MODEL      201
REMARK 921   NORMALIZED FREE ENERGY PREDICTED BY IDOCK:   -2.83 KCAL/MOL
REMARK 922        TOTAL FREE ENERGY PREDICTED BY IDOCK:   -4.35 KCAL/MOL
REMARK 923 INTER-LIGAND FREE ENERGY PREDICTED BY IDOCK:   -4.02 KCAL/MOL
REMARK 924 INTRA-LIGAND FREE ENERGY PREDICTED BY IDOCK:   -0.33 KCAL/MOL
REMARK 927      BINDING AFFINITY PREDICTED BY RF-SCORE:    0.00 PKD
ROOT
HETATM    1  C   UNL     1      -9.415  12.685  68.096  1.00  0.00    -0.218 C  
HETATM    2  C   UNL     1     -10.865  12.722  67.554  1.00  0.00    -0.263 C  
HETATM    3  C   UNL     1     -11.792  12.922  68.771  1.00  0.00    -0.353 C  
ENDROOT
BRANCH   2   4
HETATM    4  C   UNL     1     -11.183  11.389  66.810  1.00  0.00    -0.252 C  
HETATM    5  O   UNL     1     -10.748  11.409  65.444  1.00  0.00    -0.277 OA 
HETATM    6  H   UNL     1     -10.942  10.597  64.992  1.00  0.00     0.000 HD 
BRANCH   4   7
HETATM    7  C   UNL     1     -10.592  10.126  67.484  1.00  0.00    -0.273 C  
HETATM    8  O   UNL     1     -10.850   9.766  68.631  1.00  0.00    -0.222 OA 
HETATM    9  N   UNL     1      -9.767   9.384  66.663  1.00  0.00    -0.201 N  
HETATM   10  H   UNL     1      -9.601   9.688  65.704  1.00  0.00     0.000 HD 
BRANCH   9  11
HETATM   11  C   UNL     1      -9.135   8.176  67.153  1.00  0.00    -0.140 C  
BRANCH  11  12
HETATM   12  C   UNL     1      -9.632   6.907  66.469  1.00  0.00    -0.197 C  
BRANCH  12  13
HETATM   13  C   UNL     1     -10.944   6.370  67.023  1.00  0.00    -0.389 C  
HETATM   14  O   UNL     1     -11.530   5.483  66.072  1.00  0.00    -0.637 OA 
HETATM   15  H   UNL     1     -12.349   5.147  66.418  1.00  0.00     0.000 HD 
ENDBRANCH  12  13
ENDBRANCH  11  12
ENDBRANCH   9  11
ENDBRANCH   4   7
ENDBRANCH   2   4
BRANCH   2  16
HETATM   16  C   UNL     1     -10.966  13.913  66.564  1.00  0.00    -0.300 C  
HETATM   17  O   UNL     1      -9.683  14.359  66.137  1.00  0.00    -0.297 OA 
HETATM   18  H   UNL     1      -9.745  15.088  65.531  1.00  0.00     0.000 HD 
ENDBRANCH   2  16
TORSDOF 6
ENDMDL
MODEL      202
REMARK 921   NORMALIZED FREE ENERGY PREDICTED BY IDOCK:   -2.83 KCAL/MOL
REMARK 922        TOTAL FREE ENERGY PREDICTED BY IDOCK:   -4.34 KCAL/MOL
REMARK 923 INTER-LIGAND FREE ENERGY PREDICTED BY IDOCK:   -3.98 KCAL/MOL
REMARK 924 INTRA-LIGAND FREE ENERGY PREDICTED BY IDOCK:   -0.36 KCAL/MOL
REMARK 927      BINDING AFFINITY PREDICTED BY RF-SCORE:    0.00 PKD
ROOT
HETATM    1  C   UNL     1     -12.988  11.863  63.931  1.00  0.00    -0.244 C  
HETATM    2  C   UNL     1     -11.657  12.635  64.111  1.00  0.00    -0.458 C  
HETATM    3  C   UNL     1     -10.568  11.825  63.378  1.00  0.00    -0.479 C  
ENDROOT
BRANCH   2   4
HETATM    4  C   UNL     1     -11.334  12.778  65.631  1.00  0.00    -0.319 C  
HETATM    5  O   UNL     1     -11.120  11.509  66.264  1.00  0.00    -0.302 OA 
HETATM    6  H   UNL     1     -10.924  11.595  67.189  1.00  0.00     0.000 HD 
BRANCH   4   7
HETATM    7  C   UNL     1     -10.117  13.682  65.942  1.00  0.00    -0.310 C  
HETATM    8  O   UNL     1      -9.935  14.795  65.454  1.00  0.00    -0.357 OA 
HETATM    9  N   UNL     1      -9.246  13.152  66.874  1.00  0.00    -0.232 N  
HETATM   10  H   UNL     1      -9.443  12.242  67.290  1.00  0.00     0.000 HD 
BRANCH   9  11
HETATM   11  C   UNL     1      -8.056  13.879  67.266  1.00  0.00    -0.145 C  
BRANCH  11  12
HETATM   12  C   UNL     1      -8.137  14.468  68.671  1.00  0.00    -0.150 C  
BRANCH  12  13
HETATM   13  C   UNL     1      -8.266  15.985  68.708  1.00  0.00    -0.211 C  
HETATM   14  O   UNL     1      -9.274  16.396  67.787  1.00  0.00    -0.200 OA 
HETATM   15  H   UNL     1      -9.355  17.342  67.811  1.00  0.00     0.000 HD 
ENDBRANCH  12  13
ENDBRANCH  11  12
ENDBRANCH   9  11
ENDBRANCH   4   7
ENDBRANCH   2   4
BRANCH   2  16
HETATM   16  C   UNL     1     -11.840  14.041  63.479  1.00  0.00     0.183 C  
HETATM   17  O   UNL     1     -12.780  14.829  64.199  1.00  0.00    -0.758 OA 
HETATM   18  H   UNL     1     -12.892  15.690  63.812  1.00  0.00     0.000 HD 
ENDBRANCH   2  16
TORSDOF 6
ENDMDL
MODEL      203
REMARK 921   NORMALIZED FREE ENERGY PREDICTED BY IDOCK:   -2.82 KCAL/MOL
REMARK 922        TOTAL FREE ENERGY PREDICTED BY IDOCK:   -4.33 KCAL/MOL
REMARK 923 INTER-LIGAND FREE ENERGY PREDICTED BY IDOCK:   -3.88 KCAL/MOL
REMARK 924 INTRA-LIGAND FREE ENERGY PREDICTED BY IDOCK:   -0.45 KCAL/MOL
REMARK 927      BINDING AFFINITY PREDICTED BY RF-SCORE:    0.00 PKD
ROOT
HETATM    1  C   UNL     1      -9.711  14.066  66.870  1.00  0.00    -0.272 C  
HETATM    2  C   UNL     1     -10.128  14.430  68.316  1.00  0.00    -0.239 C  
HETATM    3  C   UNL     1      -8.902  15.090  68.982  1.00  0.00    -0.205 C  
ENDROOT
BRANCH   2   4
HETATM    4  C   UNL     1     -10.564  13.141  69.078  1.00  0.00    -0.056 C  
HETATM    5  O   UNL     1     -11.597  13.398  70.038  1.00  0.00    -0.452 OA 
HETATM    6  H   UNL     1     -11.863  12.613  70.502  1.00  0.00     0.000 HD 
BRANCH   4   7
HETATM    7  C   UNL     1     -11.037  11.987  68.160  1.00  0.00    -0.245 C  
HETATM    8  O   UNL     1     -12.041  12.030  67.452  1.00  0.00    -0.566 OA 
HETATM    9  N   UNL     1     -10.198  10.890  68.157  1.00  0.00    -0.170 N  
HETATM   10  H   UNL     1      -9.352  10.899  68.727  1.00  0.00     0.000 HD 
BRANCH   9  11
HETATM   11  C   UNL     1     -10.509   9.728  67.351  1.00  0.00    -0.259 C  
BRANCH  11  12
HETATM   12  C   UNL     1      -9.553   9.525  66.181  1.00  0.00    -0.302 C  
BRANCH  12  13
HETATM   13  C   UNL     1      -8.221  10.248  66.326  1.00  0.00    -0.131 C  
HETATM   14  O   UNL     1      -7.424  10.009  65.168  1.00  0.00    -0.127 OA 
HETATM   15  H   UNL     1      -6.594  10.460  65.258  1.00  0.00     0.000 HD 
ENDBRANCH  12  13
ENDBRANCH  11  12
ENDBRANCH   9  11
ENDBRANCH   4   7
ENDBRANCH   2   4
BRANCH   2  16
HETATM   16  C   UNL     1     -11.323  15.417  68.226  1.00  0.00    -0.348 C  
HETATM   17  O   UNL     1     -12.465  14.814  67.627  1.00  0.00    -0.511 OA 
HETATM   18  H   UNL     1     -13.196  15.419  67.571  1.00  0.00     0.000 HD 
ENDBRANCH   2  16
TORSDOF 6
ENDMDL
MODEL      204
REMARK 921   NORMALIZED FREE ENERGY PREDICTED BY IDOCK:   -2.80 KCAL/MOL
REMARK 922        TOTAL FREE ENERGY PREDICTED BY IDOCK:   -4.30 KCAL/MOL
REMARK 923 INTER-LIGAND FREE ENERGY PREDICTED BY IDOCK:   -4.20 KCAL/MOL
REMARK 924 INTRA-LIGAND FREE ENERGY PREDICTED BY IDOCK:   -0.10 KCAL/MOL
REMARK 927      BINDING AFFINITY PREDICTED BY RF-SCORE:    0.00 PKD
ROOT
HETATM    1  C   UNL     1      -9.391   4.852  66.958  1.00  0.00    -0.136 C  
HETATM    2  C   UNL     1      -9.318   5.799  68.182  1.00  0.00    -0.114 C  
HETATM    3  C   UNL     1      -9.357   4.907  69.440  1.00  0.00    -0.186 C  
ENDROOT
BRANCH   2   4
HETATM    4  C   UNL     1     -10.522   6.791  68.150  1.00  0.00    -0.211 C  
HETATM    5  O   UNL     1     -11.573   6.345  67.284  1.00  0.00    -0.695 OA 
HETATM    6  H   UNL     1     -12.306   6.948  67.264  1.00  0.00     0.000 HD 
BRANCH   4   7
HETATM    7  C   UNL     1     -11.138   7.090  69.539  1.00  0.00    -0.187 C  
HETATM    8  O   UNL     1     -11.955   6.368  70.106  1.00  0.00    -0.354 OA 
HETATM    9  N   UNL     1     -10.653   8.238  70.134  1.00  0.00    -0.230 N  
HETATM   10  H   UNL     1      -9.948   8.797  69.655  1.00  0.00     0.000 HD 
BRANCH   9  11
HETATM   11  C   UNL     1     -11.138   8.653  71.434  1.00  0.00    -0.274 C  
BRANCH  11  12
HETATM   12  C   UNL     1     -11.955   9.941  71.397  1.00  0.00    -0.489 C  
BRANCH  12  13
HETATM   13  C   UNL     1     -13.343   9.820  72.011  1.00  0.00    -0.451 C  
HETATM   14  O   UNL     1     -13.444   8.581  72.709  1.00  0.00    -0.646 OA 
HETATM   15  H   UNL     1     -14.310   8.506  73.092  1.00  0.00     0.000 HD 
ENDBRANCH  12  13
ENDBRANCH  11  12
ENDBRANCH   9  11
ENDBRANCH   4   7
ENDBRANCH   2   4
BRANCH   2  16
HETATM   16  C   UNL     1      -7.985   6.588  68.087  1.00  0.00    -0.110 C  
HETATM   17  O   UNL     1      -7.967   7.468  66.969  1.00  0.00    -0.112 OA 
HETATM   18  H   UNL     1      -7.151   7.951  66.911  1.00  0.00     0.000 HD 
ENDBRANCH   2  16
TORSDOF 6
ENDMDL
MODEL      205
REMARK 921   NORMALIZED FREE ENERGY PREDICTED BY IDOCK:   -2.79 KCAL/MOL
REMARK 922        TOTAL FREE ENERGY PREDICTED BY IDOCK:   -4.29 KCAL/MOL
REMARK 923 INTER-LIGAND FREE ENERGY PREDICTED BY IDOCK:   -4.02 KCAL/MOL
REMARK 924 INTRA-LIGAND FREE ENERGY PREDICTED BY IDOCK:   -0.28 KCAL/MOL
REMARK 927      BINDING AFFINITY PREDICTED BY RF-SCORE:    0.00 PKD
ROOT
HETATM    1  C   UNL     1      -9.515   4.862  66.036  1.00  0.00    -0.169 C  
HETATM    2  C   UNL     1      -9.220   5.908  67.139  1.00  0.00    -0.116 C  
HETATM    3  C   UNL     1      -9.003   5.125  68.451  1.00  0.00    -0.118 C  
ENDROOT
BRANCH   2   4
HETATM    4  C   UNL     1     -10.420   6.897  67.260  1.00  0.00    -0.287 C  
HETATM    5  O   UNL     1     -11.630   6.355  66.713  1.00  0.00    -0.700 OA 
HETATM    6  H   UNL     1     -12.360   6.957  66.786  1.00  0.00     0.000 HD 
BRANCH   4   7
HETATM    7  C   UNL     1     -10.714   7.370  68.704  1.00  0.00    -0.101 C  
HETATM    8  O   UNL     1     -10.178   8.337  69.241  1.00  0.00    -0.196 OA 
HETATM    9  N   UNL     1     -11.688   6.634  69.350  1.00  0.00    -0.648 N  
HETATM   10  H   UNL     1     -12.141   5.859  68.866  1.00  0.00     0.000 HD 
BRANCH   9  11
HETATM   11  C   UNL     1     -12.070   6.952  70.710  1.00  0.00    -0.349 C  
BRANCH  11  12
HETATM   12  C   UNL     1     -11.111   6.400  71.759  1.00  0.00    -0.311 C  
BRANCH  12  13
HETATM   13  C   UNL     1     -10.466   7.461  72.639  1.00  0.00    -0.255 C  
HETATM   14  O   UNL     1     -10.842   7.241  73.997  1.00  0.00    -0.556 OA 
HETATM   15  H   UNL     1     -10.440   7.903  74.546  1.00  0.00     0.000 HD 
ENDBRANCH  12  13
ENDBRANCH  11  12
ENDBRANCH   9  11
ENDBRANCH   4   7
ENDBRANCH   2   4
BRANCH   2  16
HETATM   16  C   UNL     1      -7.940   6.681  66.723  1.00  0.00    -0.108 C  
HETATM   17  O   UNL     1      -7.530   7.605  67.725  1.00  0.00    -0.102 OA 
HETATM   18  H   UNL     1      -6.746   8.079  67.470  1.00  0.00     0.000 HD 
ENDBRANCH   2  16
TORSDOF 6
ENDMDL
MODEL      206
REMARK 921   NORMALIZED FREE ENERGY PREDICTED BY IDOCK:   -2.78 KCAL/MOL
REMARK 922        TOTAL FREE ENERGY PREDICTED BY IDOCK:   -4.27 KCAL/MOL
REMARK 923 INTER-LIGAND FREE ENERGY PREDICTED BY IDOCK:   -3.78 KCAL/MOL
REMARK 924 INTRA-LIGAND FREE ENERGY PREDICTED BY IDOCK:   -0.49 KCAL/MOL
REMARK 927      BINDING AFFINITY PREDICTED BY RF-SCORE:    0.00 PKD
ROOT
HETATM    1  C   UNL     1      -8.285  10.768  67.710  1.00  0.00    -0.112 C  
HETATM    2  C   UNL     1      -8.680  10.028  66.408  1.00  0.00    -0.140 C  
HETATM    3  C   UNL     1      -7.400   9.356  65.869  1.00  0.00    -0.095 C  
ENDROOT
BRANCH   2   4
HETATM    4  C   UNL     1      -9.263  11.047  65.380  1.00  0.00    -0.210 C  
HETATM    5  O   UNL     1     -10.061  10.411  64.374  1.00  0.00    -0.343 OA 
HETATM    6  H   UNL     1     -10.416  11.031  63.749  1.00  0.00     0.000 HD 
BRANCH   4   7
HETATM    7  C   UNL     1     -10.103  12.182  66.015  1.00  0.00    -0.235 C  
HETATM    8  O   UNL     1     -11.191  12.018  66.562  1.00  0.00    -0.301 OA 
HETATM    9  N   UNL     1      -9.502  13.424  65.963  1.00  0.00    -0.483 N  
HETATM   10  H   UNL     1      -8.581  13.523  65.535  1.00  0.00     0.000 HD 
BRANCH   9  11
HETATM   11  C   UNL     1     -10.167  14.587  66.511  1.00  0.00    -0.279 C  
BRANCH  11  12
HETATM   12  C   UNL     1     -10.587  15.604  65.455  1.00  0.00    -0.436 C  
BRANCH  12  13
HETATM   13  C   UNL     1     -11.701  15.127  64.533  1.00  0.00    -0.328 C  
HETATM   14  O   UNL     1     -12.580  14.270  65.259  1.00  0.00    -0.466 OA 
HETATM   15  H   UNL     1     -13.275  13.973  64.683  1.00  0.00     0.000 HD 
ENDBRANCH  12  13
ENDBRANCH  11  12
ENDBRANCH   9  11
ENDBRANCH   4   7
ENDBRANCH   2   4
BRANCH   2  16
HETATM   16  C   UNL     1      -9.761   8.976  66.775  1.00  0.00    -0.216 C  
HETATM   17  O   UNL     1      -9.250   7.973  67.646  1.00  0.00    -0.133 OA 
HETATM   18  H   UNL     1      -9.911   7.328  67.871  1.00  0.00     0.000 HD 
ENDBRANCH   2  16
TORSDOF 6
ENDMDL
MODEL      207
REMARK 921   NORMALIZED FREE ENERGY PREDICTED BY IDOCK:   -2.77 KCAL/MOL
REMARK 922        TOTAL FREE ENERGY PREDICTED BY IDOCK:   -4.26 KCAL/MOL
REMARK 923 INTER-LIGAND FREE ENERGY PREDICTED BY IDOCK:   -4.38 KCAL/MOL
REMARK 924 INTRA-LIGAND FREE ENERGY PREDICTED BY IDOCK:    0.12 KCAL/MOL
REMARK 927      BINDING AFFINITY PREDICTED BY RF-SCORE:    0.00 PKD
ROOT
HETATM    1  C   UNL     1     -12.247  14.606  73.047  1.00  0.00    -0.274 C  
HETATM    2  C   UNL     1     -12.973  13.979  71.831  1.00  0.00    -0.444 C  
HETATM    3  C   UNL     1     -14.020  12.995  72.394  1.00  0.00    -0.426 C  
ENDROOT
BRANCH   2   4
HETATM    4  C   UNL     1     -11.939  13.248  70.920  1.00  0.00    -0.000 C  
HETATM    5  O   UNL     1     -12.398  11.957  70.500  1.00  0.00    -0.330 OA 
HETATM    6  H   UNL     1     -11.769  11.512  69.946  1.00  0.00     0.000 HD 
BRANCH   4   7
HETATM    7  C   UNL     1     -11.525  14.045  69.659  1.00  0.00    -0.258 C  
HETATM    8  O   UNL     1     -12.159  14.059  68.607  1.00  0.00    -0.351 OA 
HETATM    9  N   UNL     1     -10.381  14.801  69.821  1.00  0.00    -0.439 N  
HETATM   10  H   UNL     1      -9.895  14.799  70.719  1.00  0.00     0.000 HD 
BRANCH   9  11
HETATM   11  C   UNL     1      -9.864  15.598  68.728  1.00  0.00    -0.213 C  
BRANCH  11  12
HETATM   12  C   UNL     1      -9.696  17.074  69.076  1.00  0.00    -0.216 C  
BRANCH  12  13
HETATM   13  C   UNL     1      -8.968  17.889  68.016  1.00  0.00    -0.267 C  
HETATM   14  O   UNL     1      -9.845  18.121  66.915  1.00  0.00    -0.301 OA 
HETATM   15  H   UNL     1      -9.391  18.630  66.254  1.00  0.00     0.000 HD 
ENDBRANCH  12  13
ENDBRANCH  11  12
ENDBRANCH   9  11
ENDBRANCH   4   7
ENDBRANCH   2   4
BRANCH   2  16
HETATM   16  C   UNL     1     -13.648  15.132  71.041  1.00  0.00    -0.409 C  
HETATM   17  O   UNL     1     -12.785  16.255  70.901  1.00  0.00    -0.451 OA 
HETATM   18  H   UNL     1     -13.197  16.961  70.417  1.00  0.00     0.000 HD 
ENDBRANCH   2  16
TORSDOF 6
ENDMDL
MODEL      208
REMARK 921   NORMALIZED FREE ENERGY PREDICTED BY IDOCK:   -2.77 KCAL/MOL
REMARK 922        TOTAL FREE ENERGY PREDICTED BY IDOCK:   -4.26 KCAL/MOL
REMARK 923 INTER-LIGAND FREE ENERGY PREDICTED BY IDOCK:   -3.71 KCAL/MOL
REMARK 924 INTRA-LIGAND FREE ENERGY PREDICTED BY IDOCK:   -0.55 KCAL/MOL
REMARK 927      BINDING AFFINITY PREDICTED BY RF-SCORE:    0.00 PKD
ROOT
HETATM    1  C   UNL     1      -9.838  12.498  65.594  1.00  0.00    -0.227 C  
HETATM    2  C   UNL     1      -9.944  11.293  66.562  1.00  0.00    -0.247 C  
HETATM    3  C   UNL     1      -9.982  10.021  65.689  1.00  0.00    -0.355 C  
ENDROOT
BRANCH   2   4
HETATM    4  C   UNL     1     -11.235  11.427  67.427  1.00  0.00    -0.305 C  
HETATM    5  O   UNL     1     -11.079  10.852  68.731  1.00  0.00    -0.216 OA 
HETATM    6  H   UNL     1     -11.865  10.934  69.258  1.00  0.00     0.000 HD 
BRANCH   4   7
HETATM    7  C   UNL     1     -11.739  12.881  67.600  1.00  0.00    -0.370 C  
HETATM    8  O   UNL     1     -12.394  13.493  66.759  1.00  0.00    -0.365 OA 
HETATM    9  N   UNL     1     -11.434  13.441  68.824  1.00  0.00    -0.282 N  
HETATM   10  H   UNL     1     -10.922  12.895  69.517  1.00  0.00     0.000 HD 
BRANCH   9  11
HETATM   11  C   UNL     1     -11.835  14.798  69.134  1.00  0.00    -0.305 C  
BRANCH  11  12
HETATM   12  C   UNL     1     -10.715  15.642  69.733  1.00  0.00    -0.309 C  
BRANCH  12  13
HETATM   13  C   UNL     1      -9.322  15.281  69.234  1.00  0.00    -0.239 C  
HETATM   14  O   UNL     1      -9.330  15.228  67.809  1.00  0.00    -0.194 OA 
HETATM   15  H   UNL     1      -8.461  15.003  67.498  1.00  0.00     0.000 HD 
ENDBRANCH  12  13
ENDBRANCH  11  12
ENDBRANCH   9  11
ENDBRANCH   4   7
ENDBRANCH   2   4
BRANCH   2  16
HETATM   16  C   UNL     1      -8.692  11.315  67.478  1.00  0.00    -0.138 C  
HETATM   17  O   UNL     1      -8.049  12.584  67.469  1.00  0.00    -0.154 OA 
HETATM   18  H   UNL     1      -7.282  12.598  68.031  1.00  0.00     0.000 HD 
ENDBRANCH   2  16
TORSDOF 6
ENDMDL
MODEL      209
REMARK 921   NORMALIZED FREE ENERGY PREDICTED BY IDOCK:   -2.76 KCAL/MOL
REMARK 922        TOTAL FREE ENERGY PREDICTED BY IDOCK:   -4.26 KCAL/MOL
REMARK 923 INTER-LIGAND FREE ENERGY PREDICTED BY IDOCK:   -4.03 KCAL/MOL
REMARK 924 INTRA-LIGAND FREE ENERGY PREDICTED BY IDOCK:   -0.23 KCAL/MOL
REMARK 927      BINDING AFFINITY PREDICTED BY RF-SCORE:    0.00 PKD
ROOT
HETATM    1  C   UNL     1      -6.993  12.607  68.451  1.00  0.00    -0.094 C  
HETATM    2  C   UNL     1      -8.137  11.614  68.128  1.00  0.00    -0.148 C  
HETATM    3  C   UNL     1      -9.461  12.389  68.294  1.00  0.00    -0.203 C  
ENDROOT
BRANCH   2   4
HETATM    4  C   UNL     1      -8.066  10.396  69.099  1.00  0.00    -0.151 C  
HETATM    5  O   UNL     1      -7.528  10.750  70.380  1.00  0.00    -0.409 OA 
HETATM    6  H   UNL     1      -7.484  10.009  70.971  1.00  0.00     0.000 HD 
BRANCH   4   7
HETATM    7  C   UNL     1      -9.420   9.682  69.328  1.00  0.00    -0.179 C  
HETATM    8  O   UNL     1      -9.992   8.990  68.488  1.00  0.00    -0.165 OA 
HETATM    9  N   UNL     1      -9.934   9.843  70.600  1.00  0.00    -0.360 N  
HETATM   10  H   UNL     1      -9.418  10.393  71.288  1.00  0.00     0.000 HD 
BRANCH   9  11
HETATM   11  C   UNL     1     -11.198   9.239  70.966  1.00  0.00    -0.321 C  
BRANCH  11  12
HETATM   12  C   UNL     1     -12.222  10.239  71.493  1.00  0.00    -0.449 C  
BRANCH  12  13
HETATM   13  C   UNL     1     -13.461   9.603  72.107  1.00  0.00    -0.429 C  
HETATM   14  O   UNL     1     -14.077   8.746  71.148  1.00  0.00    -0.594 OA 
HETATM   15  H   UNL     1     -14.850   8.349  71.531  1.00  0.00     0.000 HD 
ENDBRANCH  12  13
ENDBRANCH  11  12
ENDBRANCH   9  11
ENDBRANCH   4   7
ENDBRANCH   2   4
BRANCH   2  16
HETATM   16  C   UNL     1      -7.942  11.132  66.665  1.00  0.00    -0.159 C  
HETATM   17  O   UNL     1      -8.901  11.708  65.785  1.00  0.00    -0.367 OA 
HETATM   18  H   UNL     1      -8.782  11.414  64.889  1.00  0.00     0.000 HD 
ENDBRANCH   2  16
TORSDOF 6
ENDMDL
MODEL      210
REMARK 921   NORMALIZED FREE ENERGY PREDICTED BY IDOCK:   -2.76 KCAL/MOL
REMARK 922        TOTAL FREE ENERGY PREDICTED BY IDOCK:   -4.25 KCAL/MOL
REMARK 923 INTER-LIGAND FREE ENERGY PREDICTED BY IDOCK:   -4.18 KCAL/MOL
REMARK 924 INTRA-LIGAND FREE ENERGY PREDICTED BY IDOCK:   -0.07 KCAL/MOL
REMARK 927      BINDING AFFINITY PREDICTED BY RF-SCORE:    0.00 PKD
ROOT
HETATM    1  C   UNL     1      -9.472   8.796  71.406  1.00  0.00    -0.330 C  
HETATM    2  C   UNL     1     -10.261   8.700  70.077  1.00  0.00    -0.201 C  
HETATM    3  C   UNL     1     -11.077   7.392  70.136  1.00  0.00    -0.265 C  
ENDROOT
BRANCH   2   4
HETATM    4  C   UNL     1      -9.268   8.697  68.875  1.00  0.00    -0.145 C  
HETATM    5  O   UNL     1      -8.440   7.526  68.854  1.00  0.00    -0.128 OA 
HETATM    6  H   UNL     1      -7.835   7.524  68.123  1.00  0.00     0.000 HD 
BRANCH   4   7
HETATM    7  C   UNL     1      -9.943   8.832  67.489  1.00  0.00    -0.198 C  
HETATM    8  O   UNL     1     -10.745   8.024  67.025  1.00  0.00    -0.328 OA 
HETATM    9  N   UNL     1      -9.607   9.986  66.809  1.00  0.00    -0.174 N  
HETATM   10  H   UNL     1      -8.967  10.656  67.235  1.00  0.00     0.000 HD 
BRANCH   9  11
HETATM   11  C   UNL     1     -10.155  10.253  65.495  1.00  0.00    -0.281 C  
BRANCH  11  12
HETATM   12  C   UNL     1      -9.818  11.642  64.965  1.00  0.00    -0.280 C  
BRANCH  12  13
HETATM   13  C   UNL     1     -10.772  12.153  63.893  1.00  0.00    -0.407 C  
HETATM   14  O   UNL     1     -10.940  11.150  62.893  1.00  0.00    -0.809 OA 
HETATM   15  H   UNL     1     -11.535  11.469  62.225  1.00  0.00     0.000 HD 
ENDBRANCH  12  13
ENDBRANCH  11  12
ENDBRANCH   9  11
ENDBRANCH   4   7
ENDBRANCH   2   4
BRANCH   2  16
HETATM   16  C   UNL     1     -11.188   9.942  69.990  1.00  0.00    -0.276 C  
HETATM   17  O   UNL     1     -11.885  10.170  71.210  1.00  0.00    -0.359 OA 
HETATM   18  H   UNL     1     -12.453  10.930  71.157  1.00  0.00     0.000 HD 
ENDBRANCH   2  16
TORSDOF 6
ENDMDL
MODEL      211
REMARK 921   NORMALIZED FREE ENERGY PREDICTED BY IDOCK:   -2.76 KCAL/MOL
REMARK 922        TOTAL FREE ENERGY PREDICTED BY IDOCK:   -4.25 KCAL/MOL
REMARK 923 INTER-LIGAND FREE ENERGY PREDICTED BY IDOCK:   -4.70 KCAL/MOL
REMARK 924 INTRA-LIGAND FREE ENERGY PREDICTED BY IDOCK:    0.45 KCAL/MOL
REMARK 927      BINDING AFFINITY PREDICTED BY RF-SCORE:    0.00 PKD
ROOT
HETATM    1  C   UNL     1     -10.360  15.028  70.110  1.00  0.00    -0.057 C  
HETATM    2  C   UNL     1     -11.750  14.427  69.785  1.00  0.00    -0.361 C  
HETATM    3  C   UNL     1     -11.574  12.895  69.738  1.00  0.00    -0.288 C  
ENDROOT
BRANCH   2   4
HETATM    4  C   UNL     1     -12.257  14.984  68.419  1.00  0.00     0.026 C  
HETATM    5  O   UNL     1     -11.751  16.296  68.144  1.00  0.00    -0.192 OA 
HETATM    6  H   UNL     1     -12.059  16.635  67.312  1.00  0.00     0.000 HD 
BRANCH   4   7
HETATM    7  C   UNL     1     -11.937  14.080  67.204  1.00  0.00    -0.430 C  
HETATM    8  O   UNL     1     -12.347  12.929  67.067  1.00  0.00    -0.360 OA 
HETATM    9  N   UNL     1     -11.174  14.694  66.231  1.00  0.00    -0.337 N  
HETATM   10  H   UNL     1     -10.880  15.663  66.355  1.00  0.00     0.000 HD 
BRANCH   9  11
HETATM   11  C   UNL     1     -10.789  13.975  65.034  1.00  0.00    -0.392 C  
BRANCH  11  12
HETATM   12  C   UNL     1     -11.974  13.481  64.212  1.00  0.00    -0.479 C  
BRANCH  12  13
HETATM   13  C   UNL     1     -11.647  12.331  63.269  1.00  0.00    -0.351 C  
HETATM   14  O   UNL     1     -10.359  11.809  63.589  1.00  0.00    -0.349 OA 
HETATM   15  H   UNL     1     -10.155  11.092  63.002  1.00  0.00     0.000 HD 
ENDBRANCH  12  13
ENDBRANCH  11  12
ENDBRANCH   9  11
ENDBRANCH   4   7
ENDBRANCH   2   4
BRANCH   2  16
HETATM   16  C   UNL     1     -12.722  14.850  70.919  1.00  0.00    -0.360 C  
HETATM   17  O   UNL     1     -13.649  15.837  70.482  1.00  0.00    -0.766 OA 
HETATM   18  H   UNL     1     -14.244  16.097  71.177  1.00  0.00     0.000 HD 
ENDBRANCH   2  16
TORSDOF 6
ENDMDL
MODEL      212
REMARK 921   NORMALIZED FREE ENERGY PREDICTED BY IDOCK:   -2.76 KCAL/MOL
REMARK 922        TOTAL FREE ENERGY PREDICTED BY IDOCK:   -4.25 KCAL/MOL
REMARK 923 INTER-LIGAND FREE ENERGY PREDICTED BY IDOCK:   -4.01 KCAL/MOL
REMARK 924 INTRA-LIGAND FREE ENERGY PREDICTED BY IDOCK:   -0.23 KCAL/MOL
REMARK 927      BINDING AFFINITY PREDICTED BY RF-SCORE:    0.00 PKD
ROOT
HETATM    1  C   UNL     1      -9.794   8.591  72.086  1.00  0.00    -0.388 C  
HETATM    2  C   UNL     1     -10.558   8.885  70.771  1.00  0.00    -0.281 C  
HETATM    3  C   UNL     1     -11.008   7.523  70.201  1.00  0.00    -0.267 C  
ENDROOT
BRANCH   2   4
HETATM    4  C   UNL     1      -9.620   9.636  69.776  1.00  0.00    -0.219 C  
HETATM    5  O   UNL     1      -8.404   8.919  69.526  1.00  0.00    -0.113 OA 
HETATM    6  H   UNL     1      -7.833   9.375  68.921  1.00  0.00     0.000 HD 
BRANCH   4   7
HETATM    7  C   UNL     1     -10.272   9.966  68.411  1.00  0.00    -0.178 C  
HETATM    8  O   UNL     1     -10.413   9.159  67.495  1.00  0.00    -0.245 OA 
HETATM    9  N   UNL     1     -10.742  11.260  68.310  1.00  0.00    -0.182 N  
HETATM   10  H   UNL     1     -10.644  11.897  69.101  1.00  0.00     0.000 HD 
BRANCH   9  11
HETATM   11  C   UNL     1     -11.373  11.721  67.091  1.00  0.00    -0.322 C  
BRANCH  11  12
HETATM   12  C   UNL     1     -10.895  13.097  66.639  1.00  0.00    -0.292 C  
BRANCH  12  13
HETATM   13  C   UNL     1     -11.715  14.257  67.186  1.00  0.00    -0.404 C  
HETATM   14  O   UNL     1     -12.475  13.811  68.308  1.00  0.00    -0.378 OA 
HETATM   15  H   UNL     1     -12.986  14.535  68.649  1.00  0.00     0.000 HD 
ENDBRANCH  12  13
ENDBRANCH  11  12
ENDBRANCH   9  11
ENDBRANCH   4   7
ENDBRANCH   2   4
BRANCH   2  16
HETATM   16  C   UNL     1     -11.775   9.781  71.125  1.00  0.00    -0.385 C  
HETATM   17  O   UNL     1     -12.457   9.316  72.284  1.00  0.00    -0.360 OA 
HETATM   18  H   UNL     1     -13.202   9.864  72.501  1.00  0.00     0.000 HD 
ENDBRANCH   2  16
TORSDOF 6
ENDMDL
MODEL      213
REMARK 921   NORMALIZED FREE ENERGY PREDICTED BY IDOCK:   -2.74 KCAL/MOL
REMARK 922        TOTAL FREE ENERGY PREDICTED BY IDOCK:   -4.22 KCAL/MOL
REMARK 923 INTER-LIGAND FREE ENERGY PREDICTED BY IDOCK:   -3.92 KCAL/MOL
REMARK 924 INTRA-LIGAND FREE ENERGY PREDICTED BY IDOCK:   -0.30 KCAL/MOL
REMARK 927      BINDING AFFINITY PREDICTED BY RF-SCORE:    0.00 PKD
ROOT
HETATM    1  C   UNL     1      -8.063   8.625  69.537  1.00  0.00    -0.110 C  
HETATM    2  C   UNL     1      -9.204   8.002  70.379  1.00  0.00    -0.155 C  
HETATM    3  C   UNL     1      -8.662   6.677  70.955  1.00  0.00    -0.138 C  
ENDROOT
BRANCH   2   4
HETATM    4  C   UNL     1     -10.452   7.760  69.475  1.00  0.00    -0.225 C  
HETATM    5  O   UNL     1     -11.682   8.041  70.157  1.00  0.00    -0.478 OA 
HETATM    6  H   UNL     1     -12.442   7.894  69.607  1.00  0.00     0.000 HD 
BRANCH   4   7
HETATM    7  C   UNL     1     -10.444   8.560  68.150  1.00  0.00    -0.182 C  
HETATM    8  O   UNL     1     -10.069   8.110  67.069  1.00  0.00    -0.223 OA 
HETATM    9  N   UNL     1     -10.950   9.840  68.262  1.00  0.00    -0.444 N  
HETATM   10  H   UNL     1     -11.288  10.174  69.164  1.00  0.00     0.000 HD 
BRANCH   9  11
HETATM   11  C   UNL     1     -11.004  10.714  67.108  1.00  0.00    -0.247 C  
BRANCH  11  12
HETATM   12  C   UNL     1     -11.337  12.161  67.455  1.00  0.00    -0.393 C  
BRANCH  12  13
HETATM   13  C   UNL     1     -11.959  12.349  68.831  1.00  0.00    -0.241 C  
HETATM   14  O   UNL     1     -10.925  12.444  69.808  1.00  0.00    -0.457 OA 
HETATM   15  H   UNL     1     -11.313  12.562  70.667  1.00  0.00     0.000 HD 
ENDBRANCH  12  13
ENDBRANCH  11  12
ENDBRANCH   9  11
ENDBRANCH   4   7
ENDBRANCH   2   4
BRANCH   2  16
HETATM   16  C   UNL     1      -9.558   9.007  71.507  1.00  0.00    -0.270 C  
HETATM   17  O   UNL     1      -8.939   8.660  72.741  1.00  0.00    -0.356 OA 
HETATM   18  H   UNL     1      -9.156   9.275  73.432  1.00  0.00     0.000 HD 
ENDBRANCH   2  16
TORSDOF 6
ENDMDL
MODEL      214
REMARK 921   NORMALIZED FREE ENERGY PREDICTED BY IDOCK:   -2.71 KCAL/MOL
REMARK 922        TOTAL FREE ENERGY PREDICTED BY IDOCK:   -4.19 KCAL/MOL
REMARK 923 INTER-LIGAND FREE ENERGY PREDICTED BY IDOCK:   -4.09 KCAL/MOL
REMARK 924 INTRA-LIGAND FREE ENERGY PREDICTED BY IDOCK:   -0.09 KCAL/MOL
REMARK 927      BINDING AFFINITY PREDICTED BY RF-SCORE:    0.00 PKD
ROOT
HETATM    1  C   UNL     1     -10.764   4.762  73.539  1.00  0.00    -0.338 C  
HETATM    2  C   UNL     1     -10.216   6.034  72.844  1.00  0.00    -0.207 C  
HETATM    3  C   UNL     1      -9.319   6.753  73.873  1.00  0.00    -0.220 C  
ENDROOT
BRANCH   2   4
HETATM    4  C   UNL     1     -11.404   6.939  72.394  1.00  0.00    -0.271 C  
HETATM    5  O   UNL     1     -11.835   7.830  73.432  1.00  0.00    -0.555 OA 
HETATM    6  H   UNL     1     -12.557   8.381  73.158  1.00  0.00     0.000 HD 
BRANCH   4   7
HETATM    7  C   UNL     1     -11.119   7.781  71.126  1.00  0.00    -0.248 C  
HETATM    8  O   UNL     1     -11.160   7.343  69.978  1.00  0.00    -0.259 OA 
HETATM    9  N   UNL     1     -10.855   9.112  71.381  1.00  0.00    -0.322 N  
HETATM   10  H   UNL     1     -10.864   9.454  72.342  1.00  0.00     0.000 HD 
BRANCH   9  11
HETATM   11  C   UNL     1     -10.565  10.026  70.296  1.00  0.00    -0.295 C  
BRANCH  11  12
HETATM   12  C   UNL     1     -11.751  10.900  69.902  1.00  0.00    -0.418 C  
BRANCH  12  13
HETATM   13  C   UNL     1     -12.538  11.457  71.080  1.00  0.00    -0.386 C  
HETATM   14  O   UNL     1     -12.787  12.845  70.868  1.00  0.00    -0.236 OA 
HETATM   15  H   UNL     1     -13.278  13.192  71.603  1.00  0.00     0.000 HD 
ENDBRANCH  12  13
ENDBRANCH  11  12
ENDBRANCH   9  11
ENDBRANCH   4   7
ENDBRANCH   2   4
BRANCH   2  16
HETATM   16  C   UNL     1      -9.403   5.578  71.604  1.00  0.00    -0.146 C  
HETATM   17  O   UNL     1      -9.962   4.418  70.999  1.00  0.00    -0.193 OA 
HETATM   18  H   UNL     1      -9.464   4.138  70.239  1.00  0.00     0.000 HD 
ENDBRANCH   2  16
TORSDOF 6
ENDMDL
MODEL      215
REMARK 921   NORMALIZED FREE ENERGY PREDICTED BY IDOCK:   -2.69 KCAL/MOL
REMARK 922        TOTAL FREE ENERGY PREDICTED BY IDOCK:   -4.15 KCAL/MOL
REMARK 923 INTER-LIGAND FREE ENERGY PREDICTED BY IDOCK:   -4.47 KCAL/MOL
REMARK 924 INTRA-LIGAND FREE ENERGY PREDICTED BY IDOCK:    0.32 KCAL/MOL
REMARK 927      BINDING AFFINITY PREDICTED BY RF-SCORE:    0.00 PKD
ROOT
HETATM    1  C   UNL     1      -7.848  18.518  66.166  1.00  0.00    -0.235 C  
HETATM    2  C   UNL     1      -8.629  18.324  67.489  1.00  0.00    -0.253 C  
HETATM    3  C   UNL     1      -7.767  18.940  68.611  1.00  0.00    -0.375 C  
ENDROOT
BRANCH   2   4
HETATM    4  C   UNL     1      -8.878  16.803  67.734  1.00  0.00    -0.208 C  
HETATM    5  O   UNL     1      -9.537  16.553  68.982  1.00  0.00    -0.252 OA 
HETATM    6  H   UNL     1      -9.689  15.628  69.132  1.00  0.00     0.000 HD 
BRANCH   4   7
HETATM    7  C   UNL     1      -9.685  16.101  66.615  1.00  0.00    -0.244 C  
HETATM    8  O   UNL     1      -9.631  16.404  65.425  1.00  0.00    -0.455 OA 
HETATM    9  N   UNL     1     -10.457  15.044  67.056  1.00  0.00    -0.273 N  
HETATM   10  H   UNL     1     -10.452  14.792  68.045  1.00  0.00     0.000 HD 
BRANCH   9  11
HETATM   11  C   UNL     1     -11.273  14.290  66.127  1.00  0.00    -0.331 C  
BRANCH  11  12
HETATM   12  C   UNL     1     -11.850  13.010  66.723  1.00  0.00    -0.451 C  
BRANCH  12  13
HETATM   13  C   UNL     1     -10.833  11.892  66.911  1.00  0.00    -0.263 C  
HETATM   14  O   UNL     1     -11.512  10.639  66.955  1.00  0.00    -0.304 OA 
HETATM   15  H   UNL     1     -10.878   9.942  67.072  1.00  0.00     0.000 HD 
ENDBRANCH  12  13
ENDBRANCH  11  12
ENDBRANCH   9  11
ENDBRANCH   4   7
ENDBRANCH   2   4
BRANCH   2  16
HETATM   16  C   UNL     1      -9.986  19.063  67.347  1.00  0.00    -0.342 C  
HETATM   17  O   UNL     1      -9.822  20.377  66.826  1.00  0.00    -0.487 OA 
HETATM   18  H   UNL     1     -10.653  20.830  66.739  1.00  0.00     0.000 HD 
ENDBRANCH   2  16
TORSDOF 6
ENDMDL
MODEL      216
REMARK 921   NORMALIZED FREE ENERGY PREDICTED BY IDOCK:   -2.69 KCAL/MOL
REMARK 922        TOTAL FREE ENERGY PREDICTED BY IDOCK:   -4.15 KCAL/MOL
REMARK 923 INTER-LIGAND FREE ENERGY PREDICTED BY IDOCK:   -3.74 KCAL/MOL
REMARK 924 INTRA-LIGAND FREE ENERGY PREDICTED BY IDOCK:   -0.41 KCAL/MOL
REMARK 927      BINDING AFFINITY PREDICTED BY RF-SCORE:    0.00 PKD
ROOT
HETATM    1  C   UNL     1      -9.450   8.491  72.221  1.00  0.00    -0.365 C  
HETATM    2  C   UNL     1     -10.796   8.203  71.510  1.00  0.00    -0.290 C  
HETATM    3  C   UNL     1     -11.781   7.721  72.596  1.00  0.00    -0.364 C  
ENDROOT
BRANCH   2   4
HETATM    4  C   UNL     1     -10.587   7.117  70.410  1.00  0.00    -0.224 C  
HETATM    5  O   UNL     1     -11.648   7.106  69.446  1.00  0.00    -0.509 OA 
HETATM    6  H   UNL     1     -11.521   6.445  68.777  1.00  0.00     0.000 HD 
BRANCH   4   7
HETATM    7  C   UNL     1      -9.245   7.233  69.646  1.00  0.00    -0.143 C  
HETATM    8  O   UNL     1      -8.250   6.551  69.883  1.00  0.00    -0.122 OA 
HETATM    9  N   UNL     1      -9.262   8.152  68.616  1.00  0.00    -0.143 N  
HETATM   10  H   UNL     1     -10.114   8.677  68.419  1.00  0.00     0.000 HD 
BRANCH   9  11
HETATM   11  C   UNL     1      -8.079   8.377  67.811  1.00  0.00    -0.122 C  
BRANCH  11  12
HETATM   12  C   UNL     1      -7.162   9.462  68.366  1.00  0.00    -0.076 C  
BRANCH  12  13
HETATM   13  C   UNL     1      -7.889  10.703  68.865  1.00  0.00    -0.129 C  
HETATM   14  O   UNL     1      -7.429  11.025  70.176  1.00  0.00    -0.406 OA 
HETATM   15  H   UNL     1      -7.883  11.800  70.487  1.00  0.00     0.000 HD 
ENDBRANCH  12  13
ENDBRANCH  11  12
ENDBRANCH   9  11
ENDBRANCH   4   7
ENDBRANCH   2   4
BRANCH   2  16
HETATM   16  C   UNL     1     -11.275   9.527  70.858  1.00  0.00    -0.341 C  
HETATM   17  O   UNL     1     -12.668   9.501  70.567  1.00  0.00    -0.504 OA 
HETATM   18  H   UNL     1     -12.962  10.312  70.167  1.00  0.00     0.000 HD 
ENDBRANCH   2  16
TORSDOF 6
ENDMDL
MODEL      217
REMARK 921   NORMALIZED FREE ENERGY PREDICTED BY IDOCK:   -2.68 KCAL/MOL
REMARK 922        TOTAL FREE ENERGY PREDICTED BY IDOCK:   -4.15 KCAL/MOL
REMARK 923 INTER-LIGAND FREE ENERGY PREDICTED BY IDOCK:   -3.62 KCAL/MOL
REMARK 924 INTRA-LIGAND FREE ENERGY PREDICTED BY IDOCK:   -0.53 KCAL/MOL
REMARK 927      BINDING AFFINITY PREDICTED BY RF-SCORE:    0.00 PKD
ROOT
HETATM    1  C   UNL     1     -11.857  13.021  66.401  1.00  0.00    -0.465 C  
HETATM    2  C   UNL     1     -10.970  12.331  67.468  1.00  0.00    -0.298 C  
HETATM    3  C   UNL     1      -9.791  13.285  67.753  1.00  0.00    -0.224 C  
ENDROOT
BRANCH   2   4
HETATM    4  C   UNL     1     -10.470  10.957  66.926  1.00  0.00    -0.249 C  
HETATM    5  O   UNL     1     -10.158  11.003  65.527  1.00  0.00    -0.237 OA 
HETATM    6  H   UNL     1      -9.854  10.166  65.197  1.00  0.00     0.000 HD 
BRANCH   4   7
HETATM    7  C   UNL     1      -9.241  10.385  67.674  1.00  0.00    -0.148 C  
HETATM    8  O   UNL     1      -9.231  10.086  68.866  1.00  0.00    -0.152 OA 
HETATM    9  N   UNL     1      -8.137  10.183  66.870  1.00  0.00    -0.120 N  
HETATM   10  H   UNL     1      -8.187  10.405  65.876  1.00  0.00     0.000 HD 
BRANCH   9  11
HETATM   11  C   UNL     1      -6.908   9.657  67.426  1.00  0.00    -0.083 C  
BRANCH  11  12
HETATM   12  C   UNL     1      -5.882   9.259  66.370  1.00  0.00    -0.058 C  
BRANCH  12  13
HETATM   13  C   UNL     1      -5.413  10.408  65.487  1.00  0.00    -0.099 C  
HETATM   14  O   UNL     1      -6.435  10.726  64.545  1.00  0.00    -0.367 OA 
HETATM   15  H   UNL     1      -6.143  11.443  63.994  1.00  0.00     0.000 HD 
ENDBRANCH  12  13
ENDBRANCH  11  12
ENDBRANCH   9  11
ENDBRANCH   4   7
ENDBRANCH   2   4
BRANCH   2  16
HETATM   16  C   UNL     1     -11.841  12.112  68.733  1.00  0.00    -0.303 C  
HETATM   17  O   UNL     1     -12.319  10.775  68.824  1.00  0.00    -0.812 OA 
HETATM   18  H   UNL     1     -12.853  10.640  69.599  1.00  0.00     0.000 HD 
ENDBRANCH   2  16
TORSDOF 6
ENDMDL
MODEL      218
REMARK 921   NORMALIZED FREE ENERGY PREDICTED BY IDOCK:   -2.66 KCAL/MOL
REMARK 922        TOTAL FREE ENERGY PREDICTED BY IDOCK:   -4.12 KCAL/MOL
REMARK 923 INTER-LIGAND FREE ENERGY PREDICTED BY IDOCK:   -3.84 KCAL/MOL
REMARK 924 INTRA-LIGAND FREE ENERGY PREDICTED BY IDOCK:   -0.28 KCAL/MOL
REMARK 927      BINDING AFFINITY PREDICTED BY RF-SCORE:    0.00 PKD
ROOT
HETATM    1  C   UNL     1     -11.030  11.524  67.514  1.00  0.00    -0.308 C  
HETATM    2  C   UNL     1     -10.193  12.388  66.537  1.00  0.00    -0.244 C  
HETATM    3  C   UNL     1     -10.907  13.751  66.422  1.00  0.00    -0.287 C  
ENDROOT
BRANCH   2   4
HETATM    4  C   UNL     1     -10.100  11.675  65.153  1.00  0.00    -0.262 C  
HETATM    5  O   UNL     1      -9.616  12.547  64.122  1.00  0.00    -0.545 OA 
HETATM    6  H   UNL     1      -9.560  12.113  63.280  1.00  0.00     0.000 HD 
BRANCH   4   7
HETATM    7  C   UNL     1      -9.227  10.397  65.150  1.00  0.00    -0.208 C  
HETATM    8  O   UNL     1      -8.102  10.325  64.660  1.00  0.00    -0.161 OA 
HETATM    9  N   UNL     1      -9.800   9.322  65.802  1.00  0.00    -0.408 N  
HETATM   10  H   UNL     1     -10.719   9.423  66.232  1.00  0.00     0.000 HD 
BRANCH   9  11
HETATM   11  C   UNL     1      -9.106   8.054  65.880  1.00  0.00    -0.106 C  
BRANCH  11  12
HETATM   12  C   UNL     1      -8.607   7.717  67.281  1.00  0.00    -0.128 C  
BRANCH  12  13
HETATM   13  C   UNL     1      -9.704   7.323  68.260  1.00  0.00    -0.147 C  
HETATM   14  O   UNL     1     -10.920   7.972  67.893  1.00  0.00    -0.477 OA 
HETATM   15  H   UNL     1     -11.604   7.726  68.503  1.00  0.00     0.000 HD 
ENDBRANCH  12  13
ENDBRANCH  11  12
ENDBRANCH   9  11
ENDBRANCH   4   7
ENDBRANCH   2   4
BRANCH   2  16
HETATM   16  C   UNL     1      -8.773  12.542  67.146  1.00  0.00    -0.200 C  
HETATM   17  O   UNL     1      -8.094  13.680  66.627  1.00  0.00    -0.362 OA 
HETATM   18  H   UNL     1      -7.225  13.775  66.999  1.00  0.00     0.000 HD 
ENDBRANCH   2  16
TORSDOF 6
ENDMDL
MODEL      219
REMARK 921   NORMALIZED FREE ENERGY PREDICTED BY IDOCK:   -2.66 KCAL/MOL
REMARK 922        TOTAL FREE ENERGY PREDICTED BY IDOCK:   -4.11 KCAL/MOL
REMARK 923 INTER-LIGAND FREE ENERGY PREDICTED BY IDOCK:   -3.98 KCAL/MOL
REMARK 924 INTRA-LIGAND FREE ENERGY PREDICTED BY IDOCK:   -0.13 KCAL/MOL
REMARK 927      BINDING AFFINITY PREDICTED BY RF-SCORE:    0.00 PKD
ROOT
HETATM    1  C   UNL     1     -10.370   8.927  69.073  1.00  0.00    -0.226 C  
HETATM    2  C   UNL     1     -10.018  10.088  68.110  1.00  0.00    -0.176 C  
HETATM    3  C   UNL     1      -8.587  10.543  68.464  1.00  0.00    -0.135 C  
ENDROOT
BRANCH   2   4
HETATM    4  C   UNL     1     -11.045  11.249  68.289  1.00  0.00    -0.240 C  
HETATM    5  O   UNL     1     -10.737  12.080  69.416  1.00  0.00    -0.440 OA 
HETATM    6  H   UNL     1     -11.362  12.786  69.525  1.00  0.00     0.000 HD 
BRANCH   4   7
HETATM    7  C   UNL     1     -11.199  12.160  67.047  1.00  0.00    -0.314 C  
HETATM    8  O   UNL     1     -12.154  12.126  66.274  1.00  0.00    -0.626 OA 
HETATM    9  N   UNL     1     -10.177  13.077  66.892  1.00  0.00    -0.241 N  
HETATM   10  H   UNL     1      -9.416  13.106  67.570  1.00  0.00     0.000 HD 
BRANCH   9  11
HETATM   11  C   UNL     1     -10.178  13.997  65.773  1.00  0.00    -0.328 C  
BRANCH  11  12
HETATM   12  C   UNL     1      -9.609  15.371  66.114  1.00  0.00    -0.362 C  
BRANCH  12  13
HETATM   13  C   UNL     1      -8.533  15.354  67.191  1.00  0.00    -0.214 C  
HETATM   14  O   UNL     1      -7.248  15.310  66.574  1.00  0.00    -0.175 OA 
HETATM   15  H   UNL     1      -6.577  15.300  67.246  1.00  0.00     0.000 HD 
ENDBRANCH  12  13
ENDBRANCH  11  12
ENDBRANCH   9  11
ENDBRANCH   4   7
ENDBRANCH   2   4
BRANCH   2  16
HETATM   16  C   UNL     1     -10.094   9.536  66.662  1.00  0.00    -0.252 C  
HETATM   17  O   UNL     1     -10.011   8.116  66.630  1.00  0.00    -0.247 OA 
HETATM   18  H   UNL     1     -10.057   7.777  65.743  1.00  0.00     0.000 HD 
ENDBRANCH   2  16
TORSDOF 6
ENDMDL
MODEL      220
REMARK 921   NORMALIZED FREE ENERGY PREDICTED BY IDOCK:   -2.63 KCAL/MOL
REMARK 922        TOTAL FREE ENERGY PREDICTED BY IDOCK:   -4.08 KCAL/MOL
REMARK 923 INTER-LIGAND FREE ENERGY PREDICTED BY IDOCK:   -3.44 KCAL/MOL
REMARK 924 INTRA-LIGAND FREE ENERGY PREDICTED BY IDOCK:   -0.64 KCAL/MOL
REMARK 927      BINDING AFFINITY PREDICTED BY RF-SCORE:    0.00 PKD
ROOT
HETATM    1  C   UNL     1     -11.366   7.033  70.447  1.00  0.00    -0.354 C  
HETATM    2  C   UNL     1     -11.133   8.310  71.293  1.00  0.00    -0.296 C  
HETATM    3  C   UNL     1     -12.490   9.040  71.383  1.00  0.00    -0.378 C  
ENDROOT
BRANCH   2   4
HETATM    4  C   UNL     1     -10.052   9.203  70.608  1.00  0.00    -0.247 C  
HETATM    5  O   UNL     1      -8.931   8.440  70.142  1.00  0.00    -0.138 OA 
HETATM    6  H   UNL     1      -8.273   8.983  69.726  1.00  0.00     0.000 HD 
BRANCH   4   7
HETATM    7  C   UNL     1     -10.581  10.052  69.427  1.00  0.00    -0.233 C  
HETATM    8  O   UNL     1     -11.061   9.585  68.396  1.00  0.00    -0.121 OA 
HETATM    9  N   UNL     1     -10.516  11.415  69.640  1.00  0.00    -0.431 N  
HETATM   10  H   UNL     1     -10.146  11.772  70.521  1.00  0.00     0.000 HD 
BRANCH   9  11
HETATM   11  C   UNL     1     -10.969  12.341  68.623  1.00  0.00    -0.239 C  
BRANCH  11  12
HETATM   12  C   UNL     1      -9.853  12.836  67.709  1.00  0.00    -0.220 C  
BRANCH  12  13
HETATM   13  C   UNL     1      -8.501  12.985  68.393  1.00  0.00    -0.118 C  
HETATM   14  O   UNL     1      -7.778  11.761  68.280  1.00  0.00    -0.114 OA 
HETATM   15  H   UNL     1      -6.934  11.854  68.706  1.00  0.00     0.000 HD 
ENDBRANCH  12  13
ENDBRANCH  11  12
ENDBRANCH   9  11
ENDBRANCH   4   7
ENDBRANCH   2   4
BRANCH   2  16
HETATM   16  C   UNL     1     -10.636   7.862  72.693  1.00  0.00    -0.329 C  
HETATM   17  O   UNL     1      -9.395   8.469  73.035  1.00  0.00    -0.215 OA 
HETATM   18  H   UNL     1      -9.090   8.195  73.892  1.00  0.00     0.000 HD 
ENDBRANCH   2  16
TORSDOF 6
ENDMDL
MODEL      221
REMARK 921   NORMALIZED FREE ENERGY PREDICTED BY IDOCK:   -2.63 KCAL/MOL
REMARK 922        TOTAL FREE ENERGY PREDICTED BY IDOCK:   -4.07 KCAL/MOL
REMARK 923 INTER-LIGAND FREE ENERGY PREDICTED BY IDOCK:   -3.50 KCAL/MOL
REMARK 924 INTRA-LIGAND FREE ENERGY PREDICTED BY IDOCK:   -0.58 KCAL/MOL
REMARK 927      BINDING AFFINITY PREDICTED BY RF-SCORE:    0.00 PKD
ROOT
HETATM    1  C   UNL     1     -11.096   5.938  72.136  1.00  0.00    -0.333 C  
HETATM    2  C   UNL     1     -11.358   7.020  71.059  1.00  0.00    -0.325 C  
HETATM    3  C   UNL     1     -11.408   6.294  69.699  1.00  0.00    -0.492 C  
ENDROOT
BRANCH   2   4
HETATM    4  C   UNL     1     -10.218   8.084  71.094  1.00  0.00    -0.193 C  
HETATM    5  O   UNL     1      -8.914   7.487  71.069  1.00  0.00    -0.145 OA 
HETATM    6  H   UNL     1      -8.220   8.134  71.090  1.00  0.00     0.000 HD 
BRANCH   4   7
HETATM    7  C   UNL     1     -10.288   9.132  69.956  1.00  0.00    -0.207 C  
HETATM    8  O   UNL     1     -11.065  10.084  69.936  1.00  0.00    -0.253 OA 
HETATM    9  N   UNL     1      -9.353   8.943  68.958  1.00  0.00    -0.144 N  
HETATM   10  H   UNL     1      -8.696   8.165  69.021  1.00  0.00     0.000 HD 
BRANCH   9  11
HETATM   11  C   UNL     1      -9.296   9.840  67.823  1.00  0.00    -0.134 C  
BRANCH  11  12
HETATM   12  C   UNL     1      -7.975  10.592  67.705  1.00  0.00    -0.106 C  
BRANCH  12  13
HETATM   13  C   UNL     1      -7.803  11.719  68.713  1.00  0.00    -0.076 C  
HETATM   14  O   UNL     1      -7.530  11.165  69.999  1.00  0.00    -0.378 OA 
HETATM   15  H   UNL     1      -7.422  11.868  70.628  1.00  0.00     0.000 HD 
ENDBRANCH  12  13
ENDBRANCH  11  12
ENDBRANCH   9  11
ENDBRANCH   4   7
ENDBRANCH   2   4
BRANCH   2  16
HETATM   16  C   UNL     1     -12.716   7.694  71.391  1.00  0.00    -0.327 C  
HETATM   17  O   UNL     1     -12.580   8.697  72.391  1.00  0.00    -0.383 OA 
HETATM   18  H   UNL     1     -13.411   9.110  72.595  1.00  0.00     0.000 HD 
ENDBRANCH   2  16
TORSDOF 6
ENDMDL
MODEL      222
REMARK 921   NORMALIZED FREE ENERGY PREDICTED BY IDOCK:   -2.63 KCAL/MOL
REMARK 922        TOTAL FREE ENERGY PREDICTED BY IDOCK:   -4.07 KCAL/MOL
REMARK 923 INTER-LIGAND FREE ENERGY PREDICTED BY IDOCK:   -3.72 KCAL/MOL
REMARK 924 INTRA-LIGAND FREE ENERGY PREDICTED BY IDOCK:   -0.35 KCAL/MOL
REMARK 927      BINDING AFFINITY PREDICTED BY RF-SCORE:    0.00 PKD
ROOT
HETATM    1  C   UNL     1      -7.059  14.599  69.871  1.00  0.00    -0.056 C  
HETATM    2  C   UNL     1      -7.295  14.384  68.356  1.00  0.00    -0.117 C  
HETATM    3  C   UNL     1      -5.921  14.509  67.667  1.00  0.00    -0.044 C  
ENDROOT
BRANCH   2   4
HETATM    4  C   UNL     1      -8.298  15.454  67.823  1.00  0.00    -0.147 C  
HETATM    5  O   UNL     1      -8.404  15.438  66.394  1.00  0.00    -0.374 OA 
HETATM    6  H   UNL     1      -9.014  16.089  66.069  1.00  0.00     0.000 HD 
BRANCH   4   7
HETATM    7  C   UNL     1      -9.725  15.339  68.412  1.00  0.00    -0.213 C  
HETATM    8  O   UNL     1     -10.547  14.487  68.081  1.00  0.00    -0.233 OA 
HETATM    9  N   UNL     1     -10.002  16.261  69.402  1.00  0.00    -0.249 N  
HETATM   10  H   UNL     1      -9.287  16.933  69.682  1.00  0.00     0.000 HD 
BRANCH   9  11
HETATM   11  C   UNL     1     -11.298  16.283  70.047  1.00  0.00    -0.269 C  
BRANCH  11  12
HETATM   12  C   UNL     1     -11.388  15.373  71.267  1.00  0.00    -0.441 C  
BRANCH  12  13
HETATM   13  C   UNL     1     -12.589  14.437  71.264  1.00  0.00    -0.351 C  
HETATM   14  O   UNL     1     -13.705  15.103  70.678  1.00  0.00    -0.692 OA 
HETATM   15  H   UNL     1     -14.454  14.519  70.676  1.00  0.00     0.000 HD 
ENDBRANCH  12  13
ENDBRANCH  11  12
ENDBRANCH   9  11
ENDBRANCH   4   7
ENDBRANCH   2   4
BRANCH   2  16
HETATM   16  C   UNL     1      -7.894  12.964  68.171  1.00  0.00    -0.147 C  
HETATM   17  O   UNL     1      -8.137  12.665  66.801  1.00  0.00    -0.386 OA 
HETATM   18  H   UNL     1      -8.504  11.795  66.687  1.00  0.00     0.000 HD 
ENDBRANCH   2  16
TORSDOF 6
ENDMDL
MODEL      223
REMARK 921   NORMALIZED FREE ENERGY PREDICTED BY IDOCK:   -2.63 KCAL/MOL
REMARK 922        TOTAL FREE ENERGY PREDICTED BY IDOCK:   -4.07 KCAL/MOL
REMARK 923 INTER-LIGAND FREE ENERGY PREDICTED BY IDOCK:   -3.90 KCAL/MOL
REMARK 924 INTRA-LIGAND FREE ENERGY PREDICTED BY IDOCK:   -0.17 KCAL/MOL
REMARK 927      BINDING AFFINITY PREDICTED BY RF-SCORE:    0.00 PKD
ROOT
HETATM    1  C   UNL     1      -8.979   9.645  68.222  1.00  0.00    -0.123 C  
HETATM    2  C   UNL     1      -8.067  10.102  67.056  1.00  0.00    -0.117 C  
HETATM    3  C   UNL     1      -6.845   9.160  67.050  1.00  0.00    -0.080 C  
ENDROOT
BRANCH   2   4
HETATM    4  C   UNL     1      -7.640  11.586  67.274  1.00  0.00    -0.143 C  
HETATM    5  O   UNL     1      -6.670  12.021  66.312  1.00  0.00    -0.336 OA 
HETATM    6  H   UNL     1      -6.410  12.924  66.444  1.00  0.00     0.000 HD 
BRANCH   4   7
HETATM    7  C   UNL     1      -8.814  12.595  67.262  1.00  0.00    -0.196 C  
HETATM    8  O   UNL     1      -9.572  12.790  68.210  1.00  0.00    -0.218 OA 
HETATM    9  N   UNL     1      -8.922  13.319  66.091  1.00  0.00    -0.436 N  
HETATM   10  H   UNL     1      -8.255  13.162  65.336  1.00  0.00     0.000 HD 
BRANCH   9  11
HETATM   11  C   UNL     1      -9.975  14.300  65.927  1.00  0.00    -0.319 C  
BRANCH  11  12
HETATM   12  C   UNL     1     -11.023  13.902  64.894  1.00  0.00    -0.391 C  
BRANCH  12  13
HETATM   13  C   UNL     1     -12.150  13.038  65.444  1.00  0.00    -0.444 C  
HETATM   14  O   UNL     1     -13.404  13.623  65.101  1.00  0.00    -0.677 OA 
HETATM   15  H   UNL     1     -14.107  13.084  65.444  1.00  0.00     0.000 HD 
ENDBRANCH  12  13
ENDBRANCH  11  12
ENDBRANCH   9  11
ENDBRANCH   4   7
ENDBRANCH   2   4
BRANCH   2  16
HETATM   16  C   UNL     1      -8.884   9.976  65.743  1.00  0.00    -0.150 C  
HETATM   17  O   UNL     1     -10.223   9.560  65.989  1.00  0.00    -0.272 OA 
HETATM   18  H   UNL     1     -10.724   9.483  65.184  1.00  0.00     0.000 HD 
ENDBRANCH   2  16
TORSDOF 6
ENDMDL
MODEL      224
REMARK 921   NORMALIZED FREE ENERGY PREDICTED BY IDOCK:   -2.62 KCAL/MOL
REMARK 922        TOTAL FREE ENERGY PREDICTED BY IDOCK:   -4.06 KCAL/MOL
REMARK 923 INTER-LIGAND FREE ENERGY PREDICTED BY IDOCK:   -3.66 KCAL/MOL
REMARK 924 INTRA-LIGAND FREE ENERGY PREDICTED BY IDOCK:   -0.40 KCAL/MOL
REMARK 927      BINDING AFFINITY PREDICTED BY RF-SCORE:    0.00 PKD
ROOT
HETATM    1  C   UNL     1      -9.366   9.947  69.333  1.00  0.00    -0.226 C  
HETATM    2  C   UNL     1      -9.810   9.834  67.853  1.00  0.00    -0.176 C  
HETATM    3  C   UNL     1     -10.715  11.049  67.564  1.00  0.00    -0.289 C  
ENDROOT
BRANCH   2   4
HETATM    4  C   UNL     1     -10.574   8.491  67.635  1.00  0.00    -0.198 C  
HETATM    5  O   UNL     1     -10.231   7.864  66.393  1.00  0.00    -0.470 OA 
HETATM    6  H   UNL     1     -10.697   7.047  66.260  1.00  0.00     0.000 HD 
BRANCH   4   7
HETATM    7  C   UNL     1     -10.377   7.454  68.768  1.00  0.00    -0.199 C  
HETATM    8  O   UNL     1      -9.302   6.929  69.049  1.00  0.00    -0.137 OA 
HETATM    9  N   UNL     1     -11.522   7.189  69.494  1.00  0.00    -0.514 N  
HETATM   10  H   UNL     1     -12.391   7.669  69.261  1.00  0.00     0.000 HD 
BRANCH   9  11
HETATM   11  C   UNL     1     -11.497   6.236  70.584  1.00  0.00    -0.329 C  
BRANCH  11  12
HETATM   12  C   UNL     1     -11.920   6.831  71.923  1.00  0.00    -0.374 C  
BRANCH  12  13
HETATM   13  C   UNL     1     -11.014   6.459  73.089  1.00  0.00    -0.220 C  
HETATM   14  O   UNL     1     -10.516   7.648  73.698  1.00  0.00    -0.316 OA 
HETATM   15  H   UNL     1      -9.951   7.416  74.425  1.00  0.00     0.000 HD 
ENDBRANCH  12  13
ENDBRANCH  11  12
ENDBRANCH   9  11
ENDBRANCH   4   7
ENDBRANCH   2   4
BRANCH   2  16
HETATM   16  C   UNL     1      -8.530   9.859  66.975  1.00  0.00    -0.121 C  
HETATM   17  O   UNL     1      -7.604   8.849  67.360  1.00  0.00    -0.088 OA 
HETATM   18  H   UNL     1      -6.820   8.864  66.823  1.00  0.00     0.000 HD 
ENDBRANCH   2  16
TORSDOF 6
ENDMDL
MODEL      225
REMARK 921   NORMALIZED FREE ENERGY PREDICTED BY IDOCK:   -2.61 KCAL/MOL
REMARK 922        TOTAL FREE ENERGY PREDICTED BY IDOCK:   -4.05 KCAL/MOL
REMARK 923 INTER-LIGAND FREE ENERGY PREDICTED BY IDOCK:   -3.64 KCAL/MOL
REMARK 924 INTRA-LIGAND FREE ENERGY PREDICTED BY IDOCK:   -0.41 KCAL/MOL
REMARK 927      BINDING AFFINITY PREDICTED BY RF-SCORE:    0.00 PKD
ROOT
HETATM    1  C   UNL     1      -9.628  15.187  66.369  1.00  0.00    -0.309 C  
HETATM    2  C   UNL     1      -9.942  15.052  67.880  1.00  0.00    -0.222 C  
HETATM    3  C   UNL     1     -11.382  15.567  68.084  1.00  0.00    -0.348 C  
ENDROOT
BRANCH   2   4
HETATM    4  C   UNL     1      -8.917  15.889  68.706  1.00  0.00    -0.216 C  
HETATM    5  O   UNL     1      -8.389  15.158  69.821  1.00  0.00    -0.401 OA 
HETATM    6  H   UNL     1      -7.765  15.666  70.324  1.00  0.00     0.000 HD 
BRANCH   4   7
HETATM    7  C   UNL     1      -7.725  16.432  67.880  1.00  0.00    -0.152 C  
HETATM    8  O   UNL     1      -6.719  15.783  67.603  1.00  0.00    -0.141 OA 
HETATM    9  N   UNL     1      -7.900  17.723  67.423  1.00  0.00    -0.205 N  
HETATM   10  H   UNL     1      -8.762  18.224  67.638  1.00  0.00     0.000 HD 
BRANCH   9  11
HETATM   11  C   UNL     1      -6.869  18.372  66.639  1.00  0.00    -0.198 C  
BRANCH  11  12
HETATM   12  C   UNL     1      -6.093  19.433  67.413  1.00  0.00    -0.199 C  
BRANCH  12  13
HETATM   13  C   UNL     1      -6.897  20.683  67.744  1.00  0.00    -0.323 C  
HETATM   14  O   UNL     1      -7.799  20.960  66.674  1.00  0.00    -0.540 OA 
HETATM   15  H   UNL     1      -8.301  21.739  66.881  1.00  0.00     0.000 HD 
ENDBRANCH  12  13
ENDBRANCH  11  12
ENDBRANCH   9  11
ENDBRANCH   4   7
ENDBRANCH   2   4
BRANCH   2  16
HETATM   16  C   UNL     1      -9.819  13.551  68.253  1.00  0.00    -0.233 C  
HETATM   17  O   UNL     1      -8.646  12.962  67.703  1.00  0.00    -0.159 OA 
HETATM   18  H   UNL     1      -8.570  12.042  67.931  1.00  0.00     0.000 HD 
ENDBRANCH   2  16
TORSDOF 6
ENDMDL
MODEL      226
REMARK 921   NORMALIZED FREE ENERGY PREDICTED BY IDOCK:   -2.60 KCAL/MOL
REMARK 922        TOTAL FREE ENERGY PREDICTED BY IDOCK:   -4.04 KCAL/MOL
REMARK 923 INTER-LIGAND FREE ENERGY PREDICTED BY IDOCK:   -3.74 KCAL/MOL
REMARK 924 INTRA-LIGAND FREE ENERGY PREDICTED BY IDOCK:   -0.30 KCAL/MOL
REMARK 927      BINDING AFFINITY PREDICTED BY RF-SCORE:    0.00 PKD
ROOT
HETATM    1  C   UNL     1     -11.720   9.670  71.042  1.00  0.00    -0.433 C  
HETATM    2  C   UNL     1     -10.794   8.437  71.185  1.00  0.00    -0.286 C  
HETATM    3  C   UNL     1      -9.910   8.683  72.425  1.00  0.00    -0.315 C  
ENDROOT
BRANCH   2   4
HETATM    4  C   UNL     1      -9.931   8.275  69.895  1.00  0.00    -0.190 C  
HETATM    5  O   UNL     1     -10.705   8.431  68.699  1.00  0.00    -0.383 OA 
HETATM    6  H   UNL     1     -10.181   8.332  67.914  1.00  0.00     0.000 HD 
BRANCH   4   7
HETATM    7  C   UNL     1      -8.721   9.237  69.813  1.00  0.00    -0.162 C  
HETATM    8  O   UNL     1      -7.588   8.963  70.204  1.00  0.00    -0.061 OA 
HETATM    9  N   UNL     1      -9.002  10.445  69.206  1.00  0.00    -0.245 N  
HETATM   10  H   UNL     1      -9.943  10.630  68.858  1.00  0.00     0.000 HD 
BRANCH   9  11
HETATM   11  C   UNL     1      -7.972  11.452  69.059  1.00  0.00    -0.024 C  
BRANCH  11  12
HETATM   12  C   UNL     1      -8.399  12.641  68.205  1.00  0.00    -0.175 C  
BRANCH  12  13
HETATM   13  C   UNL     1      -8.994  12.262  66.855  1.00  0.00    -0.207 C  
HETATM   14  O   UNL     1      -7.996  11.620  66.064  1.00  0.00    -0.371 OA 
HETATM   15  H   UNL     1      -8.367  11.383  65.222  1.00  0.00     0.000 HD 
ENDBRANCH  12  13
ENDBRANCH  11  12
ENDBRANCH   9  11
ENDBRANCH   4   7
ENDBRANCH   2   4
BRANCH   2  16
HETATM   16  C   UNL     1     -11.698   7.190  71.373  1.00  0.00    -0.296 C  
HETATM   17  O   UNL     1     -12.706   7.110  70.371  1.00  0.00    -0.591 OA 
HETATM   18  H   UNL     1     -13.260   6.346  70.485  1.00  0.00     0.000 HD 
ENDBRANCH   2  16
TORSDOF 6
ENDMDL
MODEL      227
REMARK 921   NORMALIZED FREE ENERGY PREDICTED BY IDOCK:   -2.60 KCAL/MOL
REMARK 922        TOTAL FREE ENERGY PREDICTED BY IDOCK:   -4.04 KCAL/MOL
REMARK 923 INTER-LIGAND FREE ENERGY PREDICTED BY IDOCK:   -3.95 KCAL/MOL
REMARK 924 INTRA-LIGAND FREE ENERGY PREDICTED BY IDOCK:   -0.09 KCAL/MOL
REMARK 927      BINDING AFFINITY PREDICTED BY RF-SCORE:    0.00 PKD
ROOT
HETATM    1  C   UNL     1      -9.309  10.986  68.930  1.00  0.00    -0.155 C  
HETATM    2  C   UNL     1     -10.755  11.521  68.775  1.00  0.00    -0.247 C  
HETATM    3  C   UNL     1     -11.540  11.053  70.019  1.00  0.00    -0.427 C  
ENDROOT
BRANCH   2   4
HETATM    4  C   UNL     1     -11.384  10.962  67.462  1.00  0.00    -0.232 C  
HETATM    5  O   UNL     1     -11.867  12.004  66.603  1.00  0.00    -0.583 OA 
HETATM    6  H   UNL     1     -12.250  11.664  65.804  1.00  0.00     0.000 HD 
BRANCH   4   7
HETATM    7  C   UNL     1     -10.436  10.059  66.635  1.00  0.00    -0.174 C  
HETATM    8  O   UNL     1     -10.347   8.840  66.769  1.00  0.00    -0.279 OA 
HETATM    9  N   UNL     1      -9.712  10.734  65.673  1.00  0.00    -0.223 N  
HETATM   10  H   UNL     1      -9.835  11.740  65.560  1.00  0.00     0.000 HD 
BRANCH   9  11
HETATM   11  C   UNL     1      -8.778  10.025  64.822  1.00  0.00    -0.187 C  
BRANCH  11  12
HETATM   12  C   UNL     1      -7.336  10.089  65.314  1.00  0.00    -0.137 C  
BRANCH  12  13
HETATM   13  C   UNL     1      -6.297  10.137  64.203  1.00  0.00    -0.126 C  
HETATM   14  O   UNL     1      -5.329  11.139  64.504  1.00  0.00    -0.489 OA 
HETATM   15  H   UNL     1      -4.680  11.169  63.811  1.00  0.00     0.000 HD 
ENDBRANCH  12  13
ENDBRANCH  11  12
ENDBRANCH   9  11
ENDBRANCH   4   7
ENDBRANCH   2   4
BRANCH   2  16
HETATM   16  C   UNL     1     -10.677  13.070  68.704  1.00  0.00    -0.248 C  
HETATM   17  O   UNL     1     -10.971  13.674  69.959  1.00  0.00    -0.442 OA 
HETATM   18  H   UNL     1     -10.924  14.622  69.916  1.00  0.00     0.000 HD 
ENDBRANCH   2  16
TORSDOF 6
ENDMDL
MODEL      228
REMARK 921   NORMALIZED FREE ENERGY PREDICTED BY IDOCK:   -2.60 KCAL/MOL
REMARK 922        TOTAL FREE ENERGY PREDICTED BY IDOCK:   -4.04 KCAL/MOL
REMARK 923 INTER-LIGAND FREE ENERGY PREDICTED BY IDOCK:   -3.11 KCAL/MOL
REMARK 924 INTRA-LIGAND FREE ENERGY PREDICTED BY IDOCK:   -0.92 KCAL/MOL
REMARK 927      BINDING AFFINITY PREDICTED BY RF-SCORE:    0.00 PKD
ROOT
HETATM    1  C   UNL     1      -8.981   6.811  68.466  1.00  0.00    -0.121 C  
HETATM    2  C   UNL     1      -9.550   6.652  67.034  1.00  0.00    -0.183 C  
HETATM    3  C   UNL     1     -10.339   7.941  66.722  1.00  0.00    -0.357 C  
ENDROOT
BRANCH   2   4
HETATM    4  C   UNL     1     -10.469   5.394  66.971  1.00  0.00    -0.257 C  
HETATM    5  O   UNL     1     -11.384   5.441  65.868  1.00  0.00    -0.772 OA 
HETATM    6  H   UNL     1     -11.944   4.675  65.830  1.00  0.00     0.000 HD 
BRANCH   4   7
HETATM    7  C   UNL     1      -9.706   4.048  66.905  1.00  0.00    -0.185 C  
HETATM    8  O   UNL     1      -9.108   3.541  67.852  1.00  0.00    -0.127 OA 
HETATM    9  N   UNL     1      -9.787   3.415  65.681  1.00  0.00    -0.396 N  
HETATM   10  H   UNL     1     -10.322   3.842  64.924  1.00  0.00     0.000 HD 
BRANCH   9  11
HETATM   11  C   UNL     1      -9.120   2.148  65.462  1.00  0.00    -0.091 C  
BRANCH  11  12
HETATM   12  C   UNL     1      -8.016   2.214  64.411  1.00  0.00    -0.074 C  
BRANCH  12  13
HETATM   13  C   UNL     1      -6.616   2.391  64.983  1.00  0.00    -0.031 C  
HETATM   14  O   UNL     1      -6.702   2.575  66.394  1.00  0.00    -0.041 OA 
HETATM   15  H   UNL     1      -5.829   2.685  66.751  1.00  0.00     0.000 HD 
ENDBRANCH  12  13
ENDBRANCH  11  12
ENDBRANCH   9  11
ENDBRANCH   4   7
ENDBRANCH   2   4
BRANCH   2  16
HETATM   16  C   UNL     1      -8.349   6.475  66.068  1.00  0.00    -0.133 C  
HETATM   17  O   UNL     1      -8.772   6.323  64.718  1.00  0.00    -0.346 OA 
HETATM   18  H   UNL     1      -8.036   6.214  64.126  1.00  0.00     0.000 HD 
ENDBRANCH   2  16
TORSDOF 6
ENDMDL
MODEL      229
REMARK 921   NORMALIZED FREE ENERGY PREDICTED BY IDOCK:   -2.60 KCAL/MOL
REMARK 922        TOTAL FREE ENERGY PREDICTED BY IDOCK:   -4.03 KCAL/MOL
REMARK 923 INTER-LIGAND FREE ENERGY PREDICTED BY IDOCK:   -3.74 KCAL/MOL
REMARK 924 INTRA-LIGAND FREE ENERGY PREDICTED BY IDOCK:   -0.30 KCAL/MOL
REMARK 927      BINDING AFFINITY PREDICTED BY RF-SCORE:    0.00 PKD
ROOT
HETATM    1  C   UNL     1     -12.876   7.391  71.551  1.00  0.00    -0.416 C  
HETATM    2  C   UNL     1     -11.518   8.017  71.150  1.00  0.00    -0.302 C  
HETATM    3  C   UNL     1     -10.679   8.128  72.441  1.00  0.00    -0.404 C  
ENDROOT
BRANCH   2   4
HETATM    4  C   UNL     1     -11.754   9.416  70.503  1.00  0.00    -0.198 C  
HETATM    5  O   UNL     1     -11.802  10.467  71.478  1.00  0.00    -0.301 OA 
HETATM    6  H   UNL     1     -11.946  11.318  71.085  1.00  0.00     0.000 HD 
BRANCH   4   7
HETATM    7  C   UNL     1     -10.712   9.806  69.427  1.00  0.00    -0.228 C  
HETATM    8  O   UNL     1     -10.945   9.859  68.221  1.00  0.00    -0.240 OA 
HETATM    9  N   UNL     1      -9.476  10.147  69.938  1.00  0.00    -0.387 N  
HETATM   10  H   UNL     1      -9.323  10.130  70.947  1.00  0.00     0.000 HD 
BRANCH   9  11
HETATM   11  C   UNL     1      -8.394  10.531  69.055  1.00  0.00    -0.154 C  
BRANCH  11  12
HETATM   12  C   UNL     1      -7.114  10.916  69.790  1.00  0.00    -0.092 C  
BRANCH  12  13
HETATM   13  C   UNL     1      -6.300   9.733  70.294  1.00  0.00    -0.085 C  
HETATM   14  O   UNL     1      -7.171   8.632  70.543  1.00  0.00    -0.044 OA 
HETATM   15  H   UNL     1      -6.663   7.893  70.857  1.00  0.00     0.000 HD 
ENDBRANCH  12  13
ENDBRANCH  11  12
ENDBRANCH   9  11
ENDBRANCH   4   7
ENDBRANCH   2   4
BRANCH   2  16
HETATM   16  C   UNL     1     -10.849   7.068  70.121  1.00  0.00    -0.256 C  
HETATM   17  O   UNL     1     -11.765   6.641  69.119  1.00  0.00    -0.629 OA 
HETATM   18  H   UNL     1     -11.356   6.060  68.488  1.00  0.00     0.000 HD 
ENDBRANCH   2  16
TORSDOF 6
ENDMDL
MODEL      230
REMARK 921   NORMALIZED FREE ENERGY PREDICTED BY IDOCK:   -2.59 KCAL/MOL
REMARK 922        TOTAL FREE ENERGY PREDICTED BY IDOCK:   -4.02 KCAL/MOL
REMARK 923 INTER-LIGAND FREE ENERGY PREDICTED BY IDOCK:   -3.77 KCAL/MOL
REMARK 924 INTRA-LIGAND FREE ENERGY PREDICTED BY IDOCK:   -0.25 KCAL/MOL
REMARK 927      BINDING AFFINITY PREDICTED BY RF-SCORE:    0.00 PKD
ROOT
HETATM    1  C   UNL     1      -9.924   8.790  71.778  1.00  0.00    -0.396 C  
HETATM    2  C   UNL     1     -10.388   9.354  70.412  1.00  0.00    -0.318 C  
HETATM    3  C   UNL     1     -10.731   8.142  69.521  1.00  0.00    -0.180 C  
ENDROOT
BRANCH   2   4
HETATM    4  C   UNL     1      -9.249  10.215  69.785  1.00  0.00    -0.144 C  
HETATM    5  O   UNL     1      -8.171   9.413  69.284  1.00  0.00    -0.101 OA 
HETATM    6  H   UNL     1      -7.478   9.937  68.902  1.00  0.00     0.000 HD 
BRANCH   4   7
HETATM    7  C   UNL     1      -9.714  11.159  68.649  1.00  0.00    -0.198 C  
HETATM    8  O   UNL     1     -10.221  12.264  68.829  1.00  0.00    -0.195 OA 
HETATM    9  N   UNL     1      -9.466  10.677  67.380  1.00  0.00    -0.153 N  
HETATM   10  H   UNL     1      -9.010   9.772  67.262  1.00  0.00     0.000 HD 
BRANCH   9  11
HETATM   11  C   UNL     1      -9.848  11.444  66.213  1.00  0.00    -0.218 C  
BRANCH  11  12
HETATM   12  C   UNL     1     -10.189  10.583  65.001  1.00  0.00    -0.365 C  
BRANCH  12  13
HETATM   13  C   UNL     1      -9.095   9.602  64.602  1.00  0.00    -0.235 C  
HETATM   14  O   UNL     1      -9.262   8.387  65.331  1.00  0.00    -0.406 OA 
HETATM   15  H   UNL     1      -8.580   7.775  65.082  1.00  0.00     0.000 HD 
ENDBRANCH  12  13
ENDBRANCH  11  12
ENDBRANCH   9  11
ENDBRANCH   4   7
ENDBRANCH   2   4
BRANCH   2  16
HETATM   16  C   UNL     1     -11.636  10.240  70.669  1.00  0.00    -0.347 C  
HETATM   17  O   UNL     1     -12.847   9.507  70.516  1.00  0.00    -0.515 OA 
HETATM   18  H   UNL     1     -13.612  10.049  70.673  1.00  0.00     0.000 HD 
ENDBRANCH   2  16
TORSDOF 6
ENDMDL
MODEL      231
REMARK 921   NORMALIZED FREE ENERGY PREDICTED BY IDOCK:   -2.59 KCAL/MOL
REMARK 922        TOTAL FREE ENERGY PREDICTED BY IDOCK:   -4.02 KCAL/MOL
REMARK 923 INTER-LIGAND FREE ENERGY PREDICTED BY IDOCK:   -3.72 KCAL/MOL
REMARK 924 INTRA-LIGAND FREE ENERGY PREDICTED BY IDOCK:   -0.30 KCAL/MOL
REMARK 927      BINDING AFFINITY PREDICTED BY RF-SCORE:    0.00 PKD
ROOT
HETATM    1  C   UNL     1      -8.417   6.556  68.491  1.00  0.00    -0.124 C  
HETATM    2  C   UNL     1      -9.598   5.781  69.127  1.00  0.00    -0.171 C  
HETATM    3  C   UNL     1      -9.437   4.303  68.714  1.00  0.00    -0.230 C  
ENDROOT
BRANCH   2   4
HETATM    4  C   UNL     1     -10.949   6.370  68.617  1.00  0.00    -0.330 C  
HETATM    5  O   UNL     1     -11.883   6.594  69.681  1.00  0.00    -0.649 OA 
HETATM    6  H   UNL     1     -12.705   6.952  69.370  1.00  0.00     0.000 HD 
BRANCH   4   7
HETATM    7  C   UNL     1     -10.808   7.688  67.817  1.00  0.00    -0.063 C  
HETATM    8  O   UNL     1     -10.649   7.748  66.599  1.00  0.00    -0.276 OA 
HETATM    9  N   UNL     1     -10.925   8.829  68.586  1.00  0.00    -0.444 N  
HETATM   10  H   UNL     1     -11.094   8.748  69.588  1.00  0.00     0.000 HD 
BRANCH   9  11
HETATM   11  C   UNL     1     -10.811  10.140  67.981  1.00  0.00    -0.270 C  
BRANCH  11  12
HETATM   12  C   UNL     1      -9.448  10.791  68.190  1.00  0.00    -0.161 C  
BRANCH  12  13
HETATM   13  C   UNL     1      -9.461  12.312  68.109  1.00  0.00    -0.213 C  
HETATM   14  O   UNL     1     -10.418  12.826  69.032  1.00  0.00    -0.414 OA 
HETATM   15  H   UNL     1     -10.425  13.775  68.982  1.00  0.00     0.000 HD 
ENDBRANCH  12  13
ENDBRANCH  11  12
ENDBRANCH   9  11
ENDBRANCH   4   7
ENDBRANCH   2   4
BRANCH   2  16
HETATM   16  C   UNL     1      -9.497   5.953  70.667  1.00  0.00    -0.171 C  
HETATM   17  O   UNL     1     -10.214   4.939  71.362  1.00  0.00    -0.201 OA 
HETATM   18  H   UNL     1     -10.153   5.044  72.304  1.00  0.00     0.000 HD 
ENDBRANCH   2  16
TORSDOF 6
ENDMDL
MODEL      232
REMARK 921   NORMALIZED FREE ENERGY PREDICTED BY IDOCK:   -2.59 KCAL/MOL
REMARK 922        TOTAL FREE ENERGY PREDICTED BY IDOCK:   -4.02 KCAL/MOL
REMARK 923 INTER-LIGAND FREE ENERGY PREDICTED BY IDOCK:   -3.78 KCAL/MOL
REMARK 924 INTRA-LIGAND FREE ENERGY PREDICTED BY IDOCK:   -0.24 KCAL/MOL
REMARK 927      BINDING AFFINITY PREDICTED BY RF-SCORE:    0.00 PKD
ROOT
HETATM    1  C   UNL     1     -12.381  12.231  64.270  1.00  0.00    -0.519 C  
HETATM    2  C   UNL     1     -11.423  13.347  64.755  1.00  0.00    -0.359 C  
HETATM    3  C   UNL     1     -10.104  13.175  63.973  1.00  0.00     0.105 C  
ENDROOT
BRANCH   2   4
HETATM    4  C   UNL     1     -11.194  13.212  66.292  1.00  0.00    -0.301 C  
HETATM    5  O   UNL     1     -12.341  12.682  66.970  1.00  0.00    -0.399 OA 
HETATM    6  H   UNL     1     -12.201  12.599  67.905  1.00  0.00     0.000 HD 
BRANCH   4   7
HETATM    7  C   UNL     1      -9.966  12.353  66.681  1.00  0.00    -0.225 C  
HETATM    8  O   UNL     1      -9.714  11.247  66.208  1.00  0.00    -0.204 OA 
HETATM    9  N   UNL     1      -9.121  12.958  67.590  1.00  0.00    -0.184 N  
HETATM   10  H   UNL     1      -9.336  13.893  67.937  1.00  0.00     0.000 HD 
BRANCH   9  11
HETATM   11  C   UNL     1      -7.930  12.277  68.055  1.00  0.00    -0.150 C  
BRANCH  11  12
HETATM   12  C   UNL     1      -6.684  12.599  67.236  1.00  0.00    -0.105 C  
BRANCH  12  13
HETATM   13  C   UNL     1      -6.186  11.448  66.373  1.00  0.00    -0.066 C  
HETATM   14  O   UNL     1      -6.845  10.246  66.763  1.00  0.00    -0.082 OA 
HETATM   15  H   UNL     1      -6.534   9.528  66.224  1.00  0.00     0.000 HD 
ENDBRANCH  12  13
ENDBRANCH  11  12
ENDBRANCH   9  11
ENDBRANCH   4   7
ENDBRANCH   2   4
BRANCH   2  16
HETATM   16  C   UNL     1     -12.094  14.711  64.441  1.00  0.00    -0.462 C  
HETATM   17  O   UNL     1     -11.133  15.719  64.143  1.00  0.00    -0.827 OA 
HETATM   18  H   UNL     1     -11.544  16.554  63.951  1.00  0.00     0.000 HD 
ENDBRANCH   2  16
TORSDOF 6
ENDMDL
MODEL      233
REMARK 921   NORMALIZED FREE ENERGY PREDICTED BY IDOCK:   -2.58 KCAL/MOL
REMARK 922        TOTAL FREE ENERGY PREDICTED BY IDOCK:   -4.01 KCAL/MOL
REMARK 923 INTER-LIGAND FREE ENERGY PREDICTED BY IDOCK:   -3.38 KCAL/MOL
REMARK 924 INTRA-LIGAND FREE ENERGY PREDICTED BY IDOCK:   -0.64 KCAL/MOL
REMARK 927      BINDING AFFINITY PREDICTED BY RF-SCORE:    0.00 PKD
ROOT
HETATM    1  C   UNL     1      -7.937  10.831  68.766  1.00  0.00    -0.136 C  
HETATM    2  C   UNL     1      -7.035  11.910  68.117  1.00  0.00    -0.078 C  
HETATM    3  C   UNL     1      -5.921  12.232  69.135  1.00  0.00    -0.080 C  
ENDROOT
BRANCH   2   4
HETATM    4  C   UNL     1      -7.884  13.174  67.784  1.00  0.00    -0.152 C  
HETATM    5  O   UNL     1      -7.172  14.110  66.964  1.00  0.00    -0.353 OA 
HETATM    6  H   UNL     1      -7.688  14.880  66.761  1.00  0.00     0.000 HD 
BRANCH   4   7
HETATM    7  C   UNL     1      -9.239  12.871  67.099  1.00  0.00    -0.225 C  
HETATM    8  O   UNL     1     -10.330  12.919  67.665  1.00  0.00    -0.214 OA 
HETATM    9  N   UNL     1      -9.137  12.579  65.754  1.00  0.00    -0.428 N  
HETATM   10  H   UNL     1      -8.222  12.582  65.303  1.00  0.00     0.000 HD 
BRANCH   9  11
HETATM   11  C   UNL     1     -10.319  12.268  64.976  1.00  0.00    -0.291 C  
BRANCH  11  12
HETATM   12  C   UNL     1     -10.347  10.834  64.456  1.00  0.00    -0.401 C  
BRANCH  12  13
HETATM   13  C   UNL     1     -10.008   9.782  65.503  1.00  0.00    -0.259 C  
HETATM   14  O   UNL     1     -10.757  10.036  66.689  1.00  0.00    -0.157 OA 
HETATM   15  H   UNL     1     -10.546   9.379  67.342  1.00  0.00     0.000 HD 
ENDBRANCH  12  13
ENDBRANCH  11  12
ENDBRANCH   9  11
ENDBRANCH   4   7
ENDBRANCH   2   4
BRANCH   2  16
HETATM   16  C   UNL     1      -6.451  11.309  66.810  1.00  0.00    -0.136 C  
HETATM   17  O   UNL     1      -5.373  12.089  66.303  1.00  0.00    -0.465 OA 
HETATM   18  H   UNL     1      -5.015  11.721  65.503  1.00  0.00     0.000 HD 
ENDBRANCH   2  16
TORSDOF 6
ENDMDL
MODEL      234
REMARK 921   NORMALIZED FREE ENERGY PREDICTED BY IDOCK:   -2.57 KCAL/MOL
REMARK 922        TOTAL FREE ENERGY PREDICTED BY IDOCK:   -4.00 KCAL/MOL
REMARK 923 INTER-LIGAND FREE ENERGY PREDICTED BY IDOCK:   -3.82 KCAL/MOL
REMARK 924 INTRA-LIGAND FREE ENERGY PREDICTED BY IDOCK:   -0.18 KCAL/MOL
REMARK 927      BINDING AFFINITY PREDICTED BY RF-SCORE:    0.00 PKD
ROOT
HETATM    1  C   UNL     1      -8.714  10.968  66.449  1.00  0.00    -0.174 C  
HETATM    2  C   UNL     1      -9.717   9.977  65.808  1.00  0.00    -0.321 C  
HETATM    3  C   UNL     1     -10.218  10.629  64.502  1.00  0.00    -0.399 C  
ENDROOT
BRANCH   2   4
HETATM    4  C   UNL     1     -10.894   9.708  66.796  1.00  0.00     0.019 C  
HETATM    5  O   UNL     1     -10.562   8.723  67.784  1.00  0.00    -0.333 OA 
HETATM    6  H   UNL     1     -11.278   8.559  68.385  1.00  0.00     0.000 HD 
BRANCH   4   7
HETATM    7  C   UNL     1     -11.411  10.969  67.531  1.00  0.00    -0.257 C  
HETATM    8  O   UNL     1     -12.088  11.850  67.005  1.00  0.00    -0.600 OA 
HETATM    9  N   UNL     1     -11.088  11.011  68.873  1.00  0.00    -0.218 N  
HETATM   10  H   UNL     1     -10.556  10.247  69.289  1.00  0.00     0.000 HD 
BRANCH   9  11
HETATM   11  C   UNL     1     -11.498  12.131  69.694  1.00  0.00    -0.238 C  
BRANCH  11  12
HETATM   12  C   UNL     1     -12.422  11.739  70.842  1.00  0.00    -0.416 C  
BRANCH  12  13
HETATM   13  C   UNL     1     -12.971  12.918  71.635  1.00  0.00    -0.313 C  
HETATM   14  O   UNL     1     -12.801  14.115  70.880  1.00  0.00    -0.329 OA 
HETATM   15  H   UNL     1     -13.143  14.850  71.375  1.00  0.00     0.000 HD 
ENDBRANCH  12  13
ENDBRANCH  11  12
ENDBRANCH   9  11
ENDBRANCH   4   7
ENDBRANCH   2   4
BRANCH   2  16
HETATM   16  C   UNL     1      -8.955   8.655  65.525  1.00  0.00    -0.158 C  
HETATM   17  O   UNL     1      -7.589   8.735  65.917  1.00  0.00    -0.087 OA 
HETATM   18  H   UNL     1      -7.122   7.926  65.743  1.00  0.00     0.000 HD 
ENDBRANCH   2  16
TORSDOF 6
ENDMDL
MODEL      235
REMARK 921   NORMALIZED FREE ENERGY PREDICTED BY IDOCK:   -2.57 KCAL/MOL
REMARK 922        TOTAL FREE ENERGY PREDICTED BY IDOCK:   -3.99 KCAL/MOL
REMARK 923 INTER-LIGAND FREE ENERGY PREDICTED BY IDOCK:   -4.00 KCAL/MOL
REMARK 924 INTRA-LIGAND FREE ENERGY PREDICTED BY IDOCK:    0.01 KCAL/MOL
REMARK 927      BINDING AFFINITY PREDICTED BY RF-SCORE:    0.00 PKD
ROOT
HETATM    1  C   UNL     1      -8.649   9.016  70.149  1.00  0.00    -0.169 C  
HETATM    2  C   UNL     1     -10.196   9.026  70.094  1.00  0.00    -0.224 C  
HETATM    3  C   UNL     1     -10.629   7.708  69.420  1.00  0.00    -0.217 C  
ENDROOT
BRANCH   2   4
HETATM    4  C   UNL     1     -10.684  10.266  69.283  1.00  0.00    -0.234 C  
HETATM    5  O   UNL     1     -11.136  11.330  70.132  1.00  0.00    -0.475 OA 
HETATM    6  H   UNL     1     -11.433  12.084  69.639  1.00  0.00     0.000 HD 
BRANCH   4   7
HETATM    7  C   UNL     1      -9.631  10.845  68.307  1.00  0.00    -0.167 C  
HETATM    8  O   UNL     1      -8.766  11.659  68.622  1.00  0.00    -0.153 OA 
HETATM    9  N   UNL     1      -9.705  10.328  67.029  1.00  0.00    -0.170 N  
HETATM   10  H   UNL     1     -10.410   9.626  66.806  1.00  0.00     0.000 HD 
BRANCH   9  11
HETATM   11  C   UNL     1      -8.788  10.775  66.000  1.00  0.00    -0.180 C  
BRANCH  11  12
HETATM   12  C   UNL     1      -9.402  10.796  64.604  1.00  0.00    -0.271 C  
BRANCH  12  13
HETATM   13  C   UNL     1     -10.737  11.522  64.518  1.00  0.00    -0.329 C  
HETATM   14  O   UNL     1     -11.249  11.413  63.191  1.00  0.00    -0.808 OA 
HETATM   15  H   UNL     1     -12.083  11.866  63.138  1.00  0.00     0.000 HD 
ENDBRANCH  12  13
ENDBRANCH  11  12
ENDBRANCH   9  11
ENDBRANCH   4   7
ENDBRANCH   2   4
BRANCH   2  16
HETATM   16  C   UNL     1     -10.718   9.114  71.553  1.00  0.00    -0.367 C  
HETATM   17  O   UNL     1     -10.091   8.156  72.399  1.00  0.00    -0.232 OA 
HETATM   18  H   UNL     1     -10.411   8.209  73.293  1.00  0.00     0.000 HD 
ENDBRANCH   2  16
TORSDOF 6
ENDMDL
MODEL      236
REMARK 921   NORMALIZED FREE ENERGY PREDICTED BY IDOCK:   -2.56 KCAL/MOL
REMARK 922        TOTAL FREE ENERGY PREDICTED BY IDOCK:   -3.98 KCAL/MOL
REMARK 923 INTER-LIGAND FREE ENERGY PREDICTED BY IDOCK:   -3.45 KCAL/MOL
REMARK 924 INTRA-LIGAND FREE ENERGY PREDICTED BY IDOCK:   -0.53 KCAL/MOL
REMARK 927      BINDING AFFINITY PREDICTED BY RF-SCORE:    0.00 PKD
ROOT
HETATM    1  C   UNL     1     -11.720   9.399  70.968  1.00  0.00    -0.395 C  
HETATM    2  C   UNL     1     -10.918   8.086  71.150  1.00  0.00    -0.271 C  
HETATM    3  C   UNL     1     -10.691   7.908  72.666  1.00  0.00    -0.411 C  
ENDROOT
BRANCH   2   4
HETATM    4  C   UNL     1      -9.565   8.187  70.381  1.00  0.00    -0.170 C  
HETATM    5  O   UNL     1      -8.551   7.347  70.948  1.00  0.00    -0.132 OA 
HETATM    6  H   UNL     1      -7.727   7.408  70.480  1.00  0.00     0.000 HD 
BRANCH   4   7
HETATM    7  C   UNL     1      -9.665   7.866  68.869  1.00  0.00    -0.158 C  
HETATM    8  O   UNL     1      -9.505   6.748  68.385  1.00  0.00    -0.128 OA 
HETATM    9  N   UNL     1     -10.005   8.950  68.085  1.00  0.00    -0.169 N  
HETATM   10  H   UNL     1     -10.167   9.859  68.520  1.00  0.00     0.000 HD 
BRANCH   9  11
HETATM   11  C   UNL     1     -10.132   8.809  66.649  1.00  0.00    -0.288 C  
BRANCH  11  12
HETATM   12  C   UNL     1      -9.650  10.030  65.871  1.00  0.00    -0.283 C  
BRANCH  12  13
HETATM   13  C   UNL     1      -9.661  11.326  66.670  1.00  0.00    -0.196 C  
HETATM   14  O   UNL     1     -11.008  11.683  66.972  1.00  0.00    -0.257 OA 
HETATM   15  H   UNL     1     -11.015  12.491  67.470  1.00  0.00     0.000 HD 
ENDBRANCH  12  13
ENDBRANCH  11  12
ENDBRANCH   9  11
ENDBRANCH   4   7
ENDBRANCH   2   4
BRANCH   2  16
HETATM   16  C   UNL     1     -11.771   6.929  70.565  1.00  0.00    -0.350 C  
HETATM   17  O   UNL     1     -11.140   5.665  70.737  1.00  0.00    -0.241 OA 
HETATM   18  H   UNL     1     -11.662   4.956  70.378  1.00  0.00     0.000 HD 
ENDBRANCH   2  16
TORSDOF 6
ENDMDL
MODEL      237
REMARK 921   NORMALIZED FREE ENERGY PREDICTED BY IDOCK:   -2.56 KCAL/MOL
REMARK 922        TOTAL FREE ENERGY PREDICTED BY IDOCK:   -3.98 KCAL/MOL
REMARK 923 INTER-LIGAND FREE ENERGY PREDICTED BY IDOCK:   -3.49 KCAL/MOL
REMARK 924 INTRA-LIGAND FREE ENERGY PREDICTED BY IDOCK:   -0.49 KCAL/MOL
REMARK 927      BINDING AFFINITY PREDICTED BY RF-SCORE:    0.00 PKD
ROOT
HETATM    1  C   UNL     1     -12.672  13.613  66.202  1.00  0.00    -0.295 C  
HETATM    2  C   UNL     1     -11.418  13.554  67.109  1.00  0.00    -0.368 C  
HETATM    3  C   UNL     1     -10.298  14.317  66.373  1.00  0.00    -0.287 C  
ENDROOT
BRANCH   2   4
HETATM    4  C   UNL     1     -11.022  12.066  67.360  1.00  0.00    -0.261 C  
HETATM    5  O   UNL     1     -11.582  11.180  66.382  1.00  0.00    -0.227 OA 
HETATM    6  H   UNL     1     -11.341  10.274  66.535  1.00  0.00     0.000 HD 
BRANCH   4   7
HETATM    7  C   UNL     1      -9.496  11.814  67.420  1.00  0.00    -0.173 C  
HETATM    8  O   UNL     1      -8.773  12.147  68.356  1.00  0.00    -0.176 OA 
HETATM    9  N   UNL     1      -8.997  11.122  66.333  1.00  0.00    -0.177 N  
HETATM   10  H   UNL     1      -9.628  10.826  65.589  1.00  0.00     0.000 HD 
BRANCH   9  11
HETATM   11  C   UNL     1      -7.585  10.814  66.242  1.00  0.00    -0.142 C  
BRANCH  11  12
HETATM   12  C   UNL     1      -7.299   9.342  65.962  1.00  0.00    -0.092 C  
BRANCH  12  13
HETATM   13  C   UNL     1      -8.164   8.733  64.867  1.00  0.00    -0.159 C  
HETATM   14  O   UNL     1      -9.224   7.987  65.462  1.00  0.00    -0.402 OA 
HETATM   15  H   UNL     1      -9.763   7.608  64.778  1.00  0.00     0.000 HD 
ENDBRANCH  12  13
ENDBRANCH  11  12
ENDBRANCH   9  11
ENDBRANCH   4   7
ENDBRANCH   2   4
BRANCH   2  16
HETATM   16  C   UNL     1     -11.779  14.237  68.455  1.00  0.00    -0.338 C  
HETATM   17  O   UNL     1     -11.283  13.506  69.571  1.00  0.00    -0.393 OA 
HETATM   18  H   UNL     1     -11.504  13.924  70.395  1.00  0.00     0.000 HD 
ENDBRANCH   2  16
TORSDOF 6
ENDMDL
MODEL      238
REMARK 921   NORMALIZED FREE ENERGY PREDICTED BY IDOCK:   -2.54 KCAL/MOL
REMARK 922        TOTAL FREE ENERGY PREDICTED BY IDOCK:   -3.96 KCAL/MOL
REMARK 923 INTER-LIGAND FREE ENERGY PREDICTED BY IDOCK:   -3.53 KCAL/MOL
REMARK 924 INTRA-LIGAND FREE ENERGY PREDICTED BY IDOCK:   -0.43 KCAL/MOL
REMARK 927      BINDING AFFINITY PREDICTED BY RF-SCORE:    0.00 PKD
ROOT
HETATM    1  C   UNL     1      -9.971  10.527  64.577  1.00  0.00    -0.413 C  
HETATM    2  C   UNL     1      -9.342   9.837  65.813  1.00  0.00    -0.278 C  
HETATM    3  C   UNL     1     -10.505   9.461  66.754  1.00  0.00    -0.265 C  
ENDROOT
BRANCH   2   4
HETATM    4  C   UNL     1      -8.342  10.812  66.506  1.00  0.00    -0.146 C  
HETATM    5  O   UNL     1      -7.210  11.111  65.679  1.00  0.00    -0.367 OA 
HETATM    6  H   UNL     1      -6.601  11.704  66.100  1.00  0.00     0.000 HD 
BRANCH   4   7
HETATM    7  C   UNL     1      -8.970  12.151  66.963  1.00  0.00    -0.201 C  
HETATM    8  O   UNL     1      -8.825  13.222  66.377  1.00  0.00    -0.058 OA 
HETATM    9  N   UNL     1      -9.769  12.045  68.084  1.00  0.00    -0.194 N  
HETATM   10  H   UNL     1      -9.900  11.136  68.527  1.00  0.00     0.000 HD 
BRANCH   9  11
HETATM   11  C   UNL     1     -10.423  13.214  68.636  1.00  0.00    -0.227 C  
BRANCH  11  12
HETATM   12  C   UNL     1     -11.911  13.290  68.310  1.00  0.00    -0.389 C  
BRANCH  12  13
HETATM   13  C   UNL     1     -12.218  13.712  66.880  1.00  0.00    -0.352 C  
HETATM   14  O   UNL     1     -11.280  14.703  66.467  1.00  0.00    -0.334 OA 
HETATM   15  H   UNL     1     -11.472  14.966  65.575  1.00  0.00     0.000 HD 
ENDBRANCH  12  13
ENDBRANCH  11  12
ENDBRANCH   9  11
ENDBRANCH   4   7
ENDBRANCH   2   4
BRANCH   2  16
HETATM   16  C   UNL     1      -8.588   8.576  65.313  1.00  0.00    -0.165 C  
HETATM   17  O   UNL     1      -7.987   8.786  64.040  1.00  0.00    -0.139 OA 
HETATM   18  H   UNL     1      -7.525   8.014  63.734  1.00  0.00     0.000 HD 
ENDBRANCH   2  16
TORSDOF 6
ENDMDL
MODEL      239
REMARK 921   NORMALIZED FREE ENERGY PREDICTED BY IDOCK:   -2.54 KCAL/MOL
REMARK 922        TOTAL FREE ENERGY PREDICTED BY IDOCK:   -3.95 KCAL/MOL
REMARK 923 INTER-LIGAND FREE ENERGY PREDICTED BY IDOCK:   -3.72 KCAL/MOL
REMARK 924 INTRA-LIGAND FREE ENERGY PREDICTED BY IDOCK:   -0.23 KCAL/MOL
REMARK 927      BINDING AFFINITY PREDICTED BY RF-SCORE:    0.00 PKD
ROOT
HETATM    1  C   UNL     1     -10.401   4.500  73.461  1.00  0.00    -0.244 C  
HETATM    2  C   UNL     1     -10.111   5.686  72.509  1.00  0.00    -0.208 C  
HETATM    3  C   UNL     1      -9.203   6.667  73.280  1.00  0.00    -0.145 C  
ENDROOT
BRANCH   2   4
HETATM    4  C   UNL     1     -11.453   6.364  72.090  1.00  0.00    -0.301 C  
HETATM    5  O   UNL     1     -11.892   7.339  73.045  1.00  0.00    -0.548 OA 
HETATM    6  H   UNL     1     -12.708   7.752  72.791  1.00  0.00     0.000 HD 
BRANCH   4   7
HETATM    7  C   UNL     1     -11.420   7.036  70.696  1.00  0.00    -0.324 C  
HETATM    8  O   UNL     1     -11.775   6.491  69.654  1.00  0.00    -0.357 OA 
HETATM    9  N   UNL     1     -10.996   8.350  70.715  1.00  0.00    -0.242 N  
HETATM   10  H   UNL     1     -10.743   8.788  71.601  1.00  0.00     0.000 HD 
BRANCH   9  11
HETATM   11  C   UNL     1     -10.907   9.113  69.487  1.00  0.00    -0.180 C  
BRANCH  11  12
HETATM   12  C   UNL     1      -9.560   9.801  69.293  1.00  0.00    -0.204 C  
BRANCH  12  13
HETATM   13  C   UNL     1      -8.449   9.268  70.187  1.00  0.00    -0.191 C  
HETATM   14  O   UNL     1      -7.584  10.340  70.555  1.00  0.00    -0.442 OA 
HETATM   15  H   UNL     1      -6.891  10.007  71.113  1.00  0.00     0.000 HD 
ENDBRANCH  12  13
ENDBRANCH  11  12
ENDBRANCH   9  11
ENDBRANCH   4   7
ENDBRANCH   2   4
BRANCH   2  16
HETATM   16  C   UNL     1      -9.396   5.118  71.254  1.00  0.00    -0.148 C  
HETATM   17  O   UNL     1      -9.813   3.789  70.962  1.00  0.00    -0.183 OA 
HETATM   18  H   UNL     1      -9.375   3.441  70.194  1.00  0.00     0.000 HD 
ENDBRANCH   2  16
TORSDOF 6
ENDMDL
MODEL      240
REMARK 921   NORMALIZED FREE ENERGY PREDICTED BY IDOCK:   -2.53 KCAL/MOL
REMARK 922        TOTAL FREE ENERGY PREDICTED BY IDOCK:   -3.95 KCAL/MOL
REMARK 923 INTER-LIGAND FREE ENERGY PREDICTED BY IDOCK:   -3.09 KCAL/MOL
REMARK 924 INTRA-LIGAND FREE ENERGY PREDICTED BY IDOCK:   -0.85 KCAL/MOL
REMARK 927      BINDING AFFINITY PREDICTED BY RF-SCORE:    0.00 PKD
ROOT
HETATM    1  C   UNL     1      -9.052   6.289  71.651  1.00  0.00    -0.145 C  
HETATM    2  C   UNL     1      -9.397   7.711  72.161  1.00  0.00    -0.188 C  
HETATM    3  C   UNL     1      -9.407   7.642  73.702  1.00  0.00    -0.344 C  
ENDROOT
BRANCH   2   4
HETATM    4  C   UNL     1     -10.786   8.147  71.602  1.00  0.00    -0.249 C  
HETATM    5  O   UNL     1     -10.832   9.544  71.284  1.00  0.00    -0.332 OA 
HETATM    6  H   UNL     1     -11.678   9.810  70.944  1.00  0.00     0.000 HD 
BRANCH   4   7
HETATM    7  C   UNL     1     -11.250   7.355  70.355  1.00  0.00    -0.262 C  
HETATM    8  O   UNL     1     -11.987   6.372  70.391  1.00  0.00    -0.349 OA 
HETATM    9  N   UNL     1     -10.800   7.876  69.158  1.00  0.00    -0.414 N  
HETATM   10  H   UNL     1     -10.220   8.715  69.157  1.00  0.00     0.000 HD 
BRANCH   9  11
HETATM   11  C   UNL     1     -11.147   7.242  67.903  1.00  0.00     0.069 C  
BRANCH  11  12
HETATM   12  C   UNL     1     -10.346   7.765  66.715  1.00  0.00    -0.348 C  
BRANCH  12  13
HETATM   13  C   UNL     1      -9.024   7.047  66.485  1.00  0.00    -0.147 C  
HETATM   14  O   UNL     1      -8.470   6.664  67.742  1.00  0.00    -0.121 OA 
HETATM   15  H   UNL     1      -7.645   6.216  67.598  1.00  0.00     0.000 HD 
ENDBRANCH  12  13
ENDBRANCH  11  12
ENDBRANCH   9  11
ENDBRANCH   4   7
ENDBRANCH   2   4
BRANCH   2  16
HETATM   16  C   UNL     1      -8.296   8.675  71.644  1.00  0.00    -0.157 C  
HETATM   17  O   UNL     1      -8.237   8.699  70.222  1.00  0.00    -0.105 OA 
HETATM   18  H   UNL     1      -7.563   9.290  69.905  1.00  0.00     0.000 HD 
ENDBRANCH   2  16
TORSDOF 6
ENDMDL
MODEL      241
REMARK 921   NORMALIZED FREE ENERGY PREDICTED BY IDOCK:   -2.53 KCAL/MOL
REMARK 922        TOTAL FREE ENERGY PREDICTED BY IDOCK:   -3.94 KCAL/MOL
REMARK 923 INTER-LIGAND FREE ENERGY PREDICTED BY IDOCK:   -3.21 KCAL/MOL
REMARK 924 INTRA-LIGAND FREE ENERGY PREDICTED BY IDOCK:   -0.73 KCAL/MOL
REMARK 927      BINDING AFFINITY PREDICTED BY RF-SCORE:    0.00 PKD
ROOT
HETATM    1  C   UNL     1      -9.267  15.407  65.955  1.00  0.00    -0.333 C  
HETATM    2  C   UNL     1     -10.164  14.464  66.796  1.00  0.00    -0.270 C  
HETATM    3  C   UNL     1     -11.534  15.159  66.937  1.00  0.00    -0.215 C  
ENDROOT
BRANCH   2   4
HETATM    4  C   UNL     1      -9.506  14.217  68.188  1.00  0.00    -0.213 C  
HETATM    5  O   UNL     1      -9.718  12.881  68.662  1.00  0.00    -0.372 OA 
HETATM    6  H   UNL     1      -9.318  12.730  69.509  1.00  0.00     0.000 HD 
BRANCH   4   7
HETATM    7  C   UNL     1      -7.986  14.507  68.236  1.00  0.00    -0.137 C  
HETATM    8  O   UNL     1      -7.132  13.841  67.654  1.00  0.00    -0.154 OA 
HETATM    9  N   UNL     1      -7.650  15.633  68.962  1.00  0.00    -0.170 N  
HETATM   10  H   UNL     1      -8.384  16.187  69.403  1.00  0.00     0.000 HD 
BRANCH   9  11
HETATM   11  C   UNL     1      -6.265  16.032  69.103  1.00  0.00    -0.145 C  
BRANCH  11  12
HETATM   12  C   UNL     1      -6.065  17.544  69.106  1.00  0.00    -0.218 C  
BRANCH  12  13
HETATM   13  C   UNL     1      -6.477  18.234  67.813  1.00  0.00    -0.193 C  
HETATM   14  O   UNL     1      -6.435  17.294  66.742  1.00  0.00    -0.168 OA 
HETATM   15  H   UNL     1      -6.693  17.724  65.935  1.00  0.00     0.000 HD 
ENDBRANCH  12  13
ENDBRANCH  11  12
ENDBRANCH   9  11
ENDBRANCH   4   7
ENDBRANCH   2   4
BRANCH   2  16
HETATM   16  C   UNL     1     -10.286  13.122  66.026  1.00  0.00    -0.287 C  
HETATM   17  O   UNL     1      -9.015  12.622  65.626  1.00  0.00    -0.338 OA 
HETATM   18  H   UNL     1      -9.090  11.800  65.154  1.00  0.00     0.000 HD 
ENDBRANCH   2  16
TORSDOF 6
ENDMDL
MODEL      242
REMARK 921   NORMALIZED FREE ENERGY PREDICTED BY IDOCK:   -2.53 KCAL/MOL
REMARK 922        TOTAL FREE ENERGY PREDICTED BY IDOCK:   -3.94 KCAL/MOL
REMARK 923 INTER-LIGAND FREE ENERGY PREDICTED BY IDOCK:   -3.45 KCAL/MOL
REMARK 924 INTRA-LIGAND FREE ENERGY PREDICTED BY IDOCK:   -0.49 KCAL/MOL
REMARK 927      BINDING AFFINITY PREDICTED BY RF-SCORE:    0.00 PKD
ROOT
HETATM    1  C   UNL     1      -9.978   8.282  72.253  1.00  0.00    -0.366 C  
HETATM    2  C   UNL     1     -11.219   8.361  71.329  1.00  0.00    -0.309 C  
HETATM    3  C   UNL     1     -12.295   9.159  72.094  1.00  0.00    -0.424 C  
ENDROOT
BRANCH   2   4
HETATM    4  C   UNL     1     -11.713   6.922  70.988  1.00  0.00    -0.345 C  
HETATM    5  O   UNL     1     -12.576   6.898  69.843  1.00  0.00    -0.265 OA 
HETATM    6  H   UNL     1     -12.877   6.022  69.636  1.00  0.00     0.000 HD 
BRANCH   4   7
HETATM    7  C   UNL     1     -10.577   5.896  70.754  1.00  0.00    -0.265 C  
HETATM    8  O   UNL     1     -10.121   5.155  71.622  1.00  0.00    -0.186 OA 
HETATM    9  N   UNL     1     -10.132   5.837  69.448  1.00  0.00    -0.194 N  
HETATM   10  H   UNL     1     -10.556   6.438  68.742  1.00  0.00     0.000 HD 
BRANCH   9  11
HETATM   11  C   UNL     1      -9.069   4.928  69.074  1.00  0.00    -0.111 C  
BRANCH  11  12
HETATM   12  C   UNL     1      -7.692   5.582  69.038  1.00  0.00    -0.087 C  
BRANCH  12  13
HETATM   13  C   UNL     1      -7.383   6.324  67.745  1.00  0.00    -0.084 C  
HETATM   14  O   UNL     1      -8.369   7.332  67.532  1.00  0.00    -0.115 OA 
HETATM   15  H   UNL     1      -8.177   7.795  66.726  1.00  0.00     0.000 HD 
ENDBRANCH  12  13
ENDBRANCH  11  12
ENDBRANCH   9  11
ENDBRANCH   4   7
ENDBRANCH   2   4
BRANCH   2  16
HETATM   16  C   UNL     1     -10.790   9.092  70.029  1.00  0.00    -0.234 C  
HETATM   17  O   UNL     1     -11.816   9.946  69.537  1.00  0.00    -0.461 OA 
HETATM   18  H   UNL     1     -11.554  10.394  68.741  1.00  0.00     0.000 HD 
ENDBRANCH   2  16
TORSDOF 6
ENDMDL
MODEL      243
REMARK 921   NORMALIZED FREE ENERGY PREDICTED BY IDOCK:   -2.53 KCAL/MOL
REMARK 922        TOTAL FREE ENERGY PREDICTED BY IDOCK:   -3.94 KCAL/MOL
REMARK 923 INTER-LIGAND FREE ENERGY PREDICTED BY IDOCK:   -3.30 KCAL/MOL
REMARK 924 INTRA-LIGAND FREE ENERGY PREDICTED BY IDOCK:   -0.64 KCAL/MOL
REMARK 927      BINDING AFFINITY PREDICTED BY RF-SCORE:    0.00 PKD
ROOT
HETATM    1  C   UNL     1     -10.330   8.349  66.837  1.00  0.00    -0.378 C  
HETATM    2  C   UNL     1      -9.257   8.647  67.914  1.00  0.00    -0.148 C  
HETATM    3  C   UNL     1      -9.658   7.856  69.176  1.00  0.00    -0.153 C  
ENDROOT
BRANCH   2   4
HETATM    4  C   UNL     1      -9.207  10.180  68.195  1.00  0.00    -0.135 C  
HETATM    5  O   UNL     1      -8.232  10.851  67.387  1.00  0.00    -0.115 OA 
HETATM    6  H   UNL     1      -8.201  11.785  67.558  1.00  0.00     0.000 HD 
BRANCH   4   7
HETATM    7  C   UNL     1     -10.563  10.906  68.014  1.00  0.00    -0.202 C  
HETATM    8  O   UNL     1     -11.562  10.691  68.697  1.00  0.00    -0.281 OA 
HETATM    9  N   UNL     1     -10.555  11.877  67.032  1.00  0.00    -0.220 N  
HETATM   10  H   UNL     1      -9.699  12.059  66.507  1.00  0.00     0.000 HD 
BRANCH   9  11
HETATM   11  C   UNL     1     -11.751  12.640  66.742  1.00  0.00    -0.392 C  
BRANCH  11  12
HETATM   12  C   UNL     1     -11.811  13.979  67.469  1.00  0.00    -0.442 C  
BRANCH  12  13
HETATM   13  C   UNL     1     -10.450  14.558  67.831  1.00  0.00    -0.242 C  
HETATM   14  O   UNL     1     -10.107  14.166  69.158  1.00  0.00    -0.402 OA 
HETATM   15  H   UNL     1      -9.258  14.526  69.384  1.00  0.00     0.000 HD 
ENDBRANCH  12  13
ENDBRANCH  11  12
ENDBRANCH   9  11
ENDBRANCH   4   7
ENDBRANCH   2   4
BRANCH   2  16
HETATM   16  C   UNL     1      -7.889   8.169  67.357  1.00  0.00    -0.106 C  
HETATM   17  O   UNL     1      -7.811   8.315  65.944  1.00  0.00    -0.087 OA 
HETATM   18  H   UNL     1      -6.973   8.022  65.603  1.00  0.00     0.000 HD 
ENDBRANCH   2  16
TORSDOF 6
ENDMDL
MODEL      244
REMARK 921   NORMALIZED FREE ENERGY PREDICTED BY IDOCK:   -2.51 KCAL/MOL
REMARK 922        TOTAL FREE ENERGY PREDICTED BY IDOCK:   -3.92 KCAL/MOL
REMARK 923 INTER-LIGAND FREE ENERGY PREDICTED BY IDOCK:   -3.62 KCAL/MOL
REMARK 924 INTRA-LIGAND FREE ENERGY PREDICTED BY IDOCK:   -0.30 KCAL/MOL
REMARK 927      BINDING AFFINITY PREDICTED BY RF-SCORE:    0.00 PKD
ROOT
HETATM    1  C   UNL     1      -9.906   8.353  66.456  1.00  0.00    -0.338 C  
HETATM    2  C   UNL     1      -8.420   8.639  66.785  1.00  0.00    -0.117 C  
HETATM    3  C   UNL     1      -8.289   8.608  68.322  1.00  0.00    -0.127 C  
ENDROOT
BRANCH   2   4
HETATM    4  C   UNL     1      -8.013  10.030  66.208  1.00  0.00    -0.111 C  
HETATM    5  O   UNL     1      -7.448   9.931  64.895  1.00  0.00    -0.124 OA 
HETATM    6  H   UNL     1      -7.200  10.778  64.543  1.00  0.00     0.000 HD 
BRANCH   4   7
HETATM    7  C   UNL     1      -9.166  11.063  66.159  1.00  0.00    -0.190 C  
HETATM    8  O   UNL     1      -9.586  11.681  67.134  1.00  0.00    -0.174 OA 
HETATM    9  N   UNL     1      -9.671  11.282  64.893  1.00  0.00    -0.247 N  
HETATM   10  H   UNL     1      -9.277  10.781  64.097  1.00  0.00     0.000 HD 
BRANCH   9  11
HETATM   11  C   UNL     1     -10.757  12.218  64.686  1.00  0.00    -0.308 C  
BRANCH  11  12
HETATM   12  C   UNL     1     -10.291  13.654  64.471  1.00  0.00    -0.355 C  
BRANCH  12  13
HETATM   13  C   UNL     1     -11.242  14.710  65.019  1.00  0.00    -0.386 C  
HETATM   14  O   UNL     1     -11.798  15.452  63.937  1.00  0.00    -0.909 OA 
HETATM   15  H   UNL     1     -12.391  16.110  64.279  1.00  0.00     0.000 HD 
ENDBRANCH  12  13
ENDBRANCH  11  12
ENDBRANCH   9  11
ENDBRANCH   4   7
ENDBRANCH   2   4
BRANCH   2  16
HETATM   16  C   UNL     1      -7.569   7.525  66.121  1.00  0.00    -0.088 C  
HETATM   17  O   UNL     1      -8.248   6.919  65.027  1.00  0.00    -0.147 OA 
HETATM   18  H   UNL     1      -7.727   6.237  64.620  1.00  0.00     0.000 HD 
ENDBRANCH   2  16
TORSDOF 6
ENDMDL
MODEL      245
REMARK 921   NORMALIZED FREE ENERGY PREDICTED BY IDOCK:   -2.51 KCAL/MOL
REMARK 922        TOTAL FREE ENERGY PREDICTED BY IDOCK:   -3.91 KCAL/MOL
REMARK 923 INTER-LIGAND FREE ENERGY PREDICTED BY IDOCK:   -3.83 KCAL/MOL
REMARK 924 INTRA-LIGAND FREE ENERGY PREDICTED BY IDOCK:   -0.08 KCAL/MOL
REMARK 927      BINDING AFFINITY PREDICTED BY RF-SCORE:    0.00 PKD
ROOT
HETATM    1  C   UNL     1     -10.327   8.958  67.559  1.00  0.00    -0.328 C  
HETATM    2  C   UNL     1     -10.042  10.115  68.549  1.00  0.00    -0.186 C  
HETATM    3  C   UNL     1      -8.563  10.512  68.357  1.00  0.00    -0.132 C  
ENDROOT
BRANCH   2   4
HETATM    4  C   UNL     1     -10.317   9.637  70.008  1.00  0.00    -0.257 C  
HETATM    5  O   UNL     1     -11.699   9.326  70.228  1.00  0.00    -0.439 OA 
HETATM    6  H   UNL     1     -11.867   9.036  71.116  1.00  0.00     0.000 HD 
BRANCH   4   7
HETATM    7  C   UNL     1      -9.474   8.416  70.449  1.00  0.00    -0.168 C  
HETATM    8  O   UNL     1      -8.267   8.453  70.681  1.00  0.00    -0.103 OA 
HETATM    9  N   UNL     1     -10.205   7.257  70.616  1.00  0.00    -0.195 N  
HETATM   10  H   UNL     1     -11.212   7.266  70.452  1.00  0.00     0.000 HD 
BRANCH   9  11
HETATM   11  C   UNL     1      -9.556   6.028  71.023  1.00  0.00    -0.172 C  
BRANCH  11  12
HETATM   12  C   UNL     1     -10.459   5.097  71.824  1.00  0.00    -0.268 C  
BRANCH  12  13
HETATM   13  C   UNL     1     -11.173   5.767  72.991  1.00  0.00    -0.246 C  
HETATM   14  O   UNL     1     -11.266   4.849  74.078  1.00  0.00    -0.378 OA 
HETATM   15  H   UNL     1     -11.710   5.266  74.806  1.00  0.00     0.000 HD 
ENDBRANCH  12  13
ENDBRANCH  11  12
ENDBRANCH   9  11
ENDBRANCH   4   7
ENDBRANCH   2   4
BRANCH   2  16
HETATM   16  C   UNL     1     -10.995  11.286  68.190  1.00  0.00    -0.231 C  
HETATM   17  O   UNL     1     -12.363  10.908  68.293  1.00  0.00    -0.730 OA 
HETATM   18  H   UNL     1     -12.946  11.625  68.074  1.00  0.00     0.000 HD 
ENDBRANCH   2  16
TORSDOF 6
ENDMDL
MODEL      246
REMARK 921   NORMALIZED FREE ENERGY PREDICTED BY IDOCK:   -2.50 KCAL/MOL
REMARK 922        TOTAL FREE ENERGY PREDICTED BY IDOCK:   -3.91 KCAL/MOL
REMARK 923 INTER-LIGAND FREE ENERGY PREDICTED BY IDOCK:   -3.70 KCAL/MOL
REMARK 924 INTRA-LIGAND FREE ENERGY PREDICTED BY IDOCK:   -0.21 KCAL/MOL
REMARK 927      BINDING AFFINITY PREDICTED BY RF-SCORE:    0.00 PKD
ROOT
HETATM    1  C   UNL     1     -10.659   5.018  66.208  1.00  0.00    -0.332 C  
HETATM    2  C   UNL     1      -9.393   5.484  66.968  1.00  0.00    -0.118 C  
HETATM    3  C   UNL     1      -9.308   4.639  68.256  1.00  0.00    -0.182 C  
ENDROOT
BRANCH   2   4
HETATM    4  C   UNL     1      -9.506   7.006  67.293  1.00  0.00    -0.138 C  
HETATM    5  O   UNL     1     -10.558   7.644  66.557  1.00  0.00    -0.485 OA 
HETATM    6  H   UNL     1     -10.627   8.570  66.754  1.00  0.00     0.000 HD 
BRANCH   4   7
HETATM    7  C   UNL     1      -9.708   7.324  68.794  1.00  0.00    -0.151 C  
HETATM    8  O   UNL     1      -8.794   7.482  69.600  1.00  0.00    -0.140 OA 
HETATM    9  N   UNL     1     -11.030   7.470  69.166  1.00  0.00    -0.423 N  
HETATM   10  H   UNL     1     -11.766   7.370  68.467  1.00  0.00     0.000 HD 
BRANCH   9  11
HETATM   11  C   UNL     1     -11.381   7.765  70.539  1.00  0.00    -0.241 C  
BRANCH  11  12
HETATM   12  C   UNL     1     -12.442   6.831  71.111  1.00  0.00    -0.351 C  
BRANCH  12  13
HETATM   13  C   UNL     1     -13.585   7.542  71.823  1.00  0.00    -0.322 C  
HETATM   14  O   UNL     1     -14.272   8.379  70.895  1.00  0.00    -0.618 OA 
HETATM   15  H   UNL     1     -14.985   8.822  71.339  1.00  0.00     0.000 HD 
ENDBRANCH  12  13
ENDBRANCH  11  12
ENDBRANCH   9  11
ENDBRANCH   4   7
ENDBRANCH   2   4
BRANCH   2  16
HETATM   16  C   UNL     1      -8.172   5.233  66.044  1.00  0.00    -0.115 C  
HETATM   17  O   UNL     1      -7.648   6.446  65.515  1.00  0.00    -0.080 OA 
HETATM   18  H   UNL     1      -6.900   6.293  64.949  1.00  0.00     0.000 HD 
ENDBRANCH   2  16
TORSDOF 6
ENDMDL
MODEL      247
REMARK 921   NORMALIZED FREE ENERGY PREDICTED BY IDOCK:   -2.49 KCAL/MOL
REMARK 922        TOTAL FREE ENERGY PREDICTED BY IDOCK:   -3.89 KCAL/MOL
REMARK 923 INTER-LIGAND FREE ENERGY PREDICTED BY IDOCK:   -3.47 KCAL/MOL
REMARK 924 INTRA-LIGAND FREE ENERGY PREDICTED BY IDOCK:   -0.41 KCAL/MOL
REMARK 927      BINDING AFFINITY PREDICTED BY RF-SCORE:    0.00 PKD
ROOT
HETATM    1  C   UNL     1      -7.821   9.125  67.163  1.00  0.00    -0.102 C  
HETATM    2  C   UNL     1      -8.984   8.654  66.254  1.00  0.00    -0.211 C  
HETATM    3  C   UNL     1     -10.293   9.113  66.929  1.00  0.00    -0.321 C  
ENDROOT
BRANCH   2   4
HETATM    4  C   UNL     1      -8.936   7.103  66.102  1.00  0.00    -0.140 C  
HETATM    5  O   UNL     1      -7.624   6.572  66.330  1.00  0.00    -0.087 OA 
HETATM    6  H   UNL     1      -7.594   5.628  66.237  1.00  0.00     0.000 HD 
BRANCH   4   7
HETATM    7  C   UNL     1      -9.928   6.341  67.015  1.00  0.00    -0.159 C  
HETATM    8  O   UNL     1     -10.988   5.850  66.632  1.00  0.00    -0.287 OA 
HETATM    9  N   UNL     1      -9.500   6.206  68.321  1.00  0.00    -0.118 N  
HETATM   10  H   UNL     1      -8.599   6.592  68.601  1.00  0.00     0.000 HD 
BRANCH   9  11
HETATM   11  C   UNL     1     -10.322   5.521  69.297  1.00  0.00    -0.265 C  
BRANCH  11  12
HETATM   12  C   UNL     1     -11.305   6.438  70.017  1.00  0.00    -0.496 C  
BRANCH  12  13
HETATM   13  C   UNL     1     -10.731   7.795  70.402  1.00  0.00    -0.236 C  
HETATM   14  O   UNL     1     -11.714   8.804  70.179  1.00  0.00    -0.463 OA 
HETATM   15  H   UNL     1     -11.355   9.650  70.420  1.00  0.00     0.000 HD 
ENDBRANCH  12  13
ENDBRANCH  11  12
ENDBRANCH   9  11
ENDBRANCH   4   7
ENDBRANCH   2   4
BRANCH   2  16
HETATM   16  C   UNL     1      -8.796   9.325  64.867  1.00  0.00    -0.193 C  
HETATM   17  O   UNL     1      -8.600   8.365  63.835  1.00  0.00    -0.396 OA 
HETATM   18  H   UNL     1      -8.485   8.775  62.986  1.00  0.00     0.000 HD 
ENDBRANCH   2  16
TORSDOF 6
ENDMDL
MODEL      248
REMARK 921   NORMALIZED FREE ENERGY PREDICTED BY IDOCK:   -2.48 KCAL/MOL
REMARK 922        TOTAL FREE ENERGY PREDICTED BY IDOCK:   -3.87 KCAL/MOL
REMARK 923 INTER-LIGAND FREE ENERGY PREDICTED BY IDOCK:   -3.81 KCAL/MOL
REMARK 924 INTRA-LIGAND FREE ENERGY PREDICTED BY IDOCK:   -0.06 KCAL/MOL
REMARK 927      BINDING AFFINITY PREDICTED BY RF-SCORE:    0.00 PKD
ROOT
HETATM    1  C   UNL     1      -9.782  14.817  68.546  1.00  0.00    -0.218 C  
HETATM    2  C   UNL     1     -10.624  13.739  67.818  1.00  0.00    -0.250 C  
HETATM    3  C   UNL     1     -11.842  13.441  68.716  1.00  0.00    -0.386 C  
ENDROOT
BRANCH   2   4
HETATM    4  C   UNL     1      -9.759  12.461  67.591  1.00  0.00    -0.195 C  
HETATM    5  O   UNL     1      -8.909  12.173  68.709  1.00  0.00    -0.368 OA 
HETATM    6  H   UNL     1      -8.382  11.396  68.572  1.00  0.00     0.000 HD 
BRANCH   4   7
HETATM    7  C   UNL     1     -10.576  11.187  67.268  1.00  0.00    -0.239 C  
HETATM    8  O   UNL     1     -11.792  11.168  67.090  1.00  0.00    -0.466 OA 
HETATM    9  N   UNL     1      -9.810  10.044  67.142  1.00  0.00    -0.177 N  
HETATM   10  H   UNL     1      -8.798  10.098  67.259  1.00  0.00     0.000 HD 
BRANCH   9  11
HETATM   11  C   UNL     1     -10.432   8.771  66.846  1.00  0.00    -0.249 C  
BRANCH  11  12
HETATM   12  C   UNL     1      -9.431   7.649  66.588  1.00  0.00    -0.255 C  
BRANCH  12  13
HETATM   13  C   UNL     1      -7.977   8.047  66.796  1.00  0.00    -0.103 C  
HETATM   14  O   UNL     1      -7.686   8.063  68.192  1.00  0.00    -0.112 OA 
HETATM   15  H   UNL     1      -6.779   8.311  68.322  1.00  0.00     0.000 HD 
ENDBRANCH  12  13
ENDBRANCH  11  12
ENDBRANCH   9  11
ENDBRANCH   4   7
ENDBRANCH   2   4
BRANCH   2  16
HETATM   16  C   UNL     1     -11.059  14.329  66.450  1.00  0.00    -0.325 C  
HETATM   17  O   UNL     1     -12.424  14.047  66.161  1.00  0.00    -0.467 OA 
HETATM   18  H   UNL     1     -12.691  14.407  65.323  1.00  0.00     0.000 HD 
ENDBRANCH   2  16
TORSDOF 6
ENDMDL
MODEL      249
REMARK 921   NORMALIZED FREE ENERGY PREDICTED BY IDOCK:   -2.48 KCAL/MOL
REMARK 922        TOTAL FREE ENERGY PREDICTED BY IDOCK:   -3.87 KCAL/MOL
REMARK 923 INTER-LIGAND FREE ENERGY PREDICTED BY IDOCK:   -3.60 KCAL/MOL
REMARK 924 INTRA-LIGAND FREE ENERGY PREDICTED BY IDOCK:   -0.27 KCAL/MOL
REMARK 927      BINDING AFFINITY PREDICTED BY RF-SCORE:    0.00 PKD
ROOT
HETATM    1  C   UNL     1      -8.073   9.813  68.471  1.00  0.00    -0.104 C  
HETATM    2  C   UNL     1      -8.833   8.540  68.021  1.00  0.00    -0.142 C  
HETATM    3  C   UNL     1      -7.935   7.824  66.992  1.00  0.00    -0.116 C  
ENDROOT
BRANCH   2   4
HETATM    4  C   UNL     1     -10.205   8.942  67.397  1.00  0.00    -0.249 C  
HETATM    5  O   UNL     1     -11.118   7.838  67.331  1.00  0.00    -0.525 OA 
HETATM    6  H   UNL     1     -11.953   8.082  66.950  1.00  0.00     0.000 HD 
BRANCH   4   7
HETATM    7  C   UNL     1     -10.917  10.112  68.119  1.00  0.00    -0.259 C  
HETATM    8  O   UNL     1     -11.269  10.090  69.296  1.00  0.00    -0.222 OA 
HETATM    9  N   UNL     1     -11.090  11.235  67.334  1.00  0.00    -0.280 N  
HETATM   10  H   UNL     1     -10.754  11.237  66.371  1.00  0.00     0.000 HD 
BRANCH   9  11
HETATM   11  C   UNL     1     -11.745  12.412  67.868  1.00  0.00    -0.360 C  
BRANCH  11  12
HETATM   12  C   UNL     1     -10.789  13.385  68.550  1.00  0.00    -0.285 C  
BRANCH  12  13
HETATM   13  C   UNL     1     -11.476  14.458  69.383  1.00  0.00    -0.288 C  
HETATM   14  O   UNL     1     -10.601  14.876  70.429  1.00  0.00    -0.491 OA 
HETATM   15  H   UNL     1     -11.029  15.546  70.948  1.00  0.00     0.000 HD 
ENDBRANCH  12  13
ENDBRANCH  11  12
ENDBRANCH   9  11
ENDBRANCH   4   7
ENDBRANCH   2   4
BRANCH   2  16
HETATM   16  C   UNL     1      -9.065   7.662  69.280  1.00  0.00    -0.145 C  
HETATM   17  O   UNL     1      -8.789   8.373  70.481  1.00  0.00    -0.138 OA 
HETATM   18  H   UNL     1      -8.931   7.835  71.252  1.00  0.00     0.000 HD 
ENDBRANCH   2  16
TORSDOF 6
ENDMDL
MODEL      250
REMARK 921   NORMALIZED FREE ENERGY PREDICTED BY IDOCK:   -2.47 KCAL/MOL
REMARK 922        TOTAL FREE ENERGY PREDICTED BY IDOCK:   -3.86 KCAL/MOL
REMARK 923 INTER-LIGAND FREE ENERGY PREDICTED BY IDOCK:   -3.61 KCAL/MOL
REMARK 924 INTRA-LIGAND FREE ENERGY PREDICTED BY IDOCK:   -0.26 KCAL/MOL
REMARK 927      BINDING AFFINITY PREDICTED BY RF-SCORE:    0.00 PKD
ROOT
HETATM    1  C   UNL     1      -7.244  10.090  70.013  1.00  0.00    -0.158 C  
HETATM    2  C   UNL     1      -8.181   9.083  69.300  1.00  0.00    -0.117 C  
HETATM    3  C   UNL     1      -7.582   8.829  67.902  1.00  0.00    -0.097 C  
ENDROOT
BRANCH   2   4
HETATM    4  C   UNL     1      -9.618   9.682  69.203  1.00  0.00    -0.174 C  
HETATM    5  O   UNL     1     -10.125  10.095  70.479  1.00  0.00    -0.392 OA 
HETATM    6  H   UNL     1     -11.000  10.459  70.419  1.00  0.00     0.000 HD 
BRANCH   4   7
HETATM    7  C   UNL     1      -9.746  10.877  68.226  1.00  0.00    -0.165 C  
HETATM    8  O   UNL     1      -9.184  11.959  68.374  1.00  0.00    -0.191 OA 
HETATM    9  N   UNL     1     -10.524  10.614  67.115  1.00  0.00    -0.231 N  
HETATM   10  H   UNL     1     -10.949   9.694  67.000  1.00  0.00     0.000 HD 
BRANCH   9  11
HETATM   11  C   UNL     1     -10.742  11.635  66.111  1.00  0.00    -0.278 C  
BRANCH  11  12
HETATM   12  C   UNL     1     -11.967  12.503  66.381  1.00  0.00    -0.386 C  
BRANCH  12  13
HETATM   13  C   UNL     1     -12.030  13.775  65.546  1.00  0.00    -0.384 C  
HETATM   14  O   UNL     1     -13.389  14.060  65.221  1.00  0.00    -0.741 OA 
HETATM   15  H   UNL     1     -13.429  14.853  64.701  1.00  0.00     0.000 HD 
ENDBRANCH  12  13
ENDBRANCH  11  12
ENDBRANCH   9  11
ENDBRANCH   4   7
ENDBRANCH   2   4
BRANCH   2  16
HETATM   16  C   UNL     1      -8.209   7.785  70.150  1.00  0.00    -0.123 C  
HETATM   17  O   UNL     1      -9.538   7.325  70.372  1.00  0.00    -0.166 OA 
HETATM   18  H   UNL     1      -9.555   6.529  70.892  1.00  0.00     0.000 HD 
ENDBRANCH   2  16
TORSDOF 6
ENDMDL
MODEL      251
REMARK 921   NORMALIZED FREE ENERGY PREDICTED BY IDOCK:   -2.46 KCAL/MOL
REMARK 922        TOTAL FREE ENERGY PREDICTED BY IDOCK:   -3.84 KCAL/MOL
REMARK 923 INTER-LIGAND FREE ENERGY PREDICTED BY IDOCK:   -3.52 KCAL/MOL
REMARK 924 INTRA-LIGAND FREE ENERGY PREDICTED BY IDOCK:   -0.32 KCAL/MOL
REMARK 927      BINDING AFFINITY PREDICTED BY RF-SCORE:    0.00 PKD
ROOT
HETATM    1  C   UNL     1     -11.242  15.261  67.448  1.00  0.00    -0.311 C  
HETATM    2  C   UNL     1     -11.395  14.446  66.140  1.00  0.00    -0.350 C  
HETATM    3  C   UNL     1     -12.909  14.289  65.886  1.00  0.00    -0.214 C  
ENDROOT
BRANCH   2   4
HETATM    4  C   UNL     1     -10.698  13.060  66.301  1.00  0.00    -0.276 C  
HETATM    5  O   UNL     1      -9.923  12.703  65.149  1.00  0.00    -0.383 OA 
HETATM    6  H   UNL     1      -9.499  11.859  65.246  1.00  0.00     0.000 HD 
BRANCH   4   7
HETATM    7  C   UNL     1      -9.788  12.944  67.548  1.00  0.00    -0.208 C  
HETATM    8  O   UNL     1     -10.190  12.679  68.679  1.00  0.00    -0.222 OA 
HETATM    9  N   UNL     1      -8.444  13.118  67.282  1.00  0.00    -0.197 N  
HETATM   10  H   UNL     1      -8.137  13.300  66.326  1.00  0.00     0.000 HD 
BRANCH   9  11
HETATM   11  C   UNL     1      -7.467  13.043  68.348  1.00  0.00    -0.128 C  
BRANCH  11  12
HETATM   12  C   UNL     1      -6.221  12.245  67.978  1.00  0.00    -0.073 C  
BRANCH  12  13
HETATM   13  C   UNL     1      -6.477  11.094  67.015  1.00  0.00    -0.107 C  
HETATM   14  O   UNL     1      -7.492  10.247  67.550  1.00  0.00    -0.089 OA 
HETATM   15  H   UNL     1      -7.652   9.529  66.949  1.00  0.00     0.000 HD 
ENDBRANCH  12  13
ENDBRANCH  11  12
ENDBRANCH   9  11
ENDBRANCH   4   7
ENDBRANCH   2   4
BRANCH   2  16
HETATM   16  C   UNL     1     -10.710  15.250  65.003  1.00  0.00    -0.439 C  
HETATM   17  O   UNL     1     -10.181  16.486  65.471  1.00  0.00    -0.525 OA 
HETATM   18  H   UNL     1      -9.762  16.979  64.775  1.00  0.00     0.000 HD 
ENDBRANCH   2  16
TORSDOF 6
ENDMDL
MODEL      252
REMARK 921   NORMALIZED FREE ENERGY PREDICTED BY IDOCK:   -2.45 KCAL/MOL
REMARK 922        TOTAL FREE ENERGY PREDICTED BY IDOCK:   -3.84 KCAL/MOL
REMARK 923 INTER-LIGAND FREE ENERGY PREDICTED BY IDOCK:   -3.65 KCAL/MOL
REMARK 924 INTRA-LIGAND FREE ENERGY PREDICTED BY IDOCK:   -0.19 KCAL/MOL
REMARK 927      BINDING AFFINITY PREDICTED BY RF-SCORE:    0.00 PKD
ROOT
HETATM    1  C   UNL     1     -11.832   8.133  72.551  1.00  0.00    -0.438 C  
HETATM    2  C   UNL     1     -10.687   7.428  71.780  1.00  0.00    -0.242 C  
HETATM    3  C   UNL     1     -10.054   8.487  70.854  1.00  0.00    -0.246 C  
ENDROOT
BRANCH   2   4
HETATM    4  C   UNL     1     -11.264   6.230  70.964  1.00  0.00    -0.312 C  
HETATM    5  O   UNL     1     -11.964   6.658  69.789  1.00  0.00    -0.654 OA 
HETATM    6  H   UNL     1     -12.315   5.930  69.292  1.00  0.00     0.000 HD 
BRANCH   4   7
HETATM    7  C   UNL     1     -10.207   5.182  70.538  1.00  0.00    -0.260 C  
HETATM    8  O   UNL     1     -10.014   4.115  71.118  1.00  0.00    -0.188 OA 
HETATM    9  N   UNL     1      -9.509   5.518  69.396  1.00  0.00    -0.128 N  
HETATM   10  H   UNL     1      -9.717   6.393  68.914  1.00  0.00     0.000 HD 
BRANCH   9  11
HETATM   11  C   UNL     1      -8.483   4.639  68.874  1.00  0.00    -0.080 C  
BRANCH  11  12
HETATM   12  C   UNL     1      -8.431   4.599  67.350  1.00  0.00    -0.104 C  
BRANCH  12  13
HETATM   13  C   UNL     1      -9.521   3.751  66.709  1.00  0.00    -0.194 C  
HETATM   14  O   UNL     1      -9.647   2.524  67.423  1.00  0.00    -0.404 OA 
HETATM   15  H   UNL     1     -10.328   1.995  67.023  1.00  0.00     0.000 HD 
ENDBRANCH  12  13
ENDBRANCH  11  12
ENDBRANCH   9  11
ENDBRANCH   4   7
ENDBRANCH   2   4
BRANCH   2  16
HETATM   16  C   UNL     1      -9.667   6.908  72.828  1.00  0.00    -0.150 C  
HETATM   17  O   UNL     1     -10.304   6.191  73.879  1.00  0.00    -0.247 OA 
HETATM   18  H   UNL     1      -9.679   5.873  74.521  1.00  0.00     0.000 HD 
ENDBRANCH   2  16
TORSDOF 6
ENDMDL
MODEL      253
REMARK 921   NORMALIZED FREE ENERGY PREDICTED BY IDOCK:   -2.41 KCAL/MOL
REMARK 922        TOTAL FREE ENERGY PREDICTED BY IDOCK:   -3.78 KCAL/MOL
REMARK 923 INTER-LIGAND FREE ENERGY PREDICTED BY IDOCK:   -3.91 KCAL/MOL
REMARK 924 INTRA-LIGAND FREE ENERGY PREDICTED BY IDOCK:    0.13 KCAL/MOL
REMARK 927      BINDING AFFINITY PREDICTED BY RF-SCORE:    0.00 PKD
ROOT
HETATM    1  C   UNL     1      -9.291  10.534  69.140  1.00  0.00    -0.200 C  
HETATM    2  C   UNL     1     -10.781  10.622  68.727  1.00  0.00    -0.249 C  
HETATM    3  C   UNL     1     -10.903   9.947  67.345  1.00  0.00    -0.293 C  
ENDROOT
BRANCH   2   4
HETATM    4  C   UNL     1     -11.223  12.117  68.671  1.00  0.00    -0.269 C  
HETATM    5  O   UNL     1     -11.196  12.743  69.960  1.00  0.00    -0.482 OA 
HETATM    6  H   UNL     1     -11.464  13.652  69.926  1.00  0.00     0.000 HD 
BRANCH   4   7
HETATM    7  C   UNL     1     -10.395  12.990  67.696  1.00  0.00    -0.222 C  
HETATM    8  O   UNL     1      -9.738  12.549  66.755  1.00  0.00    -0.221 OA 
HETATM    9  N   UNL     1     -10.490  14.346  67.936  1.00  0.00    -0.237 N  
HETATM   10  H   UNL     1     -11.072  14.685  68.702  1.00  0.00     0.000 HD 
BRANCH   9  11
HETATM   11  C   UNL     1      -9.768  15.292  67.110  1.00  0.00    -0.217 C  
BRANCH  11  12
HETATM   12  C   UNL     1      -8.403  15.675  67.673  1.00  0.00    -0.168 C  
BRANCH  12  13
HETATM   13  C   UNL     1      -7.423  16.202  66.634  1.00  0.00    -0.165 C  
HETATM   14  O   UNL     1      -8.039  17.253  65.893  1.00  0.00    -0.529 OA 
HETATM   15  H   UNL     1      -7.427  17.583  65.246  1.00  0.00     0.000 HD 
ENDBRANCH  12  13
ENDBRANCH  11  12
ENDBRANCH   9  11
ENDBRANCH   4   7
ENDBRANCH   2   4
BRANCH   2  16
HETATM   16  C   UNL     1     -11.611   9.869  69.801  1.00  0.00    -0.083 C  
HETATM   17  O   UNL     1     -12.973  10.282  69.805  1.00  0.00    -0.570 OA 
HETATM   18  H   UNL     1     -13.481   9.821  70.463  1.00  0.00     0.000 HD 
ENDBRANCH   2  16
TORSDOF 6
ENDMDL
MODEL      254
REMARK 921   NORMALIZED FREE ENERGY PREDICTED BY IDOCK:   -2.38 KCAL/MOL
REMARK 922        TOTAL FREE ENERGY PREDICTED BY IDOCK:   -3.74 KCAL/MOL
REMARK 923 INTER-LIGAND FREE ENERGY PREDICTED BY IDOCK:   -3.36 KCAL/MOL
REMARK 924 INTRA-LIGAND FREE ENERGY PREDICTED BY IDOCK:   -0.38 KCAL/MOL
REMARK 927      BINDING AFFINITY PREDICTED BY RF-SCORE:    0.00 PKD
ROOT
HETATM    1  C   UNL     1     -12.073   9.604  71.602  1.00  0.00    -0.481 C  
HETATM    2  C   UNL     1     -11.796   8.080  71.612  1.00  0.00    -0.329 C  
HETATM    3  C   UNL     1     -10.650   7.841  72.618  1.00  0.00    -0.377 C  
ENDROOT
BRANCH   2   4
HETATM    4  C   UNL     1     -11.403   7.608  70.179  1.00  0.00    -0.132 C  
HETATM    5  O   UNL     1     -10.901   8.680  69.370  1.00  0.00    -0.349 OA 
HETATM    6  H   UNL     1     -10.661   8.393  68.498  1.00  0.00     0.000 HD 
BRANCH   4   7
HETATM    7  C   UNL     1     -10.367   6.457  70.148  1.00  0.00    -0.198 C  
HETATM    8  O   UNL     1     -10.614   5.292  70.451  1.00  0.00    -0.268 OA 
HETATM    9  N   UNL     1      -9.119   6.836  69.695  1.00  0.00    -0.143 N  
HETATM   10  H   UNL     1      -8.954   7.802  69.415  1.00  0.00     0.000 HD 
BRANCH   9  11
HETATM   11  C   UNL     1      -8.042   5.871  69.613  1.00  0.00    -0.106 C  
BRANCH  11  12
HETATM   12  C   UNL     1      -6.719   6.472  69.151  1.00  0.00    -0.049 C  
BRANCH  12  13
HETATM   13  C   UNL     1      -6.434   6.295  67.666  1.00  0.00    -0.046 C  
HETATM   14  O   UNL     1      -7.665   6.121  66.967  1.00  0.00    -0.098 OA 
HETATM   15  H   UNL     1      -7.487   6.011  66.040  1.00  0.00     0.000 HD 
ENDBRANCH  12  13
ENDBRANCH  11  12
ENDBRANCH   9  11
ENDBRANCH   4   7
ENDBRANCH   2   4
BRANCH   2  16
HETATM   16  C   UNL     1     -13.101   7.368  72.061  1.00  0.00    -0.149 C  
HETATM   17  O   UNL     1     -14.182   7.636  71.175  1.00  0.00    -0.637 OA 
HETATM   18  H   UNL     1     -14.982   7.201  71.450  1.00  0.00     0.000 HD 
ENDBRANCH   2  16
TORSDOF 6
ENDMDL
MODEL      255
REMARK 921   NORMALIZED FREE ENERGY PREDICTED BY IDOCK:   -2.37 KCAL/MOL
REMARK 922        TOTAL FREE ENERGY PREDICTED BY IDOCK:   -3.73 KCAL/MOL
REMARK 923 INTER-LIGAND FREE ENERGY PREDICTED BY IDOCK:   -3.91 KCAL/MOL
REMARK 924 INTRA-LIGAND FREE ENERGY PREDICTED BY IDOCK:    0.18 KCAL/MOL
REMARK 927      BINDING AFFINITY PREDICTED BY RF-SCORE:    0.00 PKD
ROOT
HETATM    1  C   UNL     1     -12.989  11.851  63.927  1.00  0.00    -0.244 C  
HETATM    2  C   UNL     1     -11.648  12.597  64.136  1.00  0.00    -0.458 C  
HETATM    3  C   UNL     1     -10.568  11.796  63.379  1.00  0.00    -0.479 C  
ENDROOT
BRANCH   2   4
HETATM    4  C   UNL     1     -11.328  12.684  65.660  1.00  0.00    -0.322 C  
HETATM    5  O   UNL     1     -12.513  12.710  66.466  1.00  0.00    -0.407 OA 
HETATM    6  H   UNL     1     -12.318  12.763  67.394  1.00  0.00     0.000 HD 
BRANCH   4   7
HETATM    7  C   UNL     1     -10.414  11.550  66.186  1.00  0.00    -0.251 C  
HETATM    8  O   UNL     1      -9.362  11.203  65.653  1.00  0.00    -0.208 OA 
HETATM    9  N   UNL     1     -10.854  10.971  67.359  1.00  0.00    -0.256 N  
HETATM   10  H   UNL     1     -11.711  11.306  67.798  1.00  0.00     0.000 HD 
BRANCH   9  11
HETATM   11  C   UNL     1     -10.108   9.892  67.973  1.00  0.00    -0.171 C  
BRANCH  11  12
HETATM   12  C   UNL     1      -9.361  10.308  69.236  1.00  0.00    -0.221 C  
BRANCH  12  13
HETATM   13  C   UNL     1      -8.241  11.312  69.001  1.00  0.00    -0.021 C  
HETATM   14  O   UNL     1      -8.804  12.574  68.649  1.00  0.00    -0.360 OA 
HETATM   15  H   UNL     1      -8.105  13.200  68.502  1.00  0.00     0.000 HD 
ENDBRANCH  12  13
ENDBRANCH  11  12
ENDBRANCH   9  11
ENDBRANCH   4   7
ENDBRANCH   2   4
BRANCH   2  16
HETATM   16  C   UNL     1     -11.809  14.025  63.550  1.00  0.00     0.183 C  
HETATM   17  O   UNL     1     -12.742  14.802  64.293  1.00  0.00    -0.691 OA 
HETATM   18  H   UNL     1     -12.841  15.676  63.935  1.00  0.00     0.000 HD 
ENDBRANCH   2  16
TORSDOF 6
ENDMDL
MODEL      256
REMARK 921   NORMALIZED FREE ENERGY PREDICTED BY IDOCK:   -2.37 KCAL/MOL
REMARK 922        TOTAL FREE ENERGY PREDICTED BY IDOCK:   -3.72 KCAL/MOL
REMARK 923 INTER-LIGAND FREE ENERGY PREDICTED BY IDOCK:   -3.20 KCAL/MOL
REMARK 924 INTRA-LIGAND FREE ENERGY PREDICTED BY IDOCK:   -0.52 KCAL/MOL
REMARK 927      BINDING AFFINITY PREDICTED BY RF-SCORE:    0.00 PKD
ROOT
HETATM    1  C   UNL     1     -10.102   4.807  67.497  1.00  0.00    -0.161 C  
HETATM    2  C   UNL     1      -9.538   5.174  68.892  1.00  0.00    -0.201 C  
HETATM    3  C   UNL     1      -9.171   3.848  69.589  1.00  0.00    -0.221 C  
ENDROOT
BRANCH   2   4
HETATM    4  C   UNL     1     -10.612   5.964  69.701  1.00  0.00    -0.313 C  
HETATM    5  O   UNL     1     -10.769   5.461  71.034  1.00  0.00    -0.233 OA 
HETATM    6  H   UNL     1     -11.423   5.942  71.527  1.00  0.00     0.000 HD 
BRANCH   4   7
HETATM    7  C   UNL     1     -10.350   7.488  69.791  1.00  0.00    -0.221 C  
HETATM    8  O   UNL     1      -9.547   8.011  70.561  1.00  0.00    -0.169 OA 
HETATM    9  N   UNL     1     -11.070   8.237  68.881  1.00  0.00    -0.403 N  
HETATM   10  H   UNL     1     -11.701   7.772  68.229  1.00  0.00     0.000 HD 
BRANCH   9  11
HETATM   11  C   UNL     1     -10.936   9.679  68.845  1.00  0.00    -0.121 C  
BRANCH  11  12
HETATM   12  C   UNL     1     -10.713  10.235  67.443  1.00  0.00    -0.339 C  
BRANCH  12  13
HETATM   13  C   UNL     1      -9.630   9.518  66.649  1.00  0.00    -0.188 C  
HETATM   14  O   UNL     1     -10.187   8.359  66.031  1.00  0.00    -0.417 OA 
HETATM   15  H   UNL     1      -9.511   7.912  65.535  1.00  0.00     0.000 HD 
ENDBRANCH  12  13
ENDBRANCH  11  12
ENDBRANCH   9  11
ENDBRANCH   4   7
ENDBRANCH   2   4
BRANCH   2  16
HETATM   16  C   UNL     1      -8.285   6.064  68.672  1.00  0.00    -0.107 C  
HETATM   17  O   UNL     1      -8.116   6.415  67.303  1.00  0.00    -0.111 OA 
HETATM   18  H   UNL     1      -7.349   6.959  67.169  1.00  0.00     0.000 HD 
ENDBRANCH   2  16
TORSDOF 6
ENDMDL
MODEL      257
REMARK 921   NORMALIZED FREE ENERGY PREDICTED BY IDOCK:   -2.37 KCAL/MOL
REMARK 922        TOTAL FREE ENERGY PREDICTED BY IDOCK:   -3.72 KCAL/MOL
REMARK 923 INTER-LIGAND FREE ENERGY PREDICTED BY IDOCK:   -3.42 KCAL/MOL
REMARK 924 INTRA-LIGAND FREE ENERGY PREDICTED BY IDOCK:   -0.30 KCAL/MOL
REMARK 927      BINDING AFFINITY PREDICTED BY RF-SCORE:    0.00 PKD
ROOT
HETATM    1  C   UNL     1      -7.420  19.098  66.010  1.00  0.00    -0.287 C  
HETATM    2  C   UNL     1      -6.626  18.900  67.325  1.00  0.00    -0.199 C  
HETATM    3  C   UNL     1      -5.154  19.244  67.014  1.00  0.00    -0.151 C  
ENDROOT
BRANCH   2   4
HETATM    4  C   UNL     1      -6.775  17.426  67.813  1.00  0.00    -0.161 C  
HETATM    5  O   UNL     1      -6.751  17.320  69.243  1.00  0.00    -0.240 OA 
HETATM    6  H   UNL     1      -6.841  16.423  69.540  1.00  0.00     0.000 HD 
BRANCH   4   7
HETATM    7  C   UNL     1      -8.048  16.711  67.300  1.00  0.00    -0.168 C  
HETATM    8  O   UNL     1      -8.165  16.220  66.179  1.00  0.00    -0.315 OA 
HETATM    9  N   UNL     1      -9.058  16.616  68.237  1.00  0.00    -0.211 N  
HETATM   10  H   UNL     1      -8.918  17.000  69.172  1.00  0.00     0.000 HD 
BRANCH   9  11
HETATM   11  C   UNL     1     -10.314  15.977  67.905  1.00  0.00    -0.269 C  
BRANCH  11  12
HETATM   12  C   UNL     1     -10.680  14.830  68.841  1.00  0.00    -0.253 C  
BRANCH  12  13
HETATM   13  C   UNL     1     -10.461  13.444  68.250  1.00  0.00    -0.250 C  
HETATM   14  O   UNL     1     -11.490  12.568  68.705  1.00  0.00    -0.263 OA 
HETATM   15  H   UNL     1     -11.353  11.703  68.336  1.00  0.00     0.000 HD 
ENDBRANCH  12  13
ENDBRANCH  11  12
ENDBRANCH   9  11
ENDBRANCH   4   7
ENDBRANCH   2   4
BRANCH   2  16
HETATM   16  C   UNL     1      -7.221  19.867  68.383  1.00  0.00    -0.296 C  
HETATM   17  O   UNL     1      -8.587  19.578  68.658  1.00  0.00    -0.356 OA 
HETATM   18  H   UNL     1      -8.952  20.170  69.306  1.00  0.00     0.000 HD 
ENDBRANCH   2  16
TORSDOF 6
ENDMDL
MODEL      258
REMARK 921   NORMALIZED FREE ENERGY PREDICTED BY IDOCK:   -2.37 KCAL/MOL
REMARK 922        TOTAL FREE ENERGY PREDICTED BY IDOCK:   -3.72 KCAL/MOL
REMARK 923 INTER-LIGAND FREE ENERGY PREDICTED BY IDOCK:   -3.46 KCAL/MOL
REMARK 924 INTRA-LIGAND FREE ENERGY PREDICTED BY IDOCK:   -0.26 KCAL/MOL
REMARK 927      BINDING AFFINITY PREDICTED BY RF-SCORE:    0.00 PKD
ROOT
HETATM    1  C   UNL     1      -8.351  10.015  67.066  1.00  0.00    -0.121 C  
HETATM    2  C   UNL     1      -9.240   9.297  66.021  1.00  0.00    -0.262 C  
HETATM    3  C   UNL     1      -9.777  10.385  65.068  1.00  0.00    -0.362 C  
ENDROOT
BRANCH   2   4
HETATM    4  C   UNL     1     -10.402   8.550  66.744  1.00  0.00    -0.276 C  
HETATM    5  O   UNL     1     -10.528   7.189  66.311  1.00  0.00    -0.442 OA 
HETATM    6  H   UNL     1     -11.236   6.734  66.751  1.00  0.00     0.000 HD 
BRANCH   4   7
HETATM    7  C   UNL     1     -10.301   8.556  68.288  1.00  0.00    -0.201 C  
HETATM    8  O   UNL     1     -10.746   9.446  69.010  1.00  0.00    -0.223 OA 
HETATM    9  N   UNL     1      -9.700   7.431  68.818  1.00  0.00    -0.148 N  
HETATM   10  H   UNL     1      -9.374   6.691  68.195  1.00  0.00     0.000 HD 
BRANCH   9  11
HETATM   11  C   UNL     1      -9.528   7.292  70.249  1.00  0.00    -0.165 C  
BRANCH  11  12
HETATM   12  C   UNL     1     -10.489   6.293  70.884  1.00  0.00    -0.274 C  
BRANCH  12  13
HETATM   13  C   UNL     1     -10.689   6.481  72.382  1.00  0.00    -0.224 C  
HETATM   14  O   UNL     1     -12.079   6.393  72.688  1.00  0.00    -0.513 OA 
HETATM   15  H   UNL     1     -12.203   6.509  73.622  1.00  0.00     0.000 HD 
ENDBRANCH  12  13
ENDBRANCH  11  12
ENDBRANCH   9  11
ENDBRANCH   4   7
ENDBRANCH   2   4
BRANCH   2  16
HETATM   16  C   UNL     1      -8.346   8.276  65.267  1.00  0.00    -0.166 C  
HETATM   17  O   UNL     1      -7.426   7.630  66.140  1.00  0.00    -0.079 OA 
HETATM   18  H   UNL     1      -6.879   7.004  65.679  1.00  0.00     0.000 HD 
ENDBRANCH   2  16
TORSDOF 6
ENDMDL
MODEL      259
REMARK 921   NORMALIZED FREE ENERGY PREDICTED BY IDOCK:   -2.36 KCAL/MOL
REMARK 922        TOTAL FREE ENERGY PREDICTED BY IDOCK:   -3.71 KCAL/MOL
REMARK 923 INTER-LIGAND FREE ENERGY PREDICTED BY IDOCK:   -2.85 KCAL/MOL
REMARK 924 INTRA-LIGAND FREE ENERGY PREDICTED BY IDOCK:   -0.86 KCAL/MOL
REMARK 927      BINDING AFFINITY PREDICTED BY RF-SCORE:    0.00 PKD
ROOT
HETATM    1  C   UNL     1      -6.786   9.089  68.601  1.00  0.00    -0.063 C  
HETATM    2  C   UNL     1      -8.177   8.412  68.511  1.00  0.00    -0.124 C  
HETATM    3  C   UNL     1      -9.144   9.265  69.358  1.00  0.00    -0.152 C  
ENDROOT
BRANCH   2   4
HETATM    4  C   UNL     1      -8.086   6.951  69.050  1.00  0.00    -0.117 C  
HETATM    5  O   UNL     1      -7.166   6.830  70.143  1.00  0.00    -0.072 OA 
HETATM    6  H   UNL     1      -7.110   5.941  70.472  1.00  0.00     0.000 HD 
BRANCH   4   7
HETATM    7  C   UNL     1      -9.441   6.349  69.494  1.00  0.00    -0.145 C  
HETATM    8  O   UNL     1     -10.373   6.100  68.732  1.00  0.00    -0.169 OA 
HETATM    9  N   UNL     1      -9.514   6.059  70.842  1.00  0.00    -0.167 N  
HETATM   10  H   UNL     1      -8.711   6.242  71.443  1.00  0.00     0.000 HD 
BRANCH   9  11
HETATM   11  C   UNL     1     -10.721   5.494  71.409  1.00  0.00    -0.221 C  
BRANCH  11  12
HETATM   12  C   UNL     1     -11.421   6.422  72.397  1.00  0.00    -0.320 C  
BRANCH  12  13
HETATM   13  C   UNL     1     -12.465   7.335  71.768  1.00  0.00    -0.343 C  
HETATM   14  O   UNL     1     -12.590   7.025  70.382  1.00  0.00    -0.618 OA 
HETATM   15  H   UNL     1     -13.241   7.594  69.989  1.00  0.00     0.000 HD 
ENDBRANCH  12  13
ENDBRANCH  11  12
ENDBRANCH   9  11
ENDBRANCH   4   7
ENDBRANCH   2   4
BRANCH   2  16
HETATM   16  C   UNL     1      -8.596   8.396  67.017  1.00  0.00    -0.122 C  
HETATM   17  O   UNL     1     -10.008   8.475  66.861  1.00  0.00    -0.212 OA 
HETATM   18  H   UNL     1     -10.265   8.465  65.946  1.00  0.00     0.000 HD 
ENDBRANCH   2  16
TORSDOF 6
ENDMDL
MODEL      260
REMARK 921   NORMALIZED FREE ENERGY PREDICTED BY IDOCK:   -2.35 KCAL/MOL
REMARK 922        TOTAL FREE ENERGY PREDICTED BY IDOCK:   -3.70 KCAL/MOL
REMARK 923 INTER-LIGAND FREE ENERGY PREDICTED BY IDOCK:   -3.45 KCAL/MOL
REMARK 924 INTRA-LIGAND FREE ENERGY PREDICTED BY IDOCK:   -0.25 KCAL/MOL
REMARK 927      BINDING AFFINITY PREDICTED BY RF-SCORE:    0.00 PKD
ROOT
HETATM    1  C   UNL     1      -8.006   7.802  68.597  1.00  0.00    -0.122 C  
HETATM    2  C   UNL     1      -9.070   7.937  69.715  1.00  0.00    -0.146 C  
HETATM    3  C   UNL     1      -9.026   6.631  70.534  1.00  0.00    -0.152 C  
ENDROOT
BRANCH   2   4
HETATM    4  C   UNL     1     -10.476   8.161  69.078  1.00  0.00    -0.198 C  
HETATM    5  O   UNL     1     -11.143   9.309  69.619  1.00  0.00    -0.352 OA 
HETATM    6  H   UNL     1     -11.999   9.446  69.232  1.00  0.00     0.000 HD 
BRANCH   4   7
HETATM    7  C   UNL     1     -10.463   8.297  67.535  1.00  0.00    -0.255 C  
HETATM    8  O   UNL     1     -10.672   7.370  66.755  1.00  0.00    -0.319 OA 
HETATM    9  N   UNL     1     -10.242   9.583  67.085  1.00  0.00    -0.224 N  
HETATM   10  H   UNL     1     -10.109  10.339  67.757  1.00  0.00     0.000 HD 
BRANCH   9  11
HETATM   11  C   UNL     1     -10.197   9.869  65.666  1.00  0.00    -0.159 C  
BRANCH  11  12
HETATM   12  C   UNL     1      -8.833  10.353  65.185  1.00  0.00    -0.207 C  
BRANCH  12  13
HETATM   13  C   UNL     1      -8.673  10.372  63.671  1.00  0.00    -0.198 C  
HETATM   14  O   UNL     1      -8.971  11.678  63.180  1.00  0.00    -0.522 OA 
HETATM   15  H   UNL     1      -8.870  11.690  62.236  1.00  0.00     0.000 HD 
ENDBRANCH  12  13
ENDBRANCH  11  12
ENDBRANCH   9  11
ENDBRANCH   4   7
ENDBRANCH   2   4
BRANCH   2  16
HETATM   16  C   UNL     1      -8.684   9.164  70.584  1.00  0.00    -0.229 C  
HETATM   17  O   UNL     1      -9.141   9.029  71.925  1.00  0.00    -0.365 OA 
HETATM   18  H   UNL     1      -8.905   9.780  72.457  1.00  0.00     0.000 HD 
ENDBRANCH   2  16
TORSDOF 6
ENDMDL
MODEL      261
REMARK 921   NORMALIZED FREE ENERGY PREDICTED BY IDOCK:   -2.35 KCAL/MOL
REMARK 922        TOTAL FREE ENERGY PREDICTED BY IDOCK:   -3.70 KCAL/MOL
REMARK 923 INTER-LIGAND FREE ENERGY PREDICTED BY IDOCK:   -3.38 KCAL/MOL
REMARK 924 INTRA-LIGAND FREE ENERGY PREDICTED BY IDOCK:   -0.31 KCAL/MOL
REMARK 927      BINDING AFFINITY PREDICTED BY RF-SCORE:    0.00 PKD
ROOT
HETATM    1  C   UNL     1      -9.186   6.341  67.880  1.00  0.00    -0.116 C  
HETATM    2  C   UNL     1      -9.114   4.803  68.047  1.00  0.00    -0.137 C  
HETATM    3  C   UNL     1      -9.729   4.186  66.773  1.00  0.00    -0.234 C  
ENDROOT
BRANCH   2   4
HETATM    4  C   UNL     1      -9.903   4.375  69.323  1.00  0.00    -0.148 C  
HETATM    5  O   UNL     1      -9.532   3.068  69.781  1.00  0.00    -0.158 OA 
HETATM    6  H   UNL     1     -10.012   2.808  70.557  1.00  0.00     0.000 HD 
BRANCH   4   7
HETATM    7  C   UNL     1      -9.771   5.357  70.513  1.00  0.00    -0.185 C  
HETATM    8  O   UNL     1      -8.708   5.652  71.055  1.00  0.00    -0.130 OA 
HETATM    9  N   UNL     1     -10.964   5.931  70.904  1.00  0.00    -0.279 N  
HETATM   10  H   UNL     1     -11.825   5.694  70.411  1.00  0.00     0.000 HD 
BRANCH   9  11
HETATM   11  C   UNL     1     -11.003   6.868  72.008  1.00  0.00    -0.235 C  
BRANCH  11  12
HETATM   12  C   UNL     1     -11.646   8.204  71.651  1.00  0.00    -0.325 C  
BRANCH  12  13
HETATM   13  C   UNL     1     -13.154   8.248  71.853  1.00  0.00    -0.344 C  
HETATM   14  O   UNL     1     -13.445   8.858  73.109  1.00  0.00    -0.968 OA 
HETATM   15  H   UNL     1     -14.386   8.886  73.235  1.00  0.00     0.000 HD 
ENDBRANCH  12  13
ENDBRANCH  11  12
ENDBRANCH   9  11
ENDBRANCH   4   7
ENDBRANCH   2   4
BRANCH   2  16
HETATM   16  C   UNL     1      -7.619   4.416  68.198  1.00  0.00    -0.068 C  
HETATM   17  O   UNL     1      -6.844   5.488  68.722  1.00  0.00    -0.055 OA 
HETATM   18  H   UNL     1      -5.928   5.252  68.815  1.00  0.00     0.000 HD 
ENDBRANCH   2  16
TORSDOF 6
ENDMDL
MODEL      262
REMARK 921   NORMALIZED FREE ENERGY PREDICTED BY IDOCK:   -2.35 KCAL/MOL
REMARK 922        TOTAL FREE ENERGY PREDICTED BY IDOCK:   -3.69 KCAL/MOL
REMARK 923 INTER-LIGAND FREE ENERGY PREDICTED BY IDOCK:   -3.12 KCAL/MOL
REMARK 924 INTRA-LIGAND FREE ENERGY PREDICTED BY IDOCK:   -0.57 KCAL/MOL
REMARK 927      BINDING AFFINITY PREDICTED BY RF-SCORE:    0.00 PKD
ROOT
HETATM    1  C   UNL     1     -10.404   4.886  66.777  1.00  0.00    -0.264 C  
HETATM    2  C   UNL     1      -8.923   5.174  66.426  1.00  0.00    -0.125 C  
HETATM    3  C   UNL     1      -8.066   4.479  67.504  1.00  0.00    -0.100 C  
ENDROOT
BRANCH   2   4
HETATM    4  C   UNL     1      -8.677   6.714  66.409  1.00  0.00    -0.141 C  
HETATM    5  O   UNL     1      -8.669   7.250  65.079  1.00  0.00    -0.357 OA 
HETATM    6  H   UNL     1      -8.519   8.187  65.068  1.00  0.00     0.000 HD 
BRANCH   4   7
HETATM    7  C   UNL     1      -9.688   7.531  67.250  1.00  0.00    -0.167 C  
HETATM    8  O   UNL     1     -10.783   7.911  66.842  1.00  0.00    -0.333 OA 
HETATM    9  N   UNL     1      -9.279   7.768  68.547  1.00  0.00    -0.138 N  
HETATM   10  H   UNL     1      -8.381   7.407  68.869  1.00  0.00     0.000 HD 
BRANCH   9  11
HETATM   11  C   UNL     1     -10.116   8.524  69.456  1.00  0.00    -0.200 C  
BRANCH  11  12
HETATM   12  C   UNL     1      -9.612   9.940  69.714  1.00  0.00    -0.261 C  
BRANCH  12  13
HETATM   13  C   UNL     1     -10.080  10.967  68.692  1.00  0.00    -0.197 C  
HETATM   14  O   UNL     1     -11.334  10.557  68.150  1.00  0.00    -0.348 OA 
HETATM   15  H   UNL     1     -11.626  11.198  67.513  1.00  0.00     0.000 HD 
ENDBRANCH  12  13
ENDBRANCH  11  12
ENDBRANCH   9  11
ENDBRANCH   4   7
ENDBRANCH   2   4
BRANCH   2  16
HETATM   16  C   UNL     1      -8.651   4.582  65.018  1.00  0.00    -0.133 C  
HETATM   17  O   UNL     1      -9.738   4.809  64.127  1.00  0.00    -0.358 OA 
HETATM   18  H   UNL     1      -9.572   4.446  63.265  1.00  0.00     0.000 HD 
ENDBRANCH   2  16
TORSDOF 6
ENDMDL
MODEL      263
REMARK 921   NORMALIZED FREE ENERGY PREDICTED BY IDOCK:   -2.30 KCAL/MOL
REMARK 922        TOTAL FREE ENERGY PREDICTED BY IDOCK:   -3.63 KCAL/MOL
REMARK 923 INTER-LIGAND FREE ENERGY PREDICTED BY IDOCK:   -2.74 KCAL/MOL
REMARK 924 INTRA-LIGAND FREE ENERGY PREDICTED BY IDOCK:   -0.89 KCAL/MOL
REMARK 927      BINDING AFFINITY PREDICTED BY RF-SCORE:    0.00 PKD
ROOT
HETATM    1  C   UNL     1     -11.362  10.642  68.027  1.00  0.00    -0.350 C  
HETATM    2  C   UNL     1      -9.874  10.216  68.097  1.00  0.00    -0.164 C  
HETATM    3  C   UNL     1      -9.035  11.508  68.014  1.00  0.00    -0.170 C  
ENDROOT
BRANCH   2   4
HETATM    4  C   UNL     1      -9.548   9.250  66.917  1.00  0.00    -0.174 C  
HETATM    5  O   UNL     1      -8.153   9.241  66.588  1.00  0.00    -0.107 OA 
HETATM    6  H   UNL     1      -7.954   8.653  65.870  1.00  0.00     0.000 HD 
BRANCH   4   7
HETATM    7  C   UNL     1      -9.997   7.786  67.149  1.00  0.00    -0.230 C  
HETATM    8  O   UNL     1     -11.159   7.394  67.067  1.00  0.00    -0.268 OA 
HETATM    9  N   UNL     1      -8.958   6.915  67.414  1.00  0.00    -0.117 N  
HETATM   10  H   UNL     1      -8.000   7.263  67.439  1.00  0.00     0.000 HD 
BRANCH   9  11
HETATM   11  C   UNL     1      -9.219   5.512  67.658  1.00  0.00    -0.110 C  
BRANCH  11  12
HETATM   12  C   UNL     1      -8.694   4.594  66.559  1.00  0.00    -0.111 C  
BRANCH  12  13
HETATM   13  C   UNL     1      -9.376   4.778  65.210  1.00  0.00    -0.143 C  
HETATM   14  O   UNL     1     -10.780   4.933  65.408  1.00  0.00    -0.501 OA 
HETATM   15  H   UNL     1     -11.206   5.048  64.567  1.00  0.00     0.000 HD 
ENDBRANCH  12  13
ENDBRANCH  11  12
ENDBRANCH   9  11
ENDBRANCH   4   7
ENDBRANCH   2   4
BRANCH   2  16
HETATM   16  C   UNL     1      -9.658   9.486  69.450  1.00  0.00    -0.180 C  
HETATM   17  O   UNL     1      -8.288   9.168  69.668  1.00  0.00    -0.115 OA 
HETATM   18  H   UNL     1      -8.156   8.721  70.496  1.00  0.00     0.000 HD 
ENDBRANCH   2  16
TORSDOF 6
ENDMDL
MODEL      264
REMARK 921   NORMALIZED FREE ENERGY PREDICTED BY IDOCK:   -2.28 KCAL/MOL
REMARK 922        TOTAL FREE ENERGY PREDICTED BY IDOCK:   -3.60 KCAL/MOL
REMARK 923 INTER-LIGAND FREE ENERGY PREDICTED BY IDOCK:   -3.41 KCAL/MOL
REMARK 924 INTRA-LIGAND FREE ENERGY PREDICTED BY IDOCK:   -0.20 KCAL/MOL
REMARK 927      BINDING AFFINITY PREDICTED BY RF-SCORE:    0.00 PKD
ROOT
HETATM    1  C   UNL     1     -11.158   6.168  69.580  1.00  0.00    -0.490 C  
HETATM    2  C   UNL     1     -11.199   7.237  70.700  1.00  0.00    -0.300 C  
HETATM    3  C   UNL     1     -10.638   8.540  70.095  1.00  0.00    -0.238 C  
ENDROOT
BRANCH   2   4
HETATM    4  C   UNL     1     -10.342   6.759  71.913  1.00  0.00    -0.197 C  
HETATM    5  O   UNL     1     -10.477   7.622  73.050  1.00  0.00    -0.293 OA 
HETATM    6  H   UNL     1      -9.956   7.331  73.788  1.00  0.00     0.000 HD 
BRANCH   4   7
HETATM    7  C   UNL     1     -10.639   5.310  72.372  1.00  0.00    -0.225 C  
HETATM    8  O   UNL     1     -11.696   4.946  72.881  1.00  0.00    -0.219 OA 
HETATM    9  N   UNL     1      -9.616   4.418  72.116  1.00  0.00    -0.144 N  
HETATM   10  H   UNL     1      -8.764   4.743  71.658  1.00  0.00     0.000 HD 
BRANCH   9  11
HETATM   11  C   UNL     1      -9.743   3.025  72.492  1.00  0.00    -0.141 C  
BRANCH  11  12
HETATM   12  C   UNL     1      -8.765   2.107  71.766  1.00  0.00    -0.101 C  
BRANCH  12  13
HETATM   13  C   UNL     1      -9.210   1.695  70.370  1.00  0.00    -0.092 C  
HETATM   14  O   UNL     1      -9.535   2.861  69.615  1.00  0.00    -0.149 OA 
HETATM   15  H   UNL     1      -9.812   2.604  68.743  1.00  0.00     0.000 HD 
ENDBRANCH  12  13
ENDBRANCH  11  12
ENDBRANCH   9  11
ENDBRANCH   4   7
ENDBRANCH   2   4
BRANCH   2  16
HETATM   16  C   UNL     1     -12.679   7.405  71.135  1.00  0.00    -0.277 C  
HETATM   17  O   UNL     1     -12.788   7.869  72.477  1.00  0.00    -0.541 OA 
HETATM   18  H   UNL     1     -13.695   7.972  72.743  1.00  0.00     0.000 HD 
ENDBRANCH   2  16
TORSDOF 6
ENDMDL
MODEL      265
REMARK 921   NORMALIZED FREE ENERGY PREDICTED BY IDOCK:   -2.27 KCAL/MOL
REMARK 922        TOTAL FREE ENERGY PREDICTED BY IDOCK:   -3.59 KCAL/MOL
REMARK 923 INTER-LIGAND FREE ENERGY PREDICTED BY IDOCK:   -3.13 KCAL/MOL
REMARK 924 INTRA-LIGAND FREE ENERGY PREDICTED BY IDOCK:   -0.46 KCAL/MOL
REMARK 927      BINDING AFFINITY PREDICTED BY RF-SCORE:    0.00 PKD
ROOT
HETATM    1  C   UNL     1      -8.431   6.888  68.998  1.00  0.00    -0.128 C  
HETATM    2  C   UNL     1      -8.607   8.189  68.176  1.00  0.00    -0.129 C  
HETATM    3  C   UNL     1      -7.420   8.258  67.191  1.00  0.00    -0.089 C  
ENDROOT
BRANCH   2   4
HETATM    4  C   UNL     1      -8.623   9.419  69.135  1.00  0.00    -0.140 C  
HETATM    5  O   UNL     1      -8.274  10.637  68.465  1.00  0.00    -0.114 OA 
HETATM    6  H   UNL     1      -8.283  11.386  69.048  1.00  0.00     0.000 HD 
BRANCH   4   7
HETATM    7  C   UNL     1      -9.970   9.641  69.865  1.00  0.00    -0.241 C  
HETATM    8  O   UNL     1     -10.830  10.441  69.506  1.00  0.00    -0.221 OA 
HETATM    9  N   UNL     1     -10.162   8.814  70.954  1.00  0.00    -0.211 N  
HETATM   10  H   UNL     1      -9.446   8.133  71.206  1.00  0.00     0.000 HD 
BRANCH   9  11
HETATM   11  C   UNL     1     -11.373   8.906  71.743  1.00  0.00    -0.361 C  
BRANCH  11  12
HETATM   12  C   UNL     1     -11.514   7.792  72.776  1.00  0.00    -0.415 C  
BRANCH  12  13
HETATM   13  C   UNL     1     -10.201   7.125  73.161  1.00  0.00    -0.276 C  
HETATM   14  O   UNL     1      -9.402   8.047  73.899  1.00  0.00    -0.327 OA 
HETATM   15  H   UNL     1      -8.583   7.631  74.140  1.00  0.00     0.000 HD 
ENDBRANCH  12  13
ENDBRANCH  11  12
ENDBRANCH   9  11
ENDBRANCH   4   7
ENDBRANCH   2   4
BRANCH   2  16
HETATM   16  C   UNL     1      -9.961   8.090  67.424  1.00  0.00    -0.207 C  
HETATM   17  O   UNL     1     -10.125   9.146  66.484  1.00  0.00    -0.273 OA 
HETATM   18  H   UNL     1     -10.954   9.086  66.024  1.00  0.00     0.000 HD 
ENDBRANCH   2  16
TORSDOF 6
ENDMDL
MODEL      266
REMARK 921   NORMALIZED FREE ENERGY PREDICTED BY IDOCK:   -2.27 KCAL/MOL
REMARK 922        TOTAL FREE ENERGY PREDICTED BY IDOCK:   -3.59 KCAL/MOL
REMARK 923 INTER-LIGAND FREE ENERGY PREDICTED BY IDOCK:   -3.63 KCAL/MOL
REMARK 924 INTRA-LIGAND FREE ENERGY PREDICTED BY IDOCK:    0.05 KCAL/MOL
REMARK 927      BINDING AFFINITY PREDICTED BY RF-SCORE:    0.00 PKD
ROOT
HETATM    1  C   UNL     1      -8.615  14.523  66.740  1.00  0.00    -0.163 C  
HETATM    2  C   UNL     1     -10.048  14.621  67.320  1.00  0.00    -0.236 C  
HETATM    3  C   UNL     1     -10.925  15.280  66.235  1.00  0.00    -0.300 C  
ENDROOT
BRANCH   2   4
HETATM    4  C   UNL     1     -10.028  15.470  68.628  1.00  0.00    -0.208 C  
HETATM    5  O   UNL     1      -9.209  14.882  69.647  1.00  0.00    -0.434 OA 
HETATM    6  H   UNL     1      -9.197  15.399  70.444  1.00  0.00     0.000 HD 
BRANCH   4   7
HETATM    7  C   UNL     1      -9.571  16.936  68.430  1.00  0.00    -0.255 C  
HETATM    8  O   UNL     1     -10.309  17.851  68.072  1.00  0.00    -0.352 OA 
HETATM    9  N   UNL     1      -8.243  17.158  68.740  1.00  0.00    -0.258 N  
HETATM   10  H   UNL     1      -7.665  16.386  69.070  1.00  0.00     0.000 HD 
BRANCH   9  11
HETATM   11  C   UNL     1      -7.666  18.479  68.601  1.00  0.00    -0.308 C  
BRANCH  11  12
HETATM   12  C   UNL     1      -7.442  18.897  67.152  1.00  0.00    -0.238 C  
BRANCH  12  13
HETATM   13  C   UNL     1      -5.982  18.912  66.722  1.00  0.00    -0.161 C  
HETATM   14  O   UNL     1      -5.623  20.231  66.314  1.00  0.00    -0.167 OA 
HETATM   15  H   UNL     1      -4.712  20.240  66.047  1.00  0.00     0.000 HD 
ENDBRANCH  12  13
ENDBRANCH  11  12
ENDBRANCH   9  11
ENDBRANCH   4   7
ENDBRANCH   2   4
BRANCH   2  16
HETATM   16  C   UNL     1     -10.526  13.179  67.636  1.00  0.00    -0.221 C  
HETATM   17  O   UNL     1     -11.825  13.166  68.216  1.00  0.00    -0.333 OA 
HETATM   18  H   UNL     1     -12.119  12.283  68.410  1.00  0.00     0.000 HD 
ENDBRANCH   2  16
TORSDOF 6
ENDMDL
MODEL      267
REMARK 921   NORMALIZED FREE ENERGY PREDICTED BY IDOCK:   -2.25 KCAL/MOL
REMARK 922        TOTAL FREE ENERGY PREDICTED BY IDOCK:   -3.56 KCAL/MOL
REMARK 923 INTER-LIGAND FREE ENERGY PREDICTED BY IDOCK:   -3.26 KCAL/MOL
REMARK 924 INTRA-LIGAND FREE ENERGY PREDICTED BY IDOCK:   -0.30 KCAL/MOL
REMARK 927      BINDING AFFINITY PREDICTED BY RF-SCORE:    0.00 PKD
ROOT
HETATM    1  C   UNL     1      -8.344   8.783  70.926  1.00  0.00    -0.196 C  
HETATM    2  C   UNL     1      -8.814   9.307  69.546  1.00  0.00    -0.151 C  
HETATM    3  C   UNL     1      -8.229   8.354  68.483  1.00  0.00    -0.124 C  
ENDROOT
BRANCH   2   4
HETATM    4  C   UNL     1      -8.309  10.768  69.340  1.00  0.00    -0.004 C  
HETATM    5  O   UNL     1      -7.075  11.020  70.026  1.00  0.00    -0.334 OA 
HETATM    6  H   UNL     1      -6.767  11.910  69.901  1.00  0.00     0.000 HD 
BRANCH   4   7
HETATM    7  C   UNL     1      -8.127  11.177  67.858  1.00  0.00    -0.119 C  
HETATM    8  O   UNL     1      -7.050  11.184  67.267  1.00  0.00    -0.095 OA 
HETATM    9  N   UNL     1      -9.306  11.498  67.214  1.00  0.00    -0.165 N  
HETATM   10  H   UNL     1     -10.189  11.447  67.721  1.00  0.00     0.000 HD 
BRANCH   9  11
HETATM   11  C   UNL     1      -9.298  11.905  65.824  1.00  0.00    -0.155 C  
BRANCH  11  12
HETATM   12  C   UNL     1     -10.292  11.137  64.959  1.00  0.00    -0.362 C  
BRANCH  12  13
HETATM   13  C   UNL     1     -10.509  11.734  63.575  1.00  0.00    -0.449 C  
HETATM   14  O   UNL     1      -9.468  12.666  63.294  1.00  0.00    -0.452 OA 
HETATM   15  H   UNL     1      -9.603  13.038  62.430  1.00  0.00     0.000 HD 
ENDBRANCH  12  13
ENDBRANCH  11  12
ENDBRANCH   9  11
ENDBRANCH   4   7
ENDBRANCH   2   4
BRANCH   2  16
HETATM   16  C   UNL     1     -10.366   9.281  69.538  1.00  0.00    -0.216 C  
HETATM   17  O   UNL     1     -10.882   8.810  68.298  1.00  0.00    -0.437 OA 
HETATM   18  H   UNL     1     -11.832   8.794  68.292  1.00  0.00     0.000 HD 
ENDBRANCH   2  16
TORSDOF 6
ENDMDL
MODEL      268
REMARK 921   NORMALIZED FREE ENERGY PREDICTED BY IDOCK:   -2.24 KCAL/MOL
REMARK 922        TOTAL FREE ENERGY PREDICTED BY IDOCK:   -3.55 KCAL/MOL
REMARK 923 INTER-LIGAND FREE ENERGY PREDICTED BY IDOCK:   -2.76 KCAL/MOL
REMARK 924 INTRA-LIGAND FREE ENERGY PREDICTED BY IDOCK:   -0.79 KCAL/MOL
REMARK 927      BINDING AFFINITY PREDICTED BY RF-SCORE:    0.00 PKD
ROOT
HETATM    1  C   UNL     1      -8.391   5.614  65.134  1.00  0.00    -0.146 C  
HETATM    2  C   UNL     1      -8.905   4.153  65.155  1.00  0.00    -0.130 C  
HETATM    3  C   UNL     1      -9.671   3.930  63.835  1.00  0.00    -0.164 C  
ENDROOT
BRANCH   2   4
HETATM    4  C   UNL     1      -9.830   3.940  66.392  1.00  0.00    -0.108 C  
HETATM    5  O   UNL     1      -9.692   2.629  66.957  1.00  0.00    -0.402 OA 
HETATM    6  H   UNL     1     -10.256   2.499  67.710  1.00  0.00     0.000 HD 
BRANCH   4   7
HETATM    7  C   UNL     1      -9.629   4.975  67.526  1.00  0.00    -0.145 C  
HETATM    8  O   UNL     1      -8.590   5.107  68.169  1.00  0.00    -0.103 OA 
HETATM    9  N   UNL     1     -10.717   5.798  67.737  1.00  0.00    -0.246 N  
HETATM   10  H   UNL     1     -11.552   5.690  67.162  1.00  0.00     0.000 HD 
BRANCH   9  11
HETATM   11  C   UNL     1     -10.682   6.815  68.767  1.00  0.00    -0.239 C  
BRANCH  11  12
HETATM   12  C   UNL     1     -11.576   6.502  69.963  1.00  0.00    -0.455 C  
BRANCH  12  13
HETATM   13  C   UNL     1     -10.837   5.936  71.167  1.00  0.00    -0.269 C  
HETATM   14  O   UNL     1     -10.118   4.768  70.775  1.00  0.00    -0.225 OA 
HETATM   15  H   UNL     1      -9.657   4.416  71.527  1.00  0.00     0.000 HD 
ENDBRANCH  12  13
ENDBRANCH  11  12
ENDBRANCH   9  11
ENDBRANCH   4   7
ENDBRANCH   2   4
BRANCH   2  16
HETATM   16  C   UNL     1      -7.668   3.222  65.257  1.00  0.00    -0.081 C  
HETATM   17  O   UNL     1      -6.844   3.552  66.369  1.00  0.00    -0.051 OA 
HETATM   18  H   UNL     1      -6.086   2.982  66.431  1.00  0.00     0.000 HD 
ENDBRANCH   2  16
TORSDOF 6
ENDMDL
MODEL      269
REMARK 921   NORMALIZED FREE ENERGY PREDICTED BY IDOCK:   -2.23 KCAL/MOL
REMARK 922        TOTAL FREE ENERGY PREDICTED BY IDOCK:   -3.54 KCAL/MOL
REMARK 923 INTER-LIGAND FREE ENERGY PREDICTED BY IDOCK:   -3.30 KCAL/MOL
REMARK 924 INTRA-LIGAND FREE ENERGY PREDICTED BY IDOCK:   -0.24 KCAL/MOL
REMARK 927      BINDING AFFINITY PREDICTED BY RF-SCORE:    0.00 PKD
ROOT
HETATM    1  C   UNL     1      -7.143   9.606  67.563  1.00  0.00    -0.088 C  
HETATM    2  C   UNL     1      -8.472  10.212  68.079  1.00  0.00    -0.118 C  
HETATM    3  C   UNL     1      -8.606   9.798  69.559  1.00  0.00    -0.186 C  
ENDROOT
BRANCH   2   4
HETATM    4  C   UNL     1      -9.662   9.670  67.227  1.00  0.00    -0.166 C  
HETATM    5  O   UNL     1     -10.453   8.713  67.943  1.00  0.00    -0.245 OA 
HETATM    6  H   UNL     1     -11.177   8.383  67.426  1.00  0.00     0.000 HD 
BRANCH   4   7
HETATM    7  C   UNL     1     -10.609  10.768  66.685  1.00  0.00    -0.232 C  
HETATM    8  O   UNL     1     -11.542  11.255  67.319  1.00  0.00    -0.527 OA 
HETATM    9  N   UNL     1     -10.292  11.208  65.415  1.00  0.00    -0.264 N  
HETATM   10  H   UNL     1      -9.489  10.811  64.928  1.00  0.00     0.000 HD 
BRANCH   9  11
HETATM   11  C   UNL     1     -11.090  12.230  64.770  1.00  0.00    -0.311 C  
BRANCH  11  12
HETATM   12  C   UNL     1     -10.564  12.637  63.397  1.00  0.00    -0.169 C  
BRANCH  12  13
HETATM   13  C   UNL     1      -9.468  11.732  62.852  1.00  0.00     0.005 C  
HETATM   14  O   UNL     1     -10.012  10.442  62.581  1.00  0.00    -0.679 OA 
HETATM   15  H   UNL     1      -9.329   9.878  62.240  1.00  0.00     0.000 HD 
ENDBRANCH  12  13
ENDBRANCH  11  12
ENDBRANCH   9  11
ENDBRANCH   4   7
ENDBRANCH   2   4
BRANCH   2  16
HETATM   16  C   UNL     1      -8.376  11.753  67.927  1.00  0.00    -0.149 C  
HETATM   17  O   UNL     1      -7.275  12.139  67.111  1.00  0.00    -0.167 OA 
HETATM   18  H   UNL     1      -7.216  13.083  67.019  1.00  0.00     0.000 HD 
ENDBRANCH   2  16
TORSDOF 6
ENDMDL
MODEL      270
REMARK 921   NORMALIZED FREE ENERGY PREDICTED BY IDOCK:   -2.22 KCAL/MOL
REMARK 922        TOTAL FREE ENERGY PREDICTED BY IDOCK:   -3.52 KCAL/MOL
REMARK 923 INTER-LIGAND FREE ENERGY PREDICTED BY IDOCK:   -3.40 KCAL/MOL
REMARK 924 INTRA-LIGAND FREE ENERGY PREDICTED BY IDOCK:   -0.12 KCAL/MOL
REMARK 927      BINDING AFFINITY PREDICTED BY RF-SCORE:    0.00 PKD
ROOT
HETATM    1  C   UNL     1     -10.949   5.826  69.834  1.00  0.00    -0.389 C  
HETATM    2  C   UNL     1     -10.714   6.874  70.950  1.00  0.00    -0.258 C  
HETATM    3  C   UNL     1     -11.760   7.989  70.743  1.00  0.00    -0.215 C  
ENDROOT
BRANCH   2   4
HETATM    4  C   UNL     1      -9.261   7.432  70.848  1.00  0.00    -0.154 C  
HETATM    5  O   UNL     1      -8.272   6.398  70.940  1.00  0.00    -0.121 OA 
HETATM    6  H   UNL     1      -7.387   6.737  70.879  1.00  0.00     0.000 HD 
BRANCH   4   7
HETATM    7  C   UNL     1      -8.981   8.252  69.565  1.00  0.00    -0.150 C  
HETATM    8  O   UNL     1      -8.773   7.761  68.458  1.00  0.00    -0.128 OA 
HETATM    9  N   UNL     1      -9.030   9.620  69.750  1.00  0.00    -0.195 N  
HETATM   10  H   UNL     1      -9.242   9.999  70.673  1.00  0.00     0.000 HD 
BRANCH   9  11
HETATM   11  C   UNL     1      -8.785  10.521  68.643  1.00  0.00    -0.143 C  
BRANCH  11  12
HETATM   12  C   UNL     1      -9.873  11.573  68.461  1.00  0.00    -0.198 C  
BRANCH  12  13
HETATM   13  C   UNL     1     -11.256  11.002  68.178  1.00  0.00    -0.302 C  
HETATM   14  O   UNL     1     -12.242  11.999  68.440  1.00  0.00    -0.373 OA 
HETATM   15  H   UNL     1     -13.104  11.643  68.263  1.00  0.00     0.000 HD 
ENDBRANCH  12  13
ENDBRANCH  11  12
ENDBRANCH   9  11
ENDBRANCH   4   7
ENDBRANCH   2   4
BRANCH   2  16
HETATM   16  C   UNL     1     -10.909   6.159  72.314  1.00  0.00    -0.244 C  
HETATM   17  O   UNL     1     -11.535   7.006  73.271  1.00  0.00    -0.526 OA 
HETATM   18  H   UNL     1     -11.654   6.569  74.107  1.00  0.00     0.000 HD 
ENDBRANCH   2  16
TORSDOF 6
ENDMDL
MODEL      271
REMARK 921   NORMALIZED FREE ENERGY PREDICTED BY IDOCK:   -2.20 KCAL/MOL
REMARK 922        TOTAL FREE ENERGY PREDICTED BY IDOCK:   -3.49 KCAL/MOL
REMARK 923 INTER-LIGAND FREE ENERGY PREDICTED BY IDOCK:   -3.88 KCAL/MOL
REMARK 924 INTRA-LIGAND FREE ENERGY PREDICTED BY IDOCK:    0.39 KCAL/MOL
REMARK 927      BINDING AFFINITY PREDICTED BY RF-SCORE:    0.00 PKD
ROOT
HETATM    1  C   UNL     1      -9.621  19.324  67.138  1.00  0.00    -0.397 C  
HETATM    2  C   UNL     1      -9.252  18.555  68.430  1.00  0.00    -0.347 C  
HETATM    3  C   UNL     1      -9.174  19.599  69.564  1.00  0.00     0.193 C  
ENDROOT
BRANCH   2   4
HETATM    4  C   UNL     1      -7.888  17.824  68.235  1.00  0.00    -0.279 C  
HETATM    5  O   UNL     1      -7.429  17.196  69.440  1.00  0.00    -0.135 OA 
HETATM    6  H   UNL     1      -6.599  16.751  69.321  1.00  0.00     0.000 HD 
BRANCH   4   7
HETATM    7  C   UNL     1      -7.889  16.761  67.109  1.00  0.00    -0.177 C  
HETATM    8  O   UNL     1      -6.997  16.634  66.273  1.00  0.00    -0.137 OA 
HETATM    9  N   UNL     1      -8.975  15.908  67.142  1.00  0.00    -0.200 N  
HETATM   10  H   UNL     1      -9.681  16.015  67.870  1.00  0.00     0.000 HD 
BRANCH   9  11
HETATM   11  C   UNL     1      -9.119  14.863  66.150  1.00  0.00    -0.167 C  
BRANCH  11  12
HETATM   12  C   UNL     1     -10.452  14.906  65.409  1.00  0.00    -0.406 C  
BRANCH  12  13
HETATM   13  C   UNL     1     -10.831  16.283  64.882  1.00  0.00    -0.296 C  
HETATM   14  O   UNL     1     -11.683  16.136  63.747  1.00  0.00    -1.404 OA 
HETATM   15  H   UNL     1     -11.920  16.995  63.419  1.00  0.00     0.000 HD 
ENDBRANCH  12  13
ENDBRANCH  11  12
ENDBRANCH   9  11
ENDBRANCH   4   7
ENDBRANCH   2   4
BRANCH   2  16
HETATM   16  C   UNL     1     -10.373  17.515  68.694  1.00  0.00    -0.369 C  
HETATM   17  O   UNL     1     -11.429  17.620  67.745  1.00  0.00     0.246 OA 
HETATM   18  H   UNL     1     -12.116  16.983  67.907  1.00  0.00     0.000 HD 
ENDBRANCH   2  16
TORSDOF 6
ENDMDL
MODEL      272
REMARK 921   NORMALIZED FREE ENERGY PREDICTED BY IDOCK:   -2.19 KCAL/MOL
REMARK 922        TOTAL FREE ENERGY PREDICTED BY IDOCK:   -3.48 KCAL/MOL
REMARK 923 INTER-LIGAND FREE ENERGY PREDICTED BY IDOCK:   -3.37 KCAL/MOL
REMARK 924 INTRA-LIGAND FREE ENERGY PREDICTED BY IDOCK:   -0.11 KCAL/MOL
REMARK 927      BINDING AFFINITY PREDICTED BY RF-SCORE:    0.00 PKD
ROOT
HETATM    1  C   UNL     1      -7.987   7.256  66.709  1.00  0.00    -0.118 C  
HETATM    2  C   UNL     1      -9.210   6.538  67.332  1.00  0.00    -0.122 C  
HETATM    3  C   UNL     1      -9.403   5.223  66.547  1.00  0.00    -0.146 C  
ENDROOT
BRANCH   2   4
HETATM    4  C   UNL     1     -10.468   7.454  67.226  1.00  0.00    -0.315 C  
HETATM    5  O   UNL     1     -11.279   7.405  68.407  1.00  0.00    -0.434 OA 
HETATM    6  H   UNL     1     -12.045   7.962  68.342  1.00  0.00     0.000 HD 
BRANCH   4   7
HETATM    7  C   UNL     1     -10.151   8.938  66.921  1.00  0.00    -0.273 C  
HETATM    8  O   UNL     1     -10.050   9.409  65.791  1.00  0.00    -0.288 OA 
HETATM    9  N   UNL     1     -10.036   9.731  68.046  1.00  0.00    -0.152 N  
HETATM   10  H   UNL     1     -10.162   9.320  68.971  1.00  0.00     0.000 HD 
BRANCH   9  11
HETATM   11  C   UNL     1      -9.737  11.143  67.924  1.00  0.00    -0.174 C  
BRANCH  11  12
HETATM   12  C   UNL     1     -10.900  12.049  68.315  1.00  0.00    -0.263 C  
BRANCH  12  13
HETATM   13  C   UNL     1     -11.787  11.488  69.419  1.00  0.00    -0.350 C  
HETATM   14  O   UNL     1     -11.828  12.411  70.506  1.00  0.00    -0.520 OA 
HETATM   15  H   UNL     1     -12.381  12.061  71.194  1.00  0.00     0.000 HD 
ENDBRANCH  12  13
ENDBRANCH  11  12
ENDBRANCH   9  11
ENDBRANCH   4   7
ENDBRANCH   2   4
BRANCH   2  16
HETATM   16  C   UNL     1      -8.884   6.263  68.825  1.00  0.00    -0.123 C  
HETATM   17  O   UNL     1      -8.807   4.870  69.104  1.00  0.00    -0.090 OA 
HETATM   18  H   UNL     1      -8.607   4.701  70.017  1.00  0.00     0.000 HD 
ENDBRANCH   2  16
TORSDOF 6
ENDMDL
MODEL      273
REMARK 921   NORMALIZED FREE ENERGY PREDICTED BY IDOCK:   -2.18 KCAL/MOL
REMARK 922        TOTAL FREE ENERGY PREDICTED BY IDOCK:   -3.46 KCAL/MOL
REMARK 923 INTER-LIGAND FREE ENERGY PREDICTED BY IDOCK:   -2.95 KCAL/MOL
REMARK 924 INTRA-LIGAND FREE ENERGY PREDICTED BY IDOCK:   -0.51 KCAL/MOL
REMARK 927      BINDING AFFINITY PREDICTED BY RF-SCORE:    0.00 PKD
ROOT
HETATM    1  C   UNL     1      -9.479   7.497  71.311  1.00  0.00    -0.158 C  
HETATM    2  C   UNL     1     -10.801   7.329  70.522  1.00  0.00    -0.262 C  
HETATM    3  C   UNL     1     -10.692   5.999  69.747  1.00  0.00    -0.399 C  
ENDROOT
BRANCH   2   4
HETATM    4  C   UNL     1     -10.994   8.537  69.555  1.00  0.00    -0.046 C  
HETATM    5  O   UNL     1     -11.936   9.493  70.058  1.00  0.00    -0.465 OA 
HETATM    6  H   UNL     1     -12.053  10.229  69.470  1.00  0.00     0.000 HD 
BRANCH   4   7
HETATM    7  C   UNL     1      -9.686   9.288  69.204  1.00  0.00    -0.164 C  
HETATM    8  O   UNL     1      -9.276  10.282  69.799  1.00  0.00    -0.180 OA 
HETATM    9  N   UNL     1      -8.967   8.715  68.175  1.00  0.00    -0.141 N  
HETATM   10  H   UNL     1      -9.314   7.868  67.725  1.00  0.00     0.000 HD 
BRANCH   9  11
HETATM   11  C   UNL     1      -7.722   9.306  67.728  1.00  0.00    -0.088 C  
BRANCH  11  12
HETATM   12  C   UNL     1      -6.488   8.700  68.389  1.00  0.00    -0.056 C  
BRANCH  12  13
HETATM   13  C   UNL     1      -6.147   7.296  67.910  1.00  0.00    -0.035 C  
HETATM   14  O   UNL     1      -7.058   6.912  66.882  1.00  0.00    -0.071 OA 
HETATM   15  H   UNL     1      -6.845   6.037  66.583  1.00  0.00     0.000 HD 
ENDBRANCH  12  13
ENDBRANCH  11  12
ENDBRANCH   9  11
ENDBRANCH   4   7
ENDBRANCH   2   4
BRANCH   2  16
HETATM   16  C   UNL     1     -11.961   7.290  71.553  1.00  0.00    -0.316 C  
HETATM   17  O   UNL     1     -13.224   7.106  70.924  1.00  0.00    -0.573 OA 
HETATM   18  H   UNL     1     -13.934   7.082  71.555  1.00  0.00     0.000 HD 
ENDBRANCH   2  16
TORSDOF 6
ENDMDL
MODEL      274
REMARK 921   NORMALIZED FREE ENERGY PREDICTED BY IDOCK:   -2.16 KCAL/MOL
REMARK 922        TOTAL FREE ENERGY PREDICTED BY IDOCK:   -3.44 KCAL/MOL
REMARK 923 INTER-LIGAND FREE ENERGY PREDICTED BY IDOCK:   -3.42 KCAL/MOL
REMARK 924 INTRA-LIGAND FREE ENERGY PREDICTED BY IDOCK:   -0.02 KCAL/MOL
REMARK 927      BINDING AFFINITY PREDICTED BY RF-SCORE:    0.00 PKD
ROOT
HETATM    1  C   UNL     1      -8.197  10.931  66.122  1.00  0.00    -0.168 C  
HETATM    2  C   UNL     1      -9.279  10.294  65.215  1.00  0.00    -0.244 C  
HETATM    3  C   UNL     1      -9.773  11.403  64.263  1.00  0.00    -0.263 C  
ENDROOT
BRANCH   2   4
HETATM    4  C   UNL     1     -10.442   9.740  66.095  1.00  0.00    -0.058 C  
HETATM    5  O   UNL     1     -10.151   8.440  66.627  1.00  0.00    -0.266 OA 
HETATM    6  H   UNL     1     -10.859   8.103  67.162  1.00  0.00     0.000 HD 
BRANCH   4   7
HETATM    7  C   UNL     1     -10.847  10.661  67.271  1.00  0.00    -0.287 C  
HETATM    8  O   UNL     1     -10.583  10.438  68.451  1.00  0.00    -0.183 OA 
HETATM    9  N   UNL     1     -11.504  11.812  66.884  1.00  0.00    -0.322 N  
HETATM   10  H   UNL     1     -11.676  11.988  65.894  1.00  0.00     0.000 HD 
BRANCH   9  11
HETATM   11  C   UNL     1     -11.951  12.773  67.871  1.00  0.00    -0.266 C  
BRANCH  11  12
HETATM   12  C   UNL     1     -11.600  14.215  67.521  1.00  0.00    -0.396 C  
BRANCH  12  13
HETATM   13  C   UNL     1     -10.914  14.983  68.642  1.00  0.00    -0.257 C  
HETATM   14  O   UNL     1     -11.011  14.238  69.854  1.00  0.00    -0.438 OA 
HETATM   15  H   UNL     1     -10.583  14.717  70.553  1.00  0.00     0.000 HD 
ENDBRANCH  12  13
ENDBRANCH  11  12
ENDBRANCH   9  11
ENDBRANCH   4   7
ENDBRANCH   2   4
BRANCH   2  16
HETATM   16  C   UNL     1      -8.611   9.131  64.433  1.00  0.00    -0.181 C  
HETATM   17  O   UNL     1      -7.224   9.018  64.733  1.00  0.00    -0.093 OA 
HETATM   18  H   UNL     1      -6.815   8.306  64.254  1.00  0.00     0.000 HD 
ENDBRANCH   2  16
TORSDOF 6
ENDMDL
MODEL      275
REMARK 921   NORMALIZED FREE ENERGY PREDICTED BY IDOCK:   -2.15 KCAL/MOL
REMARK 922        TOTAL FREE ENERGY PREDICTED BY IDOCK:   -3.43 KCAL/MOL
REMARK 923 INTER-LIGAND FREE ENERGY PREDICTED BY IDOCK:   -3.26 KCAL/MOL
REMARK 924 INTRA-LIGAND FREE ENERGY PREDICTED BY IDOCK:   -0.17 KCAL/MOL
REMARK 927      BINDING AFFINITY PREDICTED BY RF-SCORE:    0.00 PKD
ROOT
HETATM    1  C   UNL     1      -8.484   9.848  67.712  1.00  0.00    -0.118 C  
HETATM    2  C   UNL     1     -10.011  10.030  67.894  1.00  0.00    -0.183 C  
HETATM    3  C   UNL     1     -10.207  11.202  68.878  1.00  0.00    -0.209 C  
ENDROOT
BRANCH   2   4
HETATM    4  C   UNL     1     -10.634   8.712  68.449  1.00  0.00    -0.120 C  
HETATM    5  O   UNL     1     -11.146   7.870  67.407  1.00  0.00    -0.508 OA 
HETATM    6  H   UNL     1     -11.525   7.068  67.744  1.00  0.00     0.000 HD 
BRANCH   4   7
HETATM    7  C   UNL     1      -9.672   7.868  69.320  1.00  0.00    -0.159 C  
HETATM    8  O   UNL     1      -8.816   7.108  68.872  1.00  0.00    -0.131 OA 
HETATM    9  N   UNL     1      -9.816   8.073  70.678  1.00  0.00    -0.184 N  
HETATM   10  H   UNL     1     -10.511   8.738  71.019  1.00  0.00     0.000 HD 
BRANCH   9  11
HETATM   11  C   UNL     1      -8.989   7.351  71.623  1.00  0.00    -0.123 C  
BRANCH  11  12
HETATM   12  C   UNL     1      -9.782   6.442  72.557  1.00  0.00    -0.168 C  
BRANCH  12  13
HETATM   13  C   UNL     1     -10.524   7.176  73.665  1.00  0.00    -0.370 C  
HETATM   14  O   UNL     1     -11.601   7.922  73.099  1.00  0.00    -0.587 OA 
HETATM   15  H   UNL     1     -12.064   8.379  73.790  1.00  0.00     0.000 HD 
ENDBRANCH  12  13
ENDBRANCH  11  12
ENDBRANCH   9  11
ENDBRANCH   4   7
ENDBRANCH   2   4
BRANCH   2  16
HETATM   16  C   UNL     1     -10.615  10.352  66.501  1.00  0.00    -0.151 C  
HETATM   17  O   UNL     1     -10.703  11.754  66.273  1.00  0.00    -0.250 OA 
HETATM   18  H   UNL     1     -11.073  11.951  65.420  1.00  0.00     0.000 HD 
ENDBRANCH   2  16
TORSDOF 6
ENDMDL
MODEL      276
REMARK 921   NORMALIZED FREE ENERGY PREDICTED BY IDOCK:   -2.15 KCAL/MOL
REMARK 922        TOTAL FREE ENERGY PREDICTED BY IDOCK:   -3.42 KCAL/MOL
REMARK 923 INTER-LIGAND FREE ENERGY PREDICTED BY IDOCK:   -3.22 KCAL/MOL
REMARK 924 INTRA-LIGAND FREE ENERGY PREDICTED BY IDOCK:   -0.20 KCAL/MOL
REMARK 927      BINDING AFFINITY PREDICTED BY RF-SCORE:    0.00 PKD
ROOT
HETATM    1  C   UNL     1     -10.246   4.701  71.753  1.00  0.00    -0.242 C  
HETATM    2  C   UNL     1      -9.185   5.743  71.317  1.00  0.00    -0.161 C  
HETATM    3  C   UNL     1      -7.839   5.288  71.918  1.00  0.00    -0.111 C  
ENDROOT
BRANCH   2   4
HETATM    4  C   UNL     1      -9.592   7.156  71.838  1.00  0.00    -0.149 C  
HETATM    5  O   UNL     1      -8.469   8.040  71.951  1.00  0.00    -0.115 OA 
HETATM    6  H   UNL     1      -8.716   8.900  72.268  1.00  0.00     0.000 HD 
BRANCH   4   7
HETATM    7  C   UNL     1     -10.676   7.862  70.987  1.00  0.00    -0.220 C  
HETATM    8  O   UNL     1     -11.850   7.504  70.921  1.00  0.00    -0.292 OA 
HETATM    9  N   UNL     1     -10.226   8.987  70.325  1.00  0.00    -0.190 N  
HETATM   10  H   UNL     1      -9.255   9.281  70.428  1.00  0.00     0.000 HD 
BRANCH   9  11
HETATM   11  C   UNL     1     -11.122   9.753  69.484  1.00  0.00    -0.192 C  
BRANCH  11  12
HETATM   12  C   UNL     1     -11.292  11.201  69.934  1.00  0.00    -0.348 C  
BRANCH  12  13
HETATM   13  C   UNL     1     -11.688  12.161  68.821  1.00  0.00    -0.321 C  
HETATM   14  O   UNL     1     -12.212  11.419  67.721  1.00  0.00    -0.537 OA 
HETATM   15  H   UNL     1     -12.460  12.018  67.027  1.00  0.00     0.000 HD 
ENDBRANCH  12  13
ENDBRANCH  11  12
ENDBRANCH   9  11
ENDBRANCH   4   7
ENDBRANCH   2   4
BRANCH   2  16
HETATM   16  C   UNL     1      -9.141   5.747  69.766  1.00  0.00    -0.136 C  
HETATM   17  O   UNL     1     -10.110   4.868  69.205  1.00  0.00    -0.209 OA 
HETATM   18  H   UNL     1     -10.083   4.870  68.255  1.00  0.00     0.000 HD 
ENDBRANCH   2  16
TORSDOF 6
ENDMDL
MODEL      277
REMARK 921   NORMALIZED FREE ENERGY PREDICTED BY IDOCK:   -2.13 KCAL/MOL
REMARK 922        TOTAL FREE ENERGY PREDICTED BY IDOCK:   -3.40 KCAL/MOL
REMARK 923 INTER-LIGAND FREE ENERGY PREDICTED BY IDOCK:   -3.12 KCAL/MOL
REMARK 924 INTRA-LIGAND FREE ENERGY PREDICTED BY IDOCK:   -0.28 KCAL/MOL
REMARK 927      BINDING AFFINITY PREDICTED BY RF-SCORE:    0.00 PKD
ROOT
HETATM    1  C   UNL     1     -11.534   7.029  70.251  1.00  0.00    -0.333 C  
HETATM    2  C   UNL     1     -11.083   8.192  71.169  1.00  0.00    -0.279 C  
HETATM    3  C   UNL     1     -11.353   9.500  70.396  1.00  0.00    -0.318 C  
ENDROOT
BRANCH   2   4
HETATM    4  C   UNL     1      -9.570   8.036  71.511  1.00  0.00    -0.163 C  
HETATM    5  O   UNL     1      -8.880   9.293  71.522  1.00  0.00    -0.317 OA 
HETATM    6  H   UNL     1      -7.959   9.198  71.730  1.00  0.00     0.000 HD 
BRANCH   4   7
HETATM    7  C   UNL     1      -9.291   7.322  72.856  1.00  0.00    -0.154 C  
HETATM    8  O   UNL     1      -9.212   7.893  73.942  1.00  0.00    -0.267 OA 
HETATM    9  N   UNL     1      -9.180   5.950  72.753  1.00  0.00    -0.142 N  
HETATM   10  H   UNL     1      -9.286   5.500  71.844  1.00  0.00     0.000 HD 
BRANCH   9  11
HETATM   11  C   UNL     1      -8.914   5.142  73.926  1.00  0.00    -0.116 C  
BRANCH  11  12
HETATM   12  C   UNL     1      -7.885   4.042  73.688  1.00  0.00    -0.084 C  
BRANCH  12  13
HETATM   13  C   UNL     1      -6.458   4.429  74.051  1.00  0.00    -0.052 C  
HETATM   14  O   UNL     1      -6.392   5.836  74.272  1.00  0.00    -0.067 OA 
HETATM   15  H   UNL     1      -5.502   6.078  74.499  1.00  0.00     0.000 HD 
ENDBRANCH  12  13
ENDBRANCH  11  12
ENDBRANCH   9  11
ENDBRANCH   4   7
ENDBRANCH   2   4
BRANCH   2  16
HETATM   16  C   UNL     1     -11.927   8.119  72.469  1.00  0.00    -0.350 C  
HETATM   17  O   UNL     1     -13.320   8.239  72.205  1.00  0.00    -0.480 OA 
HETATM   18  H   UNL     1     -13.837   8.195  73.002  1.00  0.00     0.000 HD 
ENDBRANCH   2  16
TORSDOF 6
ENDMDL
MODEL      278
REMARK 921   NORMALIZED FREE ENERGY PREDICTED BY IDOCK:   -2.09 KCAL/MOL
REMARK 922        TOTAL FREE ENERGY PREDICTED BY IDOCK:   -3.34 KCAL/MOL
REMARK 923 INTER-LIGAND FREE ENERGY PREDICTED BY IDOCK:   -2.96 KCAL/MOL
REMARK 924 INTRA-LIGAND FREE ENERGY PREDICTED BY IDOCK:   -0.38 KCAL/MOL
REMARK 927      BINDING AFFINITY PREDICTED BY RF-SCORE:    0.00 PKD
ROOT
HETATM    1  C   UNL     1     -11.820   6.546  71.793  1.00  0.00    -0.384 C  
HETATM    2  C   UNL     1     -10.693   6.861  70.779  1.00  0.00    -0.262 C  
HETATM    3  C   UNL     1      -9.366   6.428  71.437  1.00  0.00    -0.157 C  
ENDROOT
BRANCH   2   4
HETATM    4  C   UNL     1     -10.694   8.386  70.450  1.00  0.00    -0.231 C  
HETATM    5  O   UNL     1     -11.307   9.167  71.485  1.00  0.00    -0.314 OA 
HETATM    6  H   UNL     1     -11.308  10.095  71.285  1.00  0.00     0.000 HD 
BRANCH   4   7
HETATM    7  C   UNL     1      -9.292   8.978  70.168  1.00  0.00    -0.192 C  
HETATM    8  O   UNL     1      -8.551   9.449  71.028  1.00  0.00    -0.274 OA 
HETATM    9  N   UNL     1      -8.901   8.894  68.846  1.00  0.00    -0.136 N  
HETATM   10  H   UNL     1      -9.522   8.464  68.161  1.00  0.00     0.000 HD 
BRANCH   9  11
HETATM   11  C   UNL     1      -7.615   9.410  68.425  1.00  0.00    -0.082 C  
BRANCH  11  12
HETATM   12  C   UNL     1      -7.709  10.720  67.650  1.00  0.00    -0.104 C  
BRANCH  12  13
HETATM   13  C   UNL     1      -7.047  11.905  68.340  1.00  0.00    -0.086 C  
HETATM   14  O   UNL     1      -6.617  11.514  69.642  1.00  0.00    -0.120 OA 
HETATM   15  H   UNL     1      -6.204  12.253  70.072  1.00  0.00     0.000 HD 
ENDBRANCH  12  13
ENDBRANCH  11  12
ENDBRANCH   9  11
ENDBRANCH   4   7
ENDBRANCH   2   4
BRANCH   2  16
HETATM   16  C   UNL     1     -10.979   6.045  69.490  1.00  0.00    -0.397 C  
HETATM   17  O   UNL     1     -10.172   4.876  69.413  1.00  0.00    -0.223 OA 
HETATM   18  H   UNL     1     -10.347   4.376  68.623  1.00  0.00     0.000 HD 
ENDBRANCH   2  16
TORSDOF 6
ENDMDL
MODEL      279
REMARK 921   NORMALIZED FREE ENERGY PREDICTED BY IDOCK:   -2.08 KCAL/MOL
REMARK 922        TOTAL FREE ENERGY PREDICTED BY IDOCK:   -3.34 KCAL/MOL
REMARK 923 INTER-LIGAND FREE ENERGY PREDICTED BY IDOCK:   -2.90 KCAL/MOL
REMARK 924 INTRA-LIGAND FREE ENERGY PREDICTED BY IDOCK:   -0.43 KCAL/MOL
REMARK 927      BINDING AFFINITY PREDICTED BY RF-SCORE:    0.00 PKD
ROOT
HETATM    1  C   UNL     1      -9.093   6.408  71.033  1.00  0.00    -0.154 C  
HETATM    2  C   UNL     1     -10.436   7.164  70.881  1.00  0.00    -0.225 C  
HETATM    3  C   UNL     1     -11.368   6.258  70.050  1.00  0.00    -0.486 C  
ENDROOT
BRANCH   2   4
HETATM    4  C   UNL     1     -10.192   8.531  70.171  1.00  0.00    -0.195 C  
HETATM    5  O   UNL     1     -10.523   9.647  71.008  1.00  0.00    -0.304 OA 
HETATM    6  H   UNL     1     -10.375  10.480  70.576  1.00  0.00     0.000 HD 
BRANCH   4   7
HETATM    7  C   UNL     1      -8.746   8.732  69.654  1.00  0.00    -0.136 C  
HETATM    8  O   UNL     1      -8.306   8.242  68.616  1.00  0.00    -0.122 OA 
HETATM    9  N   UNL     1      -7.977   9.566  70.440  1.00  0.00    -0.170 N  
HETATM   10  H   UNL     1      -8.382   9.989  71.276  1.00  0.00     0.000 HD 
BRANCH   9  11
HETATM   11  C   UNL     1      -6.601   9.848  70.088  1.00  0.00    -0.102 C  
BRANCH  11  12
HETATM   12  C   UNL     1      -6.290  11.337  69.986  1.00  0.00    -0.140 C  
BRANCH  12  13
HETATM   13  C   UNL     1      -6.508  11.929  68.600  1.00  0.00    -0.062 C  
HETATM   14  O   UNL     1      -6.883  10.891  67.697  1.00  0.00    -0.077 OA 
HETATM   15  H   UNL     1      -7.019  11.260  66.832  1.00  0.00     0.000 HD 
ENDBRANCH  12  13
ENDBRANCH  11  12
ENDBRANCH   9  11
ENDBRANCH   4   7
ENDBRANCH   2   4
BRANCH   2  16
HETATM   16  C   UNL     1     -11.003   7.405  72.306  1.00  0.00    -0.254 C  
HETATM   17  O   UNL     1     -11.702   6.267  72.798  1.00  0.00    -0.476 OA 
HETATM   18  H   UNL     1     -12.050   6.414  73.670  1.00  0.00     0.000 HD 
ENDBRANCH   2  16
TORSDOF 6
ENDMDL
MODEL      280
REMARK 921   NORMALIZED FREE ENERGY PREDICTED BY IDOCK:   -2.08 KCAL/MOL
REMARK 922        TOTAL FREE ENERGY PREDICTED BY IDOCK:   -3.34 KCAL/MOL
REMARK 923 INTER-LIGAND FREE ENERGY PREDICTED BY IDOCK:   -3.78 KCAL/MOL
REMARK 924 INTRA-LIGAND FREE ENERGY PREDICTED BY IDOCK:    0.44 KCAL/MOL
REMARK 927      BINDING AFFINITY PREDICTED BY RF-SCORE:    0.00 PKD
ROOT
HETATM    1  C   UNL     1     -11.293   6.897  70.600  1.00  0.00    -0.366 C  
HETATM    2  C   UNL     1     -10.966   8.364  70.974  1.00  0.00    -0.288 C  
HETATM    3  C   UNL     1     -11.379   8.551  72.449  1.00  0.00    -0.412 C  
ENDROOT
BRANCH   2   4
HETATM    4  C   UNL     1     -11.751   9.333  70.037  1.00  0.00     0.112 C  
HETATM    5  O   UNL     1     -12.715  10.119  70.750  1.00  0.00    -0.366 OA 
HETATM    6  H   UNL     1     -13.193  10.709  70.180  1.00  0.00     0.000 HD 
BRANCH   4   7
HETATM    7  C   UNL     1     -10.855  10.295  69.220  1.00  0.00    -0.238 C  
HETATM    8  O   UNL     1      -9.790  10.760  69.619  1.00  0.00    -0.105 OA 
HETATM    9  N   UNL     1     -11.329  10.564  67.951  1.00  0.00    -0.416 N  
HETATM   10  H   UNL     1     -12.198  10.134  67.634  1.00  0.00     0.000 HD 
BRANCH   9  11
HETATM   11  C   UNL     1     -10.603  11.452  67.067  1.00  0.00    -0.248 C  
BRANCH  11  12
HETATM   12  C   UNL     1     -10.269  10.828  65.716  1.00  0.00    -0.319 C  
BRANCH  12  13
HETATM   13  C   UNL     1      -9.097   9.856  65.747  1.00  0.00    -0.168 C  
HETATM   14  O   UNL     1      -9.587   8.522  65.631  1.00  0.00    -0.447 OA 
HETATM   15  H   UNL     1      -8.855   7.916  65.650  1.00  0.00     0.000 HD 
ENDBRANCH  12  13
ENDBRANCH  11  12
ENDBRANCH   9  11
ENDBRANCH   4   7
ENDBRANCH   2   4
BRANCH   2  16
HETATM   16  C   UNL     1      -9.440   8.569  70.783  1.00  0.00    -0.178 C  
HETATM   17  O   UNL     1      -8.840   9.179  71.920  1.00  0.00    -0.340 OA 
HETATM   18  H   UNL     1      -7.905   9.305  71.803  1.00  0.00     0.000 HD 
ENDBRANCH   2  16
TORSDOF 6
ENDMDL
MODEL      281
REMARK 921   NORMALIZED FREE ENERGY PREDICTED BY IDOCK:   -2.07 KCAL/MOL
REMARK 922        TOTAL FREE ENERGY PREDICTED BY IDOCK:   -3.31 KCAL/MOL
REMARK 923 INTER-LIGAND FREE ENERGY PREDICTED BY IDOCK:   -3.06 KCAL/MOL
REMARK 924 INTRA-LIGAND FREE ENERGY PREDICTED BY IDOCK:   -0.25 KCAL/MOL
REMARK 927      BINDING AFFINITY PREDICTED BY RF-SCORE:    0.00 PKD
ROOT
HETATM    1  C   UNL     1      -9.096  10.995  68.480  1.00  0.00    -0.173 C  
HETATM    2  C   UNL     1      -9.912  10.829  67.174  1.00  0.00    -0.230 C  
HETATM    3  C   UNL     1     -11.400  10.774  67.580  1.00  0.00    -0.328 C  
ENDROOT
BRANCH   2   4
HETATM    4  C   UNL     1      -9.474   9.523  66.442  1.00  0.00    -0.195 C  
HETATM    5  O   UNL     1      -8.060   9.476  66.211  1.00  0.00    -0.110 OA 
HETATM    6  H   UNL     1      -7.793   8.681  65.766  1.00  0.00     0.000 HD 
BRANCH   4   7
HETATM    7  C   UNL     1      -9.886   8.218  67.166  1.00  0.00    -0.217 C  
HETATM    8  O   UNL     1     -10.831   7.507  66.830  1.00  0.00    -0.345 OA 
HETATM    9  N   UNL     1      -9.062   7.873  68.219  1.00  0.00    -0.135 N  
HETATM   10  H   UNL     1      -8.264   8.464  68.451  1.00  0.00     0.000 HD 
BRANCH   9  11
HETATM   11  C   UNL     1      -9.322   6.680  68.997  1.00  0.00    -0.133 C  
BRANCH  11  12
HETATM   12  C   UNL     1     -10.110   6.945  70.275  1.00  0.00    -0.196 C  
BRANCH  12  13
HETATM   13  C   UNL     1     -10.316   5.717  71.151  1.00  0.00    -0.232 C  
HETATM   14  O   UNL     1     -10.150   4.541  70.362  1.00  0.00    -0.224 OA 
HETATM   15  H   UNL     1     -10.278   3.775  70.908  1.00  0.00     0.000 HD 
ENDBRANCH  12  13
ENDBRANCH  11  12
ENDBRANCH   9  11
ENDBRANCH   4   7
ENDBRANCH   2   4
BRANCH   2  16
HETATM   16  C   UNL     1      -9.616  12.060  66.276  1.00  0.00    -0.231 C  
HETATM   17  O   UNL     1      -9.545  11.707  64.899  1.00  0.00    -0.314 OA 
HETATM   18  H   UNL     1      -9.363  12.461  64.349  1.00  0.00     0.000 HD 
ENDBRANCH   2  16
TORSDOF 6
ENDMDL
MODEL      282
REMARK 921   NORMALIZED FREE ENERGY PREDICTED BY IDOCK:   -2.04 KCAL/MOL
REMARK 922        TOTAL FREE ENERGY PREDICTED BY IDOCK:   -3.29 KCAL/MOL
REMARK 923 INTER-LIGAND FREE ENERGY PREDICTED BY IDOCK:   -2.93 KCAL/MOL
REMARK 924 INTRA-LIGAND FREE ENERGY PREDICTED BY IDOCK:   -0.36 KCAL/MOL
REMARK 927      BINDING AFFINITY PREDICTED BY RF-SCORE:    0.00 PKD
ROOT
HETATM    1  C   UNL     1      -7.236   7.230  68.514  1.00  0.00    -0.094 C  
HETATM    2  C   UNL     1      -7.940   8.335  67.687  1.00  0.00    -0.118 C  
HETATM    3  C   UNL     1      -6.964   9.528  67.616  1.00  0.00    -0.080 C  
ENDROOT
BRANCH   2   4
HETATM    4  C   UNL     1      -9.279   8.736  68.379  1.00  0.00    -0.137 C  
HETATM    5  O   UNL     1     -10.377   8.777  67.458  1.00  0.00    -0.234 OA 
HETATM    6  H   UNL     1     -11.192   9.021  67.879  1.00  0.00     0.000 HD 
BRANCH   4   7
HETATM    7  C   UNL     1      -9.681   7.827  69.566  1.00  0.00    -0.165 C  
HETATM    8  O   UNL     1     -10.011   6.648  69.458  1.00  0.00    -0.160 OA 
HETATM    9  N   UNL     1      -9.593   8.441  70.800  1.00  0.00    -0.167 N  
HETATM   10  H   UNL     1      -9.280   9.410  70.862  1.00  0.00     0.000 HD 
BRANCH   9  11
HETATM   11  C   UNL     1      -9.940   7.721  72.007  1.00  0.00    -0.179 C  
BRANCH  11  12
HETATM   12  C   UNL     1     -11.262   8.167  72.623  1.00  0.00    -0.447 C  
BRANCH  12  13
HETATM   13  C   UNL     1     -12.274   8.700  71.618  1.00  0.00    -0.333 C  
HETATM   14  O   UNL     1     -12.723   7.632  70.788  1.00  0.00    -0.546 OA 
HETATM   15  H   UNL     1     -13.355   7.964  70.161  1.00  0.00     0.000 HD 
ENDBRANCH  12  13
ENDBRANCH  11  12
ENDBRANCH   9  11
ENDBRANCH   4   7
ENDBRANCH   2   4
BRANCH   2  16
HETATM   16  C   UNL     1      -8.229   7.754  66.277  1.00  0.00    -0.122 C  
HETATM   17  O   UNL     1      -8.288   8.774  65.286  1.00  0.00    -0.141 OA 
HETATM   18  H   UNL     1      -8.465   8.418  64.422  1.00  0.00     0.000 HD 
ENDBRANCH   2  16
TORSDOF 6
ENDMDL
MODEL      283
REMARK 921   NORMALIZED FREE ENERGY PREDICTED BY IDOCK:   -2.03 KCAL/MOL
REMARK 922        TOTAL FREE ENERGY PREDICTED BY IDOCK:   -3.27 KCAL/MOL
REMARK 923 INTER-LIGAND FREE ENERGY PREDICTED BY IDOCK:   -2.96 KCAL/MOL
REMARK 924 INTRA-LIGAND FREE ENERGY PREDICTED BY IDOCK:   -0.30 KCAL/MOL
REMARK 927      BINDING AFFINITY PREDICTED BY RF-SCORE:    0.00 PKD
ROOT
HETATM    1  C   UNL     1     -10.983   6.250  68.233  1.00  0.00    -0.408 C  
HETATM    2  C   UNL     1     -10.804   6.539  69.744  1.00  0.00    -0.351 C  
HETATM    3  C   UNL     1     -12.219   6.676  70.344  1.00  0.00    -0.133 C  
ENDROOT
BRANCH   2   4
HETATM    4  C   UNL     1      -9.977   7.848  69.934  1.00  0.00    -0.192 C  
HETATM    5  O   UNL     1      -9.443   7.968  71.260  1.00  0.00    -0.151 OA 
HETATM    6  H   UNL     1      -8.940   8.764  71.376  1.00  0.00     0.000 HD 
BRANCH   4   7
HETATM    7  C   UNL     1      -8.811   8.017  68.930  1.00  0.00    -0.141 C  
HETATM    8  O   UNL     1      -7.881   7.223  68.805  1.00  0.00    -0.116 OA 
HETATM    9  N   UNL     1      -8.918   9.134  68.125  1.00  0.00    -0.129 N  
HETATM   10  H   UNL     1      -9.721   9.755  68.227  1.00  0.00     0.000 HD 
BRANCH   9  11
HETATM   11  C   UNL     1      -7.901   9.431  67.138  1.00  0.00    -0.098 C  
BRANCH  11  12
HETATM   12  C   UNL     1      -8.297   9.039  65.718  1.00  0.00    -0.133 C  
BRANCH  12  13
HETATM   13  C   UNL     1      -8.888  10.175  64.896  1.00  0.00    -0.190 C  
HETATM   14  O   UNL     1      -9.557   9.636  63.757  1.00  0.00    -0.455 OA 
HETATM   15  H   UNL     1      -9.926  10.346  63.244  1.00  0.00     0.000 HD 
ENDBRANCH  12  13
ENDBRANCH  11  12
ENDBRANCH   9  11
ENDBRANCH   4   7
ENDBRANCH   2   4
BRANCH   2  16
HETATM   16  C   UNL     1     -10.040   5.339  70.365  1.00  0.00    -0.254 C  
HETATM   17  O   UNL     1     -10.431   5.100  71.712  1.00  0.00    -0.213 OA 
HETATM   18  H   UNL     1      -9.963   4.365  72.092  1.00  0.00     0.000 HD 
ENDBRANCH   2  16
TORSDOF 6
ENDMDL
MODEL      284
REMARK 921   NORMALIZED FREE ENERGY PREDICTED BY IDOCK:   -2.00 KCAL/MOL
REMARK 922        TOTAL FREE ENERGY PREDICTED BY IDOCK:   -3.22 KCAL/MOL
REMARK 923 INTER-LIGAND FREE ENERGY PREDICTED BY IDOCK:   -3.91 KCAL/MOL
REMARK 924 INTRA-LIGAND FREE ENERGY PREDICTED BY IDOCK:    0.69 KCAL/MOL
REMARK 927      BINDING AFFINITY PREDICTED BY RF-SCORE:    0.00 PKD
ROOT
HETATM    1  C   UNL     1      -9.258   9.881  69.835  1.00  0.00    -0.245 C  
HETATM    2  C   UNL     1      -9.573   8.640  68.965  1.00  0.00    -0.163 C  
HETATM    3  C   UNL     1      -8.257   7.846  68.826  1.00  0.00    -0.127 C  
ENDROOT
BRANCH   2   4
HETATM    4  C   UNL     1     -10.111   9.096  67.574  1.00  0.00    -0.228 C  
HETATM    5  O   UNL     1     -10.966   8.115  66.971  1.00  0.00    -0.422 OA 
HETATM    6  H   UNL     1     -11.293   8.392  66.125  1.00  0.00     0.000 HD 
BRANCH   4   7
HETATM    7  C   UNL     1     -10.870  10.445  67.595  1.00  0.00    -0.306 C  
HETATM    8  O   UNL     1     -11.465  10.892  68.573  1.00  0.00    -0.273 OA 
HETATM    9  N   UNL     1     -10.786  11.157  66.414  1.00  0.00    -0.262 N  
HETATM   10  H   UNL     1     -10.253  10.777  65.632  1.00  0.00     0.000 HD 
BRANCH   9  11
HETATM   11  C   UNL     1     -11.448  12.437  66.278  1.00  0.00    -0.371 C  
BRANCH  11  12
HETATM   12  C   UNL     1     -11.004  13.466  67.312  1.00  0.00    -0.286 C  
BRANCH  12  13
HETATM   13  C   UNL     1     -10.058  14.530  66.773  1.00  0.00    -0.264 C  
HETATM   14  O   UNL     1      -9.620  14.154  65.468  1.00  0.00    -0.527 OA 
HETATM   15  H   UNL     1      -9.029  14.818  65.132  1.00  0.00     0.000 HD 
ENDBRANCH  12  13
ENDBRANCH  11  12
ENDBRANCH   9  11
ENDBRANCH   4   7
ENDBRANCH   2   4
BRANCH   2  16
HETATM   16  C   UNL     1     -10.658   7.812  69.703  1.00  0.00    -0.242 C  
HETATM   17  O   UNL     1     -10.100   7.002  70.732  1.00  0.00    -0.194 OA 
HETATM   18  H   UNL     1     -10.764   6.495  71.184  1.00  0.00     0.000 HD 
ENDBRANCH   2  16
TORSDOF 6
ENDMDL
MODEL      285
REMARK 921   NORMALIZED FREE ENERGY PREDICTED BY IDOCK:   -1.98 KCAL/MOL
REMARK 922        TOTAL FREE ENERGY PREDICTED BY IDOCK:   -3.19 KCAL/MOL
REMARK 923 INTER-LIGAND FREE ENERGY PREDICTED BY IDOCK:   -2.89 KCAL/MOL
REMARK 924 INTRA-LIGAND FREE ENERGY PREDICTED BY IDOCK:   -0.30 KCAL/MOL
REMARK 927      BINDING AFFINITY PREDICTED BY RF-SCORE:    0.00 PKD
ROOT
HETATM    1  C   UNL     1      -6.174   8.905  69.045  1.00  0.00    -0.044 C  
HETATM    2  C   UNL     1      -7.512   8.684  68.297  1.00  0.00    -0.095 C  
HETATM    3  C   UNL     1      -8.336   9.978  68.463  1.00  0.00    -0.113 C  
ENDROOT
BRANCH   2   4
HETATM    4  C   UNL     1      -8.256   7.455  68.903  1.00  0.00    -0.129 C  
HETATM    5  O   UNL     1      -7.741   7.085  70.189  1.00  0.00    -0.096 OA 
HETATM    6  H   UNL     1      -8.193   6.336  70.558  1.00  0.00     0.000 HD 
BRANCH   4   7
HETATM    7  C   UNL     1      -9.788   7.637  69.035  1.00  0.00    -0.168 C  
HETATM    8  O   UNL     1     -10.585   7.514  68.106  1.00  0.00    -0.198 OA 
HETATM    9  N   UNL     1     -10.215   7.909  70.320  1.00  0.00    -0.197 N  
HETATM   10  H   UNL     1      -9.534   7.968  71.077  1.00  0.00     0.000 HD 
BRANCH   9  11
HETATM   11  C   UNL     1     -11.621   8.110  70.602  1.00  0.00    -0.194 C  
BRANCH  11  12
HETATM   12  C   UNL     1     -11.880   9.104  71.729  1.00  0.00    -0.453 C  
BRANCH  12  13
HETATM   13  C   UNL     1     -12.375  10.466  71.263  1.00  0.00    -0.401 C  
HETATM   14  O   UNL     1     -13.197  11.042  72.276  1.00  0.00    -0.612 OA 
HETATM   15  H   UNL     1     -13.505  11.892  71.985  1.00  0.00     0.000 HD 
ENDBRANCH  12  13
ENDBRANCH  11  12
ENDBRANCH   9  11
ENDBRANCH   4   7
ENDBRANCH   2   4
BRANCH   2  16
HETATM   16  C   UNL     1      -7.177   8.414  66.806  1.00  0.00    -0.078 C  
HETATM   17  O   UNL     1      -8.352   8.277  66.015  1.00  0.00    -0.114 OA 
HETATM   18  H   UNL     1      -8.148   8.111  65.101  1.00  0.00     0.000 HD 
ENDBRANCH   2  16
TORSDOF 6
ENDMDL
MODEL      286
REMARK 921   NORMALIZED FREE ENERGY PREDICTED BY IDOCK:   -1.97 KCAL/MOL
REMARK 922        TOTAL FREE ENERGY PREDICTED BY IDOCK:   -3.18 KCAL/MOL
REMARK 923 INTER-LIGAND FREE ENERGY PREDICTED BY IDOCK:   -3.07 KCAL/MOL
REMARK 924 INTRA-LIGAND FREE ENERGY PREDICTED BY IDOCK:   -0.12 KCAL/MOL
REMARK 927      BINDING AFFINITY PREDICTED BY RF-SCORE:    0.00 PKD
ROOT
HETATM    1  C   UNL     1     -10.424   6.090  71.770  1.00  0.00    -0.268 C  
HETATM    2  C   UNL     1      -9.628   6.433  70.486  1.00  0.00    -0.179 C  
HETATM    3  C   UNL     1      -8.957   7.801  70.730  1.00  0.00    -0.148 C  
ENDROOT
BRANCH   2   4
HETATM    4  C   UNL     1     -10.597   6.485  69.265  1.00  0.00    -0.247 C  
HETATM    5  O   UNL     1     -11.970   6.596  69.663  1.00  0.00    -0.653 OA 
HETATM    6  H   UNL     1     -12.560   6.627  68.921  1.00  0.00     0.000 HD 
BRANCH   4   7
HETATM    7  C   UNL     1     -10.295   7.623  68.259  1.00  0.00    -0.198 C  
HETATM    8  O   UNL     1     -10.755   8.760  68.338  1.00  0.00    -0.169 OA 
HETATM    9  N   UNL     1      -9.407   7.271  67.263  1.00  0.00    -0.128 N  
HETATM   10  H   UNL     1      -9.013   6.331  67.244  1.00  0.00     0.000 HD 
BRANCH   9  11
HETATM   11  C   UNL     1      -9.029   8.228  66.243  1.00  0.00    -0.183 C  
BRANCH  11  12
HETATM   12  C   UNL     1      -7.940   7.719  65.303  1.00  0.00    -0.127 C  
BRANCH  12  13
HETATM   13  C   UNL     1      -8.076   8.203  63.866  1.00  0.00    -0.114 C  
HETATM   14  O   UNL     1      -9.097   9.196  63.797  1.00  0.00    -0.432 OA 
HETATM   15  H   UNL     1      -9.181   9.499  62.900  1.00  0.00     0.000 HD 
ENDBRANCH  12  13
ENDBRANCH  11  12
ENDBRANCH   9  11
ENDBRANCH   4   7
ENDBRANCH   2   4
BRANCH   2  16
HETATM   16  C   UNL     1      -8.573   5.315  70.274  1.00  0.00    -0.121 C  
HETATM   17  O   UNL     1      -9.098   4.226  69.522  1.00  0.00    -0.098 OA 
HETATM   18  H   UNL     1      -8.453   3.541  69.392  1.00  0.00     0.000 HD 
ENDBRANCH   2  16
TORSDOF 6
ENDMDL
MODEL      287
REMARK 921   NORMALIZED FREE ENERGY PREDICTED BY IDOCK:   -1.96 KCAL/MOL
REMARK 922        TOTAL FREE ENERGY PREDICTED BY IDOCK:   -3.17 KCAL/MOL
REMARK 923 INTER-LIGAND FREE ENERGY PREDICTED BY IDOCK:   -3.36 KCAL/MOL
REMARK 924 INTRA-LIGAND FREE ENERGY PREDICTED BY IDOCK:    0.19 KCAL/MOL
REMARK 927      BINDING AFFINITY PREDICTED BY RF-SCORE:    0.00 PKD
ROOT
HETATM    1  C   UNL     1      -9.757   9.130  71.583  1.00  0.00    -0.263 C  
HETATM    2  C   UNL     1     -10.768   8.991  70.418  1.00  0.00    -0.267 C  
HETATM    3  C   UNL     1     -11.869   8.021  70.895  1.00  0.00    -0.236 C  
ENDROOT
BRANCH   2   4
HETATM    4  C   UNL     1     -10.038   8.444  69.152  1.00  0.00    -0.203 C  
HETATM    5  O   UNL     1     -10.953   7.929  68.175  1.00  0.00    -0.444 OA 
HETATM    6  H   UNL     1     -10.509   7.596  67.405  1.00  0.00     0.000 HD 
BRANCH   4   7
HETATM    7  C   UNL     1      -9.117   9.473  68.452  1.00  0.00    -0.127 C  
HETATM    8  O   UNL     1      -8.015   9.817  68.873  1.00  0.00    -0.086 OA 
HETATM    9  N   UNL     1      -9.617   9.956  67.259  1.00  0.00    -0.156 N  
HETATM   10  H   UNL     1     -10.518   9.623  66.917  1.00  0.00     0.000 HD 
BRANCH   9  11
HETATM   11  C   UNL     1      -8.871  10.930  66.489  1.00  0.00    -0.163 C  
BRANCH  11  12
HETATM   12  C   UNL     1      -8.521  12.189  67.275  1.00  0.00    -0.178 C  
BRANCH  12  13
HETATM   13  C   UNL     1      -9.554  13.302  67.168  1.00  0.00    -0.240 C  
HETATM   14  O   UNL     1     -10.101  13.565  68.459  1.00  0.00    -0.234 OA 
HETATM   15  H   UNL     1     -10.745  14.260  68.392  1.00  0.00     0.000 HD 
ENDBRANCH  12  13
ENDBRANCH  11  12
ENDBRANCH   9  11
ENDBRANCH   4   7
ENDBRANCH   2   4
BRANCH   2  16
HETATM   16  C   UNL     1     -11.344  10.402  70.124  1.00  0.00    -0.323 C  
HETATM   17  O   UNL     1     -12.745  10.465  70.370  1.00  0.00    -0.443 OA 
HETATM   18  H   UNL     1     -13.098  11.329  70.191  1.00  0.00     0.000 HD 
ENDBRANCH   2  16
TORSDOF 6
ENDMDL
MODEL      288
REMARK 921   NORMALIZED FREE ENERGY PREDICTED BY IDOCK:   -1.96 KCAL/MOL
REMARK 922        TOTAL FREE ENERGY PREDICTED BY IDOCK:   -3.17 KCAL/MOL
REMARK 923 INTER-LIGAND FREE ENERGY PREDICTED BY IDOCK:   -2.70 KCAL/MOL
REMARK 924 INTRA-LIGAND FREE ENERGY PREDICTED BY IDOCK:   -0.46 KCAL/MOL
REMARK 927      BINDING AFFINITY PREDICTED BY RF-SCORE:    0.00 PKD
ROOT
HETATM    1  C   UNL     1     -10.804   6.678  67.828  1.00  0.00    -0.372 C  
HETATM    2  C   UNL     1     -10.396   6.452  69.305  1.00  0.00    -0.248 C  
HETATM    3  C   UNL     1     -11.665   6.667  70.157  1.00  0.00    -0.412 C  
ENDROOT
BRANCH   2   4
HETATM    4  C   UNL     1      -9.270   7.457  69.699  1.00  0.00    -0.146 C  
HETATM    5  O   UNL     1      -9.732   8.814  69.717  1.00  0.00    -0.172 OA 
HETATM    6  H   UNL     1      -9.047   9.426  69.956  1.00  0.00     0.000 HD 
BRANCH   4   7
HETATM    7  C   UNL     1      -8.599   7.160  71.062  1.00  0.00    -0.133 C  
HETATM    8  O   UNL     1      -9.206   7.037  72.124  1.00  0.00    -0.132 OA 
HETATM    9  N   UNL     1      -7.230   6.990  70.991  1.00  0.00    -0.074 N  
HETATM   10  H   UNL     1      -6.758   7.062  70.089  1.00  0.00     0.000 HD 
BRANCH   9  11
HETATM   11  C   UNL     1      -6.460   6.711  72.184  1.00  0.00    -0.054 C  
BRANCH  11  12
HETATM   12  C   UNL     1      -6.009   7.966  72.926  1.00  0.00    -0.055 C  
BRANCH  12  13
HETATM   13  C   UNL     1      -6.567   8.094  74.337  1.00  0.00    -0.122 C  
HETATM   14  O   UNL     1      -7.832   8.751  74.286  1.00  0.00    -0.402 OA 
HETATM   15  H   UNL     1      -8.180   8.830  75.166  1.00  0.00     0.000 HD 
ENDBRANCH  12  13
ENDBRANCH  11  12
ENDBRANCH   9  11
ENDBRANCH   4   7
ENDBRANCH   2   4
BRANCH   2  16
HETATM   16  C   UNL     1      -9.870   4.997  69.430  1.00  0.00    -0.203 C  
HETATM   17  O   UNL     1     -10.221   4.411  70.678  1.00  0.00    -0.178 OA 
HETATM   18  H   UNL     1      -9.899   3.520  70.755  1.00  0.00     0.000 HD 
ENDBRANCH   2  16
TORSDOF 6
ENDMDL
MODEL      289
REMARK 921   NORMALIZED FREE ENERGY PREDICTED BY IDOCK:   -1.93 KCAL/MOL
REMARK 922        TOTAL FREE ENERGY PREDICTED BY IDOCK:   -3.13 KCAL/MOL
REMARK 923 INTER-LIGAND FREE ENERGY PREDICTED BY IDOCK:   -3.09 KCAL/MOL
REMARK 924 INTRA-LIGAND FREE ENERGY PREDICTED BY IDOCK:   -0.03 KCAL/MOL
REMARK 927      BINDING AFFINITY PREDICTED BY RF-SCORE:    0.00 PKD
ROOT
HETATM    1  C   UNL     1     -10.997   7.274  69.891  1.00  0.00    -0.262 C  
HETATM    2  C   UNL     1     -10.447   8.455  70.729  1.00  0.00    -0.230 C  
HETATM    3  C   UNL     1      -9.673   9.370  69.758  1.00  0.00    -0.215 C  
ENDROOT
BRANCH   2   4
HETATM    4  C   UNL     1      -9.520   7.910  71.858  1.00  0.00    -0.168 C  
HETATM    5  O   UNL     1      -8.718   8.941  72.450  1.00  0.00    -0.400 OA 
HETATM    6  H   UNL     1      -8.153   8.609  73.137  1.00  0.00     0.000 HD 
BRANCH   4   7
HETATM    7  C   UNL     1     -10.265   7.169  72.995  1.00  0.00    -0.251 C  
HETATM    8  O   UNL     1     -11.062   7.702  73.765  1.00  0.00    -0.142 OA 
HETATM    9  N   UNL     1     -10.001   5.815  73.053  1.00  0.00    -0.171 N  
HETATM   10  H   UNL     1      -9.364   5.395  72.377  1.00  0.00     0.000 HD 
BRANCH   9  11
HETATM   11  C   UNL     1     -10.620   4.987  74.066  1.00  0.00    -0.298 C  
BRANCH  11  12
HETATM   12  C   UNL     1     -10.093   3.556  74.090  1.00  0.00    -0.199 C  
BRANCH  12  13
HETATM   13  C   UNL     1     -10.661   2.660  72.998  1.00  0.00    -0.134 C  
HETATM   14  O   UNL     1     -10.584   3.336  71.745  1.00  0.00     0.209 OA 
HETATM   15  H   UNL     1     -10.938   2.777  71.064  1.00  0.00     0.000 HD 
ENDBRANCH  12  13
ENDBRANCH  11  12
ENDBRANCH   9  11
ENDBRANCH   4   7
ENDBRANCH   2   4
BRANCH   2  16
HETATM   16  C   UNL     1     -11.661   9.192  71.356  1.00  0.00    -0.343 C  
HETATM   17  O   UNL     1     -12.647   9.515  70.381  1.00  0.00    -0.488 OA 
HETATM   18  H   UNL     1     -13.390   9.966  70.764  1.00  0.00     0.000 HD 
ENDBRANCH   2  16
TORSDOF 6
ENDMDL
MODEL      290
REMARK 921   NORMALIZED FREE ENERGY PREDICTED BY IDOCK:   -1.92 KCAL/MOL
REMARK 922        TOTAL FREE ENERGY PREDICTED BY IDOCK:   -3.11 KCAL/MOL
REMARK 923 INTER-LIGAND FREE ENERGY PREDICTED BY IDOCK:   -2.93 KCAL/MOL
REMARK 924 INTRA-LIGAND FREE ENERGY PREDICTED BY IDOCK:   -0.18 KCAL/MOL
REMARK 927      BINDING AFFINITY PREDICTED BY RF-SCORE:    0.00 PKD
ROOT
HETATM    1  C   UNL     1     -13.152  10.229  69.957  1.00  0.00     0.275 C  
HETATM    2  C   UNL     1     -11.959  11.189  69.725  1.00  0.00    -0.428 C  
HETATM    3  C   UNL     1     -12.224  12.446  70.580  1.00  0.00    -0.368 C  
ENDROOT
BRANCH   2   4
HETATM    4  C   UNL     1     -11.857  11.544  68.210  1.00  0.00    -0.256 C  
HETATM    5  O   UNL     1     -11.635  12.943  67.991  1.00  0.00    -0.298 OA 
HETATM    6  H   UNL     1     -11.573  13.159  67.068  1.00  0.00     0.000 HD 
BRANCH   4   7
HETATM    7  C   UNL     1     -10.765  10.758  67.443  1.00  0.00    -0.268 C  
HETATM    8  O   UNL     1     -10.736   9.534  67.337  1.00  0.00    -0.279 OA 
HETATM    9  N   UNL     1      -9.824  11.559  66.826  1.00  0.00    -0.200 N  
HETATM   10  H   UNL     1      -9.896  12.573  66.901  1.00  0.00     0.000 HD 
BRANCH   9  11
HETATM   11  C   UNL     1      -8.736  10.970  66.074  1.00  0.00    -0.188 C  
BRANCH  11  12
HETATM   12  C   UNL     1      -7.543  10.574  66.937  1.00  0.00    -0.110 C  
BRANCH  12  13
HETATM   13  C   UNL     1      -6.597  11.721  67.264  1.00  0.00    -0.132 C  
HETATM   14  O   UNL     1      -7.347  12.821  67.775  1.00  0.00    -0.103 OA 
HETATM   15  H   UNL     1      -6.757  13.536  67.980  1.00  0.00     0.000 HD 
ENDBRANCH  12  13
ENDBRANCH  11  12
ENDBRANCH   9  11
ENDBRANCH   4   7
ENDBRANCH   2   4
BRANCH   2  16
HETATM   16  C   UNL     1     -10.670  10.456  70.182  1.00  0.00    -0.233 C  
HETATM   17  O   UNL     1     -10.935   9.509  71.211  1.00  0.00    -0.337 OA 
HETATM   18  H   UNL     1     -10.145   9.059  71.491  1.00  0.00     0.000 HD 
ENDBRANCH   2  16
TORSDOF 6
ENDMDL
MODEL      291
REMARK 921   NORMALIZED FREE ENERGY PREDICTED BY IDOCK:   -1.91 KCAL/MOL
REMARK 922        TOTAL FREE ENERGY PREDICTED BY IDOCK:   -3.11 KCAL/MOL
REMARK 923 INTER-LIGAND FREE ENERGY PREDICTED BY IDOCK:   -2.33 KCAL/MOL
REMARK 924 INTRA-LIGAND FREE ENERGY PREDICTED BY IDOCK:   -0.78 KCAL/MOL
REMARK 927      BINDING AFFINITY PREDICTED BY RF-SCORE:    0.00 PKD
ROOT
HETATM    1  C   UNL     1      -5.937   8.256  65.670  1.00  0.00    -0.045 C  
HETATM    2  C   UNL     1      -6.759   8.925  64.540  1.00  0.00    -0.070 C  
HETATM    3  C   UNL     1      -6.018  10.223  64.156  1.00  0.00    -0.132 C  
ENDROOT
BRANCH   2   4
HETATM    4  C   UNL     1      -8.203   9.224  65.049  1.00  0.00    -0.145 C  
HETATM    5  O   UNL     1      -9.087   8.110  64.866  1.00  0.00    -0.370 OA 
HETATM    6  H   UNL     1      -9.966   8.292  65.176  1.00  0.00     0.000 HD 
BRANCH   4   7
HETATM    7  C   UNL     1      -8.279   9.660  66.532  1.00  0.00    -0.119 C  
HETATM    8  O   UNL     1      -7.932  10.762  66.951  1.00  0.00    -0.123 OA 
HETATM    9  N   UNL     1      -8.828   8.710  67.371  1.00  0.00    -0.133 N  
HETATM   10  H   UNL     1      -9.142   7.818  66.988  1.00  0.00     0.000 HD 
BRANCH   9  11
HETATM   11  C   UNL     1      -8.962   8.969  68.789  1.00  0.00    -0.137 C  
BRANCH  11  12
HETATM   12  C   UNL     1     -10.398   9.240  69.226  1.00  0.00    -0.222 C  
BRANCH  12  13
HETATM   13  C   UNL     1     -10.742  10.716  69.367  1.00  0.00    -0.244 C  
HETATM   14  O   UNL     1      -9.589  11.501  69.069  1.00  0.00    -0.397 OA 
HETATM   15  H   UNL     1      -9.804  12.422  69.156  1.00  0.00     0.000 HD 
ENDBRANCH  12  13
ENDBRANCH  11  12
ENDBRANCH   9  11
ENDBRANCH   4   7
ENDBRANCH   2   4
BRANCH   2  16
HETATM   16  C   UNL     1      -6.816   7.932  63.349  1.00  0.00    -0.075 C  
HETATM   17  O   UNL     1      -7.746   8.348  62.355  1.00  0.00    -0.117 OA 
HETATM   18  H   UNL     1      -7.781   7.740  61.625  1.00  0.00     0.000 HD 
ENDBRANCH   2  16
TORSDOF 6
ENDMDL
MODEL      292
REMARK 921   NORMALIZED FREE ENERGY PREDICTED BY IDOCK:   -1.91 KCAL/MOL
REMARK 922        TOTAL FREE ENERGY PREDICTED BY IDOCK:   -3.11 KCAL/MOL
REMARK 923 INTER-LIGAND FREE ENERGY PREDICTED BY IDOCK:   -2.85 KCAL/MOL
REMARK 924 INTRA-LIGAND FREE ENERGY PREDICTED BY IDOCK:   -0.26 KCAL/MOL
REMARK 927      BINDING AFFINITY PREDICTED BY RF-SCORE:    0.00 PKD
ROOT
HETATM    1  C   UNL     1     -11.028   7.954  68.055  1.00  0.00     0.096 C  
HETATM    2  C   UNL     1     -10.021   6.795  68.251  1.00  0.00    -0.153 C  
HETATM    3  C   UNL     1     -10.614   5.866  69.331  1.00  0.00    -0.379 C  
ENDROOT
BRANCH   2   4
HETATM    4  C   UNL     1      -8.639   7.369  68.692  1.00  0.00    -0.129 C  
HETATM    5  O   UNL     1      -7.561   6.873  67.888  1.00  0.00    -0.102 OA 
HETATM    6  H   UNL     1      -6.720   7.222  68.156  1.00  0.00     0.000 HD 
BRANCH   4   7
HETATM    7  C   UNL     1      -8.563   8.915  68.697  1.00  0.00    -0.133 C  
HETATM    8  O   UNL     1      -8.646   9.611  69.707  1.00  0.00    -0.163 OA 
HETATM    9  N   UNL     1      -8.339   9.472  67.454  1.00  0.00    -0.124 N  
HETATM   10  H   UNL     1      -8.237   8.867  66.639  1.00  0.00     0.000 HD 
BRANCH   9  11
HETATM   11  C   UNL     1      -8.248  10.909  67.296  1.00  0.00    -0.123 C  
BRANCH  11  12
HETATM   12  C   UNL     1      -9.544  11.642  67.629  1.00  0.00    -0.184 C  
BRANCH  12  13
HETATM   13  C   UNL     1     -10.726  11.255  66.752  1.00  0.00    -0.275 C  
HETATM   14  O   UNL     1     -11.937  11.446  67.480  1.00  0.00    -0.626 OA 
HETATM   15  H   UNL     1     -12.675  11.205  66.933  1.00  0.00     0.000 HD 
ENDBRANCH  12  13
ENDBRANCH  11  12
ENDBRANCH   9  11
ENDBRANCH   4   7
ENDBRANCH   2   4
BRANCH   2  16
HETATM   16  C   UNL     1      -9.876   6.062  66.891  1.00  0.00    -0.158 C  
HETATM   17  O   UNL     1      -9.543   6.960  65.838  1.00  0.00    -0.396 OA 
HETATM   18  H   UNL     1      -9.454   6.511  65.004  1.00  0.00     0.000 HD 
ENDBRANCH   2  16
TORSDOF 6
ENDMDL
MODEL      293
REMARK 921   NORMALIZED FREE ENERGY PREDICTED BY IDOCK:   -1.90 KCAL/MOL
REMARK 922        TOTAL FREE ENERGY PREDICTED BY IDOCK:   -3.09 KCAL/MOL
REMARK 923 INTER-LIGAND FREE ENERGY PREDICTED BY IDOCK:   -3.01 KCAL/MOL
REMARK 924 INTRA-LIGAND FREE ENERGY PREDICTED BY IDOCK:   -0.08 KCAL/MOL
REMARK 927      BINDING AFFINITY PREDICTED BY RF-SCORE:    0.00 PKD
ROOT
HETATM    1  C   UNL     1     -10.141   4.899  70.345  1.00  0.00    -0.316 C  
HETATM    2  C   UNL     1      -9.685   6.341  70.011  1.00  0.00    -0.193 C  
HETATM    3  C   UNL     1     -10.693   7.296  70.684  1.00  0.00    -0.252 C  
ENDROOT
BRANCH   2   4
HETATM    4  C   UNL     1      -9.661   6.539  68.464  1.00  0.00    -0.129 C  
HETATM    5  O   UNL     1     -10.916   6.212  67.853  1.00  0.00    -0.312 OA 
HETATM    6  H   UNL     1     -10.902   6.332  66.911  1.00  0.00     0.000 HD 
BRANCH   4   7
HETATM    7  C   UNL     1      -9.262   7.964  68.009  1.00  0.00    -0.131 C  
HETATM    8  O   UNL     1      -8.135   8.441  68.128  1.00  0.00    -0.117 OA 
HETATM    9  N   UNL     1     -10.281   8.666  67.397  1.00  0.00    -0.241 N  
HETATM   10  H   UNL     1     -11.196   8.230  67.279  1.00  0.00     0.000 HD 
BRANCH   9  11
HETATM   11  C   UNL     1     -10.063  10.016  66.920  1.00  0.00    -0.229 C  
BRANCH  11  12
HETATM   12  C   UNL     1     -10.029  10.128  65.400  1.00  0.00    -0.377 C  
BRANCH  12  13
HETATM   13  C   UNL     1      -9.104  11.215  64.871  1.00  0.00    -0.095 C  
HETATM   14  O   UNL     1      -8.579  11.962  65.967  1.00  0.00    -0.386 OA 
HETATM   15  H   UNL     1      -8.001  12.640  65.638  1.00  0.00     0.000 HD 
ENDBRANCH  12  13
ENDBRANCH  11  12
ENDBRANCH   9  11
ENDBRANCH   4   7
ENDBRANCH   2   4
BRANCH   2  16
HETATM   16  C   UNL     1      -8.256   6.528  70.587  1.00  0.00    -0.125 C  
HETATM   17  O   UNL     1      -8.186   6.159  71.960  1.00  0.00    -0.110 OA 
HETATM   18  H   UNL     1      -7.311   6.274  72.313  1.00  0.00     0.000 HD 
ENDBRANCH   2  16
TORSDOF 6
ENDMDL
MODEL      294
REMARK 921   NORMALIZED FREE ENERGY PREDICTED BY IDOCK:   -1.89 KCAL/MOL
REMARK 922        TOTAL FREE ENERGY PREDICTED BY IDOCK:   -3.07 KCAL/MOL
REMARK 923 INTER-LIGAND FREE ENERGY PREDICTED BY IDOCK:   -2.91 KCAL/MOL
REMARK 924 INTRA-LIGAND FREE ENERGY PREDICTED BY IDOCK:   -0.16 KCAL/MOL
REMARK 927      BINDING AFFINITY PREDICTED BY RF-SCORE:    0.00 PKD
ROOT
HETATM    1  C   UNL     1     -11.170   4.820  73.297  1.00  0.00    -0.421 C  
HETATM    2  C   UNL     1     -10.524   6.041  72.594  1.00  0.00    -0.233 C  
HETATM    3  C   UNL     1     -10.509   7.191  73.622  1.00  0.00    -0.412 C  
ENDROOT
BRANCH   2   4
HETATM    4  C   UNL     1     -11.355   6.419  71.329  1.00  0.00    -0.306 C  
HETATM    5  O   UNL     1     -12.377   7.382  71.616  1.00  0.00    -0.310 OA 
HETATM    6  H   UNL     1     -12.883   7.612  70.847  1.00  0.00     0.000 HD 
BRANCH   4   7
HETATM    7  C   UNL     1     -10.510   6.953  70.147  1.00  0.00    -0.209 C  
HETATM    8  O   UNL     1      -9.909   8.025  70.152  1.00  0.00    -0.183 OA 
HETATM    9  N   UNL     1     -10.437   6.089  69.072  1.00  0.00    -0.227 N  
HETATM   10  H   UNL     1     -10.915   5.190  69.112  1.00  0.00     0.000 HD 
BRANCH   9  11
HETATM   11  C   UNL     1      -9.685   6.450  67.888  1.00  0.00    -0.121 C  
BRANCH  11  12
HETATM   12  C   UNL     1      -8.221   6.027  67.942  1.00  0.00    -0.112 C  
BRANCH  12  13
HETATM   13  C   UNL     1      -7.932   4.893  68.915  1.00  0.00    -0.076 C  
HETATM   14  O   UNL     1      -7.314   3.815  68.214  1.00  0.00    -0.054 OA 
HETATM   15  H   UNL     1      -7.134   3.108  68.821  1.00  0.00     0.000 HD 
ENDBRANCH  12  13
ENDBRANCH  11  12
ENDBRANCH   9  11
ENDBRANCH   4   7
ENDBRANCH   2   4
BRANCH   2  16
HETATM   16  C   UNL     1      -9.085   5.635  72.177  1.00  0.00    -0.140 C  
HETATM   17  O   UNL     1      -8.135   6.643  72.504  1.00  0.00    -0.103 OA 
HETATM   18  H   UNL     1      -7.253   6.395  72.249  1.00  0.00     0.000 HD 
ENDBRANCH   2  16
TORSDOF 6
ENDMDL
MODEL      295
REMARK 921   NORMALIZED FREE ENERGY PREDICTED BY IDOCK:   -1.85 KCAL/MOL
REMARK 922        TOTAL FREE ENERGY PREDICTED BY IDOCK:   -3.03 KCAL/MOL
REMARK 923 INTER-LIGAND FREE ENERGY PREDICTED BY IDOCK:   -2.98 KCAL/MOL
REMARK 924 INTRA-LIGAND FREE ENERGY PREDICTED BY IDOCK:   -0.05 KCAL/MOL
REMARK 927      BINDING AFFINITY PREDICTED BY RF-SCORE:    0.00 PKD
ROOT
HETATM    1  C   UNL     1     -10.427   8.989  67.556  1.00  0.00    -0.338 C  
HETATM    2  C   UNL     1     -10.355  10.239  68.469  1.00  0.00    -0.200 C  
HETATM    3  C   UNL     1      -8.875  10.675  68.514  1.00  0.00    -0.148 C  
ENDROOT
BRANCH   2   4
HETATM    4  C   UNL     1     -10.885   9.881  69.891  1.00  0.00    -0.278 C  
HETATM    5  O   UNL     1     -12.222   9.364  69.861  1.00  0.00    -0.290 OA 
HETATM    6  H   UNL     1     -12.545   9.147  70.726  1.00  0.00     0.000 HD 
BRANCH   4   7
HETATM    7  C   UNL     1      -9.999   8.878  70.669  1.00  0.00    -0.216 C  
HETATM    8  O   UNL     1      -8.927   9.162  71.198  1.00  0.00    -0.223 OA 
HETATM    9  N   UNL     1     -10.540   7.611  70.771  1.00  0.00    -0.218 N  
HETATM   10  H   UNL     1     -11.450   7.414  70.354  1.00  0.00     0.000 HD 
BRANCH   9  11
HETATM   11  C   UNL     1      -9.827   6.560  71.466  1.00  0.00    -0.168 C  
BRANCH  11  12
HETATM   12  C   UNL     1      -8.502   6.186  70.810  1.00  0.00    -0.131 C  
BRANCH  12  13
HETATM   13  C   UNL     1      -8.627   5.716  69.368  1.00  0.00    -0.106 C  
HETATM   14  O   UNL     1      -9.902   5.106  69.179  1.00  0.00    -0.155 OA 
HETATM   15  H   UNL     1      -9.981   4.813  68.279  1.00  0.00     0.000 HD 
ENDBRANCH  12  13
ENDBRANCH  11  12
ENDBRANCH   9  11
ENDBRANCH   4   7
ENDBRANCH   2   4
BRANCH   2  16
HETATM   16  C   UNL     1     -11.249  11.337  67.834  1.00  0.00    -0.290 C  
HETATM   17  O   UNL     1     -10.527  12.141  66.909  1.00  0.00    -0.220 OA 
HETATM   18  H   UNL     1     -11.074  12.814  66.520  1.00  0.00     0.000 HD 
ENDBRANCH   2  16
TORSDOF 6
ENDMDL
MODEL      296
REMARK 921   NORMALIZED FREE ENERGY PREDICTED BY IDOCK:   -1.85 KCAL/MOL
REMARK 922        TOTAL FREE ENERGY PREDICTED BY IDOCK:   -3.02 KCAL/MOL
REMARK 923 INTER-LIGAND FREE ENERGY PREDICTED BY IDOCK:   -2.77 KCAL/MOL
REMARK 924 INTRA-LIGAND FREE ENERGY PREDICTED BY IDOCK:   -0.25 KCAL/MOL
REMARK 927      BINDING AFFINITY PREDICTED BY RF-SCORE:    0.00 PKD
ROOT
HETATM    1  C   UNL     1      -7.168  10.582  69.826  1.00  0.00    -0.152 C  
HETATM    2  C   UNL     1      -6.785   9.102  70.073  1.00  0.00    -0.047 C  
HETATM    3  C   UNL     1      -5.308   8.947  69.656  1.00  0.00    -0.030 C  
ENDROOT
BRANCH   2   4
HETATM    4  C   UNL     1      -7.713   8.172  69.232  1.00  0.00    -0.104 C  
HETATM    5  O   UNL     1      -7.605   6.796  69.622  1.00  0.00    -0.096 OA 
HETATM    6  H   UNL     1      -8.170   6.230  69.110  1.00  0.00     0.000 HD 
BRANCH   4   7
HETATM    7  C   UNL     1      -9.211   8.565  69.267  1.00  0.00    -0.153 C  
HETATM    8  O   UNL     1      -9.762   9.277  68.430  1.00  0.00    -0.149 OA 
HETATM    9  N   UNL     1      -9.916   8.001  70.312  1.00  0.00    -0.188 N  
HETATM   10  H   UNL     1      -9.440   7.384  70.970  1.00  0.00     0.000 HD 
BRANCH   9  11
HETATM   11  C   UNL     1     -11.327   8.279  70.481  1.00  0.00    -0.219 C  
BRANCH  11  12
HETATM   12  C   UNL     1     -11.628   9.225  71.639  1.00  0.00    -0.463 C  
BRANCH  12  13
HETATM   13  C   UNL     1     -12.852  10.105  71.428  1.00  0.00    -0.428 C  
HETATM   14  O   UNL     1     -13.675  10.058  72.591  1.00  0.00    -0.628 OA 
HETATM   15  H   UNL     1     -14.438  10.607  72.459  1.00  0.00     0.000 HD 
ENDBRANCH  12  13
ENDBRANCH  11  12
ENDBRANCH   9  11
ENDBRANCH   4   7
ENDBRANCH   2   4
BRANCH   2  16
HETATM   16  C   UNL     1      -6.981   8.812  71.585  1.00  0.00    -0.072 C  
HETATM   17  O   UNL     1      -6.067   7.829  72.059  1.00  0.00    -0.039 OA 
HETATM   18  H   UNL     1      -6.186   7.651  72.985  1.00  0.00     0.000 HD 
ENDBRANCH   2  16
TORSDOF 6
ENDMDL
MODEL      297
REMARK 921   NORMALIZED FREE ENERGY PREDICTED BY IDOCK:   -1.83 KCAL/MOL
REMARK 922        TOTAL FREE ENERGY PREDICTED BY IDOCK:   -3.00 KCAL/MOL
REMARK 923 INTER-LIGAND FREE ENERGY PREDICTED BY IDOCK:   -2.45 KCAL/MOL
REMARK 924 INTRA-LIGAND FREE ENERGY PREDICTED BY IDOCK:   -0.56 KCAL/MOL
REMARK 927      BINDING AFFINITY PREDICTED BY RF-SCORE:    0.00 PKD
ROOT
HETATM    1  C   UNL     1      -8.736   9.541  70.344  1.00  0.00    -0.265 C  
HETATM    2  C   UNL     1      -9.352   8.140  70.101  1.00  0.00    -0.159 C  
HETATM    3  C   UNL     1     -10.785   8.367  69.575  1.00  0.00    -0.181 C  
ENDROOT
BRANCH   2   4
HETATM    4  C   UNL     1      -9.358   7.331  71.435  1.00  0.00    -0.149 C  
HETATM    5  O   UNL     1      -9.943   8.067  72.517  1.00  0.00    -0.219 OA 
HETATM    6  H   UNL     1      -9.947   7.575  73.329  1.00  0.00     0.000 HD 
BRANCH   4   7
HETATM    7  C   UNL     1     -10.070   5.960  71.345  1.00  0.00    -0.197 C  
HETATM    8  O   UNL     1     -11.272   5.787  71.541  1.00  0.00    -0.253 OA 
HETATM    9  N   UNL     1      -9.243   4.919  70.971  1.00  0.00    -0.139 N  
HETATM   10  H   UNL     1      -8.258   5.099  70.780  1.00  0.00     0.000 HD 
BRANCH   9  11
HETATM   11  C   UNL     1      -9.763   3.573  70.849  1.00  0.00    -0.143 C  
BRANCH  11  12
HETATM   12  C   UNL     1      -9.388   2.666  72.016  1.00  0.00    -0.172 C  
BRANCH  12  13
HETATM   13  C   UNL     1     -10.545   2.332  72.948  1.00  0.00    -0.149 C  
HETATM   14  O   UNL     1     -11.005   3.527  73.577  1.00  0.00    -0.208 OA 
HETATM   15  H   UNL     1     -11.727   3.318  74.157  1.00  0.00     0.000 HD 
ENDBRANCH  12  13
ENDBRANCH  11  12
ENDBRANCH   9  11
ENDBRANCH   4   7
ENDBRANCH   2   4
BRANCH   2  16
HETATM   16  C   UNL     1      -8.470   7.415  69.050  1.00  0.00    -0.129 C  
HETATM   17  O   UNL     1      -7.313   6.833  69.638  1.00  0.00    -0.082 OA 
HETATM   18  H   UNL     1      -6.773   6.389  68.995  1.00  0.00     0.000 HD 
ENDBRANCH   2  16
TORSDOF 6
ENDMDL
MODEL      298
REMARK 921   NORMALIZED FREE ENERGY PREDICTED BY IDOCK:   -1.81 KCAL/MOL
REMARK 922        TOTAL FREE ENERGY PREDICTED BY IDOCK:   -2.97 KCAL/MOL
REMARK 923 INTER-LIGAND FREE ENERGY PREDICTED BY IDOCK:   -2.89 KCAL/MOL
REMARK 924 INTRA-LIGAND FREE ENERGY PREDICTED BY IDOCK:   -0.08 KCAL/MOL
REMARK 927      BINDING AFFINITY PREDICTED BY RF-SCORE:    0.00 PKD
ROOT
HETATM    1  C   UNL     1     -10.641   7.006  70.788  1.00  0.00    -0.240 C  
HETATM    2  C   UNL     1     -10.038   8.327  70.249  1.00  0.00    -0.195 C  
HETATM    3  C   UNL     1     -10.625   9.468  71.106  1.00  0.00    -0.388 C  
ENDROOT
BRANCH   2   4
HETATM    4  C   UNL     1     -10.409   8.499  68.744  1.00  0.00    -0.213 C  
HETATM    5  O   UNL     1     -11.452   9.462  68.546  1.00  0.00    -0.379 OA 
HETATM    6  H   UNL     1     -11.678   9.567  67.629  1.00  0.00     0.000 HD 
BRANCH   4   7
HETATM    7  C   UNL     1      -9.218   8.886  67.834  1.00  0.00    -0.138 C  
HETATM    8  O   UNL     1      -8.196   8.216  67.705  1.00  0.00    -0.124 OA 
HETATM    9  N   UNL     1      -9.412  10.050  67.117  1.00  0.00    -0.152 N  
HETATM   10  H   UNL     1     -10.287  10.565  67.216  1.00  0.00     0.000 HD 
BRANCH   9  11
HETATM   11  C   UNL     1      -8.385  10.545  66.225  1.00  0.00    -0.152 C  
BRANCH  11  12
HETATM   12  C   UNL     1      -8.789  10.517  64.754  1.00  0.00    -0.211 C  
BRANCH  12  13
HETATM   13  C   UNL     1      -8.540   9.185  64.061  1.00  0.00    -0.166 C  
HETATM   14  O   UNL     1      -7.622   8.415  64.834  1.00  0.00    -0.090 OA 
HETATM   15  H   UNL     1      -7.467   7.583  64.401  1.00  0.00     0.000 HD 
ENDBRANCH  12  13
ENDBRANCH  11  12
ENDBRANCH   9  11
ENDBRANCH   4   7
ENDBRANCH   2   4
BRANCH   2  16
HETATM   16  C   UNL     1      -8.496   8.237  70.404  1.00  0.00    -0.129 C  
HETATM   17  O   UNL     1      -8.009   9.139  71.392  1.00  0.00    -0.314 OA 
HETATM   18  H   UNL     1      -7.065   9.084  71.487  1.00  0.00     0.000 HD 
ENDBRANCH   2  16
TORSDOF 6
ENDMDL
MODEL      299
REMARK 921   NORMALIZED FREE ENERGY PREDICTED BY IDOCK:   -1.81 KCAL/MOL
REMARK 922        TOTAL FREE ENERGY PREDICTED BY IDOCK:   -2.96 KCAL/MOL
REMARK 923 INTER-LIGAND FREE ENERGY PREDICTED BY IDOCK:   -2.30 KCAL/MOL
REMARK 924 INTRA-LIGAND FREE ENERGY PREDICTED BY IDOCK:   -0.66 KCAL/MOL
REMARK 927      BINDING AFFINITY PREDICTED BY RF-SCORE:    0.00 PKD
ROOT
HETATM    1  C   UNL     1     -10.295   5.472  69.104  1.00  0.00    -0.318 C  
HETATM    2  C   UNL     1      -9.737   5.980  67.752  1.00  0.00    -0.119 C  
HETATM    3  C   UNL     1     -10.784   5.624  66.675  1.00  0.00    -0.339 C  
ENDROOT
BRANCH   2   4
HETATM    4  C   UNL     1      -8.366   5.298  67.459  1.00  0.00    -0.106 C  
HETATM    5  O   UNL     1      -7.501   5.300  68.603  1.00  0.00    -0.069 OA 
HETATM    6  H   UNL     1      -6.666   4.885  68.426  1.00  0.00     0.000 HD 
BRANCH   4   7
HETATM    7  C   UNL     1      -8.474   3.843  66.942  1.00  0.00    -0.104 C  
HETATM    8  O   UNL     1      -8.777   2.878  67.640  1.00  0.00    -0.095 OA 
HETATM    9  N   UNL     1      -8.247   3.709  65.586  1.00  0.00    -0.097 N  
HETATM   10  H   UNL     1      -8.034   4.534  65.025  1.00  0.00     0.000 HD 
BRANCH   9  11
HETATM   11  C   UNL     1      -8.308   2.408  64.954  1.00  0.00    -0.089 C  
BRANCH  11  12
HETATM   12  C   UNL     1      -9.139   2.390  63.676  1.00  0.00    -0.095 C  
BRANCH  12  13
HETATM   13  C   UNL     1     -10.432   3.189  63.757  1.00  0.00    -0.218 C  
HETATM   14  O   UNL     1     -10.214   4.495  63.228  1.00  0.00    -0.387 OA 
HETATM   15  H   UNL     1     -11.021   4.994  63.278  1.00  0.00     0.000 HD 
ENDBRANCH  12  13
ENDBRANCH  11  12
ENDBRANCH   9  11
ENDBRANCH   4   7
ENDBRANCH   2   4
BRANCH   2  16
HETATM   16  C   UNL     1      -9.547   7.516  67.869  1.00  0.00    -0.143 C  
HETATM   17  O   UNL     1      -8.251   7.924  67.446  1.00  0.00    -0.120 OA 
HETATM   18  H   UNL     1      -8.133   8.864  67.518  1.00  0.00     0.000 HD 
ENDBRANCH   2  16
TORSDOF 6
ENDMDL
MODEL      300
REMARK 921   NORMALIZED FREE ENERGY PREDICTED BY IDOCK:   -1.80 KCAL/MOL
REMARK 922        TOTAL FREE ENERGY PREDICTED BY IDOCK:   -2.96 KCAL/MOL
REMARK 923 INTER-LIGAND FREE ENERGY PREDICTED BY IDOCK:   -3.04 KCAL/MOL
REMARK 924 INTRA-LIGAND FREE ENERGY PREDICTED BY IDOCK:    0.08 KCAL/MOL
REMARK 927      BINDING AFFINITY PREDICTED BY RF-SCORE:    0.00 PKD
ROOT
HETATM    1  C   UNL     1      -7.671   9.862  69.960  1.00  0.00    -0.188 C  
HETATM    2  C   UNL     1      -7.340   9.004  68.714  1.00  0.00    -0.076 C  
HETATM    3  C   UNL     1      -5.812   8.788  68.713  1.00  0.00    -0.041 C  
ENDROOT
BRANCH   2   4
HETATM    4  C   UNL     1      -7.810   9.748  67.425  1.00  0.00    -0.099 C  
HETATM    5  O   UNL     1      -7.523   9.005  66.233  1.00  0.00    -0.090 OA 
HETATM    6  H   UNL     1      -7.808   9.457  65.448  1.00  0.00     0.000 HD 
BRANCH   4   7
HETATM    7  C   UNL     1      -9.314  10.115  67.413  1.00  0.00    -0.148 C  
HETATM    8  O   UNL     1     -10.190   9.472  67.986  1.00  0.00    -0.179 OA 
HETATM    9  N   UNL     1      -9.603  11.279  66.730  1.00  0.00    -0.190 N  
HETATM   10  H   UNL     1      -8.849  11.812  66.295  1.00  0.00     0.000 HD 
BRANCH   9  11
HETATM   11  C   UNL     1     -10.968  11.752  66.626  1.00  0.00    -0.294 C  
BRANCH  11  12
HETATM   12  C   UNL     1     -11.080  13.184  66.114  1.00  0.00    -0.301 C  
BRANCH  12  13
HETATM   13  C   UNL     1     -11.792  13.318  64.775  1.00  0.00    -0.371 C  
HETATM   14  O   UNL     1     -13.098  12.753  64.876  1.00  0.00    -0.833 OA 
HETATM   15  H   UNL     1     -13.542  12.836  64.041  1.00  0.00     0.000 HD 
ENDBRANCH  12  13
ENDBRANCH  11  12
ENDBRANCH   9  11
ENDBRANCH   4   7
ENDBRANCH   2   4
BRANCH   2  16
HETATM   16  C   UNL     1      -8.102   7.660  68.853  1.00  0.00    -0.127 C  
HETATM   17  O   UNL     1      -7.685   6.710  67.878  1.00  0.00    -0.104 OA 
HETATM   18  H   UNL     1      -8.151   5.886  67.963  1.00  0.00     0.000 HD 
ENDBRANCH   2  16
TORSDOF 6
ENDMDL
MODEL      301
REMARK 921   NORMALIZED FREE ENERGY PREDICTED BY IDOCK:   -1.80 KCAL/MOL
REMARK 922        TOTAL FREE ENERGY PREDICTED BY IDOCK:   -2.95 KCAL/MOL
REMARK 923 INTER-LIGAND FREE ENERGY PREDICTED BY IDOCK:   -2.41 KCAL/MOL
REMARK 924 INTRA-LIGAND FREE ENERGY PREDICTED BY IDOCK:   -0.54 KCAL/MOL
REMARK 927      BINDING AFFINITY PREDICTED BY RF-SCORE:    0.00 PKD
ROOT
HETATM    1  C   UNL     1      -6.259   7.437  66.089  1.00  0.00    -0.041 C  
HETATM    2  C   UNL     1      -7.581   7.953  65.470  1.00  0.00    -0.083 C  
HETATM    3  C   UNL     1      -7.622   9.477  65.708  1.00  0.00    -0.100 C  
ENDROOT
BRANCH   2   4
HETATM    4  C   UNL     1      -8.792   7.239  66.147  1.00  0.00    -0.158 C  
HETATM    5  O   UNL     1      -8.910   5.868  65.746  1.00  0.00    -0.150 OA 
HETATM    6  H   UNL     1      -9.646   5.433  66.158  1.00  0.00     0.000 HD 
BRANCH   4   7
HETATM    7  C   UNL     1      -8.777   7.288  67.694  1.00  0.00    -0.125 C  
HETATM    8  O   UNL     1      -8.878   8.318  68.357  1.00  0.00    -0.136 OA 
HETATM    9  N   UNL     1      -8.689   6.048  68.296  1.00  0.00    -0.114 N  
HETATM   10  H   UNL     1      -8.645   5.208  67.719  1.00  0.00     0.000 HD 
BRANCH   9  11
HETATM   11  C   UNL     1      -8.660   5.931  69.739  1.00  0.00    -0.129 C  
BRANCH  11  12
HETATM   12  C   UNL     1      -9.867   5.199  70.316  1.00  0.00    -0.295 C  
BRANCH  12  13
HETATM   13  C   UNL     1     -11.129   6.046  70.406  1.00  0.00    -0.329 C  
HETATM   14  O   UNL     1     -10.768   7.414  70.587  1.00  0.00    -0.221 OA 
HETATM   15  H   UNL     1     -11.555   7.942  70.642  1.00  0.00     0.000 HD 
ENDBRANCH  12  13
ENDBRANCH  11  12
ENDBRANCH   9  11
ENDBRANCH   4   7
ENDBRANCH   2   4
BRANCH   2  16
HETATM   16  C   UNL     1      -7.553   7.617  63.955  1.00  0.00    -0.118 C  
HETATM   17  O   UNL     1      -8.635   8.224  63.257  1.00  0.00    -0.411 OA 
HETATM   18  H   UNL     1      -8.618   8.019  62.329  1.00  0.00     0.000 HD 
ENDBRANCH   2  16
TORSDOF 6
ENDMDL
MODEL      302
REMARK 921   NORMALIZED FREE ENERGY PREDICTED BY IDOCK:   -1.80 KCAL/MOL
REMARK 922        TOTAL FREE ENERGY PREDICTED BY IDOCK:   -2.95 KCAL/MOL
REMARK 923 INTER-LIGAND FREE ENERGY PREDICTED BY IDOCK:   -2.86 KCAL/MOL
REMARK 924 INTRA-LIGAND FREE ENERGY PREDICTED BY IDOCK:   -0.09 KCAL/MOL
REMARK 927      BINDING AFFINITY PREDICTED BY RF-SCORE:    0.00 PKD
ROOT
HETATM    1  C   UNL     1      -7.135  10.660  69.739  1.00  0.00    -0.140 C  
HETATM    2  C   UNL     1      -7.211   9.119  69.869  1.00  0.00    -0.062 C  
HETATM    3  C   UNL     1      -5.778   8.583  69.674  1.00  0.00    -0.030 C  
ENDROOT
BRANCH   2   4
HETATM    4  C   UNL     1      -8.183   8.548  68.790  1.00  0.00    -0.122 C  
HETATM    5  O   UNL     1      -9.030   7.515  69.310  1.00  0.00    -0.136 OA 
HETATM    6  H   UNL     1      -9.621   7.168  68.654  1.00  0.00     0.000 HD 
BRANCH   4   7
HETATM    7  C   UNL     1      -9.082   9.613  68.115  1.00  0.00    -0.122 C  
HETATM    8  O   UNL     1      -8.771  10.249  67.111  1.00  0.00    -0.129 OA 
HETATM    9  N   UNL     1     -10.318   9.766  68.712  1.00  0.00    -0.200 N  
HETATM   10  H   UNL     1     -10.563   9.197  69.522  1.00  0.00     0.000 HD 
BRANCH   9  11
HETATM   11  C   UNL     1     -11.270  10.728  68.197  1.00  0.00    -0.302 C  
BRANCH  11  12
HETATM   12  C   UNL     1     -11.394  11.982  69.056  1.00  0.00    -0.331 C  
BRANCH  12  13
HETATM   13  C   UNL     1     -11.461  13.281  68.263  1.00  0.00    -0.316 C  
HETATM   14  O   UNL     1     -12.298  14.210  68.948  1.00  0.00    -0.538 OA 
HETATM   15  H   UNL     1     -12.339  15.020  68.454  1.00  0.00     0.000 HD 
ENDBRANCH  12  13
ENDBRANCH  11  12
ENDBRANCH   9  11
ENDBRANCH   4   7
ENDBRANCH   2   4
BRANCH   2  16
HETATM   16  C   UNL     1      -7.750   8.793  71.287  1.00  0.00    -0.120 C  
HETATM   17  O   UNL     1      -6.827   9.165  72.304  1.00  0.00    -0.312 OA 
HETATM   18  H   UNL     1      -7.156   8.965  73.173  1.00  0.00     0.000 HD 
ENDBRANCH   2  16
TORSDOF 6
ENDMDL
MODEL      303
REMARK 921   NORMALIZED FREE ENERGY PREDICTED BY IDOCK:   -1.78 KCAL/MOL
REMARK 922        TOTAL FREE ENERGY PREDICTED BY IDOCK:   -2.92 KCAL/MOL
REMARK 923 INTER-LIGAND FREE ENERGY PREDICTED BY IDOCK:   -2.55 KCAL/MOL
REMARK 924 INTRA-LIGAND FREE ENERGY PREDICTED BY IDOCK:   -0.37 KCAL/MOL
REMARK 927      BINDING AFFINITY PREDICTED BY RF-SCORE:    0.00 PKD
ROOT
HETATM    1  C   UNL     1      -9.126   9.122  70.980  1.00  0.00    -0.305 C  
HETATM    2  C   UNL     1      -8.620   9.302  69.527  1.00  0.00    -0.147 C  
HETATM    3  C   UNL     1      -7.551  10.415  69.562  1.00  0.00    -0.158 C  
ENDROOT
BRANCH   2   4
HETATM    4  C   UNL     1      -9.813   9.688  68.599  1.00  0.00    -0.161 C  
HETATM    5  O   UNL     1      -9.825  11.086  68.280  1.00  0.00    -0.166 OA 
HETATM    6  H   UNL     1     -10.551  11.321  67.716  1.00  0.00     0.000 HD 
BRANCH   4   7
HETATM    7  C   UNL     1      -9.872   8.892  67.273  1.00  0.00    -0.199 C  
HETATM    8  O   UNL     1     -10.522   7.862  67.110  1.00  0.00    -0.297 OA 
HETATM    9  N   UNL     1      -9.160   9.467  66.239  1.00  0.00    -0.154 N  
HETATM   10  H   UNL     1      -8.660  10.342  66.394  1.00  0.00     0.000 HD 
BRANCH   9  11
HETATM   11  C   UNL     1      -9.116   8.837  64.936  1.00  0.00     0.079 C  
BRANCH  11  12
HETATM   12  C   UNL     1      -9.254   9.820  63.778  1.00  0.00    -0.237 C  
BRANCH  12  13
HETATM   13  C   UNL     1      -9.994  11.103  64.131  1.00  0.00    -0.316 C  
HETATM   14  O   UNL     1      -9.058  12.076  64.591  1.00  0.00    -0.310 OA 
HETATM   15  H   UNL     1      -9.520  12.877  64.810  1.00  0.00     0.000 HD 
ENDBRANCH  12  13
ENDBRANCH  11  12
ENDBRANCH   9  11
ENDBRANCH   4   7
ENDBRANCH   2   4
BRANCH   2  16
HETATM   16  C   UNL     1      -8.013   7.949  69.069  1.00  0.00    -0.122 C  
HETATM   17  O   UNL     1      -6.734   8.117  68.469  1.00  0.00    -0.060 OA 
HETATM   18  H   UNL     1      -6.363   7.288  68.188  1.00  0.00     0.000 HD 
ENDBRANCH   2  16
TORSDOF 6
ENDMDL
MODEL      304
REMARK 921   NORMALIZED FREE ENERGY PREDICTED BY IDOCK:   -1.76 KCAL/MOL
REMARK 922        TOTAL FREE ENERGY PREDICTED BY IDOCK:   -2.90 KCAL/MOL
REMARK 923 INTER-LIGAND FREE ENERGY PREDICTED BY IDOCK:   -2.73 KCAL/MOL
REMARK 924 INTRA-LIGAND FREE ENERGY PREDICTED BY IDOCK:   -0.16 KCAL/MOL
REMARK 927      BINDING AFFINITY PREDICTED BY RF-SCORE:    0.00 PKD
ROOT
HETATM    1  C   UNL     1      -6.915   8.182  66.084  1.00  0.00    -0.058 C  
HETATM    2  C   UNL     1      -8.021   8.862  65.240  1.00  0.00    -0.116 C  
HETATM    3  C   UNL     1      -7.563  10.315  64.990  1.00  0.00    -0.124 C  
ENDROOT
BRANCH   2   4
HETATM    4  C   UNL     1      -9.375   8.818  66.013  1.00  0.00    -0.232 C  
HETATM    5  O   UNL     1      -9.455   7.701  66.909  1.00  0.00    -0.152 OA 
HETATM    6  H   UNL     1     -10.278   7.673  67.379  1.00  0.00     0.000 HD 
BRANCH   4   7
HETATM    7  C   UNL     1      -9.693  10.102  66.817  1.00  0.00    -0.187 C  
HETATM    8  O   UNL     1      -9.029  10.508  67.769  1.00  0.00    -0.131 OA 
HETATM    9  N   UNL     1     -10.782  10.807  66.344  1.00  0.00    -0.205 N  
HETATM   10  H   UNL     1     -11.291  10.465  65.529  1.00  0.00     0.000 HD 
BRANCH   9  11
HETATM   11  C   UNL     1     -11.207  12.029  66.994  1.00  0.00    -0.320 C  
BRANCH  11  12
HETATM   12  C   UNL     1     -10.684  13.293  66.319  1.00  0.00    -0.293 C  
BRANCH  12  13
HETATM   13  C   UNL     1      -9.529  13.963  67.051  1.00  0.00    -0.254 C  
HETATM   14  O   UNL     1      -8.840  14.830  66.153  1.00  0.00    -0.472 OA 
HETATM   15  H   UNL     1      -8.120  15.248  66.610  1.00  0.00     0.000 HD 
ENDBRANCH  12  13
ENDBRANCH  11  12
ENDBRANCH   9  11
ENDBRANCH   4   7
ENDBRANCH   2   4
BRANCH   2  16
HETATM   16  C   UNL     1      -8.149   8.073  63.910  1.00  0.00    -0.097 C  
HETATM   17  O   UNL     1      -7.138   8.438  62.976  1.00  0.00    -0.089 OA 
HETATM   18  H   UNL     1      -7.216   7.955  62.162  1.00  0.00     0.000 HD 
ENDBRANCH   2  16
TORSDOF 6
ENDMDL
MODEL      305
REMARK 921   NORMALIZED FREE ENERGY PREDICTED BY IDOCK:   -1.74 KCAL/MOL
REMARK 922        TOTAL FREE ENERGY PREDICTED BY IDOCK:   -2.87 KCAL/MOL
REMARK 923 INTER-LIGAND FREE ENERGY PREDICTED BY IDOCK:   -2.61 KCAL/MOL
REMARK 924 INTRA-LIGAND FREE ENERGY PREDICTED BY IDOCK:   -0.27 KCAL/MOL
REMARK 927      BINDING AFFINITY PREDICTED BY RF-SCORE:    0.00 PKD
ROOT
HETATM    1  C   UNL     1     -10.977   6.819  68.068  1.00  0.00    -0.289 C  
HETATM    2  C   UNL     1     -10.508   6.644  69.534  1.00  0.00    -0.253 C  
HETATM    3  C   UNL     1     -11.779   6.582  70.405  1.00  0.00    -0.439 C  
ENDROOT
BRANCH   2   4
HETATM    4  C   UNL     1      -9.597   7.842  69.941  1.00  0.00    -0.168 C  
HETATM    5  O   UNL     1     -10.132   9.103  69.515  1.00  0.00    -0.184 OA 
HETATM    6  H   UNL     1      -9.577   9.833  69.763  1.00  0.00     0.000 HD 
BRANCH   4   7
HETATM    7  C   UNL     1      -9.302   7.933  71.458  1.00  0.00    -0.143 C  
HETATM    8  O   UNL     1      -9.912   8.657  72.242  1.00  0.00    -0.308 OA 
HETATM    9  N   UNL     1      -8.306   7.080  71.890  1.00  0.00    -0.106 N  
HETATM   10  H   UNL     1      -7.843   6.464  71.222  1.00  0.00     0.000 HD 
BRANCH   9  11
HETATM   11  C   UNL     1      -7.913   7.053  73.283  1.00  0.00    -0.097 C  
BRANCH  11  12
HETATM   12  C   UNL     1      -8.238   5.737  73.983  1.00  0.00    -0.108 C  
BRANCH  12  13
HETATM   13  C   UNL     1      -7.026   4.858  74.260  1.00  0.00    -0.073 C  
HETATM   14  O   UNL     1      -7.385   3.489  74.084  1.00  0.00    -0.051 OA 
HETATM   15  H   UNL     1      -6.629   2.941  74.256  1.00  0.00     0.000 HD 
ENDBRANCH  12  13
ENDBRANCH  11  12
ENDBRANCH   9  11
ENDBRANCH   4   7
ENDBRANCH   2   4
BRANCH   2  16
HETATM   16  C   UNL     1      -9.702   5.320  69.613  1.00  0.00    -0.182 C  
HETATM   17  O   UNL     1      -9.966   4.609  70.818  1.00  0.00    -0.205 OA 
HETATM   18  H   UNL     1      -9.473   3.798  70.867  1.00  0.00     0.000 HD 
ENDBRANCH   2  16
TORSDOF 6
ENDMDL
MODEL      306
REMARK 921   NORMALIZED FREE ENERGY PREDICTED BY IDOCK:   -1.72 KCAL/MOL
REMARK 922        TOTAL FREE ENERGY PREDICTED BY IDOCK:   -2.84 KCAL/MOL
REMARK 923 INTER-LIGAND FREE ENERGY PREDICTED BY IDOCK:   -2.72 KCAL/MOL
REMARK 924 INTRA-LIGAND FREE ENERGY PREDICTED BY IDOCK:   -0.12 KCAL/MOL
REMARK 927      BINDING AFFINITY PREDICTED BY RF-SCORE:    0.00 PKD
ROOT
HETATM    1  C   UNL     1      -6.736   9.632  68.041  1.00  0.00    -0.062 C  
HETATM    2  C   UNL     1      -7.308  10.279  69.327  1.00  0.00    -0.099 C  
HETATM    3  C   UNL     1      -6.400   9.834  70.492  1.00  0.00    -0.100 C  
ENDROOT
BRANCH   2   4
HETATM    4  C   UNL     1      -8.780   9.809  69.541  1.00  0.00    -0.185 C  
HETATM    5  O   UNL     1      -9.140   9.760  70.927  1.00  0.00    -0.343 OA 
HETATM    6  H   UNL     1     -10.036   9.474  71.058  1.00  0.00     0.000 HD 
BRANCH   4   7
HETATM    7  C   UNL     1      -9.836  10.663  68.799  1.00  0.00    -0.191 C  
HETATM    8  O   UNL     1     -10.795  11.207  69.342  1.00  0.00    -0.237 OA 
HETATM    9  N   UNL     1      -9.591  10.815  67.448  1.00  0.00    -0.158 N  
HETATM   10  H   UNL     1      -8.766  10.381  67.032  1.00  0.00     0.000 HD 
BRANCH   9  11
HETATM   11  C   UNL     1     -10.494  11.584  66.618  1.00  0.00    -0.238 C  
BRANCH  11  12
HETATM   12  C   UNL     1     -10.176  11.496  65.129  1.00  0.00    -0.322 C  
BRANCH  12  13
HETATM   13  C   UNL     1      -9.189  10.396  64.762  1.00  0.00    -0.230 C  
HETATM   14  O   UNL     1      -9.774   9.125  65.039  1.00  0.00    -0.428 OA 
HETATM   15  H   UNL     1      -9.159   8.439  64.810  1.00  0.00     0.000 HD 
ENDBRANCH  12  13
ENDBRANCH  11  12
ENDBRANCH   9  11
ENDBRANCH   4   7
ENDBRANCH   2   4
BRANCH   2  16
HETATM   16  C   UNL     1      -7.270  11.818  69.135  1.00  0.00    -0.043 C  
HETATM   17  O   UNL     1      -7.032  12.179  67.779  1.00  0.00    -0.089 OA 
HETATM   18  H   UNL     1      -7.009  13.122  67.661  1.00  0.00     0.000 HD 
ENDBRANCH   2  16
TORSDOF 6
ENDMDL
MODEL      307
REMARK 921   NORMALIZED FREE ENERGY PREDICTED BY IDOCK:   -1.70 KCAL/MOL
REMARK 922        TOTAL FREE ENERGY PREDICTED BY IDOCK:   -2.82 KCAL/MOL
REMARK 923 INTER-LIGAND FREE ENERGY PREDICTED BY IDOCK:   -2.33 KCAL/MOL
REMARK 924 INTRA-LIGAND FREE ENERGY PREDICTED BY IDOCK:   -0.49 KCAL/MOL
REMARK 927      BINDING AFFINITY PREDICTED BY RF-SCORE:    0.00 PKD
ROOT
HETATM    1  C   UNL     1      -8.698   9.420  70.342  1.00  0.00    -0.278 C  
HETATM    2  C   UNL     1      -8.244  10.137  69.046  1.00  0.00    -0.132 C  
HETATM    3  C   UNL     1      -7.272   9.181  68.323  1.00  0.00    -0.078 C  
ENDROOT
BRANCH   2   4
HETATM    4  C   UNL     1      -7.550  11.486  69.407  1.00  0.00     0.164 C  
HETATM    5  O   UNL     1      -6.139  11.337  69.610  1.00  0.00    -0.075 OA 
HETATM    6  H   UNL     1      -5.717  12.158  69.831  1.00  0.00     0.000 HD 
BRANCH   4   7
HETATM    7  C   UNL     1      -7.770  12.614  68.370  1.00  0.00    -0.133 C  
HETATM    8  O   UNL     1      -7.352  12.585  67.214  1.00  0.00    -0.144 OA 
HETATM    9  N   UNL     1      -8.533  13.667  68.835  1.00  0.00    -0.358 N  
HETATM   10  H   UNL     1      -8.897  13.645  69.788  1.00  0.00     0.000 HD 
BRANCH   9  11
HETATM   11  C   UNL     1      -8.821  14.801  67.982  1.00  0.00    -0.169 C  
BRANCH  11  12
HETATM   12  C   UNL     1     -10.182  14.719  67.298  1.00  0.00    -0.241 C  
BRANCH  12  13
HETATM   13  C   UNL     1     -11.367  14.887  68.239  1.00  0.00    -0.310 C  
HETATM   14  O   UNL     1     -11.591  13.666  68.940  1.00  0.00    -0.274 OA 
HETATM   15  H   UNL     1     -12.330  13.771  69.528  1.00  0.00     0.000 HD 
ENDBRANCH  12  13
ENDBRANCH  11  12
ENDBRANCH   9  11
ENDBRANCH   4   7
ENDBRANCH   2   4
BRANCH   2  16
HETATM   16  C   UNL     1      -9.511  10.409  68.191  1.00  0.00    -0.145 C  
HETATM   17  O   UNL     1      -9.304  10.090  66.820  1.00  0.00    -0.154 OA 
HETATM   18  H   UNL     1     -10.080  10.257  66.296  1.00  0.00     0.000 HD 
ENDBRANCH   2  16
TORSDOF 6
ENDMDL
MODEL      308
REMARK 921   NORMALIZED FREE ENERGY PREDICTED BY IDOCK:   -1.69 KCAL/MOL
REMARK 922        TOTAL FREE ENERGY PREDICTED BY IDOCK:   -2.81 KCAL/MOL
REMARK 923 INTER-LIGAND FREE ENERGY PREDICTED BY IDOCK:   -2.79 KCAL/MOL
REMARK 924 INTRA-LIGAND FREE ENERGY PREDICTED BY IDOCK:   -0.02 KCAL/MOL
REMARK 927      BINDING AFFINITY PREDICTED BY RF-SCORE:    0.00 PKD
ROOT
HETATM    1  C   UNL     1     -13.114  10.128  69.981  1.00  0.00     0.349 C  
HETATM    2  C   UNL     1     -11.850  10.888  69.509  1.00  0.00    -0.404 C  
HETATM    3  C   UNL     1     -11.688  12.107  70.441  1.00  0.00    -0.150 C  
ENDROOT
BRANCH   2   4
HETATM    4  C   UNL     1     -12.024  11.328  68.023  1.00  0.00    -0.057 C  
HETATM    5  O   UNL     1     -12.079  12.753  67.879  1.00  0.00    -0.313 OA 
HETATM    6  H   UNL     1     -12.185  13.021  66.975  1.00  0.00     0.000 HD 
BRANCH   4   7
HETATM    7  C   UNL     1     -10.933  10.789  67.066  1.00  0.00    -0.227 C  
HETATM    8  O   UNL     1     -10.708   9.597  66.869  1.00  0.00    -0.203 OA 
HETATM    9  N   UNL     1     -10.240  11.775  66.392  1.00  0.00    -0.210 N  
HETATM   10  H   UNL     1     -10.474  12.755  66.548  1.00  0.00     0.000 HD 
BRANCH   9  11
HETATM   11  C   UNL     1      -9.184  11.428  65.463  1.00  0.00    -0.177 C  
BRANCH  11  12
HETATM   12  C   UNL     1      -9.687  11.099  64.062  1.00  0.00    -0.323 C  
BRANCH  12  13
HETATM   13  C   UNL     1      -9.270   9.726  63.553  1.00  0.00    -0.184 C  
HETATM   14  O   UNL     1      -9.215   8.813  64.647  1.00  0.00    -0.414 OA 
HETATM   15  H   UNL     1      -8.956   7.956  64.329  1.00  0.00     0.000 HD 
ENDBRANCH  12  13
ENDBRANCH  11  12
ENDBRANCH   9  11
ENDBRANCH   4   7
ENDBRANCH   2   4
BRANCH   2  16
HETATM   16  C   UNL     1     -10.645   9.917  69.633  1.00  0.00    -0.250 C  
HETATM   17  O   UNL     1      -9.533  10.529  70.276  1.00  0.00    -0.224 OA 
HETATM   18  H   UNL     1      -8.795   9.935  70.351  1.00  0.00     0.000 HD 
ENDBRANCH   2  16
TORSDOF 6
ENDMDL
MODEL      309
REMARK 921   NORMALIZED FREE ENERGY PREDICTED BY IDOCK:   -1.65 KCAL/MOL
REMARK 922        TOTAL FREE ENERGY PREDICTED BY IDOCK:   -2.75 KCAL/MOL
REMARK 923 INTER-LIGAND FREE ENERGY PREDICTED BY IDOCK:   -2.32 KCAL/MOL
REMARK 924 INTRA-LIGAND FREE ENERGY PREDICTED BY IDOCK:   -0.43 KCAL/MOL
REMARK 927      BINDING AFFINITY PREDICTED BY RF-SCORE:    0.00 PKD
ROOT
HETATM    1  C   UNL     1      -6.938   9.393  67.865  1.00  0.00    -0.080 C  
HETATM    2  C   UNL     1      -7.251  10.399  69.000  1.00  0.00    -0.088 C  
HETATM    3  C   UNL     1      -6.435   9.951  70.231  1.00  0.00    -0.103 C  
ENDROOT
BRANCH   2   4
HETATM    4  C   UNL     1      -8.782  10.394  69.300  1.00  0.00    -0.150 C  
HETATM    5  O   UNL     1      -9.523  11.184  68.361  1.00  0.00    -0.175 OA 
HETATM    6  H   UNL     1     -10.455  11.181  68.543  1.00  0.00     0.000 HD 
BRANCH   4   7
HETATM    7  C   UNL     1      -9.417   8.983  69.349  1.00  0.00    -0.159 C  
HETATM    8  O   UNL     1     -10.084   8.490  68.441  1.00  0.00    -0.183 OA 
HETATM    9  N   UNL     1      -9.133   8.277  70.501  1.00  0.00    -0.145 N  
HETATM   10  H   UNL     1      -8.546   8.699  71.221  1.00  0.00     0.000 HD 
BRANCH   9  11
HETATM   11  C   UNL     1      -9.660   6.943  70.696  1.00  0.00    -0.169 C  
BRANCH  11  12
HETATM   12  C   UNL     1      -9.870   6.579  72.162  1.00  0.00    -0.167 C  
BRANCH  12  13
HETATM   13  C   UNL     1     -10.186   7.765  73.063  1.00  0.00    -0.330 C  
HETATM   14  O   UNL     1     -11.214   8.552  72.466  1.00  0.00    -0.357 OA 
HETATM   15  H   UNL     1     -11.411   9.291  73.029  1.00  0.00     0.000 HD 
ENDBRANCH  12  13
ENDBRANCH  11  12
ENDBRANCH   9  11
ENDBRANCH   4   7
ENDBRANCH   2   4
BRANCH   2  16
HETATM   16  C   UNL     1      -6.815  11.807  68.514  1.00  0.00    -0.075 C  
HETATM   17  O   UNL     1      -7.008  11.968  67.113  1.00  0.00    -0.140 OA 
HETATM   18  H   UNL     1      -6.740  12.830  66.815  1.00  0.00     0.000 HD 
ENDBRANCH   2  16
TORSDOF 6
ENDMDL
MODEL      310
REMARK 921   NORMALIZED FREE ENERGY PREDICTED BY IDOCK:   -1.64 KCAL/MOL
REMARK 922        TOTAL FREE ENERGY PREDICTED BY IDOCK:   -2.73 KCAL/MOL
REMARK 923 INTER-LIGAND FREE ENERGY PREDICTED BY IDOCK:   -2.69 KCAL/MOL
REMARK 924 INTRA-LIGAND FREE ENERGY PREDICTED BY IDOCK:   -0.04 KCAL/MOL
REMARK 927      BINDING AFFINITY PREDICTED BY RF-SCORE:    0.00 PKD
ROOT
HETATM    1  C   UNL     1      -9.883   8.322  72.673  1.00  0.00    -0.357 C  
HETATM    2  C   UNL     1      -9.597   7.648  71.308  1.00  0.00    -0.171 C  
HETATM    3  C   UNL     1      -9.919   8.692  70.218  1.00  0.00    -0.204 C  
ENDROOT
BRANCH   2   4
HETATM    4  C   UNL     1     -10.484   6.374  71.155  1.00  0.00    -0.221 C  
HETATM    5  O   UNL     1     -11.809   6.567  71.669  1.00  0.00    -0.310 OA 
HETATM    6  H   UNL     1     -12.349   5.792  71.577  1.00  0.00     0.000 HD 
BRANCH   4   7
HETATM    7  C   UNL     1     -10.604   5.851  69.703  1.00  0.00    -0.313 C  
HETATM    8  O   UNL     1     -11.455   6.223  68.899  1.00  0.00    -0.331 OA 
HETATM    9  N   UNL     1      -9.626   4.942  69.350  1.00  0.00    -0.152 N  
HETATM   10  H   UNL     1      -8.910   4.680  70.028  1.00  0.00     0.000 HD 
BRANCH   9  11
HETATM   11  C   UNL     1      -9.607   4.358  68.025  1.00  0.00    -0.148 C  
BRANCH  11  12
HETATM   12  C   UNL     1      -8.710   5.104  67.043  1.00  0.00    -0.103 C  
BRANCH  12  13
HETATM   13  C   UNL     1      -8.796   4.601  65.609  1.00  0.00    -0.131 C  
HETATM   14  O   UNL     1      -8.009   5.440  64.766  1.00  0.00    -0.097 OA 
HETATM   15  H   UNL     1      -8.062   5.126  63.871  1.00  0.00     0.000 HD 
ENDBRANCH  12  13
ENDBRANCH  11  12
ENDBRANCH   9  11
ENDBRANCH   4   7
ENDBRANCH   2   4
BRANCH   2  16
HETATM   16  C   UNL     1      -8.097   7.251  71.286  1.00  0.00    -0.102 C  
HETATM   17  O   UNL     1      -7.255   8.371  71.039  1.00  0.00    -0.052 OA 
HETATM   18  H   UNL     1      -6.336   8.128  71.025  1.00  0.00     0.000 HD 
ENDBRANCH   2  16
TORSDOF 6
ENDMDL
MODEL      311
REMARK 921   NORMALIZED FREE ENERGY PREDICTED BY IDOCK:   -1.61 KCAL/MOL
REMARK 922        TOTAL FREE ENERGY PREDICTED BY IDOCK:   -2.69 KCAL/MOL
REMARK 923 INTER-LIGAND FREE ENERGY PREDICTED BY IDOCK:   -2.50 KCAL/MOL
REMARK 924 INTRA-LIGAND FREE ENERGY PREDICTED BY IDOCK:   -0.19 KCAL/MOL
REMARK 927      BINDING AFFINITY PREDICTED BY RF-SCORE:    0.00 PKD
ROOT
HETATM    1  C   UNL     1      -7.849   7.698  71.912  1.00  0.00    -0.096 C  
HETATM    2  C   UNL     1      -8.512   6.655  70.978  1.00  0.00    -0.129 C  
HETATM    3  C   UNL     1      -7.390   6.069  70.095  1.00  0.00    -0.078 C  
ENDROOT
BRANCH   2   4
HETATM    4  C   UNL     1      -9.612   7.345  70.116  1.00  0.00    -0.165 C  
HETATM    5  O   UNL     1     -10.936   7.022  70.561  1.00  0.00    -0.245 OA 
HETATM    6  H   UNL     1     -11.607   7.442  70.036  1.00  0.00     0.000 HD 
BRANCH   4   7
HETATM    7  C   UNL     1      -9.493   8.887  70.045  1.00  0.00    -0.178 C  
HETATM    8  O   UNL     1      -9.996   9.661  70.857  1.00  0.00    -0.262 OA 
HETATM    9  N   UNL     1      -8.715   9.344  69.000  1.00  0.00    -0.132 N  
HETATM   10  H   UNL     1      -8.279   8.676  68.364  1.00  0.00     0.000 HD 
BRANCH   9  11
HETATM   11  C   UNL     1      -8.513  10.764  68.798  1.00  0.00    -0.148 C  
BRANCH  11  12
HETATM   12  C   UNL     1      -9.487  11.383  67.802  1.00  0.00    -0.167 C  
BRANCH  12  13
HETATM   13  C   UNL     1      -8.874  12.450  66.905  1.00  0.00    -0.205 C  
HETATM   14  O   UNL     1      -9.382  12.304  65.581  1.00  0.00    -0.417 OA 
HETATM   15  H   UNL     1      -9.000  12.970  65.022  1.00  0.00     0.000 HD 
ENDBRANCH  12  13
ENDBRANCH  11  12
ENDBRANCH   9  11
ENDBRANCH   4   7
ENDBRANCH   2   4
BRANCH   2  16
HETATM   16  C   UNL     1      -9.154   5.563  71.875  1.00  0.00    -0.138 C  
HETATM   17  O   UNL     1      -9.515   6.072  73.155  1.00  0.00    -0.143 OA 
HETATM   18  H   UNL     1      -9.908   5.404  73.704  1.00  0.00     0.000 HD 
ENDBRANCH   2  16
TORSDOF 6
ENDMDL
MODEL      312
REMARK 921   NORMALIZED FREE ENERGY PREDICTED BY IDOCK:   -1.60 KCAL/MOL
REMARK 922        TOTAL FREE ENERGY PREDICTED BY IDOCK:   -2.69 KCAL/MOL
REMARK 923 INTER-LIGAND FREE ENERGY PREDICTED BY IDOCK:   -2.52 KCAL/MOL
REMARK 924 INTRA-LIGAND FREE ENERGY PREDICTED BY IDOCK:   -0.17 KCAL/MOL
REMARK 927      BINDING AFFINITY PREDICTED BY RF-SCORE:    0.00 PKD
ROOT
HETATM    1  C   UNL     1     -10.760  10.710  70.301  1.00  0.00    -0.063 C  
HETATM    2  C   UNL     1     -12.066  11.480  69.983  1.00  0.00    -0.408 C  
HETATM    3  C   UNL     1     -13.188  10.427  69.866  1.00  0.00     0.553 C  
ENDROOT
BRANCH   2   4
HETATM    4  C   UNL     1     -11.895  12.278  68.654  1.00  0.00    -0.305 C  
HETATM    5  O   UNL     1     -12.253  13.659  68.798  1.00  0.00    -0.339 OA 
HETATM    6  H   UNL     1     -12.149  14.145  67.989  1.00  0.00     0.000 HD 
BRANCH   4   7
HETATM    7  C   UNL     1     -10.472  12.211  68.048  1.00  0.00    -0.212 C  
HETATM    8  O   UNL     1     -10.039  11.264  67.396  1.00  0.00    -0.184 OA 
HETATM    9  N   UNL     1      -9.716  13.348  68.259  1.00  0.00    -0.226 N  
HETATM   10  H   UNL     1     -10.116  14.133  68.773  1.00  0.00     0.000 HD 
BRANCH   9  11
HETATM   11  C   UNL     1      -8.361  13.434  67.757  1.00  0.00    -0.178 C  
BRANCH  11  12
HETATM   12  C   UNL     1      -8.002  14.810  67.205  1.00  0.00    -0.232 C  
BRANCH  12  13
HETATM   13  C   UNL     1      -7.230  15.693  68.176  1.00  0.00    -0.115 C  
HETATM   14  O   UNL     1      -7.407  15.202  69.503  1.00  0.00    -0.188 OA 
HETATM   15  H   UNL     1      -6.925  15.752  70.109  1.00  0.00     0.000 HD 
ENDBRANCH  12  13
ENDBRANCH  11  12
ENDBRANCH   9  11
ENDBRANCH   4   7
ENDBRANCH   2   4
BRANCH   2  16
HETATM   16  C   UNL     1     -12.330  12.461  71.156  1.00  0.00    -0.141 C  
HETATM   17  O   UNL     1     -13.294  11.949  72.070  1.00  0.00    -0.487 OA 
HETATM   18  H   UNL     1     -13.456  12.550  72.788  1.00  0.00     0.000 HD 
ENDBRANCH   2  16
TORSDOF 6
ENDMDL
MODEL      313
REMARK 921   NORMALIZED FREE ENERGY PREDICTED BY IDOCK:   -1.59 KCAL/MOL
REMARK 922        TOTAL FREE ENERGY PREDICTED BY IDOCK:   -2.67 KCAL/MOL
REMARK 923 INTER-LIGAND FREE ENERGY PREDICTED BY IDOCK:   -2.60 KCAL/MOL
REMARK 924 INTRA-LIGAND FREE ENERGY PREDICTED BY IDOCK:   -0.07 KCAL/MOL
REMARK 927      BINDING AFFINITY PREDICTED BY RF-SCORE:    0.00 PKD
ROOT
HETATM    1  C   UNL     1      -9.885   6.034  69.150  1.00  0.00    -0.185 C  
HETATM    2  C   UNL     1      -9.410   6.858  67.927  1.00  0.00    -0.118 C  
HETATM    3  C   UNL     1     -10.654   7.115  67.051  1.00  0.00    -0.413 C  
ENDROOT
BRANCH   2   4
HETATM    4  C   UNL     1      -8.320   6.060  67.148  1.00  0.00    -0.105 C  
HETATM    5  O   UNL     1      -8.303   4.671  67.503  1.00  0.00    -0.104 OA 
HETATM    6  H   UNL     1      -7.640   4.185  67.028  1.00  0.00     0.000 HD 
BRANCH   4   7
HETATM    7  C   UNL     1      -8.436   6.161  65.607  1.00  0.00    -0.151 C  
HETATM    8  O   UNL     1      -8.936   5.296  64.890  1.00  0.00    -0.134 OA 
HETATM    9  N   UNL     1      -7.966   7.349  65.084  1.00  0.00    -0.123 N  
HETATM   10  H   UNL     1      -7.591   8.063  65.707  1.00  0.00     0.000 HD 
BRANCH   9  11
HETATM   11  C   UNL     1      -8.003   7.590  63.656  1.00  0.00    -0.074 C  
BRANCH  11  12
HETATM   12  C   UNL     1      -7.845   9.060  63.282  1.00  0.00    -0.135 C  
BRANCH  12  13
HETATM   13  C   UNL     1      -8.975   9.956  63.771  1.00  0.00    -0.250 C  
HETATM   14  O   UNL     1      -9.915  10.149  62.717  1.00  0.00    -0.516 OA 
HETATM   15  H   UNL     1     -10.620  10.707  63.022  1.00  0.00     0.000 HD 
ENDBRANCH  12  13
ENDBRANCH  11  12
ENDBRANCH   9  11
ENDBRANCH   4   7
ENDBRANCH   2   4
BRANCH   2  16
HETATM   16  C   UNL     1      -8.809   8.186  68.461  1.00  0.00    -0.134 C  
HETATM   17  O   UNL     1      -9.757   8.932  69.216  1.00  0.00    -0.161 OA 
HETATM   18  H   UNL     1      -9.389   9.745  69.542  1.00  0.00     0.000 HD 
ENDBRANCH   2  16
TORSDOF 6
ENDMDL
MODEL      314
REMARK 921   NORMALIZED FREE ENERGY PREDICTED BY IDOCK:   -1.51 KCAL/MOL
REMARK 922        TOTAL FREE ENERGY PREDICTED BY IDOCK:   -2.56 KCAL/MOL
REMARK 923 INTER-LIGAND FREE ENERGY PREDICTED BY IDOCK:   -2.38 KCAL/MOL
REMARK 924 INTRA-LIGAND FREE ENERGY PREDICTED BY IDOCK:   -0.19 KCAL/MOL
REMARK 927      BINDING AFFINITY PREDICTED BY RF-SCORE:    0.00 PKD
ROOT
HETATM    1  C   UNL     1     -11.117   7.836  72.598  1.00  0.00    -0.433 C  
HETATM    2  C   UNL     1     -10.090   7.240  71.604  1.00  0.00    -0.196 C  
HETATM    3  C   UNL     1      -9.802   8.330  70.551  1.00  0.00    -0.197 C  
ENDROOT
BRANCH   2   4
HETATM    4  C   UNL     1     -10.681   5.955  70.946  1.00  0.00    -0.273 C  
HETATM    5  O   UNL     1     -11.486   6.252  69.797  1.00  0.00    -0.430 OA 
HETATM    6  H   UNL     1     -11.846   5.471  69.396  1.00  0.00     0.000 HD 
BRANCH   4   7
HETATM    7  C   UNL     1      -9.621   4.906  70.531  1.00  0.00    -0.184 C  
HETATM    8  O   UNL     1      -9.386   3.872  71.153  1.00  0.00    -0.121 OA 
HETATM    9  N   UNL     1      -8.971   5.199  69.348  1.00  0.00    -0.098 N  
HETATM   10  H   UNL     1      -9.214   6.046  68.834  1.00  0.00     0.000 HD 
BRANCH   9  11
HETATM   11  C   UNL     1      -7.949   4.314  68.831  1.00  0.00    -0.072 C  
BRANCH  11  12
HETATM   12  C   UNL     1      -6.561   4.588  69.401  1.00  0.00    -0.040 C  
BRANCH  12  13
HETATM   13  C   UNL     1      -5.891   5.837  68.846  1.00  0.00    -0.016 C  
HETATM   14  O   UNL     1      -6.176   5.948  67.453  1.00  0.00    -0.031 OA 
HETATM   15  H   UNL     1      -5.759   6.728  67.107  1.00  0.00     0.000 HD 
ENDBRANCH  12  13
ENDBRANCH  11  12
ENDBRANCH   9  11
ENDBRANCH   4   7
ENDBRANCH   2   4
BRANCH   2  16
HETATM   16  C   UNL     1      -8.813   6.878  72.409  1.00  0.00    -0.129 C  
HETATM   17  O   UNL     1      -8.398   7.946  73.253  1.00  0.00    -0.155 OA 
HETATM   18  H   UNL     1      -7.616   7.725  73.746  1.00  0.00     0.000 HD 
ENDBRANCH   2  16
TORSDOF 6
ENDMDL
MODEL      315
REMARK 921   NORMALIZED FREE ENERGY PREDICTED BY IDOCK:   -1.49 KCAL/MOL
REMARK 922        TOTAL FREE ENERGY PREDICTED BY IDOCK:   -2.54 KCAL/MOL
REMARK 923 INTER-LIGAND FREE ENERGY PREDICTED BY IDOCK:   -2.33 KCAL/MOL
REMARK 924 INTRA-LIGAND FREE ENERGY PREDICTED BY IDOCK:   -0.21 KCAL/MOL
REMARK 927      BINDING AFFINITY PREDICTED BY RF-SCORE:    0.00 PKD
ROOT
HETATM    1  C   UNL     1      -9.867   9.440  70.551  1.00  0.00    -0.331 C  
HETATM    2  C   UNL     1      -9.329   8.542  69.409  1.00  0.00    -0.154 C  
HETATM    3  C   UNL     1      -7.997   9.165  68.942  1.00  0.00    -0.099 C  
ENDROOT
BRANCH   2   4
HETATM    4  C   UNL     1     -10.369   8.488  68.249  1.00  0.00    -0.201 C  
HETATM    5  O   UNL     1     -10.169   9.533  67.287  1.00  0.00    -0.203 OA 
HETATM    6  H   UNL     1     -10.802   9.500  66.581  1.00  0.00     0.000 HD 
BRANCH   4   7
HETATM    7  C   UNL     1     -10.409   7.139  67.491  1.00  0.00    -0.236 C  
HETATM    8  O   UNL     1     -11.233   6.250  67.697  1.00  0.00    -0.327 OA 
HETATM    9  N   UNL     1      -9.453   7.020  66.501  1.00  0.00    -0.225 N  
HETATM   10  H   UNL     1      -8.806   7.789  66.328  1.00  0.00     0.000 HD 
BRANCH   9  11
HETATM   11  C   UNL     1      -9.361   5.812  65.708  1.00  0.00    -0.026 C  
BRANCH  11  12
HETATM   12  C   UNL     1      -7.954   5.226  65.650  1.00  0.00    -0.106 C  
BRANCH  12  13
HETATM   13  C   UNL     1      -7.877   3.746  65.996  1.00  0.00    -0.090 C  
HETATM   14  O   UNL     1      -8.122   3.573  67.390  1.00  0.00    -0.081 OA 
HETATM   15  H   UNL     1      -8.075   2.650  67.606  1.00  0.00     0.000 HD 
ENDBRANCH  12  13
ENDBRANCH  11  12
ENDBRANCH   9  11
ENDBRANCH   4   7
ENDBRANCH   2   4
BRANCH   2  16
HETATM   16  C   UNL     1      -9.115   7.120  69.991  1.00  0.00    -0.145 C  
HETATM   17  O   UNL     1      -7.763   6.693  69.866  1.00  0.00    -0.104 OA 
HETATM   18  H   UNL     1      -7.632   5.821  70.223  1.00  0.00     0.000 HD 
ENDBRANCH   2  16
TORSDOF 6
ENDMDL
MODEL      316
REMARK 921   NORMALIZED FREE ENERGY PREDICTED BY IDOCK:   -1.48 KCAL/MOL
REMARK 922        TOTAL FREE ENERGY PREDICTED BY IDOCK:   -2.52 KCAL/MOL
REMARK 923 INTER-LIGAND FREE ENERGY PREDICTED BY IDOCK:   -2.30 KCAL/MOL
REMARK 924 INTRA-LIGAND FREE ENERGY PREDICTED BY IDOCK:   -0.21 KCAL/MOL
REMARK 927      BINDING AFFINITY PREDICTED BY RF-SCORE:    0.00 PKD
ROOT
HETATM    1  C   UNL     1      -7.608   9.933  67.919  1.00  0.00    -0.090 C  
HETATM    2  C   UNL     1      -9.120   9.783  67.618  1.00  0.00    -0.140 C  
HETATM    3  C   UNL     1      -9.876  10.490  68.761  1.00  0.00    -0.191 C  
ENDROOT
BRANCH   2   4
HETATM    4  C   UNL     1      -9.492   8.270  67.541  1.00  0.00    -0.149 C  
HETATM    5  O   UNL     1      -9.786   7.848  66.202  1.00  0.00    -0.448 OA 
HETATM    6  H   UNL     1     -10.013   6.927  66.155  1.00  0.00     0.000 HD 
BRANCH   4   7
HETATM    7  C   UNL     1      -8.416   7.318  68.119  1.00  0.00    -0.123 C  
HETATM    8  O   UNL     1      -7.462   6.880  67.480  1.00  0.00    -0.093 OA 
HETATM    9  N   UNL     1      -8.583   7.027  69.458  1.00  0.00    -0.133 N  
HETATM   10  H   UNL     1      -9.364   7.435  69.971  1.00  0.00     0.000 HD 
BRANCH   9  11
HETATM   11  C   UNL     1      -7.659   6.146  70.140  1.00  0.00    -0.096 C  
BRANCH  11  12
HETATM   12  C   UNL     1      -8.274   4.809  70.542  1.00  0.00    -0.090 C  
BRANCH  12  13
HETATM   13  C   UNL     1      -9.269   4.897  71.692  1.00  0.00    -0.142 C  
HETATM   14  O   UNL     1     -10.458   5.541  71.239  1.00  0.00    -0.225 OA 
HETATM   15  H   UNL     1     -11.079   5.596  71.956  1.00  0.00     0.000 HD 
ENDBRANCH  12  13
ENDBRANCH  11  12
ENDBRANCH   9  11
ENDBRANCH   4   7
ENDBRANCH   2   4
BRANCH   2  16
HETATM   16  C   UNL     1      -9.396  10.463  66.250  1.00  0.00    -0.166 C  
HETATM   17  O   UNL     1      -9.484  11.878  66.369  1.00  0.00    -0.217 OA 
HETATM   18  H   UNL     1      -9.654  12.295  65.532  1.00  0.00     0.000 HD 
ENDBRANCH   2  16
TORSDOF 6
ENDMDL
MODEL      317
REMARK 921   NORMALIZED FREE ENERGY PREDICTED BY IDOCK:   -1.46 KCAL/MOL
REMARK 922        TOTAL FREE ENERGY PREDICTED BY IDOCK:   -2.50 KCAL/MOL
REMARK 923 INTER-LIGAND FREE ENERGY PREDICTED BY IDOCK:   -2.34 KCAL/MOL
REMARK 924 INTRA-LIGAND FREE ENERGY PREDICTED BY IDOCK:   -0.16 KCAL/MOL
REMARK 927      BINDING AFFINITY PREDICTED BY RF-SCORE:    0.00 PKD
ROOT
HETATM    1  C   UNL     1      -7.025  10.118  69.583  1.00  0.00    -0.103 C  
HETATM    2  C   UNL     1      -6.920   8.707  68.952  1.00  0.00    -0.062 C  
HETATM    3  C   UNL     1      -6.176   8.873  67.610  1.00  0.00    -0.056 C  
ENDROOT
BRANCH   2   4
HETATM    4  C   UNL     1      -8.348   8.119  68.740  1.00  0.00    -0.126 C  
HETATM    5  O   UNL     1      -9.232   8.429  69.826  1.00  0.00    -0.155 OA 
HETATM    6  H   UNL     1     -10.102   8.071  69.698  1.00  0.00     0.000 HD 
BRANCH   4   7
HETATM    7  C   UNL     1      -9.032   8.560  67.423  1.00  0.00    -0.134 C  
HETATM    8  O   UNL     1      -9.015   7.910  66.380  1.00  0.00    -0.150 OA 
HETATM    9  N   UNL     1      -9.726   9.750  67.521  1.00  0.00    -0.152 N  
HETATM   10  H   UNL     1      -9.753  10.248  68.410  1.00  0.00     0.000 HD 
BRANCH   9  11
HETATM   11  C   UNL     1     -10.415  10.296  66.370  1.00  0.00    -0.163 C  
BRANCH  11  12
HETATM   12  C   UNL     1      -9.640  11.406  65.666  1.00  0.00    -0.258 C  
BRANCH  12  13
HETATM   13  C   UNL     1      -9.814  11.428  64.153  1.00  0.00    -0.268 C  
HETATM   14  O   UNL     1      -9.681  12.768  63.683  1.00  0.00    -0.655 OA 
HETATM   15  H   UNL     1      -9.789  12.782  62.739  1.00  0.00     0.000 HD 
ENDBRANCH  12  13
ENDBRANCH  11  12
ENDBRANCH   9  11
ENDBRANCH   4   7
ENDBRANCH   2   4
BRANCH   2  16
HETATM   16  C   UNL     1      -6.121   7.811  69.935  1.00  0.00    -0.026 C  
HETATM   17  O   UNL     1      -5.512   8.572  70.972  1.00  0.00    -0.031 OA 
HETATM   18  H   UNL     1      -5.023   8.024  71.575  1.00  0.00     0.000 HD 
ENDBRANCH   2  16
TORSDOF 6
ENDMDL
MODEL      318
REMARK 921   NORMALIZED FREE ENERGY PREDICTED BY IDOCK:   -1.46 KCAL/MOL
REMARK 922        TOTAL FREE ENERGY PREDICTED BY IDOCK:   -2.49 KCAL/MOL
REMARK 923 INTER-LIGAND FREE ENERGY PREDICTED BY IDOCK:   -1.76 KCAL/MOL
REMARK 924 INTRA-LIGAND FREE ENERGY PREDICTED BY IDOCK:   -0.73 KCAL/MOL
REMARK 927      BINDING AFFINITY PREDICTED BY RF-SCORE:    0.00 PKD
ROOT
HETATM    1  C   UNL     1      -5.546   7.369  67.171  1.00  0.00    -0.030 C  
HETATM    2  C   UNL     1      -6.495   8.445  66.588  1.00  0.00    -0.056 C  
HETATM    3  C   UNL     1      -6.418   9.666  67.528  1.00  0.00    -0.069 C  
ENDROOT
BRANCH   2   4
HETATM    4  C   UNL     1      -7.946   7.879  66.508  1.00  0.00    -0.102 C  
HETATM    5  O   UNL     1      -8.710   8.484  65.457  1.00  0.00    -0.171 OA 
HETATM    6  H   UNL     1      -9.594   8.140  65.408  1.00  0.00     0.000 HD 
BRANCH   4   7
HETATM    7  C   UNL     1      -8.023   6.343  66.334  1.00  0.00    -0.110 C  
HETATM    8  O   UNL     1      -8.234   5.550  67.249  1.00  0.00    -0.102 OA 
HETATM    9  N   UNL     1      -7.881   5.916  65.029  1.00  0.00    -0.099 N  
HETATM   10  H   UNL     1      -7.743   6.600  64.285  1.00  0.00     0.000 HD 
BRANCH   9  11
HETATM   11  C   UNL     1      -7.925   4.505  64.706  1.00  0.00    -0.095 C  
BRANCH  11  12
HETATM   12  C   UNL     1      -9.087   4.124  63.795  1.00  0.00    -0.140 C  
BRANCH  12  13
HETATM   13  C   UNL     1     -10.435   4.041  64.499  1.00  0.00    -0.197 C  
HETATM   14  O   UNL     1     -10.228   3.779  65.886  1.00  0.00    -0.421 OA 
HETATM   15  H   UNL     1     -11.068   3.728  66.325  1.00  0.00     0.000 HD 
ENDBRANCH  12  13
ENDBRANCH  11  12
ENDBRANCH   9  11
ENDBRANCH   4   7
ENDBRANCH   2   4
BRANCH   2  16
HETATM   16  C   UNL     1      -5.987   8.795  65.163  1.00  0.00    -0.055 C  
HETATM   17  O   UNL     1      -6.447  10.072  64.735  1.00  0.00    -0.114 OA 
HETATM   18  H   UNL     1      -6.137  10.287  63.863  1.00  0.00     0.000 HD 
ENDBRANCH   2  16
TORSDOF 6
ENDMDL
MODEL      319
REMARK 921   NORMALIZED FREE ENERGY PREDICTED BY IDOCK:   -1.45 KCAL/MOL
REMARK 922        TOTAL FREE ENERGY PREDICTED BY IDOCK:   -2.48 KCAL/MOL
REMARK 923 INTER-LIGAND FREE ENERGY PREDICTED BY IDOCK:   -2.19 KCAL/MOL
REMARK 924 INTRA-LIGAND FREE ENERGY PREDICTED BY IDOCK:   -0.30 KCAL/MOL
REMARK 927      BINDING AFFINITY PREDICTED BY RF-SCORE:    0.00 PKD
ROOT
HETATM    1  C   UNL     1     -10.394   6.916  68.984  1.00  0.00    -0.203 C  
HETATM    2  C   UNL     1      -9.588   8.110  68.415  1.00  0.00    -0.155 C  
HETATM    3  C   UNL     1     -10.514   8.840  67.420  1.00  0.00    -0.349 C  
ENDROOT
BRANCH   2   4
HETATM    4  C   UNL     1      -8.298   7.585  67.712  1.00  0.00    -0.119 C  
HETATM    5  O   UNL     1      -8.376   6.188  67.402  1.00  0.00    -0.109 OA 
HETATM    6  H   UNL     1      -7.591   5.868  66.974  1.00  0.00     0.000 HD 
BRANCH   4   7
HETATM    7  C   UNL     1      -7.925   8.344  66.415  1.00  0.00    -0.099 C  
HETATM    8  O   UNL     1      -8.267   8.000  65.286  1.00  0.00    -0.133 OA 
HETATM    9  N   UNL     1      -7.198   9.499  66.628  1.00  0.00    -0.086 N  
HETATM   10  H   UNL     1      -6.961   9.779  67.580  1.00  0.00     0.000 HD 
BRANCH   9  11
HETATM   11  C   UNL     1      -6.770  10.316  65.512  1.00  0.00    -0.128 C  
BRANCH  11  12
HETATM   12  C   UNL     1      -5.405  10.964  65.718  1.00  0.00    -0.141 C  
BRANCH  12  13
HETATM   13  C   UNL     1      -5.283  11.774  67.002  1.00  0.00    -0.115 C  
HETATM   14  O   UNL     1      -6.539  12.381  67.298  1.00  0.00    -0.150 OA 
HETATM   15  H   UNL     1      -6.463  12.886  68.099  1.00  0.00     0.000 HD 
ENDBRANCH  12  13
ENDBRANCH  11  12
ENDBRANCH   9  11
ENDBRANCH   4   7
ENDBRANCH   2   4
BRANCH   2  16
HETATM   16  C   UNL     1      -9.202   9.027  69.606  1.00  0.00    -0.159 C  
HETATM   17  O   UNL     1     -10.191  10.020  69.854  1.00  0.00    -0.239 OA 
HETATM   18  H   UNL     1      -9.954  10.582  70.583  1.00  0.00     0.000 HD 
ENDBRANCH   2  16
TORSDOF 6
ENDMDL
MODEL      320
REMARK 921   NORMALIZED FREE ENERGY PREDICTED BY IDOCK:   -1.44 KCAL/MOL
REMARK 922        TOTAL FREE ENERGY PREDICTED BY IDOCK:   -2.47 KCAL/MOL
REMARK 923 INTER-LIGAND FREE ENERGY PREDICTED BY IDOCK:   -2.18 KCAL/MOL
REMARK 924 INTRA-LIGAND FREE ENERGY PREDICTED BY IDOCK:   -0.30 KCAL/MOL
REMARK 927      BINDING AFFINITY PREDICTED BY RF-SCORE:    0.00 PKD
ROOT
HETATM    1  C   UNL     1      -7.815   7.987  71.872  1.00  0.00    -0.127 C  
HETATM    2  C   UNL     1      -7.445   7.313  70.527  1.00  0.00    -0.083 C  
HETATM    3  C   UNL     1      -8.294   7.999  69.436  1.00  0.00    -0.131 C  
ENDROOT
BRANCH   2   4
HETATM    4  C   UNL     1      -7.746   5.785  70.604  1.00  0.00    -0.093 C  
HETATM    5  O   UNL     1      -6.591   5.019  70.969  1.00  0.00    -0.029 OA 
HETATM    6  H   UNL     1      -6.774   4.089  71.016  1.00  0.00     0.000 HD 
BRANCH   4   7
HETATM    7  C   UNL     1      -8.896   5.410  71.571  1.00  0.00    -0.135 C  
HETATM    8  O   UNL     1      -8.740   4.836  72.646  1.00  0.00    -0.114 OA 
HETATM    9  N   UNL     1     -10.144   5.822  71.148  1.00  0.00    -0.195 N  
HETATM   10  H   UNL     1     -10.239   6.329  70.268  1.00  0.00     0.000 HD 
BRANCH   9  11
HETATM   11  C   UNL     1     -11.321   5.540  71.943  1.00  0.00    -0.071 C  
BRANCH  11  12
HETATM   12  C   UNL     1     -12.337   6.678  71.954  1.00  0.00    -0.364 C  
BRANCH  12  13
HETATM   13  C   UNL     1     -11.729   8.062  71.769  1.00  0.00    -0.291 C  
HETATM   14  O   UNL     1     -12.241   8.647  70.574  1.00  0.00    -0.491 OA 
HETATM   15  H   UNL     1     -11.863   9.510  70.459  1.00  0.00     0.000 HD 
ENDBRANCH  12  13
ENDBRANCH  11  12
ENDBRANCH   9  11
ENDBRANCH   4   7
ENDBRANCH   2   4
BRANCH   2  16
HETATM   16  C   UNL     1      -5.928   7.539  70.290  1.00  0.00    -0.023 C  
HETATM   17  O   UNL     1      -5.213   7.663  71.514  1.00  0.00    -0.030 OA 
HETATM   18  H   UNL     1      -4.284   7.802  71.370  1.00  0.00     0.000 HD 
ENDBRANCH   2  16
TORSDOF 6
ENDMDL
MODEL      321
REMARK 921   NORMALIZED FREE ENERGY PREDICTED BY IDOCK:   -1.42 KCAL/MOL
REMARK 922        TOTAL FREE ENERGY PREDICTED BY IDOCK:   -2.45 KCAL/MOL
REMARK 923 INTER-LIGAND FREE ENERGY PREDICTED BY IDOCK:   -2.33 KCAL/MOL
REMARK 924 INTRA-LIGAND FREE ENERGY PREDICTED BY IDOCK:   -0.11 KCAL/MOL
REMARK 927      BINDING AFFINITY PREDICTED BY RF-SCORE:    0.00 PKD
ROOT
HETATM    1  C   UNL     1      -9.691   8.300  68.029  1.00  0.00    -0.187 C  
HETATM    2  C   UNL     1      -8.983   7.211  68.872  1.00  0.00    -0.129 C  
HETATM    3  C   UNL     1      -9.166   5.876  68.122  1.00  0.00    -0.116 C  
ENDROOT
BRANCH   2   4
HETATM    4  C   UNL     1      -9.617   7.155  70.296  1.00  0.00    -0.169 C  
HETATM    5  O   UNL     1      -8.798   6.440  71.230  1.00  0.00    -0.138 OA 
HETATM    6  H   UNL     1      -9.183   6.405  72.097  1.00  0.00     0.000 HD 
BRANCH   4   7
HETATM    7  C   UNL     1      -9.942   8.540  70.905  1.00  0.00    -0.191 C  
HETATM    8  O   UNL     1      -9.097   9.362  71.253  1.00  0.00    -0.277 OA 
HETATM    9  N   UNL     1     -11.293   8.816  70.987  1.00  0.00    -0.267 N  
HETATM   10  H   UNL     1     -11.971   8.129  70.657  1.00  0.00     0.000 HD 
BRANCH   9  11
HETATM   11  C   UNL     1     -11.756  10.072  71.540  1.00  0.00    -0.280 C  
BRANCH  11  12
HETATM   12  C   UNL     1     -12.993  10.627  70.841  1.00  0.00    -0.429 C  
BRANCH  12  13
HETATM   13  C   UNL     1     -12.741  11.887  70.026  1.00  0.00     0.242 C  
HETATM   14  O   UNL     1     -12.905  13.031  70.861  1.00  0.00    -0.249 OA 
HETATM   15  H   UNL     1     -12.747  13.817  70.352  1.00  0.00     0.000 HD 
ENDBRANCH  12  13
ENDBRANCH  11  12
ENDBRANCH   9  11
ENDBRANCH   4   7
ENDBRANCH   2   4
BRANCH   2  16
HETATM   16  C   UNL     1      -7.484   7.601  68.979  1.00  0.00    -0.095 C  
HETATM   17  O   UNL     1      -6.633   6.577  68.475  1.00  0.00    -0.047 OA 
HETATM   18  H   UNL     1      -5.715   6.816  68.541  1.00  0.00     0.000 HD 
ENDBRANCH   2  16
TORSDOF 6
ENDMDL
MODEL      322
REMARK 921   NORMALIZED FREE ENERGY PREDICTED BY IDOCK:   -1.39 KCAL/MOL
REMARK 922        TOTAL FREE ENERGY PREDICTED BY IDOCK:   -2.40 KCAL/MOL
REMARK 923 INTER-LIGAND FREE ENERGY PREDICTED BY IDOCK:   -2.54 KCAL/MOL
REMARK 924 INTRA-LIGAND FREE ENERGY PREDICTED BY IDOCK:    0.14 KCAL/MOL
REMARK 927      BINDING AFFINITY PREDICTED BY RF-SCORE:    0.00 PKD
ROOT
HETATM    1  C   UNL     1     -11.261   7.378  69.575  1.00  0.00    -0.015 C  
HETATM    2  C   UNL     1     -10.946   8.369  70.724  1.00  0.00    -0.276 C  
HETATM    3  C   UNL     1     -10.859   9.774  70.090  1.00  0.00    -0.340 C  
ENDROOT
BRANCH   2   4
HETATM    4  C   UNL     1      -9.603   7.970  71.409  1.00  0.00    -0.154 C  
HETATM    5  O   UNL     1      -9.433   8.602  72.684  1.00  0.00    -0.255 OA 
HETATM    6  H   UNL     1      -8.615   8.360  73.101  1.00  0.00     0.000 HD 
BRANCH   4   7
HETATM    7  C   UNL     1      -9.413   6.445  71.599  1.00  0.00    -0.153 C  
HETATM    8  O   UNL     1      -9.728   5.827  72.613  1.00  0.00    -0.154 OA 
HETATM    9  N   UNL     1      -8.892   5.801  70.494  1.00  0.00    -0.138 N  
HETATM   10  H   UNL     1      -8.674   6.335  69.653  1.00  0.00     0.000 HD 
BRANCH   9  11
HETATM   11  C   UNL     1      -8.651   4.373  70.520  1.00  0.00    -0.081 C  
BRANCH  11  12
HETATM   12  C   UNL     1      -7.323   3.967  69.891  1.00  0.00    -0.045 C  
BRANCH  12  13
HETATM   13  C   UNL     1      -7.369   3.810  68.377  1.00  0.00    -0.054 C  
HETATM   14  O   UNL     1      -6.392   4.664  67.784  1.00  0.00    -0.035 OA 
HETATM   15  H   UNL     1      -6.421   4.566  66.839  1.00  0.00     0.000 HD 
ENDBRANCH  12  13
ENDBRANCH  11  12
ENDBRANCH   9  11
ENDBRANCH   4   7
ENDBRANCH   2   4
BRANCH   2  16
HETATM   16  C   UNL     1     -12.107   8.282  71.750  1.00  0.00    -0.319 C  
HETATM   17  O   UNL     1     -13.363   8.598  71.160  1.00  0.00    -0.520 OA 
HETATM   18  H   UNL     1     -14.074   8.545  71.789  1.00  0.00     0.000 HD 
ENDBRANCH   2  16
TORSDOF 6
ENDMDL
MODEL      323
REMARK 921   NORMALIZED FREE ENERGY PREDICTED BY IDOCK:   -1.34 KCAL/MOL
REMARK 922        TOTAL FREE ENERGY PREDICTED BY IDOCK:   -2.33 KCAL/MOL
REMARK 923 INTER-LIGAND FREE ENERGY PREDICTED BY IDOCK:   -2.22 KCAL/MOL
REMARK 924 INTRA-LIGAND FREE ENERGY PREDICTED BY IDOCK:   -0.11 KCAL/MOL
REMARK 927      BINDING AFFINITY PREDICTED BY RF-SCORE:    0.00 PKD
ROOT
HETATM    1  C   UNL     1      -8.764   9.977  68.050  1.00  0.00    -0.125 C  
HETATM    2  C   UNL     1      -8.565   8.457  67.832  1.00  0.00    -0.131 C  
HETATM    3  C   UNL     1      -8.585   8.218  66.307  1.00  0.00    -0.152 C  
ENDROOT
BRANCH   2   4
HETATM    4  C   UNL     1      -9.708   7.670  68.545  1.00  0.00    -0.158 C  
HETATM    5  O   UNL     1     -10.918   8.433  68.640  1.00  0.00    -0.428 OA 
HETATM    6  H   UNL     1     -11.614   7.954  69.074  1.00  0.00     0.000 HD 
BRANCH   4   7
HETATM    7  C   UNL     1     -10.048   6.308  67.892  1.00  0.00    -0.145 C  
HETATM    8  O   UNL     1     -10.959   6.133  67.085  1.00  0.00    -0.335 OA 
HETATM    9  N   UNL     1      -9.199   5.282  68.255  1.00  0.00    -0.111 N  
HETATM   10  H   UNL     1      -8.429   5.466  68.898  1.00  0.00     0.000 HD 
BRANCH   9  11
HETATM   11  C   UNL     1      -9.392   3.946  67.730  1.00  0.00    -0.183 C  
BRANCH  11  12
HETATM   12  C   UNL     1      -9.175   2.847  68.765  1.00  0.00    -0.230 C  
BRANCH  12  13
HETATM   13  C   UNL     1      -7.839   2.127  68.645  1.00  0.00    -0.052 C  
HETATM   14  O   UNL     1      -6.985   2.536  69.711  1.00  0.00    -0.033 OA 
HETATM   15  H   UNL     1      -6.152   2.086  69.636  1.00  0.00     0.000 HD 
ENDBRANCH  12  13
ENDBRANCH  11  12
ENDBRANCH   9  11
ENDBRANCH   4   7
ENDBRANCH   2   4
BRANCH   2  16
HETATM   16  C   UNL     1      -7.195   8.069  68.449  1.00  0.00    -0.089 C  
HETATM   17  O   UNL     1      -6.164   8.028  67.468  1.00  0.00    -0.049 OA 
HETATM   18  H   UNL     1      -5.325   7.791  67.845  1.00  0.00     0.000 HD 
ENDBRANCH   2  16
TORSDOF 6
ENDMDL
MODEL      324
REMARK 921   NORMALIZED FREE ENERGY PREDICTED BY IDOCK:   -1.26 KCAL/MOL
REMARK 922        TOTAL FREE ENERGY PREDICTED BY IDOCK:   -2.22 KCAL/MOL
REMARK 923 INTER-LIGAND FREE ENERGY PREDICTED BY IDOCK:   -2.49 KCAL/MOL
REMARK 924 INTRA-LIGAND FREE ENERGY PREDICTED BY IDOCK:    0.27 KCAL/MOL
REMARK 927      BINDING AFFINITY PREDICTED BY RF-SCORE:    0.00 PKD
ROOT
HETATM    1  C   UNL     1      -7.127  18.853  65.768  1.00  0.00    -0.274 C  
HETATM    2  C   UNL     1      -7.559  18.604  67.235  1.00  0.00    -0.233 C  
HETATM    3  C   UNL     1      -6.548  19.349  68.131  1.00  0.00    -0.276 C  
ENDROOT
BRANCH   2   4
HETATM    4  C   UNL     1      -7.559  17.072  67.529  1.00  0.00    -0.165 C  
HETATM    5  O   UNL     1      -6.923  16.317  66.489  1.00  0.00    -0.199 OA 
HETATM    6  H   UNL     1      -6.923  15.385  66.668  1.00  0.00     0.000 HD 
BRANCH   4   7
HETATM    7  C   UNL     1      -6.904  16.682  68.876  1.00  0.00    -0.191 C  
HETATM    8  O   UNL     1      -6.983  17.348  69.906  1.00  0.00     0.145 OA 
HETATM    9  N   UNL     1      -6.244  15.469  68.851  1.00  0.00    -0.101 N  
HETATM   10  H   UNL     1      -6.227  14.920  67.991  1.00  0.00     0.000 HD 
BRANCH   9  11
HETATM   11  C   UNL     1      -5.576  14.969  70.034  1.00  0.00    -0.121 C  
BRANCH  11  12
HETATM   12  C   UNL     1      -5.175  13.501  69.934  1.00  0.00    -0.086 C  
BRANCH  12  13
HETATM   13  C   UNL     1      -6.344  12.527  69.986  1.00  0.00     0.006 C  
HETATM   14  O   UNL     1      -5.966  11.375  70.737  1.00  0.00    -0.326 OA 
HETATM   15  H   UNL     1      -6.695  10.768  70.769  1.00  0.00     0.000 HD 
ENDBRANCH  12  13
ENDBRANCH  11  12
ENDBRANCH   9  11
ENDBRANCH   4   7
ENDBRANCH   2   4
BRANCH   2  16
HETATM   16  C   UNL     1      -8.994  19.172  67.405  1.00  0.00    -0.293 C  
HETATM   17  O   UNL     1      -9.432  19.110  68.757  1.00  0.00    -0.374 OA 
HETATM   18  H   UNL     1     -10.310  19.458  68.862  1.00  0.00     0.000 HD 
ENDBRANCH   2  16
TORSDOF 6
ENDMDL
MODEL      325
REMARK 921   NORMALIZED FREE ENERGY PREDICTED BY IDOCK:   -0.67 KCAL/MOL
REMARK 922        TOTAL FREE ENERGY PREDICTED BY IDOCK:   -1.43 KCAL/MOL
REMARK 923 INTER-LIGAND FREE ENERGY PREDICTED BY IDOCK:   -1.29 KCAL/MOL
REMARK 924 INTRA-LIGAND FREE ENERGY PREDICTED BY IDOCK:   -0.13 KCAL/MOL
REMARK 927      BINDING AFFINITY PREDICTED BY RF-SCORE:    0.00 PKD
ROOT
HETATM    1  C   UNL     1      -7.178  10.330  69.735  1.00  0.00    -0.147 C  
HETATM    2  C   UNL     1      -6.786   8.907  70.203  1.00  0.00    -0.042 C  
HETATM    3  C   UNL     1      -5.462   8.552  69.495  1.00  0.00    -0.030 C  
ENDROOT
BRANCH   2   4
HETATM    4  C   UNL     1      -7.918   7.901  69.829  1.00  0.00    -0.114 C  
HETATM    5  O   UNL     1      -9.226   8.457  70.017  1.00  0.00    -0.155 OA 
HETATM    6  H   UNL     1      -9.915   7.845  69.790  1.00  0.00     0.000 HD 
BRANCH   4   7
HETATM    7  C   UNL     1      -7.832   7.352  68.384  1.00  0.00    -0.122 C  
HETATM    8  O   UNL     1      -7.251   6.317  68.067  1.00  0.00    -0.082 OA 
HETATM    9  N   UNL     1      -8.518   8.108  67.454  1.00  0.00    -0.125 N  
HETATM   10  H   UNL     1      -9.022   8.943  67.752  1.00  0.00     0.000 HD 
BRANCH   9  11
HETATM   11  C   UNL     1      -8.527   7.726  66.057  1.00  0.00    -0.139 C  
BRANCH  11  12
HETATM   12  C   UNL     1      -7.552   8.526  65.199  1.00  0.00    -0.094 C  
BRANCH  12  13
HETATM   13  C   UNL     1      -6.914   7.731  64.069  1.00  0.00    -0.066 C  
HETATM   14  O   UNL     1      -6.640   8.603  62.974  1.00  0.00    -0.090 OA 
HETATM   15  H   UNL     1      -6.242   8.107  62.269  1.00  0.00     0.000 HD 
ENDBRANCH  12  13
ENDBRANCH  11  12
ENDBRANCH   9  11
ENDBRANCH   4   7
ENDBRANCH   2   4
BRANCH   2  16
HETATM   16  C   UNL     1      -6.610   8.951  71.745  1.00  0.00    -0.050 C  
HETATM   17  O   UNL     1      -5.637   8.015  72.194  1.00  0.00    -0.035 OA 
HETATM   18  H   UNL     1      -5.528   8.042  73.138  1.00  0.00     0.000 HD 
ENDBRANCH   2  16
TORSDOF 6
ENDMDL
MODEL      326
REMARK 921   NORMALIZED FREE ENERGY PREDICTED BY IDOCK:    2.11 KCAL/MOL
REMARK 922        TOTAL FREE ENERGY PREDICTED BY IDOCK:    2.33 KCAL/MOL
REMARK 923 INTER-LIGAND FREE ENERGY PREDICTED BY IDOCK:    0.64 KCAL/MOL
REMARK 924 INTRA-LIGAND FREE ENERGY PREDICTED BY IDOCK:    1.70 KCAL/MOL
REMARK 927      BINDING AFFINITY PREDICTED BY RF-SCORE:    0.00 PKD
ROOT
HETATM    1  C   UNL     1     -10.448  14.508  70.441  1.00  0.00     0.512 C  
HETATM    2  C   UNL     1     -11.593  13.884  69.604  1.00  0.00    -0.347 C  
HETATM    3  C   UNL     1     -11.031  12.595  68.970  1.00  0.00    -0.240 C  
ENDROOT
BRANCH   2   4
HETATM    4  C   UNL     1     -12.059  14.898  68.514  1.00  0.00    -0.158 C  
HETATM    5  O   UNL     1     -12.915  15.917  69.048  1.00  0.00     0.073 OA 
HETATM    6  H   UNL     1     -13.199  16.534  68.385  1.00  0.00     0.000 HD 
BRANCH   4   7
HETATM    7  C   UNL     1     -10.904  15.591  67.752  1.00  0.00    -0.309 C  
HETATM    8  O   UNL     1     -11.036  16.593  67.052  1.00  0.00    -0.060 OA 
HETATM    9  N   UNL     1      -9.667  15.014  67.959  1.00  0.00    -0.211 N  
HETATM   10  H   UNL     1      -9.582  14.205  68.574  1.00  0.00     0.000 HD 
BRANCH   9  11
HETATM   11  C   UNL     1      -8.488  15.548  67.309  1.00  0.00    -0.193 C  
BRANCH  11  12
HETATM   12  C   UNL     1      -8.370  17.065  67.410  1.00  0.00    -0.206 C  
BRANCH  12  13
HETATM   13  C   UNL     1      -7.179  17.652  66.665  1.00  0.00    -0.229 C  
HETATM   14  O   UNL     1      -7.024  16.980  65.417  1.00  0.00     0.540 OA 
HETATM   15  H   UNL     1      -6.281  17.347  64.953  1.00  0.00     0.000 HD 
ENDBRANCH  12  13
ENDBRANCH  11  12
ENDBRANCH   9  11
ENDBRANCH   4   7
ENDBRANCH   2   4
BRANCH   2  16
HETATM   16  C   UNL     1     -12.766  13.574  70.571  1.00  0.00    -0.157 C  
HETATM   17  O   UNL     1     -13.569  12.496  70.104  1.00  0.00     1.619 OA 
HETATM   18  H   UNL     1     -14.288  12.306  70.696  1.00  0.00     0.000 HD 
ENDBRANCH   2  16
TORSDOF 6
ENDMDL
