MODEL        1
REMARK 921   NORMALIZED FREE ENERGY PREDICTED BY IDOCK:   -7.09 KCAL/MOL
REMARK 922        TOTAL FREE ENERGY PREDICTED BY IDOCK:   -9.51 KCAL/MOL
REMARK 923 INTER-LIGAND FREE ENERGY PREDICTED BY IDOCK:   -8.75 KCAL/MOL
REMARK 924 INTRA-LIGAND FREE ENERGY PREDICTED BY IDOCK:   -0.76 KCAL/MOL
REMARK 927      BINDING AFFINITY PREDICTED BY RF-SCORE:    0.00 PKD
ROOT
HETATM    1  N   UNL     1     -13.699   8.864  72.960  1.00  0.00    -1.038 NA 
HETATM    2  H1  UNL     1     -13.415   8.534  73.883  1.00  0.00     0.000 HD 
HETATM    3  H2  UNL     1     -14.001   8.081  72.380  1.00  0.00     0.000 HD 
HETATM    4  CA  UNL     1     -12.660   9.672  72.252  1.00  0.00    -0.237 C  
HETATM    5  C   UNL     1     -11.401   8.793  72.108  1.00  0.00    -0.341 C  
HETATM    6  OXT UNL     1     -10.501   8.968  71.304  1.00  0.00    -0.256 OA 
HETATM    7  O   UNL     1     -11.401   7.781  73.016  1.00  0.00    -0.399 OA 
ENDROOT
BRANCH   4   8
HETATM    8  C   UNL     1     -13.090  10.170  70.858  1.00  0.00    -0.412 C  
BRANCH   8   9
HETATM    9  C   UNL     1     -12.653  11.567  70.462  1.00  0.00    -0.286 A  
HETATM   10  C   UNL     1     -12.688  12.640  71.354  1.00  0.00    -0.347 A  
HETATM   11  C   UNL     1     -12.270  13.914  70.945  1.00  0.00    -0.361 A  
HETATM   12  I   UNL     1     -12.420  15.468  72.368  1.00  0.00    -0.682 I  
HETATM   13  C   UNL     1     -11.804  14.164  69.633  1.00  0.00    -0.324 A  
HETATM   14  C   UNL     1     -11.749  13.079  68.747  1.00  0.00    -0.324 A  
HETATM   15  C   UNL     1     -12.148  11.796  69.174  1.00  0.00    -0.290 A  
HETATM   16  I   UNL     1     -11.219  13.200  66.714  1.00  0.00    -0.394 I  
BRANCH  13  17
HETATM   17  O   UNL     1     -11.727  15.486  69.264  1.00  0.00    -0.324 OA 
BRANCH  17  18
HETATM   18  C   UNL     1     -10.567  16.149  68.952  1.00  0.00    -0.275 A  
HETATM   19  C   UNL     1     -10.785  17.288  68.160  1.00  0.00    -0.363 A  
HETATM   20  C   UNL     1      -9.719  18.080  67.731  1.00  0.00    -0.292 A  
HETATM   21  I   UNL     1     -10.141  19.751  66.552  1.00  0.00    -0.661 I  
HETATM   22  C   UNL     1      -8.414  17.732  68.081  1.00  0.00    -0.262 A  
HETATM   23  C   UNL     1      -8.193  16.599  68.875  1.00  0.00    -0.231 A  
HETATM   24  O   UNL     1      -7.352  18.494  67.658  1.00  0.00    -0.214 OA 
HETATM   25  H   UNL     1      -6.463  18.257  67.896  1.00  0.00     0.000 HD 
HETATM   26  I   UNL     1      -6.249  15.974  69.354  1.00  0.00    -0.178 I  
HETATM   27  C   UNL     1      -9.270  15.826  69.343  1.00  0.00    -0.263 A  
ENDBRANCH  17  18
ENDBRANCH  13  17
ENDBRANCH   8   9
ENDBRANCH   4   8
TORSDOF 4
ENDMDL
MODEL        2
REMARK 921   NORMALIZED FREE ENERGY PREDICTED BY IDOCK:   -6.85 KCAL/MOL
REMARK 922        TOTAL FREE ENERGY PREDICTED BY IDOCK:   -9.20 KCAL/MOL
REMARK 923 INTER-LIGAND FREE ENERGY PREDICTED BY IDOCK:   -8.61 KCAL/MOL
REMARK 924 INTRA-LIGAND FREE ENERGY PREDICTED BY IDOCK:   -0.60 KCAL/MOL
REMARK 927      BINDING AFFINITY PREDICTED BY RF-SCORE:    0.00 PKD
ROOT
HETATM    1  N   UNL     1     -13.477   8.919  72.962  1.00  0.00    -0.952 NA 
HETATM    2  H1  UNL     1     -13.176   8.637  73.895  1.00  0.00     0.000 HD 
HETATM    3  H2  UNL     1     -13.787   8.108  72.427  1.00  0.00     0.000 HD 
HETATM    4  CA  UNL     1     -12.452   9.691  72.195  1.00  0.00    -0.273 C  
HETATM    5  C   UNL     1     -11.193   8.807  72.074  1.00  0.00    -0.373 C  
HETATM    6  OXT UNL     1     -10.308   8.942  71.246  1.00  0.00    -0.234 OA 
HETATM    7  O   UNL     1     -11.176   7.843  73.033  1.00  0.00    -0.411 OA 
ENDROOT
BRANCH   4   8
HETATM    8  C   UNL     1     -12.907  10.116  70.785  1.00  0.00    -0.388 C  
BRANCH   8   9
HETATM    9  C   UNL     1     -12.574  11.532  70.353  1.00  0.00    -0.238 A  
HETATM   10  C   UNL     1     -12.679  12.620  71.221  1.00  0.00    -0.354 A  
HETATM   11  C   UNL     1     -12.355  13.910  70.778  1.00  0.00    -0.378 A  
HETATM   12  I   UNL     1     -12.604  15.483  72.167  1.00  0.00    -0.632 I  
HETATM   13  C   UNL     1     -11.920  14.162  69.457  1.00  0.00    -0.340 A  
HETATM   14  C   UNL     1     -11.794  13.063  68.595  1.00  0.00    -0.318 A  
HETATM   15  C   UNL     1     -12.097  11.766  69.055  1.00  0.00    -0.276 A  
HETATM   16  I   UNL     1     -11.291  13.175  66.554  1.00  0.00    -0.421 I  
BRANCH  13  17
HETATM   17  O   UNL     1     -11.940  15.478  69.057  1.00  0.00    -0.354 OA 
BRANCH  17  18
HETATM   18  C   UNL     1     -10.830  16.224  68.752  1.00  0.00    -0.317 A  
HETATM   19  C   UNL     1      -9.634  15.620  69.170  1.00  0.00    -0.251 A  
HETATM   20  C   UNL     1      -8.402  16.242  68.959  1.00  0.00    -0.239 A  
HETATM   21  I   UNL     1      -6.678  15.268  69.622  1.00  0.00    -0.121 I  
HETATM   22  C   UNL     1      -8.355  17.489  68.336  1.00  0.00    -0.278 A  
HETATM   23  C   UNL     1      -9.546  18.093  67.913  1.00  0.00    -0.288 A  
HETATM   24  O   UNL     1      -7.152  18.120  68.130  1.00  0.00    -0.222 OA 
HETATM   25  H   UNL     1      -7.120  18.969  67.706  1.00  0.00     0.000 HD 
HETATM   26  I   UNL     1      -9.546  20.006  67.054  1.00  0.00    -0.608 I  
HETATM   27  C   UNL     1     -10.783  17.446  68.086  1.00  0.00    -0.343 A  
ENDBRANCH  17  18
ENDBRANCH  13  17
ENDBRANCH   8   9
ENDBRANCH   4   8
TORSDOF 4
ENDMDL
MODEL        3
REMARK 921   NORMALIZED FREE ENERGY PREDICTED BY IDOCK:   -6.78 KCAL/MOL
REMARK 922        TOTAL FREE ENERGY PREDICTED BY IDOCK:   -9.13 KCAL/MOL
REMARK 923 INTER-LIGAND FREE ENERGY PREDICTED BY IDOCK:   -8.41 KCAL/MOL
REMARK 924 INTRA-LIGAND FREE ENERGY PREDICTED BY IDOCK:   -0.71 KCAL/MOL
REMARK 927      BINDING AFFINITY PREDICTED BY RF-SCORE:    0.00 PKD
ROOT
HETATM    1  N   UNL     1     -13.445   8.857  71.287  1.00  0.00    -0.540 NA 
HETATM    2  H1  UNL     1     -13.780   8.619  72.221  1.00  0.00     0.000 HD 
HETATM    3  H2  UNL     1     -13.341   8.015  70.721  1.00  0.00     0.000 HD 
HETATM    4  CA  UNL     1     -12.182   9.656  71.276  1.00  0.00    -0.363 C  
HETATM    5  C   UNL     1     -11.100   8.834  72.006  1.00  0.00    -0.371 C  
HETATM    6  OXT UNL     1      -9.895   8.988  71.895  1.00  0.00    -0.323 OA 
HETATM    7  O   UNL     1     -11.660   7.901  72.822  1.00  0.00    -0.383 OA 
ENDROOT
BRANCH   4   8
HETATM    8  C   UNL     1     -11.675  10.015  69.865  1.00  0.00    -0.190 C  
BRANCH   8   9
HETATM    9  C   UNL     1     -11.778  11.469  69.446  1.00  0.00    -0.413 A  
HETATM   10  C   UNL     1     -11.665  11.871  68.114  1.00  0.00    -0.388 A  
HETATM   11  C   UNL     1     -11.773  13.226  67.773  1.00  0.00    -0.358 A  
HETATM   12  I   UNL     1     -11.531  13.716  65.732  1.00  0.00    -0.391 I  
HETATM   13  C   UNL     1     -11.994  14.228  68.746  1.00  0.00    -0.311 A  
HETATM   14  C   UNL     1     -12.130  13.818  70.079  1.00  0.00    -0.349 A  
HETATM   15  C   UNL     1     -12.046  12.451  70.411  1.00  0.00    -0.381 A  
HETATM   16  I   UNL     1     -12.337  15.109  71.729  1.00  0.00    -0.588 I  
BRANCH  13  17
HETATM   17  O   UNL     1     -11.766  15.522  68.340  1.00  0.00    -0.365 OA 
BRANCH  17  18
HETATM   18  C   UNL     1     -10.555  16.165  68.404  1.00  0.00    -0.286 A  
HETATM   19  C   UNL     1     -10.605  17.475  67.903  1.00  0.00    -0.390 A  
HETATM   20  C   UNL     1      -9.464  18.278  67.873  1.00  0.00    -0.282 A  
HETATM   21  I   UNL     1      -9.636  20.212  67.105  1.00  0.00    -0.576 I  
HETATM   22  C   UNL     1      -8.249  17.769  68.333  1.00  0.00    -0.298 A  
HETATM   23  C   UNL     1      -8.196  16.463  68.838  1.00  0.00    -0.235 A  
HETATM   24  O   UNL     1      -7.113  18.542  68.301  1.00  0.00    -0.241 OA 
HETATM   25  H   UNL     1      -6.286  18.196  68.614  1.00  0.00     0.000 HD 
HETATM   26  I   UNL     1      -6.381  15.614  69.457  1.00  0.00    -0.169 I  
HETATM   27  C   UNL     1      -9.355  15.671  68.909  1.00  0.00    -0.223 A  
ENDBRANCH  17  18
ENDBRANCH  13  17
ENDBRANCH   8   9
ENDBRANCH   4   8
TORSDOF 4
ENDMDL
MODEL        4
REMARK 921   NORMALIZED FREE ENERGY PREDICTED BY IDOCK:   -6.66 KCAL/MOL
REMARK 922        TOTAL FREE ENERGY PREDICTED BY IDOCK:   -8.97 KCAL/MOL
REMARK 923 INTER-LIGAND FREE ENERGY PREDICTED BY IDOCK:   -8.44 KCAL/MOL
REMARK 924 INTRA-LIGAND FREE ENERGY PREDICTED BY IDOCK:   -0.53 KCAL/MOL
REMARK 927      BINDING AFFINITY PREDICTED BY RF-SCORE:    0.00 PKD
ROOT
HETATM    1  N   UNL     1     -10.794   8.696  72.143  1.00  0.00    -0.354 NA 
HETATM    2  H1  UNL     1     -10.205   7.898  71.903  1.00  0.00     0.000 HD 
HETATM    3  H2  UNL     1     -11.012   8.692  73.139  1.00  0.00     0.000 HD 
HETATM    4  CA  UNL     1     -12.046   8.797  71.333  1.00  0.00    -0.307 C  
HETATM    5  C   UNL     1     -12.848   7.497  71.546  1.00  0.00    -0.360 C  
HETATM    6  OXT UNL     1     -14.043   7.358  71.343  1.00  0.00    -0.427 OA 
HETATM    7  O   UNL     1     -12.045   6.490  71.983  1.00  0.00    -0.328 OA 
ENDROOT
BRANCH   4   8
HETATM    8  C   UNL     1     -12.936  10.003  71.695  1.00  0.00    -0.554 C  
BRANCH   8   9
HETATM    9  C   UNL     1     -12.615  11.322  71.020  1.00  0.00    -0.495 A  
HETATM   10  C   UNL     1     -12.754  12.548  71.673  1.00  0.00    -0.297 A  
HETATM   11  C   UNL     1     -12.440  13.742  71.010  1.00  0.00    -0.380 A  
HETATM   12  I   UNL     1     -12.743  15.536  72.086  1.00  0.00    -0.617 I  
HETATM   13  C   UNL     1     -11.979  13.758  69.673  1.00  0.00    -0.342 A  
HETATM   14  C   UNL     1     -11.818  12.524  69.029  1.00  0.00    -0.296 A  
HETATM   15  C   UNL     1     -12.112  11.326  69.710  1.00  0.00    -0.394 A  
HETATM   16  I   UNL     1     -11.272  12.273  67.011  1.00  0.00    -0.419 I  
BRANCH  13  17
HETATM   17  O   UNL     1     -12.010  14.979  69.041  1.00  0.00    -0.305 OA 
BRANCH  17  18
HETATM   18  C   UNL     1     -10.915  15.772  68.808  1.00  0.00    -0.291 A  
HETATM   19  C   UNL     1      -9.713  15.181  69.230  1.00  0.00    -0.225 A  
HETATM   20  C   UNL     1      -8.495  15.847  69.088  1.00  0.00    -0.254 A  
HETATM   21  I   UNL     1      -6.762  14.890  69.751  1.00  0.00    -0.076 I  
HETATM   22  C   UNL     1      -8.468  17.126  68.531  1.00  0.00    -0.262 A  
HETATM   23  C   UNL     1      -9.664  17.717  68.104  1.00  0.00    -0.310 A  
HETATM   24  O   UNL     1      -7.279  17.801  68.394  1.00  0.00    -0.230 OA 
HETATM   25  H   UNL     1      -7.260  18.672  68.015  1.00  0.00     0.000 HD 
HETATM   26  I   UNL     1      -9.697  19.672  67.345  1.00  0.00    -0.578 I  
HETATM   27  C   UNL     1     -10.885  17.028  68.207  1.00  0.00    -0.341 A  
ENDBRANCH  17  18
ENDBRANCH  13  17
ENDBRANCH   8   9
ENDBRANCH   4   8
TORSDOF 4
ENDMDL
MODEL        5
REMARK 921   NORMALIZED FREE ENERGY PREDICTED BY IDOCK:   -6.61 KCAL/MOL
REMARK 922        TOTAL FREE ENERGY PREDICTED BY IDOCK:   -8.91 KCAL/MOL
REMARK 923 INTER-LIGAND FREE ENERGY PREDICTED BY IDOCK:   -8.16 KCAL/MOL
REMARK 924 INTRA-LIGAND FREE ENERGY PREDICTED BY IDOCK:   -0.75 KCAL/MOL
REMARK 927      BINDING AFFINITY PREDICTED BY RF-SCORE:    0.00 PKD
ROOT
HETATM    1  N   UNL     1     -10.059   8.648  71.514  1.00  0.00    -0.247 NA 
HETATM    2  H1  UNL     1      -9.521   7.849  71.178  1.00  0.00     0.000 HD 
HETATM    3  H2  UNL     1     -10.106   8.643  72.533  1.00  0.00     0.000 HD 
HETATM    4  CA  UNL     1     -11.429   8.755  70.926  1.00  0.00    -0.284 C  
HETATM    5  C   UNL     1     -12.188   7.456  71.269  1.00  0.00    -0.341 C  
HETATM    6  OXT UNL     1     -13.400   7.321  71.269  1.00  0.00    -0.369 OA 
HETATM    7  O   UNL     1     -11.326   6.446  71.564  1.00  0.00    -0.270 OA 
ENDROOT
BRANCH   4   8
HETATM    8  C   UNL     1     -12.241   9.962  71.434  1.00  0.00    -0.499 C  
BRANCH   8   9
HETATM    9  C   UNL     1     -12.193  11.226  70.596  1.00  0.00    -0.489 A  
HETATM   10  C   UNL     1     -11.886  11.206  69.235  1.00  0.00    -0.422 A  
HETATM   11  C   UNL     1     -11.859  12.399  68.499  1.00  0.00    -0.304 A  
HETATM   12  I   UNL     1     -11.330  12.246  66.459  1.00  0.00    -0.408 I  
HETATM   13  C   UNL     1     -12.133  13.652  69.093  1.00  0.00    -0.319 A  
HETATM   14  C   UNL     1     -12.463  13.665  70.455  1.00  0.00    -0.324 A  
HETATM   15  C   UNL     1     -12.513  12.459  71.183  1.00  0.00    -0.323 A  
HETATM   16  I   UNL     1     -12.788  15.397  71.607  1.00  0.00    -0.618 I  
BRANCH  13  17
HETATM   17  O   UNL     1     -11.769  14.758  68.361  1.00  0.00    -0.307 OA 
BRANCH  17  18
HETATM   18  C   UNL     1     -10.597  15.455  68.519  1.00  0.00    -0.240 A  
HETATM   19  C   UNL     1     -10.730  16.820  68.221  1.00  0.00    -0.364 A  
HETATM   20  C   UNL     1      -9.638  17.686  68.310  1.00  0.00    -0.306 A  
HETATM   21  I   UNL     1      -9.933  19.699  67.844  1.00  0.00    -0.602 I  
HETATM   22  C   UNL     1      -8.391  17.188  68.686  1.00  0.00    -0.257 A  
HETATM   23  C   UNL     1      -8.255  15.826  68.988  1.00  0.00    -0.234 A  
HETATM   24  O   UNL     1      -7.303  18.023  68.769  1.00  0.00    -0.270 OA 
HETATM   25  H   UNL     1      -6.453  17.684  69.025  1.00  0.00     0.000 HD 
HETATM   26  I   UNL     1      -6.387  15.004  69.469  1.00  0.00    -0.165 I  
HETATM   27  C   UNL     1      -9.365  14.964  68.941  1.00  0.00    -0.197 A  
ENDBRANCH  17  18
ENDBRANCH  13  17
ENDBRANCH   8   9
ENDBRANCH   4   8
TORSDOF 4
ENDMDL
MODEL        6
REMARK 921   NORMALIZED FREE ENERGY PREDICTED BY IDOCK:   -6.50 KCAL/MOL
REMARK 922        TOTAL FREE ENERGY PREDICTED BY IDOCK:   -8.78 KCAL/MOL
REMARK 923 INTER-LIGAND FREE ENERGY PREDICTED BY IDOCK:   -8.16 KCAL/MOL
REMARK 924 INTRA-LIGAND FREE ENERGY PREDICTED BY IDOCK:   -0.61 KCAL/MOL
REMARK 927      BINDING AFFINITY PREDICTED BY RF-SCORE:    0.00 PKD
ROOT
HETATM    1  N   UNL     1     -11.488   7.567  73.141  1.00  0.00    -0.614 NA 
HETATM    2  H1  UNL     1     -10.844   6.872  73.518  1.00  0.00     0.000 HD 
HETATM    3  H2  UNL     1     -12.454   7.292  73.319  1.00  0.00     0.000 HD 
HETATM    4  CA  UNL     1     -11.288   7.864  71.690  1.00  0.00    -0.258 C  
HETATM    5  C   UNL     1     -11.461   6.543  70.913  1.00  0.00    -0.351 C  
HETATM    6  OXT UNL     1     -11.714   6.446  69.723  1.00  0.00    -0.414 OA 
HETATM    7  O   UNL     1     -11.278   5.468  71.725  1.00  0.00    -0.206 OA 
ENDROOT
BRANCH   4   8
HETATM    8  C   UNL     1     -12.262   8.915  71.120  1.00  0.00    -0.303 C  
BRANCH   8   9
HETATM    9  C   UNL     1     -11.654  10.071  70.350  1.00  0.00    -0.379 A  
HETATM   10  C   UNL     1     -10.656   9.885  69.391  1.00  0.00    -0.250 A  
HETATM   11  C   UNL     1     -10.127  10.984  68.700  1.00  0.00    -0.197 A  
HETATM   12  I   UNL     1      -8.585  10.582  67.313  1.00  0.00    -0.126 I  
HETATM   13  C   UNL     1     -10.572  12.305  68.940  1.00  0.00    -0.137 A  
HETATM   14  C   UNL     1     -11.590  12.485  69.886  1.00  0.00    -0.169 A  
HETATM   15  C   UNL     1     -12.134  11.372  70.559  1.00  0.00    -0.487 A  
HETATM   16  I   UNL     1     -12.340  14.346  70.521  1.00  0.00    -0.437 I  
BRANCH  13  17
HETATM   17  O   UNL     1      -9.772  13.308  68.444  1.00  0.00    -0.224 OA 
BRANCH  17  18
HETATM   18  C   UNL     1     -10.141  14.197  67.465  1.00  0.00    -0.236 A  
HETATM   19  C   UNL     1     -10.727  13.572  66.353  1.00  0.00    -0.287 A  
HETATM   20  C   UNL     1     -11.151  14.316  65.251  1.00  0.00    -0.335 A  
HETATM   21  I   UNL     1     -12.007  13.297  63.641  1.00  0.00    -0.197 I  
HETATM   22  C   UNL     1     -10.980  15.700  65.244  1.00  0.00    -0.364 A  
HETATM   23  C   UNL     1     -10.400  16.328  66.355  1.00  0.00    -0.314 A  
HETATM   24  O   UNL     1     -11.382  16.447  64.163  1.00  0.00    -1.302 OA 
HETATM   25  H   UNL     1     -11.266  17.390  64.158  1.00  0.00     0.000 HD 
HETATM   26  I   UNL     1     -10.033  18.393  66.363  1.00  0.00    -0.345 I  
HETATM   27  C   UNL     1     -10.013  15.583  67.482  1.00  0.00    -0.230 A  
ENDBRANCH  17  18
ENDBRANCH  13  17
ENDBRANCH   8   9
ENDBRANCH   4   8
TORSDOF 4
ENDMDL
MODEL        7
REMARK 921   NORMALIZED FREE ENERGY PREDICTED BY IDOCK:   -6.44 KCAL/MOL
REMARK 922        TOTAL FREE ENERGY PREDICTED BY IDOCK:   -8.70 KCAL/MOL
REMARK 923 INTER-LIGAND FREE ENERGY PREDICTED BY IDOCK:   -8.18 KCAL/MOL
REMARK 924 INTRA-LIGAND FREE ENERGY PREDICTED BY IDOCK:   -0.52 KCAL/MOL
REMARK 927      BINDING AFFINITY PREDICTED BY RF-SCORE:    0.00 PKD
ROOT
HETATM    1  N   UNL     1     -11.288   7.534  73.603  1.00  0.00    -0.413 NA 
HETATM    2  H1  UNL     1     -10.609   6.834  73.902  1.00  0.00     0.000 HD 
HETATM    3  H2  UNL     1     -12.231   7.254  73.873  1.00  0.00     0.000 HD 
HETATM    4  CA  UNL     1     -11.236   7.854  72.143  1.00  0.00    -0.307 C  
HETATM    5  C   UNL     1     -11.484   6.544  71.367  1.00  0.00    -0.309 C  
HETATM    6  OXT UNL     1     -11.855   6.465  70.208  1.00  0.00    -0.396 OA 
HETATM    7  O   UNL     1     -11.220   5.457  72.140  1.00  0.00    -0.217 OA 
ENDROOT
BRANCH   4   8
HETATM    8  C   UNL     1     -12.263   8.911  71.691  1.00  0.00    -0.409 C  
BRANCH   8   9
HETATM    9  C   UNL     1     -11.745  10.053  70.839  1.00  0.00    -0.462 A  
HETATM   10  C   UNL     1     -10.771   9.868  69.856  1.00  0.00    -0.318 A  
HETATM   11  C   UNL     1     -10.327  10.954  69.089  1.00  0.00    -0.208 A  
HETATM   12  I   UNL     1      -8.812  10.559  67.670  1.00  0.00    -0.138 I  
HETATM   13  C   UNL     1     -10.834  12.261  69.274  1.00  0.00    -0.027 A  
HETATM   14  C   UNL     1     -11.828  12.438  70.246  1.00  0.00    -0.232 A  
HETATM   15  C   UNL     1     -12.288  11.337  70.997  1.00  0.00    -0.472 A  
HETATM   16  I   UNL     1     -12.657  14.289  70.809  1.00  0.00    -0.397 I  
BRANCH  13  17
HETATM   17  O   UNL     1     -10.107  13.276  68.697  1.00  0.00    -0.221 OA 
BRANCH  17  18
HETATM   18  C   UNL     1     -10.420  13.890  67.511  1.00  0.00    -0.248 A  
HETATM   19  C   UNL     1     -10.162  15.270  67.527  1.00  0.00    -0.239 A  
HETATM   20  C   UNL     1     -10.433  16.065  66.411  1.00  0.00    -0.309 A  
HETATM   21  I   UNL     1     -10.021  18.109  66.531  1.00  0.00    -0.378 I  
HETATM   22  C   UNL     1     -10.982  15.486  65.267  1.00  0.00    -0.380 A  
HETATM   23  C   UNL     1     -11.235  14.108  65.246  1.00  0.00    -0.326 A  
HETATM   24  O   UNL     1     -11.264  16.255  64.164  1.00  0.00    -1.193 OA 
HETATM   25  H   UNL     1     -11.638  15.861  63.384  1.00  0.00     0.000 HD 
HETATM   26  I   UNL     1     -12.144  13.199  63.589  1.00  0.00    -0.279 I  
HETATM   27  C   UNL     1     -10.922  13.301  66.353  1.00  0.00    -0.301 A  
ENDBRANCH  17  18
ENDBRANCH  13  17
ENDBRANCH   8   9
ENDBRANCH   4   8
TORSDOF 4
ENDMDL
MODEL        8
REMARK 921   NORMALIZED FREE ENERGY PREDICTED BY IDOCK:   -6.35 KCAL/MOL
REMARK 922        TOTAL FREE ENERGY PREDICTED BY IDOCK:   -8.59 KCAL/MOL
REMARK 923 INTER-LIGAND FREE ENERGY PREDICTED BY IDOCK:   -7.96 KCAL/MOL
REMARK 924 INTRA-LIGAND FREE ENERGY PREDICTED BY IDOCK:   -0.63 KCAL/MOL
REMARK 927      BINDING AFFINITY PREDICTED BY RF-SCORE:    0.00 PKD
ROOT
HETATM    1  N   UNL     1     -12.330  14.220  63.284  1.00  0.00    -1.092 NA 
HETATM    2  H1  UNL     1     -11.829  14.654  62.509  1.00  0.00     0.000 HD 
HETATM    3  H2  UNL     1     -13.240  14.662  63.414  1.00  0.00     0.000 HD 
HETATM    4  CA  UNL     1     -11.569  14.203  64.571  1.00  0.00    -0.389 C  
HETATM    5  C   UNL     1     -11.237  15.663  64.939  1.00  0.00    -0.369 C  
HETATM    6  OXT UNL     1     -10.947  16.067  66.053  1.00  0.00    -0.233 OA 
HETATM    7  O   UNL     1     -11.291  16.470  63.846  1.00  0.00    -1.057 OA 
ENDROOT
BRANCH   4   8
HETATM    8  C   UNL     1     -12.325  13.547  65.743  1.00  0.00    -0.516 C  
BRANCH   8   9
HETATM    9  C   UNL     1     -11.494  12.785  66.758  1.00  0.00    -0.399 A  
HETATM   10  C   UNL     1     -10.182  12.385  66.498  1.00  0.00    -0.244 A  
HETATM   11  C   UNL     1      -9.451  11.688  67.469  1.00  0.00    -0.171 A  
HETATM   12  I   UNL     1      -7.495  11.090  66.939  1.00  0.00    -0.140 I  
HETATM   13  C   UNL     1     -10.000  11.362  68.731  1.00  0.00    -0.177 A  
HETATM   14  C   UNL     1     -11.309  11.786  68.997  1.00  0.00    -0.278 A  
HETATM   15  C   UNL     1     -12.030  12.509  68.024  1.00  0.00    -0.281 A  
HETATM   16  I   UNL     1     -12.403  11.326  70.735  1.00  0.00    -0.316 I  
BRANCH  13  17
HETATM   17  O   UNL     1      -9.314  10.419  69.460  1.00  0.00    -0.198 OA 
BRANCH  17  18
HETATM   18  C   UNL     1      -9.648   9.091  69.539  1.00  0.00    -0.165 A  
HETATM   19  C   UNL     1      -9.798   8.643  70.861  1.00  0.00    -0.256 A  
HETATM   20  C   UNL     1     -10.121   7.313  71.138  1.00  0.00    -0.186 A  
HETATM   21  I   UNL     1     -10.318   6.740  73.136  1.00  0.00    -0.381 I  
HETATM   22  C   UNL     1     -10.285   6.409  70.088  1.00  0.00    -0.187 A  
HETATM   23  C   UNL     1     -10.141   6.854  68.767  1.00  0.00    -0.166 A  
HETATM   24  O   UNL     1     -10.593   5.095  70.343  1.00  0.00    -0.249 OA 
HETATM   25  H   UNL     1     -10.705   4.478  69.628  1.00  0.00     0.000 HD 
HETATM   26  I   UNL     1     -10.285   5.521  67.154  1.00  0.00    -0.319 I  
HETATM   27  C   UNL     1      -9.859   8.202  68.488  1.00  0.00    -0.190 A  
ENDBRANCH  17  18
ENDBRANCH  13  17
ENDBRANCH   8   9
ENDBRANCH   4   8
TORSDOF 4
ENDMDL
MODEL        9
REMARK 921   NORMALIZED FREE ENERGY PREDICTED BY IDOCK:   -6.35 KCAL/MOL
REMARK 922        TOTAL FREE ENERGY PREDICTED BY IDOCK:   -8.59 KCAL/MOL
REMARK 923 INTER-LIGAND FREE ENERGY PREDICTED BY IDOCK:   -8.04 KCAL/MOL
REMARK 924 INTRA-LIGAND FREE ENERGY PREDICTED BY IDOCK:   -0.55 KCAL/MOL
REMARK 927      BINDING AFFINITY PREDICTED BY RF-SCORE:    0.00 PKD
ROOT
HETATM    1  N   UNL     1      -9.035  18.529  67.956  1.00  0.00    -0.294 NA 
HETATM    2  H1  UNL     1      -9.142  19.321  68.590  1.00  0.00     0.000 HD 
HETATM    3  H2  UNL     1      -8.197  18.639  67.385  1.00  0.00     0.000 HD 
HETATM    4  CA  UNL     1     -10.228  18.271  67.093  1.00  0.00    -0.373 C  
HETATM    5  C   UNL     1     -10.492  19.545  66.266  1.00  0.00    -0.512 C  
HETATM    6  OXT UNL     1     -11.135  19.600  65.231  1.00  0.00    -0.409 OA 
HETATM    7  O   UNL     1      -9.923  20.635  66.847  1.00  0.00    -0.418 OA 
ENDROOT
BRANCH   4   8
HETATM    8  C   UNL     1     -10.066  17.073  66.136  1.00  0.00    -0.332 C  
BRANCH   8   9
HETATM    9  C   UNL     1     -10.531  15.721  66.641  1.00  0.00    -0.302 A  
HETATM   10  C   UNL     1     -10.479  14.571  65.851  1.00  0.00    -0.322 A  
HETATM   11  C   UNL     1     -10.914  13.341  66.364  1.00  0.00    -0.289 A  
HETATM   12  I   UNL     1     -10.836  11.684  65.055  1.00  0.00    -0.266 I  
HETATM   13  C   UNL     1     -11.419  13.213  67.678  1.00  0.00    -0.324 A  
HETATM   14  C   UNL     1     -11.448  14.365  68.476  1.00  0.00    -0.297 A  
HETATM   15  C   UNL     1     -10.985  15.593  67.962  1.00  0.00    -0.318 A  
HETATM   16  I   UNL     1     -12.263  14.478  70.413  1.00  0.00    -0.438 I  
BRANCH  13  17
HETATM   17  O   UNL     1     -12.098  12.049  67.951  1.00  0.00    -0.531 OA 
BRANCH  17  18
HETATM   18  C   UNL     1     -11.788  11.177  68.965  1.00  0.00    -0.348 A  
HETATM   19  C   UNL     1     -10.430  10.821  68.982  1.00  0.00    -0.239 A  
HETATM   20  C   UNL     1      -9.932   9.929  69.934  1.00  0.00    -0.252 A  
HETATM   21  I   UNL     1      -7.899   9.456  69.876  1.00  0.00    -0.190 I  
HETATM   22  C   UNL     1     -10.796   9.370  70.876  1.00  0.00    -0.322 A  
HETATM   23  C   UNL     1     -12.151   9.727  70.864  1.00  0.00    -0.321 A  
HETATM   24  O   UNL     1     -10.326   8.483  71.813  1.00  0.00    -0.232 OA 
HETATM   25  H   UNL     1     -10.914   8.102  72.454  1.00  0.00     0.000 HD 
HETATM   26  I   UNL     1     -13.514   8.849  72.195  1.00  0.00    -0.537 I  
HETATM   27  C   UNL     1     -12.643  10.659  69.933  1.00  0.00    -0.168 A  
ENDBRANCH  17  18
ENDBRANCH  13  17
ENDBRANCH   8   9
ENDBRANCH   4   8
TORSDOF 4
ENDMDL
MODEL       10
REMARK 921   NORMALIZED FREE ENERGY PREDICTED BY IDOCK:   -6.35 KCAL/MOL
REMARK 922        TOTAL FREE ENERGY PREDICTED BY IDOCK:   -8.59 KCAL/MOL
REMARK 923 INTER-LIGAND FREE ENERGY PREDICTED BY IDOCK:   -7.99 KCAL/MOL
REMARK 924 INTRA-LIGAND FREE ENERGY PREDICTED BY IDOCK:   -0.60 KCAL/MOL
REMARK 927      BINDING AFFINITY PREDICTED BY RF-SCORE:    0.00 PKD
ROOT
HETATM    1  N   UNL     1      -9.197  18.447  68.028  1.00  0.00    -0.286 NA 
HETATM    2  H1  UNL     1      -9.290  19.250  68.651  1.00  0.00     0.000 HD 
HETATM    3  H2  UNL     1      -8.334  18.513  67.488  1.00  0.00     0.000 HD 
HETATM    4  CA  UNL     1     -10.367  18.239  67.122  1.00  0.00    -0.384 C  
HETATM    5  C   UNL     1     -10.539  19.517  66.276  1.00  0.00    -0.481 C  
HETATM    6  OXT UNL     1     -11.140  19.593  65.217  1.00  0.00    -0.409 OA 
HETATM    7  O   UNL     1      -9.941  20.584  66.871  1.00  0.00    -0.453 OA 
ENDROOT
BRANCH   4   8
HETATM    8  C   UNL     1     -10.228  17.026  66.180  1.00  0.00    -0.346 C  
BRANCH   8   9
HETATM    9  C   UNL     1     -10.610  15.670  66.742  1.00  0.00    -0.307 A  
HETATM   10  C   UNL     1     -10.449  14.489  66.015  1.00  0.00    -0.315 A  
HETATM   11  C   UNL     1     -10.811  13.258  66.579  1.00  0.00    -0.281 A  
HETATM   12  I   UNL     1     -10.570  11.547  65.362  1.00  0.00    -0.292 I  
HETATM   13  C   UNL     1     -11.348  13.160  67.883  1.00  0.00    -0.286 A  
HETATM   14  C   UNL     1     -11.487  14.345  68.618  1.00  0.00    -0.287 A  
HETATM   15  C   UNL     1     -11.097  15.577  68.054  1.00  0.00    -0.322 A  
HETATM   16  I   UNL     1     -12.372  14.494  70.522  1.00  0.00    -0.440 I  
BRANCH  13  17
HETATM   17  O   UNL     1     -11.950  11.964  68.197  1.00  0.00    -0.496 OA 
BRANCH  17  18
HETATM   18  C   UNL     1     -11.456  11.045  69.088  1.00  0.00    -0.301 A  
HETATM   19  C   UNL     1     -12.438  10.545  69.958  1.00  0.00    -0.243 A  
HETATM   20  C   UNL     1     -12.117   9.610  70.944  1.00  0.00    -0.300 A  
HETATM   21  I   UNL     1     -13.645   8.929  72.194  1.00  0.00    -0.518 I  
HETATM   22  C   UNL     1     -10.799   9.174  71.081  1.00  0.00    -0.311 A  
HETATM   23  C   UNL     1      -9.817   9.668  70.211  1.00  0.00    -0.266 A  
HETATM   24  O   UNL     1     -10.464   8.264  72.053  1.00  0.00    -0.234 OA 
HETATM   25  H   UNL     1      -9.566   7.966  72.146  1.00  0.00     0.000 HD 
HETATM   26  I   UNL     1      -7.804   9.120  70.428  1.00  0.00    -0.192 I  
HETATM   27  C   UNL     1     -10.149  10.575  69.190  1.00  0.00    -0.240 A  
ENDBRANCH  17  18
ENDBRANCH  13  17
ENDBRANCH   8   9
ENDBRANCH   4   8
TORSDOF 4
ENDMDL
MODEL       11
REMARK 921   NORMALIZED FREE ENERGY PREDICTED BY IDOCK:   -6.29 KCAL/MOL
REMARK 922        TOTAL FREE ENERGY PREDICTED BY IDOCK:   -8.52 KCAL/MOL
REMARK 923 INTER-LIGAND FREE ENERGY PREDICTED BY IDOCK:   -8.17 KCAL/MOL
REMARK 924 INTRA-LIGAND FREE ENERGY PREDICTED BY IDOCK:   -0.35 KCAL/MOL
REMARK 927      BINDING AFFINITY PREDICTED BY RF-SCORE:    0.00 PKD
ROOT
HETATM    1  N   UNL     1     -13.239   8.918  71.196  1.00  0.00    -0.537 NA 
HETATM    2  H1  UNL     1     -13.627   8.727  72.120  1.00  0.00     0.000 HD 
HETATM    3  H2  UNL     1     -13.116   8.050  70.675  1.00  0.00     0.000 HD 
HETATM    4  CA  UNL     1     -11.967   9.703  71.216  1.00  0.00    -0.380 C  
HETATM    5  C   UNL     1     -10.937   8.903  72.041  1.00  0.00    -0.342 C  
HETATM    6  OXT UNL     1      -9.726   9.040  71.989  1.00  0.00    -0.290 OA 
HETATM    7  O   UNL     1     -11.552   8.015  72.867  1.00  0.00    -0.397 OA 
ENDROOT
BRANCH   4   8
HETATM    8  C   UNL     1     -11.381   9.991  69.820  1.00  0.00    -0.281 C  
BRANCH   8   9
HETATM    9  C   UNL     1     -11.599  11.382  69.256  1.00  0.00    -0.384 A  
HETATM   10  C   UNL     1     -11.517  11.653  67.889  1.00  0.00    -0.381 A  
HETATM   11  C   UNL     1     -11.732  12.954  67.413  1.00  0.00    -0.372 A  
HETATM   12  I   UNL     1     -11.527  13.250  65.330  1.00  0.00    -0.394 I  
HETATM   13  C   UNL     1     -12.035  14.029  68.280  1.00  0.00    -0.349 A  
HETATM   14  C   UNL     1     -12.140  13.748  69.649  1.00  0.00    -0.336 A  
HETATM   15  C   UNL     1     -11.947  12.432  70.118  1.00  0.00    -0.376 A  
HETATM   16  I   UNL     1     -12.452  15.179  71.160  1.00  0.00    -0.580 I  
BRANCH  13  17
HETATM   17  O   UNL     1     -11.910  15.289  67.742  1.00  0.00    -0.287 OA 
BRANCH  17  18
HETATM   18  C   UNL     1     -10.791  16.077  67.837  1.00  0.00    -0.333 A  
HETATM   19  C   UNL     1      -9.690  15.398  68.382  1.00  0.00    -0.211 A  
HETATM   20  C   UNL     1      -8.467  16.045  68.569  1.00  0.00    -0.189 A  
HETATM   21  I   UNL     1      -6.888  14.954  69.393  1.00  0.00    -0.183 I  
HETATM   22  C   UNL     1      -8.336  17.390  68.223  1.00  0.00    -0.248 A  
HETATM   23  C   UNL     1      -9.432  18.069  67.674  1.00  0.00    -0.264 A  
HETATM   24  O   UNL     1      -7.144  18.045  68.411  1.00  0.00    -0.229 OA 
HETATM   25  H   UNL     1      -7.054  18.961  68.175  1.00  0.00     0.000 HD 
HETATM   26  I   UNL     1      -9.323  20.114  67.221  1.00  0.00    -0.526 I  
HETATM   27  C   UNL     1     -10.650  17.406  67.445  1.00  0.00    -0.308 A  
ENDBRANCH  17  18
ENDBRANCH  13  17
ENDBRANCH   8   9
ENDBRANCH   4   8
TORSDOF 4
ENDMDL
MODEL       12
REMARK 921   NORMALIZED FREE ENERGY PREDICTED BY IDOCK:   -6.29 KCAL/MOL
REMARK 922        TOTAL FREE ENERGY PREDICTED BY IDOCK:   -8.51 KCAL/MOL
REMARK 923 INTER-LIGAND FREE ENERGY PREDICTED BY IDOCK:   -8.14 KCAL/MOL
REMARK 924 INTRA-LIGAND FREE ENERGY PREDICTED BY IDOCK:   -0.37 KCAL/MOL
REMARK 927      BINDING AFFINITY PREDICTED BY RF-SCORE:    0.00 PKD
ROOT
HETATM    1  N   UNL     1     -12.338  14.115  63.269  1.00  0.00    -1.133 NA 
HETATM    2  H1  UNL     1     -11.851  14.580  62.503  1.00  0.00     0.000 HD 
HETATM    3  H2  UNL     1     -13.260  14.528  63.409  1.00  0.00     0.000 HD 
HETATM    4  CA  UNL     1     -11.575  14.090  64.554  1.00  0.00    -0.391 C  
HETATM    5  C   UNL     1     -11.284  15.551  64.954  1.00  0.00    -0.389 C  
HETATM    6  OXT UNL     1     -11.004  15.938  66.076  1.00  0.00    -0.261 OA 
HETATM    7  O   UNL     1     -11.362  16.380  63.879  1.00  0.00    -0.967 OA 
ENDROOT
BRANCH   4   8
HETATM    8  C   UNL     1     -12.311  13.388  65.712  1.00  0.00    -0.513 C  
BRANCH   8   9
HETATM    9  C   UNL     1     -11.452  12.710  66.763  1.00  0.00    -0.410 A  
HETATM   10  C   UNL     1     -10.097  12.441  66.558  1.00  0.00    -0.246 A  
HETATM   11  C   UNL     1      -9.342  11.818  67.561  1.00  0.00    -0.174 A  
HETATM   12  I   UNL     1      -7.316  11.416  67.114  1.00  0.00    -0.141 I  
HETATM   13  C   UNL     1      -9.908  11.438  68.799  1.00  0.00    -0.164 A  
HETATM   14  C   UNL     1     -11.263  11.730  69.009  1.00  0.00    -0.265 A  
HETATM   15  C   UNL     1     -12.010  12.380  68.006  1.00  0.00    -0.264 A  
HETATM   16  I   UNL     1     -12.377  11.162  70.702  1.00  0.00    -0.389 I  
BRANCH  13  17
HETATM   17  O   UNL     1      -9.164  10.566  69.559  1.00  0.00    -0.158 OA 
BRANCH  17  18
HETATM   18  C   UNL     1      -9.533   9.280  69.868  1.00  0.00    -0.197 A  
HETATM   19  C   UNL     1      -9.828   8.509  68.732  1.00  0.00    -0.180 A  
HETATM   20  C   UNL     1     -10.236   7.180  68.852  1.00  0.00    -0.186 A  
HETATM   21  I   UNL     1     -10.658   6.115  67.106  1.00  0.00    -0.419 I  
HETATM   22  C   UNL     1     -10.369   6.609  70.118  1.00  0.00    -0.203 A  
HETATM   23  C   UNL     1     -10.071   7.374  71.253  1.00  0.00    -0.188 A  
HETATM   24  O   UNL     1     -10.780   5.305  70.254  1.00  0.00    -0.265 OA 
HETATM   25  H   UNL     1     -10.871   4.916  71.116  1.00  0.00     0.000 HD 
HETATM   26  I   UNL     1     -10.340   6.599  73.183  1.00  0.00    -0.353 I  
HETATM   27  C   UNL     1      -9.617   8.699  71.130  1.00  0.00    -0.281 A  
ENDBRANCH  17  18
ENDBRANCH  13  17
ENDBRANCH   8   9
ENDBRANCH   4   8
TORSDOF 4
ENDMDL
MODEL       13
REMARK 921   NORMALIZED FREE ENERGY PREDICTED BY IDOCK:   -6.26 KCAL/MOL
REMARK 922        TOTAL FREE ENERGY PREDICTED BY IDOCK:   -8.48 KCAL/MOL
REMARK 923 INTER-LIGAND FREE ENERGY PREDICTED BY IDOCK:   -7.92 KCAL/MOL
REMARK 924 INTRA-LIGAND FREE ENERGY PREDICTED BY IDOCK:   -0.55 KCAL/MOL
REMARK 927      BINDING AFFINITY PREDICTED BY RF-SCORE:    0.00 PKD
ROOT
HETATM    1  N   UNL     1      -9.277  20.465  65.725  1.00  0.00    -0.525 NA 
HETATM    2  H1  UNL     1      -8.531  20.704  65.072  1.00  0.00     0.000 HD 
HETATM    3  H2  UNL     1      -9.709  21.310  66.098  1.00  0.00     0.000 HD 
HETATM    4  CA  UNL     1      -8.852  19.560  66.837  1.00  0.00    -0.314 C  
HETATM    5  C   UNL     1      -7.715  20.265  67.605  1.00  0.00    -0.293 C  
HETATM    6  OXT UNL     1      -7.364  20.011  68.745  1.00  0.00    -0.276 OA 
HETATM    7  O   UNL     1      -7.121  21.219  66.838  1.00  0.00    -0.388 OA 
ENDROOT
BRANCH   4   8
HETATM    8  C   UNL     1      -9.979  19.200  67.824  1.00  0.00    -0.440 C  
BRANCH   8   9
HETATM    9  C   UNL     1     -10.366  17.736  67.922  1.00  0.00    -0.388 A  
HETATM   10  C   UNL     1     -10.317  16.877  66.823  1.00  0.00    -0.298 A  
HETATM   11  C   UNL     1     -10.679  15.530  66.963  1.00  0.00    -0.321 A  
HETATM   12  I   UNL     1     -10.617  14.342  65.216  1.00  0.00    -0.463 I  
HETATM   13  C   UNL     1     -11.102  14.992  68.200  1.00  0.00    -0.291 A  
HETATM   14  C   UNL     1     -11.127  15.852  69.306  1.00  0.00    -0.312 A  
HETATM   15  C   UNL     1     -10.738  17.200  69.163  1.00  0.00    -0.184 A  
HETATM   16  I   UNL     1     -11.833  15.343  71.222  1.00  0.00    -0.612 I  
BRANCH  13  17
HETATM   17  O   UNL     1     -11.723  13.766  68.142  1.00  0.00    -0.317 OA 
BRANCH  17  18
HETATM   18  C   UNL     1     -11.203  12.598  68.640  1.00  0.00    -0.282 A  
HETATM   19  C   UNL     1     -12.034  11.994  69.597  1.00  0.00    -0.360 A  
HETATM   20  C   UNL     1     -11.662  10.805  70.225  1.00  0.00    -0.352 A  
HETATM   21  I   UNL     1     -12.962   9.985  71.639  1.00  0.00    -0.546 I  
HETATM   22  C   UNL     1     -10.440  10.210  69.911  1.00  0.00    -0.275 A  
HETATM   23  C   UNL     1      -9.610  10.807  68.952  1.00  0.00    -0.195 A  
HETATM   24  O   UNL     1     -10.053   9.045  70.527  1.00  0.00    -0.188 OA 
HETATM   25  H   UNL     1      -9.220   8.639  70.313  1.00  0.00     0.000 HD 
HETATM   26  I   UNL     1      -7.722  10.009  68.507  1.00  0.00    -0.099 I  
HETATM   27  C   UNL     1     -10.005  11.981  68.288  1.00  0.00    -0.203 A  
ENDBRANCH  17  18
ENDBRANCH  13  17
ENDBRANCH   8   9
ENDBRANCH   4   8
TORSDOF 4
ENDMDL
MODEL       14
REMARK 921   NORMALIZED FREE ENERGY PREDICTED BY IDOCK:   -6.19 KCAL/MOL
REMARK 922        TOTAL FREE ENERGY PREDICTED BY IDOCK:   -8.40 KCAL/MOL
REMARK 923 INTER-LIGAND FREE ENERGY PREDICTED BY IDOCK:   -7.85 KCAL/MOL
REMARK 924 INTRA-LIGAND FREE ENERGY PREDICTED BY IDOCK:   -0.54 KCAL/MOL
REMARK 927      BINDING AFFINITY PREDICTED BY RF-SCORE:    0.00 PKD
ROOT
HETATM    1  N   UNL     1     -10.165  14.146  64.365  1.00  0.00    -0.676 NA 
HETATM    2  H1  UNL     1     -10.727  14.974  64.564  1.00  0.00     0.000 HD 
HETATM    3  H2  UNL     1      -9.796  14.186  63.415  1.00  0.00     0.000 HD 
HETATM    4  CA  UNL     1     -10.876  12.852  64.596  1.00  0.00    -0.342 C  
HETATM    5  C   UNL     1     -12.130  12.839  63.698  1.00  0.00    -0.543 C  
HETATM    6  OXT UNL     1     -12.747  11.845  63.355  1.00  0.00    -0.662 OA 
HETATM    7  O   UNL     1     -12.487  14.100  63.334  1.00  0.00    -0.797 OA 
ENDROOT
BRANCH   4   8
HETATM    8  C   UNL     1     -10.027  11.602  64.294  1.00  0.00    -0.303 C  
BRANCH   8   9
HETATM    9  C   UNL     1      -9.574  10.774  65.482  1.00  0.00    -0.269 A  
HETATM   10  C   UNL     1     -10.022   9.469  65.694  1.00  0.00    -0.269 A  
HETATM   11  C   UNL     1      -9.572   8.740  66.804  1.00  0.00    -0.206 A  
HETATM   12  I   UNL     1     -10.361   6.794  67.047  1.00  0.00    -0.337 I  
HETATM   13  C   UNL     1      -8.664   9.284  67.741  1.00  0.00    -0.120 A  
HETATM   14  C   UNL     1      -8.200  10.587  67.512  1.00  0.00    -0.114 A  
HETATM   15  C   UNL     1      -8.637  11.305  66.380  1.00  0.00    -0.174 A  
HETATM   16  I   UNL     1      -6.950  11.674  68.810  1.00  0.00    -0.097 I  
BRANCH  13  17
HETATM   17  O   UNL     1      -8.549   8.606  68.931  1.00  0.00    -0.128 OA 
BRANCH  17  18
HETATM   18  C   UNL     1      -9.485   8.612  69.935  1.00  0.00    -0.167 A  
HETATM   19  C   UNL     1      -9.419   7.472  70.751  1.00  0.00    -0.163 A  
HETATM   20  C   UNL     1     -10.305   7.297  71.815  1.00  0.00    -0.196 A  
HETATM   21  I   UNL     1     -10.133   5.566  72.970  1.00  0.00    -0.252 I  
HETATM   22  C   UNL     1     -11.282   8.260  72.067  1.00  0.00    -0.323 A  
HETATM   23  C   UNL     1     -11.348   9.402  71.257  1.00  0.00    -0.366 A  
HETATM   24  O   UNL     1     -12.169   8.099  73.103  1.00  0.00    -0.645 OA 
HETATM   25  H   UNL     1     -12.835   8.755  73.274  1.00  0.00     0.000 HD 
HETATM   26  I   UNL     1     -12.853  10.838  71.529  1.00  0.00    -0.368 I  
HETATM   27  C   UNL     1     -10.428   9.599  70.213  1.00  0.00    -0.338 A  
ENDBRANCH  17  18
ENDBRANCH  13  17
ENDBRANCH   8   9
ENDBRANCH   4   8
TORSDOF 4
ENDMDL
MODEL       15
REMARK 921   NORMALIZED FREE ENERGY PREDICTED BY IDOCK:   -6.18 KCAL/MOL
REMARK 922        TOTAL FREE ENERGY PREDICTED BY IDOCK:   -8.38 KCAL/MOL
REMARK 923 INTER-LIGAND FREE ENERGY PREDICTED BY IDOCK:   -7.90 KCAL/MOL
REMARK 924 INTRA-LIGAND FREE ENERGY PREDICTED BY IDOCK:   -0.48 KCAL/MOL
REMARK 927      BINDING AFFINITY PREDICTED BY RF-SCORE:    0.00 PKD
ROOT
HETATM    1  N   UNL     1      -9.244  18.622  68.430  1.00  0.00    -0.316 NA 
HETATM    2  H1  UNL     1      -9.401  19.419  69.047  1.00  0.00     0.000 HD 
HETATM    3  H2  UNL     1      -8.324  18.686  67.993  1.00  0.00     0.000 HD 
HETATM    4  CA  UNL     1     -10.303  18.432  67.393  1.00  0.00    -0.391 C  
HETATM    5  C   UNL     1     -10.368  19.721  66.548  1.00  0.00    -0.506 C  
HETATM    6  OXT UNL     1     -10.842  19.812  65.428  1.00  0.00    -0.413 OA 
HETATM    7  O   UNL     1      -9.835  20.776  67.219  1.00  0.00    -0.474 OA 
ENDROOT
BRANCH   4   8
HETATM    8  C   UNL     1     -10.065  17.228  66.460  1.00  0.00    -0.311 C  
BRANCH   8   9
HETATM    9  C   UNL     1     -10.693  15.909  66.866  1.00  0.00    -0.289 A  
HETATM   10  C   UNL     1     -11.177  15.678  68.155  1.00  0.00    -0.345 A  
HETATM   11  C   UNL     1     -11.755  14.444  68.482  1.00  0.00    -0.335 A  
HETATM   12  I   UNL     1     -12.402  14.196  70.479  1.00  0.00    -0.410 I  
HETATM   13  C   UNL     1     -11.870  13.396  67.540  1.00  0.00    -0.366 A  
HETATM   14  C   UNL     1     -11.404  13.640  66.240  1.00  0.00    -0.312 A  
HETATM   15  C   UNL     1     -10.847  14.892  65.912  1.00  0.00    -0.336 A  
HETATM   16  I   UNL     1     -11.339  12.218  64.690  1.00  0.00    -0.414 I  
BRANCH  13  17
HETATM   17  O   UNL     1     -12.154  12.153  68.054  1.00  0.00    -0.478 OA 
BRANCH  17  18
HETATM   18  C   UNL     1     -11.248  11.334  68.679  1.00  0.00    -0.250 A  
HETATM   19  C   UNL     1     -11.826  10.553  69.693  1.00  0.00    -0.306 A  
HETATM   20  C   UNL     1     -11.053   9.671  70.449  1.00  0.00    -0.290 A  
HETATM   21  I   UNL     1     -12.001   8.555  71.938  1.00  0.00    -0.480 I  
HETATM   22  C   UNL     1      -9.683   9.570  70.208  1.00  0.00    -0.263 A  
HETATM   23  C   UNL     1      -9.104  10.344  69.194  1.00  0.00    -0.187 A  
HETATM   24  O   UNL     1      -8.906   8.714  70.950  1.00  0.00    -0.150 OA 
HETATM   25  H   UNL     1      -7.973   8.645  70.786  1.00  0.00     0.000 HD 
HETATM   26  I   UNL     1      -7.036  10.303  68.847  1.00  0.00    -0.085 I  
HETATM   27  C   UNL     1      -9.890  11.200  68.403  1.00  0.00    -0.188 A  
ENDBRANCH  17  18
ENDBRANCH  13  17
ENDBRANCH   8   9
ENDBRANCH   4   8
TORSDOF 4
ENDMDL
MODEL       16
REMARK 921   NORMALIZED FREE ENERGY PREDICTED BY IDOCK:   -6.17 KCAL/MOL
REMARK 922        TOTAL FREE ENERGY PREDICTED BY IDOCK:   -8.36 KCAL/MOL
REMARK 923 INTER-LIGAND FREE ENERGY PREDICTED BY IDOCK:   -7.88 KCAL/MOL
REMARK 924 INTRA-LIGAND FREE ENERGY PREDICTED BY IDOCK:   -0.49 KCAL/MOL
REMARK 927      BINDING AFFINITY PREDICTED BY RF-SCORE:    0.00 PKD
ROOT
HETATM    1  N   UNL     1     -12.524  14.842  63.840  1.00  0.00    -1.056 NA 
HETATM    2  H1  UNL     1     -12.076  15.217  63.004  1.00  0.00     0.000 HD 
HETATM    3  H2  UNL     1     -13.328  15.414  64.100  1.00  0.00     0.000 HD 
HETATM    4  CA  UNL     1     -11.603  14.674  65.005  1.00  0.00    -0.385 C  
HETATM    5  C   UNL     1     -11.001  16.056  65.330  1.00  0.00    -0.253 C  
HETATM    6  OXT UNL     1     -10.499  16.380  66.394  1.00  0.00    -0.305 OA 
HETATM    7  O   UNL     1     -11.082  16.892  64.260  1.00  0.00    -1.135 OA 
ENDROOT
BRANCH   4   8
HETATM    8  C   UNL     1     -12.280  14.109  66.269  1.00  0.00    -0.474 C  
BRANCH   8   9
HETATM    9  C   UNL     1     -11.744  12.796  66.808  1.00  0.00    -0.459 A  
HETATM   10  C   UNL     1     -10.921  11.960  66.052  1.00  0.00    -0.355 A  
HETATM   11  C   UNL     1     -10.445  10.758  66.594  1.00  0.00    -0.246 A  
HETATM   12  I   UNL     1      -9.251   9.553  65.335  1.00  0.00    -0.280 I  
HETATM   13  C   UNL     1     -10.774  10.346  67.906  1.00  0.00    -0.261 A  
HETATM   14  C   UNL     1     -11.582  11.199  68.670  1.00  0.00    -0.315 A  
HETATM   15  C   UNL     1     -12.036  12.418  68.127  1.00  0.00    -0.272 A  
HETATM   16  I   UNL     1     -12.320  10.769  70.594  1.00  0.00    -0.478 I  
BRANCH  13  17
HETATM   17  O   UNL     1     -10.517   9.028  68.205  1.00  0.00    -0.215 OA 
BRANCH  17  18
HETATM   18  C   UNL     1      -9.749   8.596  69.257  1.00  0.00    -0.173 A  
HETATM   19  C   UNL     1     -10.416   7.672  70.076  1.00  0.00    -0.229 A  
HETATM   20  C   UNL     1      -9.797   7.133  71.206  1.00  0.00    -0.177 A  
HETATM   21  I   UNL     1     -10.872   5.770  72.366  1.00  0.00    -0.331 I  
HETATM   22  C   UNL     1      -8.500   7.527  71.536  1.00  0.00    -0.115 A  
HETATM   23  C   UNL     1      -7.829   8.445  70.718  1.00  0.00    -0.089 A  
HETATM   24  O   UNL     1      -7.879   7.015  72.650  1.00  0.00    -0.092 OA 
HETATM   25  H   UNL     1      -6.996   7.283  72.876  1.00  0.00     0.000 HD 
HETATM   26  I   UNL     1      -5.915   9.143  71.215  1.00  0.00    -0.053 I  
HETATM   27  C   UNL     1      -8.437   8.954  69.557  1.00  0.00    -0.128 A  
ENDBRANCH  17  18
ENDBRANCH  13  17
ENDBRANCH   8   9
ENDBRANCH   4   8
TORSDOF 4
ENDMDL
MODEL       17
REMARK 921   NORMALIZED FREE ENERGY PREDICTED BY IDOCK:   -6.12 KCAL/MOL
REMARK 922        TOTAL FREE ENERGY PREDICTED BY IDOCK:   -8.31 KCAL/MOL
REMARK 923 INTER-LIGAND FREE ENERGY PREDICTED BY IDOCK:   -7.77 KCAL/MOL
REMARK 924 INTRA-LIGAND FREE ENERGY PREDICTED BY IDOCK:   -0.54 KCAL/MOL
REMARK 927      BINDING AFFINITY PREDICTED BY RF-SCORE:    0.00 PKD
ROOT
HETATM    1  N   UNL     1      -9.735  20.582  66.721  1.00  0.00    -0.635 NA 
HETATM    2  H1  UNL     1      -9.627  21.006  65.799  1.00  0.00     0.000 HD 
HETATM    3  H2  UNL     1      -9.206  21.107  67.418  1.00  0.00     0.000 HD 
HETATM    4  CA  UNL     1      -9.376  19.132  66.774  1.00  0.00    -0.323 C  
HETATM    5  C   UNL     1      -7.907  18.996  66.325  1.00  0.00    -0.287 C  
HETATM    6  OXT UNL     1      -7.175  18.050  66.566  1.00  0.00    -0.202 OA 
HETATM    7  O   UNL     1      -7.514  20.074  65.595  1.00  0.00    -0.330 OA 
ENDROOT
BRANCH   4   8
HETATM    8  C   UNL     1      -9.539  18.493  68.167  1.00  0.00    -0.353 C  
BRANCH   8   9
HETATM    9  C   UNL     1     -10.298  17.182  68.238  1.00  0.00    -0.354 A  
HETATM   10  C   UNL     1     -10.874  16.716  69.422  1.00  0.00    -0.295 A  
HETATM   11  C   UNL     1     -11.571  15.501  69.438  1.00  0.00    -0.355 A  
HETATM   12  I   UNL     1     -12.351  14.877  71.300  1.00  0.00    -0.520 I  
HETATM   13  C   UNL     1     -11.719  14.706  68.278  1.00  0.00    -0.328 A  
HETATM   14  C   UNL     1     -11.160  15.188  67.087  1.00  0.00    -0.335 A  
HETATM   15  C   UNL     1     -10.481  16.423  67.073  1.00  0.00    -0.291 A  
HETATM   16  I   UNL     1     -11.125  14.148  65.257  1.00  0.00    -0.413 I  
BRANCH  13  17
HETATM   17  O   UNL     1     -12.137  13.412  68.485  1.00  0.00    -0.352 OA 
BRANCH  17  18
HETATM   18  C   UNL     1     -11.312  12.359  68.793  1.00  0.00    -0.293 A  
HETATM   19  C   UNL     1     -11.887  11.465  69.710  1.00  0.00    -0.435 A  
HETATM   20  C   UNL     1     -11.188  10.341  70.153  1.00  0.00    -0.318 A  
HETATM   21  I   UNL     1     -12.124   9.072  71.523  1.00  0.00    -0.472 I  
HETATM   22  C   UNL     1      -9.894  10.105  69.691  1.00  0.00    -0.225 A  
HETATM   23  C   UNL     1      -9.319  10.992  68.771  1.00  0.00    -0.179 A  
HETATM   24  O   UNL     1      -9.188   9.009  70.125  1.00  0.00    -0.166 OA 
HETATM   25  H   UNL     1      -8.306   8.848  69.810  1.00  0.00     0.000 HD 
HETATM   26  I   UNL     1      -7.343  10.740  68.113  1.00  0.00    -0.100 I  
HETATM   27  C   UNL     1     -10.039  12.100  68.292  1.00  0.00    -0.210 A  
ENDBRANCH  17  18
ENDBRANCH  13  17
ENDBRANCH   8   9
ENDBRANCH   4   8
TORSDOF 4
ENDMDL
MODEL       18
REMARK 921   NORMALIZED FREE ENERGY PREDICTED BY IDOCK:   -6.10 KCAL/MOL
REMARK 922        TOTAL FREE ENERGY PREDICTED BY IDOCK:   -8.29 KCAL/MOL
REMARK 923 INTER-LIGAND FREE ENERGY PREDICTED BY IDOCK:   -7.58 KCAL/MOL
REMARK 924 INTRA-LIGAND FREE ENERGY PREDICTED BY IDOCK:   -0.70 KCAL/MOL
REMARK 927      BINDING AFFINITY PREDICTED BY RF-SCORE:    0.00 PKD
ROOT
HETATM    1  N   UNL     1      -9.131  18.371  68.062  1.00  0.00    -0.287 NA 
HETATM    2  H1  UNL     1      -9.610  19.209  68.393  1.00  0.00     0.000 HD 
HETATM    3  H2  UNL     1      -8.278  18.213  68.599  1.00  0.00     0.000 HD 
HETATM    4  CA  UNL     1      -8.834  18.374  66.597  1.00  0.00    -0.289 C  
HETATM    5  C   UNL     1      -7.958  19.607  66.298  1.00  0.00    -0.328 C  
HETATM    6  OXT UNL     1      -7.245  19.752  65.319  1.00  0.00    -0.378 OA 
HETATM    7  O   UNL     1      -8.086  20.548  67.272  1.00  0.00    -0.335 OA 
ENDROOT
BRANCH   4   8
HETATM    8  C   UNL     1      -8.110  17.108  66.098  1.00  0.00    -0.283 C  
BRANCH   8   9
HETATM    9  C   UNL     1      -8.744  15.773  66.438  1.00  0.00    -0.372 A  
HETATM   10  C   UNL     1     -10.003  15.402  65.963  1.00  0.00    -0.350 A  
HETATM   11  C   UNL     1     -10.546  14.155  66.300  1.00  0.00    -0.284 A  
HETATM   12  I   UNL     1     -12.481  13.731  65.564  1.00  0.00    -0.441 I  
HETATM   13  C   UNL     1      -9.857  13.235  67.123  1.00  0.00    -0.237 A  
HETATM   14  C   UNL     1      -8.584  13.601  67.579  1.00  0.00    -0.197 A  
HETATM   15  C   UNL     1      -8.033  14.847  67.215  1.00  0.00    -0.237 A  
HETATM   16  I   UNL     1      -7.405  12.478  68.913  1.00  0.00     0.207 I  
BRANCH  13  17
HETATM   17  O   UNL     1     -10.610  12.204  67.634  1.00  0.00    -0.204 OA 
BRANCH  17  18
HETATM   18  C   UNL     1     -11.299  12.246  68.820  1.00  0.00    -0.289 A  
HETATM   19  C   UNL     1     -11.475  10.977  69.395  1.00  0.00    -0.364 A  
HETATM   20  C   UNL     1     -12.167  10.821  70.597  1.00  0.00    -0.379 A  
HETATM   21  I   UNL     1     -12.380   8.894  71.372  1.00  0.00    -0.339 I  
HETATM   22  C   UNL     1     -12.707  11.939  71.234  1.00  0.00    -0.298 A  
HETATM   23  C   UNL     1     -12.529  13.208  70.665  1.00  0.00    -0.286 A  
HETATM   24  O   UNL     1     -13.400  11.803  72.412  1.00  0.00    -0.596 OA 
HETATM   25  H   UNL     1     -13.768  12.565  72.845  1.00  0.00     0.000 HD 
HETATM   26  I   UNL     1     -13.397  14.912  71.527  1.00  0.00    -0.625 I  
HETATM   27  C   UNL     1     -11.795  13.369  69.477  1.00  0.00    -0.391 A  
ENDBRANCH  17  18
ENDBRANCH  13  17
ENDBRANCH   8   9
ENDBRANCH   4   8
TORSDOF 4
ENDMDL
MODEL       19
REMARK 921   NORMALIZED FREE ENERGY PREDICTED BY IDOCK:   -6.10 KCAL/MOL
REMARK 922        TOTAL FREE ENERGY PREDICTED BY IDOCK:   -8.28 KCAL/MOL
REMARK 923 INTER-LIGAND FREE ENERGY PREDICTED BY IDOCK:   -8.35 KCAL/MOL
REMARK 924 INTRA-LIGAND FREE ENERGY PREDICTED BY IDOCK:    0.07 KCAL/MOL
REMARK 927      BINDING AFFINITY PREDICTED BY RF-SCORE:    0.00 PKD
ROOT
HETATM    1  N   UNL     1     -13.835  13.581  72.696  1.00  0.00    -0.753 NA 
HETATM    2  H1  UNL     1     -13.953  13.319  73.675  1.00  0.00     0.000 HD 
HETATM    3  H2  UNL     1     -13.038  13.090  72.289  1.00  0.00     0.000 HD 
HETATM    4  CA  UNL     1     -13.717  15.053  72.465  1.00  0.00    -0.469 C  
HETATM    5  C   UNL     1     -12.503  15.558  73.272  1.00  0.00    -0.482 C  
HETATM    6  OXT UNL     1     -11.896  16.595  73.067  1.00  0.00    -0.496 OA 
HETATM    7  O   UNL     1     -12.188  14.697  74.277  1.00  0.00    -0.473 OA 
ENDROOT
BRANCH   4   8
HETATM    8  C   UNL     1     -13.538  15.447  70.986  1.00  0.00    -0.465 C  
BRANCH   8   9
HETATM    9  C   UNL     1     -12.525  14.657  70.180  1.00  0.00    -0.369 A  
HETATM   10  C   UNL     1     -12.391  13.273  70.302  1.00  0.00    -0.334 A  
HETATM   11  C   UNL     1     -11.443  12.584  69.533  1.00  0.00    -0.230 A  
HETATM   12  I   UNL     1     -11.298  10.499  69.845  1.00  0.00    -0.418 I  
HETATM   13  C   UNL     1     -10.595  13.248  68.617  1.00  0.00    -0.246 A  
HETATM   14  C   UNL     1     -10.749  14.635  68.480  1.00  0.00    -0.247 A  
HETATM   15  C   UNL     1     -11.721  15.317  69.239  1.00  0.00    -0.359 A  
HETATM   16  I   UNL     1      -9.537  15.877  67.289  1.00  0.00    -0.240 I  
BRANCH  13  17
HETATM   17  O   UNL     1      -9.514  12.528  68.167  1.00  0.00    -0.206 OA 
BRANCH  17  18
HETATM   18  C   UNL     1      -9.461  11.852  66.973  1.00  0.00    -0.188 A  
HETATM   19  C   UNL     1     -10.486  12.226  66.089  1.00  0.00    -0.270 A  
HETATM   20  C   UNL     1     -10.602  11.632  64.831  1.00  0.00    -0.296 A  
HETATM   21  I   UNL     1     -12.160  12.250  63.586  1.00  0.00    -0.557 I  
HETATM   22  C   UNL     1      -9.697  10.642  64.448  1.00  0.00    -0.311 A  
HETATM   23  C   UNL     1      -8.671  10.270  65.326  1.00  0.00    -0.172 A  
HETATM   24  O   UNL     1      -9.802  10.040  63.217  1.00  0.00    -0.509 OA 
HETATM   25  H   UNL     1      -9.186   9.365  62.956  1.00  0.00     0.000 HD 
HETATM   26  I   UNL     1      -7.338   8.724  64.843  1.00  0.00    -0.103 I  
HETATM   27  C   UNL     1      -8.528  10.899  66.575  1.00  0.00    -0.159 A  
ENDBRANCH  17  18
ENDBRANCH  13  17
ENDBRANCH   8   9
ENDBRANCH   4   8
TORSDOF 4
ENDMDL
MODEL       20
REMARK 921   NORMALIZED FREE ENERGY PREDICTED BY IDOCK:   -6.06 KCAL/MOL
REMARK 922        TOTAL FREE ENERGY PREDICTED BY IDOCK:   -8.24 KCAL/MOL
REMARK 923 INTER-LIGAND FREE ENERGY PREDICTED BY IDOCK:   -7.68 KCAL/MOL
REMARK 924 INTRA-LIGAND FREE ENERGY PREDICTED BY IDOCK:   -0.55 KCAL/MOL
REMARK 927      BINDING AFFINITY PREDICTED BY RF-SCORE:    0.00 PKD
ROOT
HETATM    1  N   UNL     1     -12.379  14.195  63.629  1.00  0.00    -1.092 NA 
HETATM    2  H1  UNL     1     -11.942  14.492  62.756  1.00  0.00     0.000 HD 
HETATM    3  H2  UNL     1     -13.275  14.664  63.757  1.00  0.00     0.000 HD 
HETATM    4  CA  UNL     1     -11.517  14.372  64.837  1.00  0.00    -0.386 C  
HETATM    5  C   UNL     1     -11.154  15.868  64.938  1.00  0.00    -0.389 C  
HETATM    6  OXT UNL     1     -10.775  16.440  65.946  1.00  0.00    -0.298 OA 
HETATM    7  O   UNL     1     -11.296  16.490  63.737  1.00  0.00    -0.966 OA 
ENDROOT
BRANCH   4   8
HETATM    8  C   UNL     1     -12.177  13.923  66.155  1.00  0.00    -0.498 C  
BRANCH   8   9
HETATM    9  C   UNL     1     -11.549  12.743  66.872  1.00  0.00    -0.428 A  
HETATM   10  C   UNL     1     -11.997  12.303  68.118  1.00  0.00    -0.256 A  
HETATM   11  C   UNL     1     -11.389  11.203  68.740  1.00  0.00    -0.277 A  
HETATM   12  I   UNL     1     -12.121  10.666  70.649  1.00  0.00    -0.501 I  
HETATM   13  C   UNL     1     -10.313  10.506  68.145  1.00  0.00    -0.172 A  
HETATM   14  C   UNL     1      -9.881  10.936  66.883  1.00  0.00    -0.189 A  
HETATM   15  C   UNL     1     -10.514  12.027  66.252  1.00  0.00    -0.273 A  
HETATM   16  I   UNL     1      -8.227  10.160  65.838  1.00  0.00    -0.160 I  
BRANCH  13  17
HETATM   17  O   UNL     1      -9.607   9.667  68.975  1.00  0.00    -0.158 OA 
BRANCH  17  18
HETATM   18  C   UNL     1      -9.707   8.299  68.980  1.00  0.00    -0.167 A  
HETATM   19  C   UNL     1      -9.562   7.746  70.263  1.00  0.00    -0.175 A  
HETATM   20  C   UNL     1      -9.619   6.365  70.461  1.00  0.00    -0.165 A  
HETATM   21  I   UNL     1      -9.388   5.636  72.404  1.00  0.00    -0.161 I  
HETATM   22  C   UNL     1      -9.810   5.517  69.370  1.00  0.00    -0.177 A  
HETATM   23  C   UNL     1      -9.960   6.066  68.090  1.00  0.00    -0.147 A  
HETATM   24  O   UNL     1      -9.858   4.156  69.546  1.00  0.00    -0.206 OA 
HETATM   25  H   UNL     1      -9.988   3.578  68.803  1.00  0.00     0.000 HD 
HETATM   26  I   UNL     1     -10.156   4.837  66.401  1.00  0.00    -0.242 I  
HETATM   27  C   UNL     1      -9.946   7.458  67.896  1.00  0.00    -0.201 A  
ENDBRANCH  17  18
ENDBRANCH  13  17
ENDBRANCH   8   9
ENDBRANCH   4   8
TORSDOF 4
ENDMDL
MODEL       21
REMARK 921   NORMALIZED FREE ENERGY PREDICTED BY IDOCK:   -6.05 KCAL/MOL
REMARK 922        TOTAL FREE ENERGY PREDICTED BY IDOCK:   -8.21 KCAL/MOL
REMARK 923 INTER-LIGAND FREE ENERGY PREDICTED BY IDOCK:   -7.46 KCAL/MOL
REMARK 924 INTRA-LIGAND FREE ENERGY PREDICTED BY IDOCK:   -0.75 KCAL/MOL
REMARK 927      BINDING AFFINITY PREDICTED BY RF-SCORE:    0.00 PKD
ROOT
HETATM    1  N   UNL     1      -7.147   5.230  74.094  1.00  0.00    -0.081 NA 
HETATM    2  H1  UNL     1      -6.785   4.322  73.801  1.00  0.00     0.000 HD 
HETATM    3  H2  UNL     1      -7.126   5.310  75.111  1.00  0.00     0.000 HD 
HETATM    4  CA  UNL     1      -8.512   5.543  73.572  1.00  0.00    -0.112 C  
HETATM    5  C   UNL     1      -9.467   4.437  74.064  1.00  0.00    -0.113 C  
HETATM    6  OXT UNL     1     -10.681   4.529  74.139  1.00  0.00    -0.264 OA 
HETATM    7  O   UNL     1      -8.783   3.311  74.400  1.00  0.00    -0.082 OA 
ENDROOT
BRANCH   4   8
HETATM    8  C   UNL     1      -9.057   6.915  74.015  1.00  0.00    -0.225 C  
BRANCH   8   9
HETATM    9  C   UNL     1      -9.741   7.759  72.956  1.00  0.00    -0.329 A  
HETATM   10  C   UNL     1     -11.123   7.953  72.935  1.00  0.00    -0.442 A  
HETATM   11  C   UNL     1     -11.710   8.745  71.939  1.00  0.00    -0.359 A  
HETATM   12  I   UNL     1     -13.816   8.920  71.981  1.00  0.00    -0.476 I  
HETATM   13  C   UNL     1     -10.943   9.370  70.929  1.00  0.00    -0.320 A  
HETATM   14  C   UNL     1      -9.553   9.192  70.968  1.00  0.00    -0.280 A  
HETATM   15  C   UNL     1      -8.968   8.414  71.987  1.00  0.00    -0.290 A  
HETATM   16  I   UNL     1      -8.200   9.903  69.521  1.00  0.00    -0.175 I  
BRANCH  13  17
HETATM   17  O   UNL     1     -11.646   9.847  69.848  1.00  0.00    -0.214 OA 
BRANCH  17  18
HETATM   18  C   UNL     1     -11.794  11.173  69.528  1.00  0.00    -0.353 A  
HETATM   19  C   UNL     1     -11.688  11.418  68.150  1.00  0.00    -0.355 A  
HETATM   20  C   UNL     1     -11.796  12.712  67.639  1.00  0.00    -0.329 A  
HETATM   21  I   UNL     1     -11.620  12.978  65.575  1.00  0.00    -0.465 I  
HETATM   22  C   UNL     1     -11.998  13.784  68.508  1.00  0.00    -0.367 A  
HETATM   23  C   UNL     1     -12.109  13.543  69.884  1.00  0.00    -0.341 A  
HETATM   24  O   UNL     1     -12.096  15.066  68.024  1.00  0.00    -0.538 OA 
HETATM   25  H   UNL     1     -12.233  15.796  68.616  1.00  0.00     0.000 HD 
HETATM   26  I   UNL     1     -12.320  15.123  71.247  1.00  0.00    -0.570 I  
HETATM   27  C   UNL     1     -12.044  12.235  70.394  1.00  0.00    -0.385 A  
ENDBRANCH  17  18
ENDBRANCH  13  17
ENDBRANCH   8   9
ENDBRANCH   4   8
TORSDOF 4
ENDMDL
MODEL       22
REMARK 921   NORMALIZED FREE ENERGY PREDICTED BY IDOCK:   -6.03 KCAL/MOL
REMARK 922        TOTAL FREE ENERGY PREDICTED BY IDOCK:   -8.20 KCAL/MOL
REMARK 923 INTER-LIGAND FREE ENERGY PREDICTED BY IDOCK:   -7.75 KCAL/MOL
REMARK 924 INTRA-LIGAND FREE ENERGY PREDICTED BY IDOCK:   -0.44 KCAL/MOL
REMARK 927      BINDING AFFINITY PREDICTED BY RF-SCORE:    0.00 PKD
ROOT
HETATM    1  N   UNL     1     -14.266  15.132  70.870  1.00  0.00    -0.711 NA 
HETATM    2  H1  UNL     1     -15.052  15.258  71.509  1.00  0.00     0.000 HD 
HETATM    3  H2  UNL     1     -14.098  14.140  70.702  1.00  0.00     0.000 HD 
HETATM    4  CA  UNL     1     -13.007  15.809  71.308  1.00  0.00    -0.393 C  
HETATM    5  C   UNL     1     -12.628  15.244  72.691  1.00  0.00    -0.378 C  
HETATM    6  OXT UNL     1     -11.518  15.287  73.196  1.00  0.00    -0.346 OA 
HETATM    7  O   UNL     1     -13.705  14.690  73.309  1.00  0.00    -0.449 OA 
ENDROOT
BRANCH   4   8
HETATM    8  C   UNL     1     -11.820  15.619  70.342  1.00  0.00    -0.395 C  
BRANCH   8   9
HETATM    9  C   UNL     1     -11.808  14.353  69.508  1.00  0.00    -0.376 A  
HETATM   10  C   UNL     1     -11.642  13.088  70.075  1.00  0.00    -0.195 A  
HETATM   11  C   UNL     1     -11.643  11.945  69.264  1.00  0.00    -0.315 A  
HETATM   12  I   UNL     1     -11.329  10.092  70.231  1.00  0.00    -0.415 I  
HETATM   13  C   UNL     1     -11.807  12.020  67.862  1.00  0.00    -0.250 A  
HETATM   14  C   UNL     1     -11.996  13.290  67.299  1.00  0.00    -0.343 A  
HETATM   15  C   UNL     1     -12.019  14.433  68.124  1.00  0.00    -0.320 A  
HETATM   16  I   UNL     1     -12.136  13.694  65.238  1.00  0.00    -0.546 I  
BRANCH  13  17
HETATM   17  O   UNL     1     -11.476  10.888  67.155  1.00  0.00    -0.428 OA 
BRANCH  17  18
HETATM   18  C   UNL     1     -10.340  10.735  66.401  1.00  0.00    -0.248 A  
HETATM   19  C   UNL     1      -9.165  10.987  67.128  1.00  0.00    -0.162 A  
HETATM   20  C   UNL     1      -7.911  10.896  66.521  1.00  0.00    -0.152 A  
HETATM   21  I   UNL     1      -6.221  11.295  67.681  1.00  0.00    -0.077 I  
HETATM   22  C   UNL     1      -7.819  10.564  65.169  1.00  0.00    -0.076 A  
HETATM   23  C   UNL     1      -8.989  10.307  64.443  1.00  0.00    -0.227 A  
HETATM   24  O   UNL     1      -6.594  10.480  64.554  1.00  0.00    -0.321 OA 
HETATM   25  H   UNL     1      -6.531  10.254  63.633  1.00  0.00     0.000 HD 
HETATM   26  I   UNL     1      -8.920   9.893  62.388  1.00  0.00    -0.299 I  
HETATM   27  C   UNL     1     -10.249  10.355  65.065  1.00  0.00    -0.334 A  
ENDBRANCH  17  18
ENDBRANCH  13  17
ENDBRANCH   8   9
ENDBRANCH   4   8
TORSDOF 4
ENDMDL
MODEL       23
REMARK 921   NORMALIZED FREE ENERGY PREDICTED BY IDOCK:   -6.03 KCAL/MOL
REMARK 922        TOTAL FREE ENERGY PREDICTED BY IDOCK:   -8.19 KCAL/MOL
REMARK 923 INTER-LIGAND FREE ENERGY PREDICTED BY IDOCK:   -7.57 KCAL/MOL
REMARK 924 INTRA-LIGAND FREE ENERGY PREDICTED BY IDOCK:   -0.62 KCAL/MOL
REMARK 927      BINDING AFFINITY PREDICTED BY RF-SCORE:    0.00 PKD
ROOT
HETATM    1  N   UNL     1     -12.426  14.423  63.745  1.00  0.00    -1.058 NA 
HETATM    2  H1  UNL     1     -12.025  14.754  62.867  1.00  0.00     0.000 HD 
HETATM    3  H2  UNL     1     -13.285  14.931  63.958  1.00  0.00     0.000 HD 
HETATM    4  CA  UNL     1     -11.485  14.474  64.906  1.00  0.00    -0.396 C  
HETATM    5  C   UNL     1     -11.033  15.939  65.077  1.00  0.00    -0.412 C  
HETATM    6  OXT UNL     1     -10.563  16.422  66.094  1.00  0.00    -0.311 OA 
HETATM    7  O   UNL     1     -11.208  16.646  63.929  1.00  0.00    -0.955 OA 
ENDROOT
BRANCH   4   8
HETATM    8  C   UNL     1     -12.092  13.975  66.232  1.00  0.00    -0.482 C  
BRANCH   8   9
HETATM    9  C   UNL     1     -11.567  12.660  66.776  1.00  0.00    -0.438 A  
HETATM   10  C   UNL     1     -10.721  11.831  66.037  1.00  0.00    -0.324 A  
HETATM   11  C   UNL     1     -10.257  10.627  66.584  1.00  0.00    -0.231 A  
HETATM   12  I   UNL     1      -9.027   9.433  65.348  1.00  0.00    -0.266 I  
HETATM   13  C   UNL     1     -10.618  10.206  67.884  1.00  0.00    -0.249 A  
HETATM   14  C   UNL     1     -11.448  11.052  68.632  1.00  0.00    -0.308 A  
HETATM   15  C   UNL     1     -11.891  12.273  68.085  1.00  0.00    -0.372 A  
HETATM   16  I   UNL     1     -12.235  10.608  70.533  1.00  0.00    -0.477 I  
BRANCH  13  17
HETATM   17  O   UNL     1     -10.366   8.887  68.181  1.00  0.00    -0.201 OA 
BRANCH  17  18
HETATM   18  C   UNL     1      -9.603   8.451  69.235  1.00  0.00    -0.164 A  
HETATM   19  C   UNL     1      -8.435   9.209  69.414  1.00  0.00    -0.130 A  
HETATM   20  C   UNL     1      -7.526   8.902  70.428  1.00  0.00    -0.081 A  
HETATM   21  I   UNL     1      -5.815  10.084  70.613  1.00  0.00    -0.078 I  
HETATM   22  C   UNL     1      -7.772   7.817  71.271  1.00  0.00    -0.085 A  
HETATM   23  C   UNL     1      -8.939   7.061  71.098  1.00  0.00    -0.146 A  
HETATM   24  O   UNL     1      -6.883   7.495  72.268  1.00  0.00    -0.057 OA 
HETATM   25  H   UNL     1      -7.050   6.756  72.842  1.00  0.00     0.000 HD 
HETATM   26  I   UNL     1      -9.315   5.365  72.273  1.00  0.00    -0.173 I  
HETATM   27  C   UNL     1      -9.874   7.398  70.104  1.00  0.00    -0.180 A  
ENDBRANCH  17  18
ENDBRANCH  13  17
ENDBRANCH   8   9
ENDBRANCH   4   8
TORSDOF 4
ENDMDL
MODEL       24
REMARK 921   NORMALIZED FREE ENERGY PREDICTED BY IDOCK:   -6.01 KCAL/MOL
REMARK 922        TOTAL FREE ENERGY PREDICTED BY IDOCK:   -8.17 KCAL/MOL
REMARK 923 INTER-LIGAND FREE ENERGY PREDICTED BY IDOCK:   -7.73 KCAL/MOL
REMARK 924 INTRA-LIGAND FREE ENERGY PREDICTED BY IDOCK:   -0.45 KCAL/MOL
REMARK 927      BINDING AFFINITY PREDICTED BY RF-SCORE:    0.00 PKD
ROOT
HETATM    1  N   UNL     1      -8.494  19.169  67.499  1.00  0.00    -0.284 NA 
HETATM    2  H1  UNL     1      -9.008  19.894  68.000  1.00  0.00     0.000 HD 
HETATM    3  H2  UNL     1      -7.910  19.584  66.773  1.00  0.00     0.000 HD 
HETATM    4  CA  UNL     1      -9.357  18.091  66.926  1.00  0.00    -0.276 C  
HETATM    5  C   UNL     1     -10.359  18.757  65.961  1.00  0.00    -0.422 C  
HETATM    6  OXT UNL     1     -10.968  18.191  65.069  1.00  0.00    -0.726 OA 
HETATM    7  O   UNL     1     -10.502  20.081  66.237  1.00  0.00    -0.454 OA 
ENDROOT
BRANCH   4   8
HETATM    8  C   UNL     1      -8.579  16.997  66.169  1.00  0.00    -0.252 C  
BRANCH   8   9
HETATM    9  C   UNL     1      -8.998  15.560  66.416  1.00  0.00    -0.359 A  
HETATM   10  C   UNL     1     -10.128  15.000  65.818  1.00  0.00    -0.367 A  
HETATM   11  C   UNL     1     -10.473  13.665  66.072  1.00  0.00    -0.300 A  
HETATM   12  I   UNL     1     -12.235  12.947  65.152  1.00  0.00    -0.503 I  
HETATM   13  C   UNL     1      -9.708  12.843  66.931  1.00  0.00    -0.240 A  
HETATM   14  C   UNL     1      -8.561  13.402  67.510  1.00  0.00    -0.200 A  
HETATM   15  C   UNL     1      -8.206  14.737  67.231  1.00  0.00    -0.237 A  
HETATM   16  I   UNL     1      -7.323  12.443  68.917  1.00  0.00     0.192 I  
BRANCH  13  17
HETATM   17  O   UNL     1     -10.311  11.678  67.344  1.00  0.00    -0.199 OA 
BRANCH  17  18
HETATM   18  C   UNL     1     -10.996  11.523  68.523  1.00  0.00    -0.223 A  
HETATM   19  C   UNL     1     -11.491  12.735  69.030  1.00  0.00    -0.360 A  
HETATM   20  C   UNL     1     -12.202  12.775  70.231  1.00  0.00    -0.277 A  
HETATM   21  I   UNL     1     -12.894  14.625  70.907  1.00  0.00    -0.407 I  
HETATM   22  C   UNL     1     -12.414  11.598  70.948  1.00  0.00    -0.341 A  
HETATM   23  C   UNL     1     -11.926  10.386  70.443  1.00  0.00    -0.320 A  
HETATM   24  O   UNL     1     -13.102  11.621  72.137  1.00  0.00    -0.471 OA 
HETATM   25  H   UNL     1     -13.247  10.819  72.626  1.00  0.00     0.000 HD 
HETATM   26  I   UNL     1     -12.133   8.599  71.522  1.00  0.00    -0.419 I  
HETATM   27  C   UNL     1     -11.248  10.339  69.212  1.00  0.00    -0.281 A  
ENDBRANCH  17  18
ENDBRANCH  13  17
ENDBRANCH   8   9
ENDBRANCH   4   8
TORSDOF 4
ENDMDL
MODEL       25
REMARK 921   NORMALIZED FREE ENERGY PREDICTED BY IDOCK:   -5.95 KCAL/MOL
REMARK 922        TOTAL FREE ENERGY PREDICTED BY IDOCK:   -8.10 KCAL/MOL
REMARK 923 INTER-LIGAND FREE ENERGY PREDICTED BY IDOCK:   -7.99 KCAL/MOL
REMARK 924 INTRA-LIGAND FREE ENERGY PREDICTED BY IDOCK:   -0.11 KCAL/MOL
REMARK 927      BINDING AFFINITY PREDICTED BY RF-SCORE:    0.00 PKD
ROOT
HETATM    1  N   UNL     1     -11.184   5.819  66.231  1.00  0.00    -0.734 NA 
HETATM    2  H1  UNL     1     -11.577   4.961  66.619  1.00  0.00     0.000 HD 
HETATM    3  H2  UNL     1     -11.138   5.762  65.214  1.00  0.00     0.000 HD 
HETATM    4  CA  UNL     1      -9.852   6.192  66.796  1.00  0.00    -0.164 C  
HETATM    5  C   UNL     1      -8.883   5.024  66.521  1.00  0.00    -0.112 C  
HETATM    6  OXT UNL     1      -7.665   5.097  66.515  1.00  0.00    -0.091 OA 
HETATM    7  O   UNL     1      -9.560   3.866  66.295  1.00  0.00    -0.186 OA 
ENDROOT
BRANCH   4   8
HETATM    8  C   UNL     1      -9.258   7.488  66.210  1.00  0.00    -0.194 C  
BRANCH   8   9
HETATM    9  C   UNL     1      -9.933   8.790  66.596  1.00  0.00    -0.355 A  
HETATM   10  C   UNL     1     -10.439   9.017  67.877  1.00  0.00    -0.291 A  
HETATM   11  C   UNL     1     -11.051  10.239  68.189  1.00  0.00    -0.264 A  
HETATM   12  I   UNL     1     -11.825  10.443  70.145  1.00  0.00    -0.344 I  
HETATM   13  C   UNL     1     -11.182  11.276  67.237  1.00  0.00    -0.296 A  
HETATM   14  C   UNL     1     -10.652  11.053  65.959  1.00  0.00    -0.213 A  
HETATM   15  C   UNL     1     -10.016   9.831  65.660  1.00  0.00    -0.352 A  
HETATM   16  I   UNL     1     -10.825  12.373  64.328  1.00  0.00    -0.531 I  
BRANCH  13  17
HETATM   17  O   UNL     1     -12.065  12.280  67.559  1.00  0.00    -0.514 OA 
BRANCH  17  18
HETATM   18  C   UNL     1     -11.707  13.542  67.963  1.00  0.00    -0.359 A  
HETATM   19  C   UNL     1     -12.061  13.810  69.295  1.00  0.00    -0.374 A  
HETATM   20  C   UNL     1     -11.790  15.051  69.875  1.00  0.00    -0.324 A  
HETATM   21  I   UNL     1     -12.358  15.357  71.861  1.00  0.00    -0.633 I  
HETATM   22  C   UNL     1     -11.171  16.047  69.120  1.00  0.00    -0.342 A  
HETATM   23  C   UNL     1     -10.812  15.781  67.792  1.00  0.00    -0.316 A  
HETATM   24  O   UNL     1     -10.907  17.277  69.672  1.00  0.00    -0.364 OA 
HETATM   25  H   UNL     1     -10.485  17.956  69.158  1.00  0.00     0.000 HD 
HETATM   26  I   UNL     1      -9.965  17.269  66.580  1.00  0.00    -0.320 I  
HETATM   27  C   UNL     1     -11.046  14.518  67.221  1.00  0.00    -0.317 A  
ENDBRANCH  17  18
ENDBRANCH  13  17
ENDBRANCH   8   9
ENDBRANCH   4   8
TORSDOF 4
ENDMDL
MODEL       26
REMARK 921   NORMALIZED FREE ENERGY PREDICTED BY IDOCK:   -5.91 KCAL/MOL
REMARK 922        TOTAL FREE ENERGY PREDICTED BY IDOCK:   -8.05 KCAL/MOL
REMARK 923 INTER-LIGAND FREE ENERGY PREDICTED BY IDOCK:   -7.41 KCAL/MOL
REMARK 924 INTRA-LIGAND FREE ENERGY PREDICTED BY IDOCK:   -0.64 KCAL/MOL
REMARK 927      BINDING AFFINITY PREDICTED BY RF-SCORE:    0.00 PKD
ROOT
HETATM    1  N   UNL     1      -9.261  18.292  68.047  1.00  0.00    -0.283 NA 
HETATM    2  H1  UNL     1      -9.434  19.036  68.724  1.00  0.00     0.000 HD 
HETATM    3  H2  UNL     1      -8.368  18.438  67.577  1.00  0.00     0.000 HD 
HETATM    4  CA  UNL     1     -10.356  18.109  67.047  1.00  0.00    -0.380 C  
HETATM    5  C   UNL     1     -10.533  19.444  66.295  1.00  0.00    -0.493 C  
HETATM    6  OXT UNL     1     -11.064  19.581  65.206  1.00  0.00    -0.406 OA 
HETATM    7  O   UNL     1     -10.028  20.483  67.013  1.00  0.00    -0.453 OA 
ENDROOT
BRANCH   4   8
HETATM    8  C   UNL     1     -10.095  16.985  66.024  1.00  0.00    -0.318 C  
BRANCH   8   9
HETATM    9  C   UNL     1     -10.608  15.602  66.376  1.00  0.00    -0.308 A  
HETATM   10  C   UNL     1     -11.060  15.277  67.656  1.00  0.00    -0.323 A  
HETATM   11  C   UNL     1     -11.531  13.986  67.934  1.00  0.00    -0.316 A  
HETATM   12  I   UNL     1     -12.137  13.601  69.921  1.00  0.00    -0.257 I  
HETATM   13  C   UNL     1     -11.566  12.974  66.948  1.00  0.00    -0.366 A  
HETATM   14  C   UNL     1     -11.134  13.310  65.657  1.00  0.00    -0.282 A  
HETATM   15  C   UNL     1     -10.685  14.617  65.380  1.00  0.00    -0.382 A  
HETATM   16  I   UNL     1     -10.964  11.965  64.047  1.00  0.00    -0.561 I  
BRANCH  13  17
HETATM   17  O   UNL     1     -11.742  11.690  67.409  1.00  0.00    -0.556 OA 
BRANCH  17  18
HETATM   18  C   UNL     1     -10.728  10.828  67.742  1.00  0.00    -0.251 A  
HETATM   19  C   UNL     1     -11.025   9.491  67.436  1.00  0.00    -0.103 A  
HETATM   20  C   UNL     1     -10.117   8.469  67.719  1.00  0.00    -0.211 A  
HETATM   21  I   UNL     1     -10.651   6.510  67.232  1.00  0.00    -0.490 I  
HETATM   22  C   UNL     1      -8.900   8.775  68.328  1.00  0.00    -0.141 A  
HETATM   23  C   UNL     1      -8.597  10.109  68.630  1.00  0.00    -0.123 A  
HETATM   24  O   UNL     1      -7.999   7.781  68.623  1.00  0.00    -0.117 OA 
HETATM   25  H   UNL     1      -7.170   7.989  69.038  1.00  0.00     0.000 HD 
HETATM   26  I   UNL     1      -6.825  10.619  69.629  1.00  0.00    -0.105 I  
HETATM   27  C   UNL     1      -9.494  11.143  68.306  1.00  0.00    -0.182 A  
ENDBRANCH  17  18
ENDBRANCH  13  17
ENDBRANCH   8   9
ENDBRANCH   4   8
TORSDOF 4
ENDMDL
MODEL       27
REMARK 921   NORMALIZED FREE ENERGY PREDICTED BY IDOCK:   -5.89 KCAL/MOL
REMARK 922        TOTAL FREE ENERGY PREDICTED BY IDOCK:   -8.02 KCAL/MOL
REMARK 923 INTER-LIGAND FREE ENERGY PREDICTED BY IDOCK:   -7.44 KCAL/MOL
REMARK 924 INTRA-LIGAND FREE ENERGY PREDICTED BY IDOCK:   -0.58 KCAL/MOL
REMARK 927      BINDING AFFINITY PREDICTED BY RF-SCORE:    0.00 PKD
ROOT
HETATM    1  N   UNL     1     -14.274  15.228  70.806  1.00  0.00    -0.766 NA 
HETATM    2  H1  UNL     1     -15.054  15.428  71.433  1.00  0.00     0.000 HD 
HETATM    3  H2  UNL     1     -14.177  14.223  70.667  1.00  0.00     0.000 HD 
HETATM    4  CA  UNL     1     -12.973  15.825  71.238  1.00  0.00    -0.393 C  
HETATM    5  C   UNL     1     -12.647  15.273  72.641  1.00  0.00    -0.378 C  
HETATM    6  OXT UNL     1     -11.542  15.250  73.156  1.00  0.00    -0.402 OA 
HETATM    7  O   UNL     1     -13.767  14.816  73.262  1.00  0.00    -0.454 OA 
ENDROOT
BRANCH   4   8
HETATM    8  C   UNL     1     -11.795  15.523  70.291  1.00  0.00    -0.381 C  
BRANCH   8   9
HETATM    9  C   UNL     1     -11.826  14.197  69.555  1.00  0.00    -0.373 A  
HETATM   10  C   UNL     1     -11.752  12.973  70.222  1.00  0.00    -0.192 A  
HETATM   11  C   UNL     1     -11.790  11.772  69.500  1.00  0.00    -0.337 A  
HETATM   12  I   UNL     1     -11.617   9.985  70.616  1.00  0.00    -0.457 I  
HETATM   13  C   UNL     1     -11.900  11.747  68.091  1.00  0.00    -0.254 A  
HETATM   14  C   UNL     1     -11.997  12.978  67.427  1.00  0.00    -0.316 A  
HETATM   15  C   UNL     1     -11.984  14.181  68.162  1.00  0.00    -0.367 A  
HETATM   16  I   UNL     1     -12.042  13.229  65.338  1.00  0.00    -0.552 I  
BRANCH  13  17
HETATM   17  O   UNL     1     -11.610  10.547  67.485  1.00  0.00    -0.421 OA 
BRANCH  17  18
HETATM   18  C   UNL     1     -10.346  10.089  67.214  1.00  0.00    -0.237 A  
HETATM   19  C   UNL     1     -10.291   8.693  67.069  1.00  0.00    -0.368 A  
HETATM   20  C   UNL     1      -9.083   8.044  66.806  1.00  0.00    -0.155 A  
HETATM   21  I   UNL     1      -9.100   5.965  66.612  1.00  0.00    -0.157 I  
HETATM   22  C   UNL     1      -7.908   8.789  66.697  1.00  0.00    -0.100 A  
HETATM   23  C   UNL     1      -7.960  10.182  66.836  1.00  0.00    -0.114 A  
HETATM   24  O   UNL     1      -6.709   8.166  66.449  1.00  0.00    -0.060 OA 
HETATM   25  H   UNL     1      -5.909   8.672  66.375  1.00  0.00     0.000 HD 
HETATM   26  I   UNL     1      -6.214  11.343  66.775  1.00  0.00    -0.040 I  
HETATM   27  C   UNL     1      -9.183  10.839  67.058  1.00  0.00    -0.166 A  
ENDBRANCH  17  18
ENDBRANCH  13  17
ENDBRANCH   8   9
ENDBRANCH   4   8
TORSDOF 4
ENDMDL
MODEL       28
REMARK 921   NORMALIZED FREE ENERGY PREDICTED BY IDOCK:   -5.88 KCAL/MOL
REMARK 922        TOTAL FREE ENERGY PREDICTED BY IDOCK:   -8.01 KCAL/MOL
REMARK 923 INTER-LIGAND FREE ENERGY PREDICTED BY IDOCK:   -7.79 KCAL/MOL
REMARK 924 INTRA-LIGAND FREE ENERGY PREDICTED BY IDOCK:   -0.22 KCAL/MOL
REMARK 927      BINDING AFFINITY PREDICTED BY RF-SCORE:    0.00 PKD
ROOT
HETATM    1  N   UNL     1      -9.250  20.723  67.008  1.00  0.00    -0.637 NA 
HETATM    2  H1  UNL     1      -9.325  21.296  66.167  1.00  0.00     0.000 HD 
HETATM    3  H2  UNL     1      -8.477  21.044  67.590  1.00  0.00     0.000 HD 
HETATM    4  CA  UNL     1      -9.133  19.257  66.742  1.00  0.00    -0.323 C  
HETATM    5  C   UNL     1      -7.880  19.038  65.869  1.00  0.00    -0.111 C  
HETATM    6  OXT UNL     1      -7.275  17.986  65.746  1.00  0.00    -0.467 OA 
HETATM    7  O   UNL     1      -7.525  20.181  65.223  1.00  0.00    -0.272 OA 
ENDROOT
BRANCH   4   8
HETATM    8  C   UNL     1      -9.020  18.392  68.012  1.00  0.00    -0.305 C  
BRANCH   8   9
HETATM    9  C   UNL     1      -9.937  17.188  68.109  1.00  0.00    -0.297 A  
HETATM   10  C   UNL     1     -10.570  16.827  69.300  1.00  0.00    -0.336 A  
HETATM   11  C   UNL     1     -11.414  15.709  69.341  1.00  0.00    -0.348 A  
HETATM   12  I   UNL     1     -12.271  15.231  71.213  1.00  0.00    -0.588 I  
HETATM   13  C   UNL     1     -11.657  14.911  68.199  1.00  0.00    -0.334 A  
HETATM   14  C   UNL     1     -11.039  15.291  67.000  1.00  0.00    -0.305 A  
HETATM   15  C   UNL     1     -10.211  16.431  66.961  1.00  0.00    -0.282 A  
HETATM   16  I   UNL     1     -11.129  14.212  65.195  1.00  0.00    -0.432 I  
BRANCH  13  17
HETATM   17  O   UNL     1     -12.234  13.685  68.433  1.00  0.00    -0.332 OA 
BRANCH  17  18
HETATM   18  C   UNL     1     -11.565  12.573  68.881  1.00  0.00    -0.318 A  
HETATM   19  C   UNL     1     -10.309  12.411  68.275  1.00  0.00    -0.232 A  
HETATM   20  C   UNL     1      -9.491  11.326  68.594  1.00  0.00    -0.175 A  
HETATM   21  I   UNL     1      -7.642  11.167  67.637  1.00  0.00    -0.123 I  
HETATM   22  C   UNL     1      -9.930  10.379  69.519  1.00  0.00    -0.202 A  
HETATM   23  C   UNL     1     -11.181  10.540  70.130  1.00  0.00    -0.315 A  
HETATM   24  O   UNL     1      -9.142   9.299  69.838  1.00  0.00    -0.161 OA 
HETATM   25  H   UNL     1      -9.441   8.653  70.468  1.00  0.00     0.000 HD 
HETATM   26  I   UNL     1     -11.932   9.100  71.457  1.00  0.00    -0.484 I  
HETATM   27  C   UNL     1     -11.985  11.656  69.840  1.00  0.00    -0.414 A  
ENDBRANCH  17  18
ENDBRANCH  13  17
ENDBRANCH   8   9
ENDBRANCH   4   8
TORSDOF 4
ENDMDL
MODEL       29
REMARK 921   NORMALIZED FREE ENERGY PREDICTED BY IDOCK:   -5.85 KCAL/MOL
REMARK 922        TOTAL FREE ENERGY PREDICTED BY IDOCK:   -7.98 KCAL/MOL
REMARK 923 INTER-LIGAND FREE ENERGY PREDICTED BY IDOCK:   -7.22 KCAL/MOL
REMARK 924 INTRA-LIGAND FREE ENERGY PREDICTED BY IDOCK:   -0.76 KCAL/MOL
REMARK 927      BINDING AFFINITY PREDICTED BY RF-SCORE:    0.00 PKD
ROOT
HETATM    1  N   UNL     1     -10.130  14.326  64.546  1.00  0.00    -0.665 NA 
HETATM    2  H1  UNL     1     -10.547  15.239  64.724  1.00  0.00     0.000 HD 
HETATM    3  H2  UNL     1      -9.867  14.239  63.564  1.00  0.00     0.000 HD 
HETATM    4  CA  UNL     1     -10.982  13.171  64.963  1.00  0.00    -0.303 C  
HETATM    5  C   UNL     1     -12.318  13.274  64.198  1.00  0.00    -0.341 C  
HETATM    6  OXT UNL     1     -13.100  12.358  64.009  1.00  0.00    -0.763 OA 
HETATM    7  O   UNL     1     -12.536  14.542  63.758  1.00  0.00    -0.809 OA 
ENDROOT
BRANCH   4   8
HETATM    8  C   UNL     1     -10.352  11.791  64.694  1.00  0.00    -0.336 C  
BRANCH   8   9
HETATM    9  C   UNL     1     -10.355  10.797  65.839  1.00  0.00    -0.302 A  
HETATM   10  C   UNL     1      -9.798   9.522  65.722  1.00  0.00    -0.363 A  
HETATM   11  C   UNL     1      -9.820   8.639  66.811  1.00  0.00    -0.253 A  
HETATM   12  I   UNL     1      -8.995   6.720  66.495  1.00  0.00    -0.164 I  
HETATM   13  C   UNL     1     -10.398   8.993  68.052  1.00  0.00    -0.224 A  
HETATM   14  C   UNL     1     -10.935  10.282  68.172  1.00  0.00    -0.274 A  
HETATM   15  C   UNL     1     -10.887  11.173  67.081  1.00  0.00    -0.326 A  
HETATM   16  I   UNL     1     -11.961  11.015  69.858  1.00  0.00    -0.433 I  
BRANCH  13  17
HETATM   17  O   UNL     1     -10.640   7.955  68.921  1.00  0.00    -0.211 OA 
BRANCH  17  18
HETATM   18  C   UNL     1      -9.887   7.668  70.032  1.00  0.00    -0.180 A  
HETATM   19  C   UNL     1     -10.512   6.751  70.892  1.00  0.00    -0.239 A  
HETATM   20  C   UNL     1      -9.902   6.352  72.083  1.00  0.00    -0.158 A  
HETATM   21  I   UNL     1     -10.911   4.987  73.300  1.00  0.00    -0.414 I  
HETATM   22  C   UNL     1      -8.659   6.879  72.434  1.00  0.00    -0.122 A  
HETATM   23  C   UNL     1      -8.031   7.791  71.575  1.00  0.00    -0.092 A  
HETATM   24  O   UNL     1      -8.050   6.505  73.607  1.00  0.00    -0.104 OA 
HETATM   25  H   UNL     1      -7.203   6.865  73.846  1.00  0.00     0.000 HD 
HETATM   26  I   UNL     1      -6.207   8.687  72.094  1.00  0.00    -0.008 I  
HETATM   27  C   UNL     1      -8.625   8.160  70.356  1.00  0.00    -0.131 A  
ENDBRANCH  17  18
ENDBRANCH  13  17
ENDBRANCH   8   9
ENDBRANCH   4   8
TORSDOF 4
ENDMDL
MODEL       30
REMARK 921   NORMALIZED FREE ENERGY PREDICTED BY IDOCK:   -5.85 KCAL/MOL
REMARK 922        TOTAL FREE ENERGY PREDICTED BY IDOCK:   -7.97 KCAL/MOL
REMARK 923 INTER-LIGAND FREE ENERGY PREDICTED BY IDOCK:   -7.39 KCAL/MOL
REMARK 924 INTRA-LIGAND FREE ENERGY PREDICTED BY IDOCK:   -0.58 KCAL/MOL
REMARK 927      BINDING AFFINITY PREDICTED BY RF-SCORE:    0.00 PKD
ROOT
HETATM    1  N   UNL     1      -8.464   7.388  62.716  1.00  0.00    -0.370 NA 
HETATM    2  H1  UNL     1      -7.809   6.636  62.932  1.00  0.00     0.000 HD 
HETATM    3  H2  UNL     1      -8.446   7.600  61.719  1.00  0.00     0.000 HD 
HETATM    4  CA  UNL     1      -8.255   8.631  63.519  1.00  0.00    -0.150 C  
HETATM    5  C   UNL     1      -6.817   9.122  63.257  1.00  0.00    -0.089 C  
HETATM    6  OXT UNL     1      -6.408  10.256  63.446  1.00  0.00    -0.138 OA 
HETATM    7  O   UNL     1      -6.030   8.115  62.791  1.00  0.00    -0.075 OA 
ENDROOT
BRANCH   4   8
HETATM    8  C   UNL     1      -9.244   9.767  63.192  1.00  0.00    -0.221 C  
BRANCH   8   9
HETATM    9  C   UNL     1      -9.901  10.467  64.367  1.00  0.00    -0.395 A  
HETATM   10  C   UNL     1      -9.744  10.024  65.681  1.00  0.00    -0.336 A  
HETATM   11  C   UNL     1     -10.366  10.706  66.736  1.00  0.00    -0.245 A  
HETATM   12  I   UNL     1     -10.098   9.908  68.675  1.00  0.00    -0.236 I  
HETATM   13  C   UNL     1     -11.167  11.851  66.519  1.00  0.00    -0.327 A  
HETATM   14  C   UNL     1     -11.303  12.306  65.201  1.00  0.00    -0.329 A  
HETATM   15  C   UNL     1     -10.654  11.629  64.148  1.00  0.00    -0.411 A  
HETATM   16  I   UNL     1     -12.533  13.901  64.590  1.00  0.00    -0.164 I  
BRANCH  13  17
HETATM   17  O   UNL     1     -11.966  12.234  67.571  1.00  0.00    -0.513 OA 
BRANCH  17  18
HETATM   18  C   UNL     1     -11.781  13.363  68.328  1.00  0.00    -0.356 A  
HETATM   19  C   UNL     1     -12.374  13.273  69.597  1.00  0.00    -0.154 A  
HETATM   20  C   UNL     1     -12.302  14.333  70.502  1.00  0.00    -0.360 A  
HETATM   21  I   UNL     1     -13.219  14.107  72.364  1.00  0.00    -0.609 I  
HETATM   22  C   UNL     1     -11.645  15.509  70.139  1.00  0.00    -0.337 A  
HETATM   23  C   UNL     1     -11.048  15.601  68.874  1.00  0.00    -0.290 A  
HETATM   24  O   UNL     1     -11.575  16.566  71.012  1.00  0.00    -0.598 OA 
HETATM   25  H   UNL     1     -11.127  17.367  70.765  1.00  0.00     0.000 HD 
HETATM   26  I   UNL     1     -10.127  17.375  68.238  1.00  0.00    -0.396 I  
HETATM   27  C   UNL     1     -11.082  14.517  67.980  1.00  0.00    -0.289 A  
ENDBRANCH  17  18
ENDBRANCH  13  17
ENDBRANCH   8   9
ENDBRANCH   4   8
TORSDOF 4
ENDMDL
MODEL       31
REMARK 921   NORMALIZED FREE ENERGY PREDICTED BY IDOCK:   -5.84 KCAL/MOL
REMARK 922        TOTAL FREE ENERGY PREDICTED BY IDOCK:   -7.96 KCAL/MOL
REMARK 923 INTER-LIGAND FREE ENERGY PREDICTED BY IDOCK:   -7.77 KCAL/MOL
REMARK 924 INTRA-LIGAND FREE ENERGY PREDICTED BY IDOCK:   -0.19 KCAL/MOL
REMARK 927      BINDING AFFINITY PREDICTED BY RF-SCORE:    0.00 PKD
ROOT
HETATM    1  N   UNL     1     -10.074  14.115  64.456  1.00  0.00    -0.700 NA 
HETATM    2  H1  UNL     1     -10.408  15.045  64.711  1.00  0.00     0.000 HD 
HETATM    3  H2  UNL     1      -9.964  14.041  63.445  1.00  0.00     0.000 HD 
HETATM    4  CA  UNL     1     -10.921  12.998  64.975  1.00  0.00    -0.298 C  
HETATM    5  C   UNL     1     -12.346  13.193  64.419  1.00  0.00    -0.360 C  
HETATM    6  OXT UNL     1     -13.199  12.326  64.332  1.00  0.00    -0.806 OA 
HETATM    7  O   UNL     1     -12.554  14.482  64.039  1.00  0.00    -0.797 OA 
ENDROOT
BRANCH   4   8
HETATM    8  C   UNL     1     -10.417  11.593  64.589  1.00  0.00    -0.354 C  
BRANCH   8   9
HETATM    9  C   UNL     1      -9.858  10.732  65.706  1.00  0.00    -0.292 A  
HETATM   10  C   UNL     1     -10.228   9.397  65.875  1.00  0.00    -0.123 A  
HETATM   11  C   UNL     1      -9.680   8.639  66.919  1.00  0.00    -0.214 A  
HETATM   12  I   UNL     1     -10.359   6.646  67.105  1.00  0.00    -0.403 I  
HETATM   13  C   UNL     1      -8.747   9.183  67.831  1.00  0.00    -0.128 A  
HETATM   14  C   UNL     1      -8.360  10.517  67.644  1.00  0.00    -0.114 A  
HETATM   15  C   UNL     1      -8.896  11.266  66.577  1.00  0.00    -0.180 A  
HETATM   16  I   UNL     1      -7.092  11.603  68.926  1.00  0.00    -0.049 I  
BRANCH  13  17
HETATM   17  O   UNL     1      -8.530   8.454  68.977  1.00  0.00    -0.121 OA 
BRANCH  17  18
HETATM   18  C   UNL     1      -9.449   8.275  69.981  1.00  0.00    -0.167 A  
HETATM   19  C   UNL     1     -10.330   9.360  70.114  1.00  0.00    -0.273 A  
HETATM   20  C   UNL     1     -11.324   9.363  71.094  1.00  0.00    -0.351 A  
HETATM   21  I   UNL     1     -12.585  11.022  71.217  1.00  0.00    -0.357 I  
HETATM   22  C   UNL     1     -11.438   8.280  71.967  1.00  0.00    -0.334 A  
HETATM   23  C   UNL     1     -10.562   7.194  71.834  1.00  0.00    -0.213 A  
HETATM   24  O   UNL     1     -12.403   8.271  72.944  1.00  0.00    -0.607 OA 
HETATM   25  H   UNL     1     -12.480   7.534  73.539  1.00  0.00     0.000 HD 
HETATM   26  I   UNL     1     -10.625   5.582  73.174  1.00  0.00    -0.363 I  
HETATM   27  C   UNL     1      -9.590   7.172  70.818  1.00  0.00    -0.168 A  
ENDBRANCH  17  18
ENDBRANCH  13  17
ENDBRANCH   8   9
ENDBRANCH   4   8
TORSDOF 4
ENDMDL
MODEL       32
REMARK 921   NORMALIZED FREE ENERGY PREDICTED BY IDOCK:   -5.82 KCAL/MOL
REMARK 922        TOTAL FREE ENERGY PREDICTED BY IDOCK:   -7.94 KCAL/MOL
REMARK 923 INTER-LIGAND FREE ENERGY PREDICTED BY IDOCK:   -7.69 KCAL/MOL
REMARK 924 INTRA-LIGAND FREE ENERGY PREDICTED BY IDOCK:   -0.25 KCAL/MOL
REMARK 927      BINDING AFFINITY PREDICTED BY RF-SCORE:    0.00 PKD
ROOT
HETATM    1  N   UNL     1     -10.945   5.189  74.159  1.00  0.00    -0.419 NA 
HETATM    2  H1  UNL     1     -11.242   4.214  74.203  1.00  0.00     0.000 HD 
HETATM    3  H2  UNL     1     -11.547   5.717  73.527  1.00  0.00     0.000 HD 
HETATM    4  CA  UNL     1      -9.508   5.376  73.793  1.00  0.00    -0.138 C  
HETATM    5  C   UNL     1      -9.286   4.719  72.416  1.00  0.00    -0.130 C  
HETATM    6  OXT UNL     1      -8.367   4.964  71.652  1.00  0.00    -0.110 OA 
HETATM    7  O   UNL     1     -10.252   3.800  72.148  1.00  0.00    -0.169 OA 
ENDROOT
BRANCH   4   8
HETATM    8  C   UNL     1      -9.060   6.850  73.728  1.00  0.00    -0.196 C  
BRANCH   8   9
HETATM    9  C   UNL     1      -9.789   7.747  72.746  1.00  0.00    -0.307 A  
HETATM   10  C   UNL     1     -11.168   7.957  72.810  1.00  0.00    -0.466 A  
HETATM   11  C   UNL     1     -11.797   8.800  71.884  1.00  0.00    -0.367 A  
HETATM   12  I   UNL     1     -13.895   8.995  72.048  1.00  0.00    -0.441 I  
HETATM   13  C   UNL     1     -11.078   9.462  70.862  1.00  0.00    -0.319 A  
HETATM   14  C   UNL     1      -9.690   9.268  70.817  1.00  0.00    -0.282 A  
HETATM   15  C   UNL     1      -9.061   8.438  71.767  1.00  0.00    -0.283 A  
HETATM   16  I   UNL     1      -8.408  10.028  69.331  1.00  0.00    -0.162 I  
BRANCH  13  17
HETATM   17  O   UNL     1     -11.832   9.994  69.843  1.00  0.00    -0.185 OA 
BRANCH  17  18
HETATM   18  C   UNL     1     -11.888  11.327  69.520  1.00  0.00    -0.357 A  
HETATM   19  C   UNL     1     -12.261  12.137  70.604  1.00  0.00    -0.392 A  
HETATM   20  C   UNL     1     -12.385  13.520  70.459  1.00  0.00    -0.342 A  
HETATM   21  I   UNL     1     -12.949  14.641  72.128  1.00  0.00    -0.560 I  
HETATM   22  C   UNL     1     -12.151  14.109  69.217  1.00  0.00    -0.324 A  
HETATM   23  C   UNL     1     -11.774  13.304  68.133  1.00  0.00    -0.362 A  
HETATM   24  O   UNL     1     -12.279  15.467  69.054  1.00  0.00    -0.579 OA 
HETATM   25  H   UNL     1     -12.119  15.868  68.207  1.00  0.00     0.000 HD 
HETATM   26  I   UNL     1     -11.498  14.120  66.221  1.00  0.00    -0.407 I  
HETATM   27  C   UNL     1     -11.606  11.917  68.290  1.00  0.00    -0.390 A  
ENDBRANCH  17  18
ENDBRANCH  13  17
ENDBRANCH   8   9
ENDBRANCH   4   8
TORSDOF 4
ENDMDL
MODEL       33
REMARK 921   NORMALIZED FREE ENERGY PREDICTED BY IDOCK:   -5.78 KCAL/MOL
REMARK 922        TOTAL FREE ENERGY PREDICTED BY IDOCK:   -7.89 KCAL/MOL
REMARK 923 INTER-LIGAND FREE ENERGY PREDICTED BY IDOCK:   -7.78 KCAL/MOL
REMARK 924 INTRA-LIGAND FREE ENERGY PREDICTED BY IDOCK:   -0.11 KCAL/MOL
REMARK 927      BINDING AFFINITY PREDICTED BY RF-SCORE:    0.00 PKD
ROOT
HETATM    1  N   UNL     1      -8.518  18.694  68.190  1.00  0.00    -0.302 NA 
HETATM    2  H1  UNL     1      -8.582  19.449  68.874  1.00  0.00     0.000 HD 
HETATM    3  H2  UNL     1      -7.704  18.825  67.590  1.00  0.00     0.000 HD 
HETATM    4  CA  UNL     1      -9.751  18.509  67.367  1.00  0.00    -0.303 C  
HETATM    5  C   UNL     1     -10.027  19.835  66.630  1.00  0.00    -0.441 C  
HETATM    6  OXT UNL     1     -10.713  19.963  65.630  1.00  0.00    -0.478 OA 
HETATM    7  O   UNL     1      -9.413  20.878  67.250  1.00  0.00    -0.405 OA 
ENDROOT
BRANCH   4   8
HETATM    8  C   UNL     1      -9.655  17.369  66.334  1.00  0.00    -0.291 C  
BRANCH   8   9
HETATM    9  C   UNL     1     -10.405  16.089  66.649  1.00  0.00    -0.299 A  
HETATM   10  C   UNL     1     -10.906  15.813  67.922  1.00  0.00    -0.314 A  
HETATM   11  C   UNL     1     -11.598  14.618  68.166  1.00  0.00    -0.335 A  
HETATM   12  I   UNL     1     -12.261  14.289  70.145  1.00  0.00    -0.366 I  
HETATM   13  C   UNL     1     -11.814  13.657  67.151  1.00  0.00    -0.396 A  
HETATM   14  C   UNL     1     -11.331  13.949  65.869  1.00  0.00    -0.313 A  
HETATM   15  C   UNL     1     -10.657  15.163  65.626  1.00  0.00    -0.370 A  
HETATM   16  I   UNL     1     -11.405  12.644  64.219  1.00  0.00    -0.550 I  
BRANCH  13  17
HETATM   17  O   UNL     1     -12.216  12.413  67.577  1.00  0.00    -0.442 OA 
BRANCH  17  18
HETATM   18  C   UNL     1     -11.427  11.525  68.265  1.00  0.00    -0.299 A  
HETATM   19  C   UNL     1     -10.137  11.407  67.723  1.00  0.00    -0.198 A  
HETATM   20  C   UNL     1      -9.199  10.537  68.281  1.00  0.00    -0.152 A  
HETATM   21  I   UNL     1      -7.308  10.426  67.402  1.00  0.00    -0.097 I  
HETATM   22  C   UNL     1      -9.548   9.761  69.387  1.00  0.00    -0.207 A  
HETATM   23  C   UNL     1     -10.833   9.880  69.933  1.00  0.00    -0.278 A  
HETATM   24  O   UNL     1      -8.641   8.892  69.943  1.00  0.00    -0.124 OA 
HETATM   25  H   UNL     1      -8.878   8.364  70.696  1.00  0.00     0.000 HD 
HETATM   26  I   UNL     1     -11.444   8.673  71.536  1.00  0.00    -0.446 I  
HETATM   27  C   UNL     1     -11.763  10.788  69.398  1.00  0.00    -0.378 A  
ENDBRANCH  17  18
ENDBRANCH  13  17
ENDBRANCH   8   9
ENDBRANCH   4   8
TORSDOF 4
ENDMDL
MODEL       34
REMARK 921   NORMALIZED FREE ENERGY PREDICTED BY IDOCK:   -5.76 KCAL/MOL
REMARK 922        TOTAL FREE ENERGY PREDICTED BY IDOCK:   -7.86 KCAL/MOL
REMARK 923 INTER-LIGAND FREE ENERGY PREDICTED BY IDOCK:   -7.98 KCAL/MOL
REMARK 924 INTRA-LIGAND FREE ENERGY PREDICTED BY IDOCK:    0.12 KCAL/MOL
REMARK 927      BINDING AFFINITY PREDICTED BY RF-SCORE:    0.00 PKD
ROOT
HETATM    1  N   UNL     1     -11.119   5.773  66.161  1.00  0.00    -0.710 NA 
HETATM    2  H1  UNL     1     -11.622   4.935  66.454  1.00  0.00     0.000 HD 
HETATM    3  H2  UNL     1     -10.615   5.600  65.292  1.00  0.00     0.000 HD 
HETATM    4  CA  UNL     1     -10.198   6.328  67.200  1.00  0.00    -0.196 C  
HETATM    5  C   UNL     1      -9.179   5.228  67.559  1.00  0.00    -0.114 C  
HETATM    6  OXT UNL     1      -8.094   5.410  68.085  1.00  0.00    -0.095 OA 
HETATM    7  O   UNL     1      -9.649   3.995  67.227  1.00  0.00    -0.188 OA 
ENDROOT
BRANCH   4   8
HETATM    8  C   UNL     1      -9.438   7.594  66.757  1.00  0.00    -0.244 C  
BRANCH   8   9
HETATM    9  C   UNL     1     -10.104   8.929  67.035  1.00  0.00    -0.331 A  
HETATM   10  C   UNL     1     -10.665   9.237  68.276  1.00  0.00    -0.195 A  
HETATM   11  C   UNL     1     -11.265  10.486  68.488  1.00  0.00    -0.274 A  
HETATM   12  I   UNL     1     -12.127  10.816  70.389  1.00  0.00    -0.483 I  
HETATM   13  C   UNL     1     -11.329  11.470  67.474  1.00  0.00    -0.299 A  
HETATM   14  C   UNL     1     -10.743  11.165  66.238  1.00  0.00    -0.240 A  
HETATM   15  C   UNL     1     -10.120   9.916  66.040  1.00  0.00    -0.314 A  
HETATM   16  I   UNL     1     -10.809  12.392  64.530  1.00  0.00    -0.467 I  
BRANCH  13  17
HETATM   17  O   UNL     1     -12.204  12.507  67.696  1.00  0.00    -0.401 OA 
BRANCH  17  18
HETATM   18  C   UNL     1     -11.877  13.698  68.295  1.00  0.00    -0.369 A  
HETATM   19  C   UNL     1     -11.231  14.588  67.422  1.00  0.00    -0.337 A  
HETATM   20  C   UNL     1     -10.809  15.845  67.860  1.00  0.00    -0.327 A  
HETATM   21  I   UNL     1      -9.853  17.098  66.490  1.00  0.00    -0.318 I  
HETATM   22  C   UNL     1     -11.017  16.220  69.187  1.00  0.00    -0.324 A  
HETATM   23  C   UNL     1     -11.665  15.336  70.060  1.00  0.00    -0.315 A  
HETATM   24  O   UNL     1     -10.598  17.449  69.637  1.00  0.00    -0.347 OA 
HETATM   25  H   UNL     1     -10.739  17.705  70.542  1.00  0.00     0.000 HD 
HETATM   26  I   UNL     1     -11.922  15.808  72.087  1.00  0.00    -0.682 I  
HETATM   27  C   UNL     1     -12.129  14.088  69.607  1.00  0.00    -0.408 A  
ENDBRANCH  17  18
ENDBRANCH  13  17
ENDBRANCH   8   9
ENDBRANCH   4   8
TORSDOF 4
ENDMDL
MODEL       35
REMARK 921   NORMALIZED FREE ENERGY PREDICTED BY IDOCK:   -5.74 KCAL/MOL
REMARK 922        TOTAL FREE ENERGY PREDICTED BY IDOCK:   -7.84 KCAL/MOL
REMARK 923 INTER-LIGAND FREE ENERGY PREDICTED BY IDOCK:   -7.64 KCAL/MOL
REMARK 924 INTRA-LIGAND FREE ENERGY PREDICTED BY IDOCK:   -0.19 KCAL/MOL
REMARK 927      BINDING AFFINITY PREDICTED BY RF-SCORE:    0.00 PKD
ROOT
HETATM    1  N   UNL     1     -12.513  14.097  63.312  1.00  0.00    -1.098 NA 
HETATM    2  H1  UNL     1     -12.038  14.510  62.509  1.00  0.00     0.000 HD 
HETATM    3  H2  UNL     1     -13.414  14.550  63.464  1.00  0.00     0.000 HD 
HETATM    4  CA  UNL     1     -11.706  14.100  64.570  1.00  0.00    -0.413 C  
HETATM    5  C   UNL     1     -11.349  15.565  64.894  1.00  0.00    -0.335 C  
HETATM    6  OXT UNL     1     -11.016  15.990  65.988  1.00  0.00    -0.233 OA 
HETATM    7  O   UNL     1     -11.436  16.349  63.786  1.00  0.00    -1.002 OA 
ENDROOT
BRANCH   4   8
HETATM    8  C   UNL     1     -12.424  13.476  65.782  1.00  0.00    -0.514 C  
BRANCH   8   9
HETATM    9  C   UNL     1     -11.670  12.412  66.557  1.00  0.00    -0.443 A  
HETATM   10  C   UNL     1     -12.022  12.047  67.857  1.00  0.00    -0.204 A  
HETATM   11  C   UNL     1     -11.298  11.053  68.532  1.00  0.00    -0.287 A  
HETATM   12  I   UNL     1     -11.892  10.625  70.514  1.00  0.00    -0.447 I  
HETATM   13  C   UNL     1     -10.200  10.392  67.937  1.00  0.00    -0.179 A  
HETATM   14  C   UNL     1      -9.865  10.745  66.622  1.00  0.00    -0.200 A  
HETATM   15  C   UNL     1     -10.612  11.727  65.941  1.00  0.00    -0.314 A  
HETATM   16  I   UNL     1      -8.206  10.010  65.555  1.00  0.00    -0.174 I  
BRANCH  13  17
HETATM   17  O   UNL     1      -9.389   9.682  68.792  1.00  0.00    -0.143 OA 
BRANCH  17  18
HETATM   18  C   UNL     1      -9.537   8.351  69.093  1.00  0.00    -0.164 A  
HETATM   19  C   UNL     1      -9.549   7.532  67.953  1.00  0.00    -0.161 A  
HETATM   20  C   UNL     1      -9.706   6.149  68.062  1.00  0.00    -0.120 A  
HETATM   21  I   UNL     1      -9.715   5.014  66.310  1.00  0.00    -0.254 I  
HETATM   22  C   UNL     1      -9.869   5.570  69.321  1.00  0.00    -0.172 A  
HETATM   23  C   UNL     1      -9.854   6.384  70.461  1.00  0.00    -0.183 A  
HETATM   24  O   UNL     1     -10.036   4.212  69.446  1.00  0.00    -0.158 OA 
HETATM   25  H   UNL     1     -10.147   3.817  70.303  1.00  0.00     0.000 HD 
HETATM   26  I   UNL     1     -10.186   5.581  72.370  1.00  0.00    -0.272 I  
HETATM   27  C   UNL     1      -9.651   7.771  70.353  1.00  0.00    -0.175 A  
ENDBRANCH  17  18
ENDBRANCH  13  17
ENDBRANCH   8   9
ENDBRANCH   4   8
TORSDOF 4
ENDMDL
MODEL       36
REMARK 921   NORMALIZED FREE ENERGY PREDICTED BY IDOCK:   -5.69 KCAL/MOL
REMARK 922        TOTAL FREE ENERGY PREDICTED BY IDOCK:   -7.77 KCAL/MOL
REMARK 923 INTER-LIGAND FREE ENERGY PREDICTED BY IDOCK:   -7.15 KCAL/MOL
REMARK 924 INTRA-LIGAND FREE ENERGY PREDICTED BY IDOCK:   -0.63 KCAL/MOL
REMARK 927      BINDING AFFINITY PREDICTED BY RF-SCORE:    0.00 PKD
ROOT
HETATM    1  N   UNL     1     -10.186  13.987  64.322  1.00  0.00    -0.657 NA 
HETATM    2  H1  UNL     1     -10.621  14.905  64.418  1.00  0.00     0.000 HD 
HETATM    3  H2  UNL     1      -9.828  13.860  63.375  1.00  0.00     0.000 HD 
HETATM    4  CA  UNL     1     -11.071  12.846  64.705  1.00  0.00    -0.309 C  
HETATM    5  C   UNL     1     -12.326  12.906  63.810  1.00  0.00    -0.417 C  
HETATM    6  OXT UNL     1     -13.084  11.976  63.588  1.00  0.00    -0.756 OA 
HETATM    7  O   UNL     1     -12.505  14.152  63.296  1.00  0.00    -0.758 OA 
ENDROOT
BRANCH   4   8
HETATM    8  C   UNL     1     -10.413  11.460  64.559  1.00  0.00    -0.381 C  
BRANCH   8   9
HETATM    9  C   UNL     1     -10.408  10.568  65.786  1.00  0.00    -0.270 A  
HETATM   10  C   UNL     1      -9.896   9.269  65.762  1.00  0.00    -0.302 A  
HETATM   11  C   UNL     1      -9.907   8.484  66.922  1.00  0.00    -0.242 A  
HETATM   12  I   UNL     1      -9.155   6.517  66.747  1.00  0.00    -0.184 I  
HETATM   13  C   UNL     1     -10.428   8.962  68.146  1.00  0.00    -0.202 A  
HETATM   14  C   UNL     1     -10.919  10.275  68.173  1.00  0.00    -0.274 A  
HETATM   15  C   UNL     1     -10.882  11.067  67.008  1.00  0.00    -0.334 A  
HETATM   16  I   UNL     1     -11.861  11.184  69.821  1.00  0.00    -0.468 I  
BRANCH  13  17
HETATM   17  O   UNL     1     -10.672   8.011  69.110  1.00  0.00    -0.199 OA 
BRANCH  17  18
HETATM   18  C   UNL     1      -9.950   7.861  70.267  1.00  0.00    -0.189 A  
HETATM   19  C   UNL     1      -8.682   8.461  70.201  1.00  0.00    -0.136 A  
HETATM   20  C   UNL     1      -7.799   8.397  71.280  1.00  0.00    -0.111 A  
HETATM   21  I   UNL     1      -5.934   9.317  71.087  1.00  0.00    -0.052 I  
HETATM   22  C   UNL     1      -8.172   7.715  72.439  1.00  0.00    -0.112 A  
HETATM   23  C   UNL     1      -9.438   7.119  72.509  1.00  0.00    -0.142 A  
HETATM   24  O   UNL     1      -7.311   7.633  73.506  1.00  0.00    -0.097 OA 
HETATM   25  H   UNL     1      -7.565   7.168  74.295  1.00  0.00     0.000 HD 
HETATM   26  I   UNL     1     -10.017   6.002  74.188  1.00  0.00    -0.342 I  
HETATM   27  C   UNL     1     -10.343   7.221  71.439  1.00  0.00    -0.212 A  
ENDBRANCH  17  18
ENDBRANCH  13  17
ENDBRANCH   8   9
ENDBRANCH   4   8
TORSDOF 4
ENDMDL
MODEL       37
REMARK 921   NORMALIZED FREE ENERGY PREDICTED BY IDOCK:   -5.65 KCAL/MOL
REMARK 922        TOTAL FREE ENERGY PREDICTED BY IDOCK:   -7.73 KCAL/MOL
REMARK 923 INTER-LIGAND FREE ENERGY PREDICTED BY IDOCK:   -7.71 KCAL/MOL
REMARK 924 INTRA-LIGAND FREE ENERGY PREDICTED BY IDOCK:   -0.02 KCAL/MOL
REMARK 927      BINDING AFFINITY PREDICTED BY RF-SCORE:    0.00 PKD
ROOT
HETATM    1  N   UNL     1      -9.506  20.140  65.857  1.00  0.00    -0.562 NA 
HETATM    2  H1  UNL     1      -8.701  20.411  65.293  1.00  0.00     0.000 HD 
HETATM    3  H2  UNL     1      -9.938  20.961  66.281  1.00  0.00     0.000 HD 
HETATM    4  CA  UNL     1      -9.207  19.110  66.898  1.00  0.00    -0.310 C  
HETATM    5  C   UNL     1      -8.114  19.682  67.823  1.00  0.00    -0.301 C  
HETATM    6  OXT UNL     1      -7.868  19.299  68.954  1.00  0.00    -0.351 OA 
HETATM    7  O   UNL     1      -7.425  20.682  67.210  1.00  0.00    -0.325 OA 
ENDROOT
BRANCH   4   8
HETATM    8  C   UNL     1     -10.425  18.701  67.750  1.00  0.00    -0.457 C  
BRANCH   8   9
HETATM    9  C   UNL     1     -10.814  17.235  67.734  1.00  0.00    -0.261 A  
HETATM   10  C   UNL     1     -10.705  16.447  66.587  1.00  0.00    -0.173 A  
HETATM   11  C   UNL     1     -11.072  15.095  66.621  1.00  0.00    -0.308 A  
HETATM   12  I   UNL     1     -10.913  14.019  64.809  1.00  0.00    -0.349 I  
HETATM   13  C   UNL     1     -11.563  14.481  67.797  1.00  0.00    -0.365 A  
HETATM   14  C   UNL     1     -11.648  15.269  68.952  1.00  0.00    -0.347 A  
HETATM   15  C   UNL     1     -11.254  16.622  68.916  1.00  0.00    -0.200 A  
HETATM   16  I   UNL     1     -12.459  14.642  70.791  1.00  0.00    -0.478 I  
BRANCH  13  17
HETATM   17  O   UNL     1     -12.178  13.262  67.628  1.00  0.00    -0.292 OA 
BRANCH  17  18
HETATM   18  C   UNL     1     -11.637  12.052  67.986  1.00  0.00    -0.342 A  
HETATM   19  C   UNL     1     -10.885  11.465  66.956  1.00  0.00    -0.331 A  
HETATM   20  C   UNL     1     -10.271  10.224  67.132  1.00  0.00    -0.225 A  
HETATM   21  I   UNL     1      -9.176   9.428  65.542  1.00  0.00    -0.255 I  
HETATM   22  C   UNL     1     -10.418   9.545  68.342  1.00  0.00    -0.224 A  
HETATM   23  C   UNL     1     -11.165  10.131  69.373  1.00  0.00    -0.215 A  
HETATM   24  O   UNL     1      -9.830   8.318  68.529  1.00  0.00    -0.166 OA 
HETATM   25  H   UNL     1      -9.930   7.856  69.353  1.00  0.00     0.000 HD 
HETATM   26  I   UNL     1     -11.497   9.118  71.180  1.00  0.00    -0.467 I  
HETATM   27  C   UNL     1     -11.745  11.401  69.211  1.00  0.00    -0.404 A  
ENDBRANCH  17  18
ENDBRANCH  13  17
ENDBRANCH   8   9
ENDBRANCH   4   8
TORSDOF 4
ENDMDL
MODEL       38
REMARK 921   NORMALIZED FREE ENERGY PREDICTED BY IDOCK:   -5.63 KCAL/MOL
REMARK 922        TOTAL FREE ENERGY PREDICTED BY IDOCK:   -7.71 KCAL/MOL
REMARK 923 INTER-LIGAND FREE ENERGY PREDICTED BY IDOCK:   -7.09 KCAL/MOL
REMARK 924 INTRA-LIGAND FREE ENERGY PREDICTED BY IDOCK:   -0.61 KCAL/MOL
REMARK 927      BINDING AFFINITY PREDICTED BY RF-SCORE:    0.00 PKD
ROOT
HETATM    1  N   UNL     1     -10.984  14.803  66.663  1.00  0.00    -0.321 NA 
HETATM    2  H1  UNL     1     -11.117  15.814  66.698  1.00  0.00     0.000 HD 
HETATM    3  H2  UNL     1     -10.070  14.576  66.271  1.00  0.00     0.000 HD 
HETATM    4  CA  UNL     1     -12.063  14.068  65.935  1.00  0.00    -0.428 C  
HETATM    5  C   UNL     1     -12.117  14.620  64.496  1.00  0.00    -0.475 C  
HETATM    6  OXT UNL     1     -12.607  14.050  63.535  1.00  0.00    -0.842 OA 
HETATM    7  O   UNL     1     -11.553  15.855  64.421  1.00  0.00    -0.409 OA 
ENDROOT
BRANCH   4   8
HETATM    8  C   UNL     1     -11.863  12.541  65.883  1.00  0.00    -0.489 C  
BRANCH   8   9
HETATM    9  C   UNL     1     -11.168  11.897  67.068  1.00  0.00    -0.379 A  
HETATM   10  C   UNL     1      -9.814  11.555  67.042  1.00  0.00    -0.212 A  
HETATM   11  C   UNL     1      -9.213  10.967  68.164  1.00  0.00    -0.165 A  
HETATM   12  I   UNL     1      -7.173  10.446  67.985  1.00  0.00    -0.087 I  
HETATM   13  C   UNL     1      -9.938  10.697  69.347  1.00  0.00    -0.158 A  
HETATM   14  C   UNL     1     -11.290  11.063  69.377  1.00  0.00    -0.284 A  
HETATM   15  C   UNL     1     -11.882  11.677  68.255  1.00  0.00    -0.335 A  
HETATM   16  I   UNL     1     -12.620  10.661  70.958  1.00  0.00    -0.531 I  
BRANCH  13  17
HETATM   17  O   UNL     1      -9.333   9.845  70.242  1.00  0.00    -0.225 OA 
BRANCH  17  18
HETATM   18  C   UNL     1      -9.530   8.488  70.292  1.00  0.00    -0.166 A  
HETATM   19  C   UNL     1      -9.718   8.012  71.599  1.00  0.00    -0.222 A  
HETATM   20  C   UNL     1      -9.917   6.653  71.848  1.00  0.00    -0.177 A  
HETATM   21  I   UNL     1     -10.183   6.038  73.826  1.00  0.00    -0.318 I  
HETATM   22  C   UNL     1      -9.917   5.748  70.785  1.00  0.00    -0.193 A  
HETATM   23  C   UNL     1      -9.734   6.221  69.479  1.00  0.00    -0.146 A  
HETATM   24  O   UNL     1     -10.101   4.406  71.013  1.00  0.00    -0.189 OA 
HETATM   25  H   UNL     1     -10.100   3.790  70.289  1.00  0.00     0.000 HD 
HETATM   26  I   UNL     1      -9.631   4.900  67.853  1.00  0.00    -0.181 I  
HETATM   27  C   UNL     1      -9.577   7.595  69.225  1.00  0.00    -0.159 A  
ENDBRANCH  17  18
ENDBRANCH  13  17
ENDBRANCH   8   9
ENDBRANCH   4   8
TORSDOF 4
ENDMDL
MODEL       39
REMARK 921   NORMALIZED FREE ENERGY PREDICTED BY IDOCK:   -5.57 KCAL/MOL
REMARK 922        TOTAL FREE ENERGY PREDICTED BY IDOCK:   -7.62 KCAL/MOL
REMARK 923 INTER-LIGAND FREE ENERGY PREDICTED BY IDOCK:   -7.33 KCAL/MOL
REMARK 924 INTRA-LIGAND FREE ENERGY PREDICTED BY IDOCK:   -0.29 KCAL/MOL
REMARK 927      BINDING AFFINITY PREDICTED BY RF-SCORE:    0.00 PKD
ROOT
HETATM    1  N   UNL     1     -10.101  12.462  63.028  1.00  0.00    -0.481 NA 
HETATM    2  H1  UNL     1     -10.060  13.422  62.684  1.00  0.00     0.000 HD 
HETATM    3  H2  UNL     1     -10.489  11.844  62.316  1.00  0.00     0.000 HD 
HETATM    4  CA  UNL     1     -10.841  12.306  64.318  1.00  0.00    -0.348 C  
HETATM    5  C   UNL     1     -12.277  12.825  64.100  1.00  0.00    -0.429 C  
HETATM    6  OXT UNL     1     -13.245  12.546  64.787  1.00  0.00    -0.839 OA 
HETATM    7  O   UNL     1     -12.339  13.666  63.032  1.00  0.00    -0.672 OA 
ENDROOT
BRANCH   4   8
HETATM    8  C   UNL     1     -10.903  10.856  64.838  1.00  0.00    -0.150 C  
BRANCH   8   9
HETATM    9  C   UNL     1     -10.461  10.619  66.269  1.00  0.00    -0.268 A  
HETATM   10  C   UNL     1      -9.449   9.715  66.597  1.00  0.00    -0.221 A  
HETATM   11  C   UNL     1      -9.070   9.533  67.935  1.00  0.00    -0.125 A  
HETATM   12  I   UNL     1      -7.564   8.099  68.310  1.00  0.00    -0.105 I  
HETATM   13  C   UNL     1      -9.687  10.242  68.991  1.00  0.00    -0.205 A  
HETATM   14  C   UNL     1     -10.686  11.166  68.655  1.00  0.00    -0.198 A  
HETATM   15  C   UNL     1     -11.044  11.362  67.306  1.00  0.00    -0.363 A  
HETATM   16  I   UNL     1     -11.845  12.254  70.036  1.00  0.00    -0.049 I  
BRANCH  13  17
HETATM   17  O   UNL     1      -9.458   9.755  70.257  1.00  0.00    -0.249 OA 
BRANCH  17  18
HETATM   18  C   UNL     1     -10.221   8.801  70.882  1.00  0.00    -0.226 A  
HETATM   19  C   UNL     1      -9.453   7.757  71.423  1.00  0.00    -0.173 A  
HETATM   20  C   UNL     1     -10.058   6.687  72.084  1.00  0.00    -0.178 A  
HETATM   21  I   UNL     1      -8.834   5.180  72.852  1.00  0.00    -0.121 I  
HETATM   22  C   UNL     1     -11.448   6.641  72.197  1.00  0.00    -0.287 A  
HETATM   23  C   UNL     1     -12.217   7.683  71.661  1.00  0.00    -0.317 A  
HETATM   24  O   UNL     1     -12.061   5.590  72.834  1.00  0.00    -0.542 OA 
HETATM   25  H   UNL     1     -13.008   5.559  72.911  1.00  0.00     0.000 HD 
HETATM   26  I   UNL     1     -14.313   7.623  71.720  1.00  0.00    -0.451 I  
HETATM   27  C   UNL     1     -11.604   8.783  71.035  1.00  0.00    -0.337 A  
ENDBRANCH  17  18
ENDBRANCH  13  17
ENDBRANCH   8   9
ENDBRANCH   4   8
TORSDOF 4
ENDMDL
MODEL       40
REMARK 921   NORMALIZED FREE ENERGY PREDICTED BY IDOCK:   -5.56 KCAL/MOL
REMARK 922        TOTAL FREE ENERGY PREDICTED BY IDOCK:   -7.62 KCAL/MOL
REMARK 923 INTER-LIGAND FREE ENERGY PREDICTED BY IDOCK:   -6.93 KCAL/MOL
REMARK 924 INTRA-LIGAND FREE ENERGY PREDICTED BY IDOCK:   -0.68 KCAL/MOL
REMARK 927      BINDING AFFINITY PREDICTED BY RF-SCORE:    0.00 PKD
ROOT
HETATM    1  N   UNL     1     -11.258   6.454  66.777  1.00  0.00    -0.742 NA 
HETATM    2  H1  UNL     1     -12.095   6.067  67.213  1.00  0.00     0.000 HD 
HETATM    3  H2  UNL     1     -10.509   5.762  66.768  1.00  0.00     0.000 HD 
HETATM    4  CA  UNL     1     -10.784   7.733  67.387  1.00  0.00    -0.230 C  
HETATM    5  C   UNL     1     -10.496   7.462  68.878  1.00  0.00    -0.203 C  
HETATM    6  OXT UNL     1      -9.783   8.141  69.598  1.00  0.00    -0.168 OA 
HETATM    7  O   UNL     1     -11.157   6.357  69.314  1.00  0.00    -0.320 OA 
ENDROOT
BRANCH   4   8
HETATM    8  C   UNL     1      -9.519   8.317  66.727  1.00  0.00    -0.256 C  
BRANCH   8   9
HETATM    9  C   UNL     1      -9.461   9.824  66.565  1.00  0.00    -0.228 A  
HETATM   10  C   UNL     1      -8.459  10.598  67.152  1.00  0.00    -0.128 A  
HETATM   11  C   UNL     1      -8.443  11.988  66.970  1.00  0.00    -0.183 A  
HETATM   12  I   UNL     1      -6.909  13.059  67.953  1.00  0.00    -0.180 I  
HETATM   13  C   UNL     1      -9.422  12.654  66.198  1.00  0.00    -0.175 A  
HETATM   14  C   UNL     1     -10.412  11.870  65.591  1.00  0.00    -0.262 A  
HETATM   15  C   UNL     1     -10.408  10.471  65.758  1.00  0.00    -0.270 A  
HETATM   16  I   UNL     1     -12.052  12.617  64.502  1.00  0.00    -0.522 I  
BRANCH  13  17
HETATM   17  O   UNL     1      -9.484  14.020  66.353  1.00  0.00    -0.282 OA 
BRANCH  17  18
HETATM   18  C   UNL     1     -10.061  14.664  67.419  1.00  0.00    -0.232 A  
HETATM   19  C   UNL     1      -9.762  16.036  67.454  1.00  0.00    -0.232 A  
HETATM   20  C   UNL     1     -10.250  16.852  68.476  1.00  0.00    -0.310 A  
HETATM   21  I   UNL     1      -9.747  18.879  68.445  1.00  0.00    -0.501 I  
HETATM   22  C   UNL     1     -11.035  16.299  69.487  1.00  0.00    -0.339 A  
HETATM   23  C   UNL     1     -11.339  14.932  69.453  1.00  0.00    -0.290 A  
HETATM   24  O   UNL     1     -11.514  17.086  70.506  1.00  0.00    -0.218 OA 
HETATM   25  H   UNL     1     -12.048  16.710  71.196  1.00  0.00     0.000 HD 
HETATM   26  I   UNL     1     -12.436  14.027  70.995  1.00  0.00    -0.398 I  
HETATM   27  C   UNL     1     -10.884  14.119  68.400  1.00  0.00    -0.266 A  
ENDBRANCH  17  18
ENDBRANCH  13  17
ENDBRANCH   8   9
ENDBRANCH   4   8
TORSDOF 4
ENDMDL
MODEL       41
REMARK 921   NORMALIZED FREE ENERGY PREDICTED BY IDOCK:   -5.56 KCAL/MOL
REMARK 922        TOTAL FREE ENERGY PREDICTED BY IDOCK:   -7.61 KCAL/MOL
REMARK 923 INTER-LIGAND FREE ENERGY PREDICTED BY IDOCK:   -7.12 KCAL/MOL
REMARK 924 INTRA-LIGAND FREE ENERGY PREDICTED BY IDOCK:   -0.49 KCAL/MOL
REMARK 927      BINDING AFFINITY PREDICTED BY RF-SCORE:    0.00 PKD
ROOT
HETATM    1  N   UNL     1     -11.281   6.532  66.760  1.00  0.00    -0.759 NA 
HETATM    2  H1  UNL     1     -12.007   6.102  67.334  1.00  0.00     0.000 HD 
HETATM    3  H2  UNL     1     -10.510   5.881  66.614  1.00  0.00     0.000 HD 
HETATM    4  CA  UNL     1     -10.774   7.835  67.289  1.00  0.00    -0.255 C  
HETATM    5  C   UNL     1     -10.214   7.580  68.703  1.00  0.00    -0.197 C  
HETATM    6  OXT UNL     1      -9.423   8.296  69.293  1.00  0.00    -0.154 OA 
HETATM    7  O   UNL     1     -10.731   6.442  69.239  1.00  0.00    -0.231 OA 
ENDROOT
BRANCH   4   8
HETATM    8  C   UNL     1      -9.677   8.484  66.422  1.00  0.00    -0.328 C  
BRANCH   8   9
HETATM    9  C   UNL     1      -9.698   9.996  66.304  1.00  0.00    -0.272 A  
HETATM   10  C   UNL     1     -10.680  10.673  65.578  1.00  0.00    -0.105 A  
HETATM   11  C   UNL     1     -10.662  12.073  65.502  1.00  0.00    -0.276 A  
HETATM   12  I   UNL     1     -12.168  12.981  64.331  1.00  0.00    -0.466 I  
HETATM   13  C   UNL     1      -9.666  12.846  66.143  1.00  0.00    -0.248 A  
HETATM   14  C   UNL     1      -8.696  12.163  66.889  1.00  0.00    -0.194 A  
HETATM   15  C   UNL     1      -8.735  10.757  66.982  1.00  0.00    -0.136 A  
HETATM   16  I   UNL     1      -7.040  13.057  67.831  1.00  0.00    -0.183 I  
BRANCH  13  17
HETATM   17  O   UNL     1      -9.570  14.157  65.739  1.00  0.00    -0.242 OA 
BRANCH  17  18
HETATM   18  C   UNL     1      -9.714  15.246  66.563  1.00  0.00    -0.268 A  
HETATM   19  C   UNL     1     -10.399  14.945  67.751  1.00  0.00    -0.244 A  
HETATM   20  C   UNL     1     -10.652  15.932  68.705  1.00  0.00    -0.250 A  
HETATM   21  I   UNL     1     -11.682  15.390  70.438  1.00  0.00    -0.486 I  
HETATM   22  C   UNL     1     -10.234  17.242  68.471  1.00  0.00    -0.358 A  
HETATM   23  C   UNL     1      -9.546  17.545  67.289  1.00  0.00    -0.273 A  
HETATM   24  O   UNL     1     -10.485  18.228  69.394  1.00  0.00    -0.389 OA 
HETATM   25  H   UNL     1     -10.200  19.121  69.235  1.00  0.00     0.000 HD 
HETATM   26  I   UNL     1      -8.974  19.513  66.842  1.00  0.00    -0.479 I  
HETATM   27  C   UNL     1      -9.252  16.542  66.349  1.00  0.00    -0.327 A  
ENDBRANCH  17  18
ENDBRANCH  13  17
ENDBRANCH   8   9
ENDBRANCH   4   8
TORSDOF 4
ENDMDL
MODEL       42
REMARK 921   NORMALIZED FREE ENERGY PREDICTED BY IDOCK:   -5.55 KCAL/MOL
REMARK 922        TOTAL FREE ENERGY PREDICTED BY IDOCK:   -7.60 KCAL/MOL
REMARK 923 INTER-LIGAND FREE ENERGY PREDICTED BY IDOCK:   -6.90 KCAL/MOL
REMARK 924 INTRA-LIGAND FREE ENERGY PREDICTED BY IDOCK:   -0.69 KCAL/MOL
REMARK 927      BINDING AFFINITY PREDICTED BY RF-SCORE:    0.00 PKD
ROOT
HETATM    1  N   UNL     1     -10.652  18.956  65.630  1.00  0.00    -0.563 NA 
HETATM    2  H1  UNL     1     -10.144  19.711  65.167  1.00  0.00     0.000 HD 
HETATM    3  H2  UNL     1     -11.607  19.246  65.840  1.00  0.00     0.000 HD 
HETATM    4  CA  UNL     1      -9.982  18.429  66.857  1.00  0.00    -0.353 C  
HETATM    5  C   UNL     1      -9.816  19.604  67.842  1.00  0.00    -0.399 C  
HETATM    6  OXT UNL     1      -9.643  19.504  69.045  1.00  0.00    -0.403 OA 
HETATM    7  O   UNL     1      -9.873  20.800  67.196  1.00  0.00    -0.463 OA 
ENDROOT
BRANCH   4   8
HETATM    8  C   UNL     1     -10.749  17.290  67.556  1.00  0.00    -0.278 C  
BRANCH   8   9
HETATM    9  C   UNL     1     -10.354  15.871  67.194  1.00  0.00    -0.300 A  
HETATM   10  C   UNL     1     -11.132  15.070  66.356  1.00  0.00    -0.329 A  
HETATM   11  C   UNL     1     -10.723  13.766  66.046  1.00  0.00    -0.284 A  
HETATM   12  I   UNL     1     -12.011  12.634  64.810  1.00  0.00    -0.514 I  
HETATM   13  C   UNL     1      -9.528  13.213  66.560  1.00  0.00    -0.243 A  
HETATM   14  C   UNL     1      -8.738  14.028  67.382  1.00  0.00    -0.207 A  
HETATM   15  C   UNL     1      -9.143  15.347  67.669  1.00  0.00    -0.183 A  
HETATM   16  I   UNL     1      -6.987  13.413  68.375  1.00  0.00    -0.150 I  
BRANCH  13  17
HETATM   17  O   UNL     1      -9.399  11.848  66.446  1.00  0.00    -0.217 OA 
BRANCH  17  18
HETATM   18  C   UNL     1      -9.759  10.941  67.411  1.00  0.00    -0.168 A  
HETATM   19  C   UNL     1      -9.135   9.694  67.248  1.00  0.00    -0.150 A  
HETATM   20  C   UNL     1      -9.393   8.641  68.127  1.00  0.00    -0.137 A  
HETATM   21  I   UNL     1      -8.421   6.821  67.801  1.00  0.00    -0.120 I  
HETATM   22  C   UNL     1     -10.293   8.821  69.177  1.00  0.00    -0.217 A  
HETATM   23  C   UNL     1     -10.914  10.066  69.346  1.00  0.00    -0.244 A  
HETATM   24  O   UNL     1     -10.566   7.792  70.045  1.00  0.00    -0.230 OA 
HETATM   25  H   UNL     1     -11.180   7.915  70.761  1.00  0.00     0.000 HD 
HETATM   26  I   UNL     1     -12.345  10.368  70.849  1.00  0.00    -0.538 I  
HETATM   27  C   UNL     1     -10.621  11.140  68.486  1.00  0.00    -0.219 A  
ENDBRANCH  17  18
ENDBRANCH  13  17
ENDBRANCH   8   9
ENDBRANCH   4   8
TORSDOF 4
ENDMDL
MODEL       43
REMARK 921   NORMALIZED FREE ENERGY PREDICTED BY IDOCK:   -5.54 KCAL/MOL
REMARK 922        TOTAL FREE ENERGY PREDICTED BY IDOCK:   -7.59 KCAL/MOL
REMARK 923 INTER-LIGAND FREE ENERGY PREDICTED BY IDOCK:   -6.95 KCAL/MOL
REMARK 924 INTRA-LIGAND FREE ENERGY PREDICTED BY IDOCK:   -0.64 KCAL/MOL
REMARK 927      BINDING AFFINITY PREDICTED BY RF-SCORE:    0.00 PKD
ROOT
HETATM    1  N   UNL     1     -11.080   6.152  66.395  1.00  0.00    -0.704 NA 
HETATM    2  H1  UNL     1     -11.773   5.650  66.949  1.00  0.00     0.000 HD 
HETATM    3  H2  UNL     1     -10.277   5.554  66.200  1.00  0.00     0.000 HD 
HETATM    4  CA  UNL     1     -10.635   7.446  66.997  1.00  0.00    -0.344 C  
HETATM    5  C   UNL     1     -10.042   7.137  68.387  1.00  0.00    -0.168 C  
HETATM    6  OXT UNL     1      -9.281   7.857  69.010  1.00  0.00    -0.148 OA 
HETATM    7  O   UNL     1     -10.489   5.941  68.857  1.00  0.00    -0.205 OA 
ENDROOT
BRANCH   4   8
HETATM    8  C   UNL     1      -9.587   8.205  66.159  1.00  0.00    -0.188 C  
BRANCH   8   9
HETATM    9  C   UNL     1      -9.653   9.720  66.184  1.00  0.00    -0.287 A  
HETATM   10  C   UNL     1     -10.622  10.436  65.478  1.00  0.00    -0.088 A  
HETATM   11  C   UNL     1     -10.648  11.836  65.535  1.00  0.00    -0.276 A  
HETATM   12  I   UNL     1     -12.128  12.809  64.383  1.00  0.00    -0.550 I  
HETATM   13  C   UNL     1      -9.709  12.573  66.294  1.00  0.00    -0.254 A  
HETATM   14  C   UNL     1      -8.752  11.849  67.020  1.00  0.00    -0.181 A  
HETATM   15  C   UNL     1      -8.749  10.440  66.977  1.00  0.00    -0.132 A  
HETATM   16  I   UNL     1      -7.171  12.697  68.121  1.00  0.00    -0.156 I  
BRANCH  13  17
HETATM   17  O   UNL     1      -9.638  13.919  66.022  1.00  0.00    -0.264 OA 
BRANCH  17  18
HETATM   18  C   UNL     1      -9.934  14.918  66.914  1.00  0.00    -0.242 A  
HETATM   19  C   UNL     1      -9.467  16.176  66.500  1.00  0.00    -0.289 A  
HETATM   20  C   UNL     1      -9.662  17.311  67.288  1.00  0.00    -0.262 A  
HETATM   21  I   UNL     1      -8.929  19.137  66.590  1.00  0.00    -0.392 I  
HETATM   22  C   UNL     1     -10.318  17.197  68.515  1.00  0.00    -0.364 A  
HETATM   23  C   UNL     1     -10.789  15.944  68.929  1.00  0.00    -0.274 A  
HETATM   24  O   UNL     1     -10.509  18.301  69.308  1.00  0.00    -0.426 OA 
HETATM   25  H   UNL     1     -10.955  18.224  70.144  1.00  0.00     0.000 HD 
HETATM   26  I   UNL     1     -11.698  15.694  70.803  1.00  0.00    -0.514 I  
HETATM   27  C   UNL     1     -10.631  14.809  68.115  1.00  0.00    -0.241 A  
ENDBRANCH  17  18
ENDBRANCH  13  17
ENDBRANCH   8   9
ENDBRANCH   4   8
TORSDOF 4
ENDMDL
MODEL       44
REMARK 921   NORMALIZED FREE ENERGY PREDICTED BY IDOCK:   -5.53 KCAL/MOL
REMARK 922        TOTAL FREE ENERGY PREDICTED BY IDOCK:   -7.58 KCAL/MOL
REMARK 923 INTER-LIGAND FREE ENERGY PREDICTED BY IDOCK:   -6.97 KCAL/MOL
REMARK 924 INTRA-LIGAND FREE ENERGY PREDICTED BY IDOCK:   -0.62 KCAL/MOL
REMARK 927      BINDING AFFINITY PREDICTED BY RF-SCORE:    0.00 PKD
ROOT
HETATM    1  N   UNL     1      -9.187  17.962  68.380  1.00  0.00    -0.281 NA 
HETATM    2  H1  UNL     1      -9.738  18.543  69.012  1.00  0.00     0.000 HD 
HETATM    3  H2  UNL     1      -8.318  18.432  68.129  1.00  0.00     0.000 HD 
HETATM    4  CA  UNL     1      -9.921  17.527  67.153  1.00  0.00    -0.314 C  
HETATM    5  C   UNL     1     -10.375  18.797  66.404  1.00  0.00    -0.439 C  
HETATM    6  OXT UNL     1     -10.681  18.855  65.225  1.00  0.00    -0.517 OA 
HETATM    7  O   UNL     1     -10.412  19.872  67.237  1.00  0.00    -0.432 OA 
ENDROOT
BRANCH   4   8
HETATM    8  C   UNL     1      -9.090  16.649  66.198  1.00  0.00    -0.318 C  
BRANCH   8   9
HETATM    9  C   UNL     1      -9.447  15.176  66.130  1.00  0.00    -0.354 A  
HETATM   10  C   UNL     1     -10.349  14.671  65.192  1.00  0.00    -0.431 A  
HETATM   11  C   UNL     1     -10.645  13.301  65.163  1.00  0.00    -0.330 A  
HETATM   12  I   UNL     1     -12.066  12.664  63.734  1.00  0.00    -0.630 I  
HETATM   13  C   UNL     1     -10.056  12.388  66.068  1.00  0.00    -0.251 A  
HETATM   14  C   UNL     1      -9.133  12.896  66.992  1.00  0.00    -0.228 A  
HETATM   15  C   UNL     1      -8.822  14.271  66.998  1.00  0.00    -0.243 A  
HETATM   16  I   UNL     1      -8.212  11.782  68.523  1.00  0.00     0.018 I  
BRANCH  13  17
HETATM   17  O   UNL     1     -10.653  11.152  66.149  1.00  0.00    -0.257 OA 
BRANCH  17  18
HETATM   18  C   UNL     1     -10.020   9.956  65.919  1.00  0.00    -0.277 A  
HETATM   19  C   UNL     1     -10.382   8.961  66.840  1.00  0.00    -0.332 A  
HETATM   20  C   UNL     1      -9.826   7.682  66.772  1.00  0.00    -0.237 A  
HETATM   21  I   UNL     1     -10.422   6.269  68.190  1.00  0.00    -0.400 I  
HETATM   22  C   UNL     1      -8.887   7.388  65.783  1.00  0.00    -0.075 A  
HETATM   23  C   UNL     1      -8.527   8.378  64.859  1.00  0.00    -0.122 A  
HETATM   24  O   UNL     1      -8.322   6.138  65.708  1.00  0.00    -0.131 OA 
HETATM   25  H   UNL     1      -7.682   5.937  65.035  1.00  0.00     0.000 HD 
HETATM   26  I   UNL     1      -7.053   8.022  63.410  1.00  0.00    -0.101 I  
HETATM   27  C   UNL     1      -9.119   9.652  64.901  1.00  0.00    -0.284 A  
ENDBRANCH  17  18
ENDBRANCH  13  17
ENDBRANCH   8   9
ENDBRANCH   4   8
TORSDOF 4
ENDMDL
MODEL       45
REMARK 921   NORMALIZED FREE ENERGY PREDICTED BY IDOCK:   -5.53 KCAL/MOL
REMARK 922        TOTAL FREE ENERGY PREDICTED BY IDOCK:   -7.58 KCAL/MOL
REMARK 923 INTER-LIGAND FREE ENERGY PREDICTED BY IDOCK:   -6.91 KCAL/MOL
REMARK 924 INTRA-LIGAND FREE ENERGY PREDICTED BY IDOCK:   -0.67 KCAL/MOL
REMARK 927      BINDING AFFINITY PREDICTED BY RF-SCORE:    0.00 PKD
ROOT
HETATM    1  N   UNL     1     -13.276  12.364  64.790  1.00  0.00    -0.655 NA 
HETATM    2  H1  UNL     1     -13.252  12.158  63.791  1.00  0.00     0.000 HD 
HETATM    3  H2  UNL     1     -14.106  12.910  65.022  1.00  0.00     0.000 HD 
HETATM    4  CA  UNL     1     -12.046  13.039  65.305  1.00  0.00    -0.441 C  
HETATM    5  C   UNL     1     -11.871  14.356  64.521  1.00  0.00    -0.449 C  
HETATM    6  OXT UNL     1     -11.210  15.315  64.883  1.00  0.00    -0.398 OA 
HETATM    7  O   UNL     1     -12.544  14.318  63.340  1.00  0.00    -0.777 OA 
ENDROOT
BRANCH   4   8
HETATM    8  C   UNL     1     -12.082  13.352  66.814  1.00  0.00    -0.419 C  
BRANCH   8   9
HETATM    9  C   UNL     1     -11.427  12.345  67.741  1.00  0.00    -0.383 A  
HETATM   10  C   UNL     1     -12.095  11.798  68.838  1.00  0.00    -0.238 A  
HETATM   11  C   UNL     1     -11.451  10.866  69.664  1.00  0.00    -0.305 A  
HETATM   12  I   UNL     1     -12.546  10.149  71.323  1.00  0.00    -0.579 I  
HETATM   13  C   UNL     1     -10.120  10.449  69.428  1.00  0.00    -0.229 A  
HETATM   14  C   UNL     1      -9.462  10.984  68.313  1.00  0.00    -0.172 A  
HETATM   15  C   UNL     1     -10.125  11.901  67.472  1.00  0.00    -0.206 A  
HETATM   16  I   UNL     1      -7.448  10.631  67.810  1.00  0.00    -0.094 I  
BRANCH  13  17
HETATM   17  O   UNL     1      -9.503   9.792  70.467  1.00  0.00    -0.229 OA 
BRANCH  17  18
HETATM   18  C   UNL     1      -9.351   8.431  70.556  1.00  0.00    -0.162 A  
HETATM   19  C   UNL     1      -8.921   8.011  71.825  1.00  0.00    -0.194 A  
HETATM   20  C   UNL     1      -8.697   6.661  72.098  1.00  0.00    -0.130 A  
HETATM   21  I   UNL     1      -8.055   6.135  74.014  1.00  0.00    -0.109 I  
HETATM   22  C   UNL     1      -8.887   5.711  71.094  1.00  0.00    -0.135 A  
HETATM   23  C   UNL     1      -9.320   6.126  69.828  1.00  0.00    -0.151 A  
HETATM   24  O   UNL     1      -8.660   4.380  71.343  1.00  0.00    -0.103 OA 
HETATM   25  H   UNL     1      -8.789   3.733  70.659  1.00  0.00     0.000 HD 
HETATM   26  I   UNL     1      -9.534   4.756  68.254  1.00  0.00    -0.194 I  
HETATM   27  C   UNL     1      -9.588   7.481  69.566  1.00  0.00    -0.156 A  
ENDBRANCH  17  18
ENDBRANCH  13  17
ENDBRANCH   8   9
ENDBRANCH   4   8
TORSDOF 4
ENDMDL
MODEL       46
REMARK 921   NORMALIZED FREE ENERGY PREDICTED BY IDOCK:   -5.53 KCAL/MOL
REMARK 922        TOTAL FREE ENERGY PREDICTED BY IDOCK:   -7.58 KCAL/MOL
REMARK 923 INTER-LIGAND FREE ENERGY PREDICTED BY IDOCK:   -6.92 KCAL/MOL
REMARK 924 INTRA-LIGAND FREE ENERGY PREDICTED BY IDOCK:   -0.66 KCAL/MOL
REMARK 927      BINDING AFFINITY PREDICTED BY RF-SCORE:    0.00 PKD
ROOT
HETATM    1  N   UNL     1      -8.439  18.635  68.095  1.00  0.00    -0.302 NA 
HETATM    2  H1  UNL     1      -8.714  19.226  68.880  1.00  0.00     0.000 HD 
HETATM    3  H2  UNL     1      -7.664  19.058  67.585  1.00  0.00     0.000 HD 
HETATM    4  CA  UNL     1      -9.558  18.298  67.162  1.00  0.00    -0.281 C  
HETATM    5  C   UNL     1     -10.131  19.623  66.620  1.00  0.00    -0.445 C  
HETATM    6  OXT UNL     1     -10.792  19.747  65.602  1.00  0.00    -0.462 OA 
HETATM    7  O   UNL     1      -9.820  20.665  67.437  1.00  0.00    -0.464 OA 
ENDROOT
BRANCH   4   8
HETATM    8  C   UNL     1      -9.143  17.405  65.976  1.00  0.00    -0.086 C  
BRANCH   8   9
HETATM    9  C   UNL     1      -9.277  15.906  66.163  1.00  0.00    -0.384 A  
HETATM   10  C   UNL     1      -8.323  15.152  66.848  1.00  0.00    -0.267 A  
HETATM   11  C   UNL     1      -8.493  13.769  67.000  1.00  0.00    -0.133 A  
HETATM   12  I   UNL     1      -6.955  12.728  68.009  1.00  0.00    -0.167 I  
HETATM   13  C   UNL     1      -9.616  13.089  66.475  1.00  0.00    -0.260 A  
HETATM   14  C   UNL     1     -10.583  13.853  65.809  1.00  0.00    -0.297 A  
HETATM   15  C   UNL     1     -10.418  15.248  65.681  1.00  0.00    -0.377 A  
HETATM   16  I   UNL     1     -12.277  13.078  64.829  1.00  0.00    -0.510 I  
BRANCH  13  17
HETATM   17  O   UNL     1      -9.514  11.719  66.411  1.00  0.00    -0.210 OA 
BRANCH  17  18
HETATM   18  C   UNL     1     -10.045  10.847  67.328  1.00  0.00    -0.191 A  
HETATM   19  C   UNL     1      -9.821   9.502  66.996  1.00  0.00    -0.246 A  
HETATM   20  C   UNL     1     -10.304   8.471  67.805  1.00  0.00    -0.237 A  
HETATM   21  I   UNL     1      -9.925   6.501  67.226  1.00  0.00    -0.278 I  
HETATM   22  C   UNL     1     -11.032   8.778  68.954  1.00  0.00     0.099 A  
HETATM   23  C   UNL     1     -11.253  10.120  69.292  1.00  0.00    -0.196 A  
HETATM   24  O   UNL     1     -11.523   7.776  69.756  1.00  0.00    -0.456 OA 
HETATM   25  H   UNL     1     -12.019   7.985  70.539  1.00  0.00     0.000 HD 
HETATM   26  I   UNL     1     -12.419  10.641  70.956  1.00  0.00    -0.533 I  
HETATM   27  C   UNL     1     -10.730  11.157  68.500  1.00  0.00    -0.235 A  
ENDBRANCH  17  18
ENDBRANCH  13  17
ENDBRANCH   8   9
ENDBRANCH   4   8
TORSDOF 4
ENDMDL
MODEL       47
REMARK 921   NORMALIZED FREE ENERGY PREDICTED BY IDOCK:   -5.47 KCAL/MOL
REMARK 922        TOTAL FREE ENERGY PREDICTED BY IDOCK:   -7.50 KCAL/MOL
REMARK 923 INTER-LIGAND FREE ENERGY PREDICTED BY IDOCK:   -7.18 KCAL/MOL
REMARK 924 INTRA-LIGAND FREE ENERGY PREDICTED BY IDOCK:   -0.32 KCAL/MOL
REMARK 927      BINDING AFFINITY PREDICTED BY RF-SCORE:    0.00 PKD
ROOT
HETATM    1  N   UNL     1      -9.752  17.725  68.640  1.00  0.00    -0.336 NA 
HETATM    2  H1  UNL     1     -10.218  18.160  69.436  1.00  0.00     0.000 HD 
HETATM    3  H2  UNL     1      -8.785  18.045  68.574  1.00  0.00     0.000 HD 
HETATM    4  CA  UNL     1     -10.457  17.917  67.336  1.00  0.00    -0.383 C  
HETATM    5  C   UNL     1     -10.572  19.435  67.085  1.00  0.00    -0.485 C  
HETATM    6  OXT UNL     1     -10.761  19.963  66.002  1.00  0.00    -0.452 OA 
HETATM    7  O   UNL     1     -10.451  20.135  68.245  1.00  0.00    -0.373 OA 
ENDROOT
BRANCH   4   8
HETATM    8  C   UNL     1      -9.753  17.260  66.133  1.00  0.00    -0.243 C  
BRANCH   8   9
HETATM    9  C   UNL     1      -9.667  15.745  66.130  1.00  0.00    -0.351 A  
HETATM   10  C   UNL     1      -8.675  15.053  66.826  1.00  0.00    -0.293 A  
HETATM   11  C   UNL     1      -8.639  13.652  66.798  1.00  0.00    -0.029 A  
HETATM   12  I   UNL     1      -7.059  12.719  67.846  1.00  0.00    -0.174 I  
HETATM   13  C   UNL     1      -9.588  12.892  66.075  1.00  0.00    -0.165 A  
HETATM   14  C   UNL     1     -10.596  13.590  65.397  1.00  0.00    -0.308 A  
HETATM   15  C   UNL     1     -10.640  14.998  65.450  1.00  0.00    -0.398 A  
HETATM   16  I   UNL     1     -12.048  12.715  64.149  1.00  0.00    -0.589 I  
BRANCH  13  17
HETATM   17  O   UNL     1      -9.267  11.571  65.865  1.00  0.00    -0.219 OA 
BRANCH  17  18
HETATM   18  C   UNL     1      -9.725  10.521  66.621  1.00  0.00    -0.189 A  
HETATM   19  C   UNL     1     -10.428  10.937  67.763  1.00  0.00    -0.238 A  
HETATM   20  C   UNL     1     -10.955  10.006  68.661  1.00  0.00    -0.204 A  
HETATM   21  I   UNL     1     -11.982  10.720  70.333  1.00  0.00    -0.494 I  
HETATM   22  C   UNL     1     -10.770   8.643  68.432  1.00  0.00    -0.046 A  
HETATM   23  C   UNL     1     -10.072   8.225  67.291  1.00  0.00    -0.247 A  
HETATM   24  O   UNL     1     -11.273   7.714  69.311  1.00  0.00    -0.442 OA 
HETATM   25  H   UNL     1     -11.146   6.785  69.155  1.00  0.00     0.000 HD 
HETATM   26  I   UNL     1      -9.683   6.193  66.943  1.00  0.00    -0.215 I  
HETATM   27  C   UNL     1      -9.580   9.161  66.364  1.00  0.00    -0.309 A  
ENDBRANCH  17  18
ENDBRANCH  13  17
ENDBRANCH   8   9
ENDBRANCH   4   8
TORSDOF 4
ENDMDL
MODEL       48
REMARK 921   NORMALIZED FREE ENERGY PREDICTED BY IDOCK:   -5.45 KCAL/MOL
REMARK 922        TOTAL FREE ENERGY PREDICTED BY IDOCK:   -7.48 KCAL/MOL
REMARK 923 INTER-LIGAND FREE ENERGY PREDICTED BY IDOCK:   -6.78 KCAL/MOL
REMARK 924 INTRA-LIGAND FREE ENERGY PREDICTED BY IDOCK:   -0.70 KCAL/MOL
REMARK 927      BINDING AFFINITY PREDICTED BY RF-SCORE:    0.00 PKD
ROOT
HETATM    1  N   UNL     1      -9.249  15.427  69.623  1.00  0.00    -0.390 NA 
HETATM    2  H1  UNL     1      -8.326  15.840  69.756  1.00  0.00     0.000 HD 
HETATM    3  H2  UNL     1      -9.244  14.791  68.826  1.00  0.00     0.000 HD 
HETATM    4  CA  UNL     1     -10.353  16.426  69.488  1.00  0.00    -0.278 C  
HETATM    5  C   UNL     1     -10.025  17.327  68.280  1.00  0.00    -0.313 C  
HETATM    6  OXT UNL     1     -10.828  18.005  67.661  1.00  0.00    -0.390 OA 
HETATM    7  O   UNL     1      -8.697  17.291  67.986  1.00  0.00    -0.220 OA 
ENDROOT
BRANCH   4   8
HETATM    8  C   UNL     1     -11.748  15.802  69.287  1.00  0.00    -0.384 C  
BRANCH   8   9
HETATM    9  C   UNL     1     -11.796  14.371  68.787  1.00  0.00    -0.360 A  
HETATM   10  C   UNL     1     -11.817  13.278  69.656  1.00  0.00    -0.391 A  
HETATM   11  C   UNL     1     -11.867  11.973  69.147  1.00  0.00    -0.311 A  
HETATM   12  I   UNL     1     -11.841  10.401  70.559  1.00  0.00    -0.463 I  
HETATM   13  C   UNL     1     -11.896  11.710  67.759  1.00  0.00    -0.176 A  
HETATM   14  C   UNL     1     -11.898  12.810  66.890  1.00  0.00    -0.371 A  
HETATM   15  C   UNL     1     -11.873  14.120  67.409  1.00  0.00    -0.447 A  
HETATM   16  I   UNL     1     -11.808  12.698  64.791  1.00  0.00    -0.509 I  
BRANCH  13  17
HETATM   17  O   UNL     1     -11.626  10.414  67.386  1.00  0.00    -0.295 OA 
BRANCH  17  18
HETATM   18  C   UNL     1     -10.370   9.900  67.181  1.00  0.00    -0.243 A  
HETATM   19  C   UNL     1     -10.357   8.497  67.121  1.00  0.00    -0.377 A  
HETATM   20  C   UNL     1      -9.165   7.796  66.934  1.00  0.00    -0.152 A  
HETATM   21  I   UNL     1      -9.246   5.710  66.863  1.00  0.00    -0.147 I  
HETATM   22  C   UNL     1      -7.963   8.494  66.818  1.00  0.00    -0.094 A  
HETATM   23  C   UNL     1      -7.972   9.895  66.873  1.00  0.00    -0.109 A  
HETATM   24  O   UNL     1      -6.779   7.820  66.644  1.00  0.00    -0.062 OA 
HETATM   25  H   UNL     1      -5.960   8.296  66.566  1.00  0.00     0.000 HD 
HETATM   26  I   UNL     1      -6.188  10.994  66.799  1.00  0.00    -0.134 I  
HETATM   27  C   UNL     1      -9.179  10.602  67.018  1.00  0.00    -0.167 A  
ENDBRANCH  17  18
ENDBRANCH  13  17
ENDBRANCH   8   9
ENDBRANCH   4   8
TORSDOF 4
ENDMDL
MODEL       49
REMARK 921   NORMALIZED FREE ENERGY PREDICTED BY IDOCK:   -5.45 KCAL/MOL
REMARK 922        TOTAL FREE ENERGY PREDICTED BY IDOCK:   -7.48 KCAL/MOL
REMARK 923 INTER-LIGAND FREE ENERGY PREDICTED BY IDOCK:   -7.27 KCAL/MOL
REMARK 924 INTRA-LIGAND FREE ENERGY PREDICTED BY IDOCK:   -0.21 KCAL/MOL
REMARK 927      BINDING AFFINITY PREDICTED BY RF-SCORE:    0.00 PKD
ROOT
HETATM    1  N   UNL     1     -10.561  18.098  65.503  1.00  0.00    -0.590 NA 
HETATM    2  H1  UNL     1     -10.123  18.892  65.035  1.00  0.00     0.000 HD 
HETATM    3  H2  UNL     1     -11.572  18.227  65.553  1.00  0.00     0.000 HD 
HETATM    4  CA  UNL     1     -10.003  17.803  66.858  1.00  0.00    -0.332 C  
HETATM    5  C   UNL     1     -10.186  19.065  67.725  1.00  0.00    -0.402 C  
HETATM    6  OXT UNL     1     -10.180  19.096  68.945  1.00  0.00    -0.378 OA 
HETATM    7  O   UNL     1     -10.345  20.173  66.954  1.00  0.00    -0.439 OA 
ENDROOT
BRANCH   4   8
HETATM    8  C   UNL     1     -10.665  16.604  67.565  1.00  0.00    -0.278 C  
BRANCH   8   9
HETATM    9  C   UNL     1     -10.351  15.224  67.019  1.00  0.00    -0.277 A  
HETATM   10  C   UNL     1     -11.149  14.604  66.056  1.00  0.00    -0.332 A  
HETATM   11  C   UNL     1     -10.816  13.330  65.577  1.00  0.00    -0.284 A  
HETATM   12  I   UNL     1     -12.130  12.473  64.160  1.00  0.00    -0.586 I  
HETATM   13  C   UNL     1      -9.681  12.627  66.041  1.00  0.00    -0.229 A  
HETATM   14  C   UNL     1      -8.869  13.263  66.991  1.00  0.00    -0.212 A  
HETATM   15  C   UNL     1      -9.196  14.555  67.450  1.00  0.00    -0.202 A  
HETATM   16  I   UNL     1      -7.201  12.394  67.936  1.00  0.00    -0.162 I  
BRANCH  13  17
HETATM   17  O   UNL     1      -9.638  11.286  65.741  1.00  0.00    -0.211 OA 
BRANCH  17  18
HETATM   18  C   UNL     1     -10.015  10.278  66.592  1.00  0.00    -0.216 A  
HETATM   19  C   UNL     1     -10.627  10.752  67.763  1.00  0.00    -0.266 A  
HETATM   20  C   UNL     1     -11.063   9.871  68.754  1.00  0.00    -0.135 A  
HETATM   21  I   UNL     1     -11.958  10.670  70.463  1.00  0.00    -0.485 I  
HETATM   22  C   UNL     1     -10.876   8.498  68.590  1.00  0.00     0.060 A  
HETATM   23  C   UNL     1     -10.269   8.021  67.420  1.00  0.00    -0.261 A  
HETATM   24  O   UNL     1     -11.289   7.617  69.560  1.00  0.00    -0.454 OA 
HETATM   25  H   UNL     1     -11.161   6.682  69.448  1.00  0.00     0.000 HD 
HETATM   26  I   UNL     1      -9.878   5.977  67.159  1.00  0.00    -0.249 I  
HETATM   27  C   UNL     1      -9.870   8.906  66.403  1.00  0.00    -0.353 A  
ENDBRANCH  17  18
ENDBRANCH  13  17
ENDBRANCH   8   9
ENDBRANCH   4   8
TORSDOF 4
ENDMDL
MODEL       50
REMARK 921   NORMALIZED FREE ENERGY PREDICTED BY IDOCK:   -5.44 KCAL/MOL
REMARK 922        TOTAL FREE ENERGY PREDICTED BY IDOCK:   -7.47 KCAL/MOL
REMARK 923 INTER-LIGAND FREE ENERGY PREDICTED BY IDOCK:   -7.08 KCAL/MOL
REMARK 924 INTRA-LIGAND FREE ENERGY PREDICTED BY IDOCK:   -0.39 KCAL/MOL
REMARK 927      BINDING AFFINITY PREDICTED BY RF-SCORE:    0.00 PKD
ROOT
HETATM    1  N   UNL     1     -11.589  14.694  66.747  1.00  0.00    -0.371 NA 
HETATM    2  H1  UNL     1     -11.819  15.688  66.764  1.00  0.00     0.000 HD 
HETATM    3  H2  UNL     1     -10.598  14.560  66.548  1.00  0.00     0.000 HD 
HETATM    4  CA  UNL     1     -12.426  13.889  65.806  1.00  0.00    -0.495 C  
HETATM    5  C   UNL     1     -12.237  14.474  64.392  1.00  0.00    -0.458 C  
HETATM    6  OXT UNL     1     -12.467  13.892  63.345  1.00  0.00    -0.833 OA 
HETATM    7  O   UNL     1     -11.786  15.756  64.447  1.00  0.00    -0.380 OA 
ENDROOT
BRANCH   4   8
HETATM    8  C   UNL     1     -12.079  12.387  65.780  1.00  0.00    -0.381 C  
BRANCH   8   9
HETATM    9  C   UNL     1     -11.265  11.849  66.941  1.00  0.00    -0.382 A  
HETATM   10  C   UNL     1      -9.886  11.646  66.854  1.00  0.00    -0.218 A  
HETATM   11  C   UNL     1      -9.174  11.152  67.956  1.00  0.00    -0.159 A  
HETATM   12  I   UNL     1      -7.102  10.837  67.685  1.00  0.00    -0.100 I  
HETATM   13  C   UNL     1      -9.809  10.840  69.180  1.00  0.00    -0.175 A  
HETATM   14  C   UNL     1     -11.189  11.068  69.271  1.00  0.00    -0.257 A  
HETATM   15  C   UNL     1     -11.894  11.588  68.167  1.00  0.00    -0.306 A  
HETATM   16  I   UNL     1     -12.392  10.573  70.925  1.00  0.00    -0.545 I  
BRANCH  13  17
HETATM   17  O   UNL     1      -9.077  10.079  70.061  1.00  0.00    -0.202 OA 
BRANCH  17  18
HETATM   18  C   UNL     1      -9.333   8.765  70.366  1.00  0.00    -0.180 A  
HETATM   19  C   UNL     1      -9.507   7.964  69.226  1.00  0.00    -0.152 A  
HETATM   20  C   UNL     1      -9.791   6.602  69.341  1.00  0.00    -0.151 A  
HETATM   21  I   UNL     1     -10.038   5.493  67.589  1.00  0.00    -0.244 I  
HETATM   22  C   UNL     1      -9.920   6.027  70.605  1.00  0.00    -0.185 A  
HETATM   23  C   UNL     1      -9.742   6.823  71.745  1.00  0.00    -0.160 A  
HETATM   24  O   UNL     1     -10.210   4.691  70.737  1.00  0.00    -0.215 OA 
HETATM   25  H   UNL     1     -10.297   4.299  71.598  1.00  0.00     0.000 HD 
HETATM   26  I   UNL     1     -10.014   6.035  73.670  1.00  0.00    -0.292 I  
HETATM   27  C   UNL     1      -9.412   8.185  71.629  1.00  0.00    -0.233 A  
ENDBRANCH  17  18
ENDBRANCH  13  17
ENDBRANCH   8   9
ENDBRANCH   4   8
TORSDOF 4
ENDMDL
MODEL       51
REMARK 921   NORMALIZED FREE ENERGY PREDICTED BY IDOCK:   -5.38 KCAL/MOL
REMARK 922        TOTAL FREE ENERGY PREDICTED BY IDOCK:   -7.39 KCAL/MOL
REMARK 923 INTER-LIGAND FREE ENERGY PREDICTED BY IDOCK:   -7.15 KCAL/MOL
REMARK 924 INTRA-LIGAND FREE ENERGY PREDICTED BY IDOCK:   -0.24 KCAL/MOL
REMARK 927      BINDING AFFINITY PREDICTED BY RF-SCORE:    0.00 PKD
ROOT
HETATM    1  N   UNL     1      -6.631  10.546  64.268  1.00  0.00    -0.351 NA 
HETATM    2  H1  UNL     1      -5.636  10.763  64.206  1.00  0.00     0.000 HD 
HETATM    3  H2  UNL     1      -7.001  10.829  65.176  1.00  0.00     0.000 HD 
HETATM    4  CA  UNL     1      -6.965   9.117  63.989  1.00  0.00    -0.089 C  
HETATM    5  C   UNL     1      -6.194   8.248  65.004  1.00  0.00    -0.049 C  
HETATM    6  OXT UNL     1      -6.472   7.101  65.312  1.00  0.00    -0.045 OA 
HETATM    7  O   UNL     1      -5.131   8.922  65.520  1.00  0.00    -0.036 OA 
ENDROOT
BRANCH   4   8
HETATM    8  C   UNL     1      -8.468   8.789  64.083  1.00  0.00    -0.123 C  
BRANCH   8   9
HETATM    9  C   UNL     1      -9.321   9.711  64.934  1.00  0.00    -0.306 A  
HETATM   10  C   UNL     1      -9.373   9.607  66.325  1.00  0.00    -0.238 A  
HETATM   11  C   UNL     1     -10.171  10.485  67.070  1.00  0.00    -0.226 A  
HETATM   12  I   UNL     1     -10.209  10.194  69.163  1.00  0.00    -0.294 I  
HETATM   13  C   UNL     1     -10.947  11.496  66.457  1.00  0.00    -0.293 A  
HETATM   14  C   UNL     1     -10.874  11.613  65.062  1.00  0.00    -0.288 A  
HETATM   15  C   UNL     1     -10.049  10.741  64.321  1.00  0.00    -0.427 A  
HETATM   16  I   UNL     1     -12.017  12.940  63.895  1.00  0.00    -0.596 I  
BRANCH  13  17
HETATM   17  O   UNL     1     -11.915  12.074  67.245  1.00  0.00    -0.591 OA 
BRANCH  17  18
HETATM   18  C   UNL     1     -11.776  13.263  67.916  1.00  0.00    -0.357 A  
HETATM   19  C   UNL     1     -11.193  14.269  67.128  1.00  0.00    -0.333 A  
HETATM   20  C   UNL     1     -10.959  15.543  67.648  1.00  0.00    -0.315 A  
HETATM   21  I   UNL     1     -10.084  16.972  66.401  1.00  0.00    -0.277 I  
HETATM   22  C   UNL     1     -11.293  15.822  68.973  1.00  0.00    -0.354 A  
HETATM   23  C   UNL     1     -11.878  14.821  69.761  1.00  0.00    -0.316 A  
HETATM   24  O   UNL     1     -11.059  17.067  69.504  1.00  0.00    -0.323 OA 
HETATM   25  H   UNL     1     -11.286  17.257  70.407  1.00  0.00     0.000 HD 
HETATM   26  I   UNL     1     -12.316  15.154  71.785  1.00  0.00    -0.588 I  
HETATM   27  C   UNL     1     -12.155  13.552  69.224  1.00  0.00    -0.335 A  
ENDBRANCH  17  18
ENDBRANCH  13  17
ENDBRANCH   8   9
ENDBRANCH   4   8
TORSDOF 4
ENDMDL
MODEL       52
REMARK 921   NORMALIZED FREE ENERGY PREDICTED BY IDOCK:   -5.35 KCAL/MOL
REMARK 922        TOTAL FREE ENERGY PREDICTED BY IDOCK:   -7.36 KCAL/MOL
REMARK 923 INTER-LIGAND FREE ENERGY PREDICTED BY IDOCK:   -7.57 KCAL/MOL
REMARK 924 INTRA-LIGAND FREE ENERGY PREDICTED BY IDOCK:    0.21 KCAL/MOL
REMARK 927      BINDING AFFINITY PREDICTED BY RF-SCORE:    0.00 PKD
ROOT
HETATM    1  N   UNL     1     -14.076  13.652  72.704  1.00  0.00    -0.732 NA 
HETATM    2  H1  UNL     1     -14.292  13.506  73.690  1.00  0.00     0.000 HD 
HETATM    3  H2  UNL     1     -13.267  13.094  72.430  1.00  0.00     0.000 HD 
HETATM    4  CA  UNL     1     -13.877  15.084  72.325  1.00  0.00    -0.492 C  
HETATM    5  C   UNL     1     -12.720  15.639  73.182  1.00  0.00    -0.486 C  
HETATM    6  OXT UNL     1     -12.055  16.627  72.922  1.00  0.00    -0.464 OA 
HETATM    7  O   UNL     1     -12.533  14.887  74.300  1.00  0.00    -0.508 OA 
ENDROOT
BRANCH   4   8
HETATM    8  C   UNL     1     -13.551  15.303  70.835  1.00  0.00    -0.402 C  
BRANCH   8   9
HETATM    9  C   UNL     1     -12.553  14.352  70.202  1.00  0.00    -0.340 A  
HETATM   10  C   UNL     1     -12.501  12.997  70.533  1.00  0.00    -0.306 A  
HETATM   11  C   UNL     1     -11.565  12.155  69.917  1.00  0.00    -0.221 A  
HETATM   12  I   UNL     1     -11.548  10.136  70.540  1.00  0.00    -0.443 I  
HETATM   13  C   UNL     1     -10.648  12.632  68.953  1.00  0.00    -0.124 A  
HETATM   14  C   UNL     1     -10.719  13.988  68.606  1.00  0.00    -0.259 A  
HETATM   15  C   UNL     1     -11.679  14.824  69.211  1.00  0.00    -0.347 A  
HETATM   16  I   UNL     1      -9.395  14.976  67.301  1.00  0.00    -0.244 I  
BRANCH  13  17
HETATM   17  O   UNL     1      -9.592  11.799  68.663  1.00  0.00    -0.186 OA 
BRANCH  17  18
HETATM   18  C   UNL     1      -9.486  11.028  67.533  1.00  0.00    -0.163 A  
HETATM   19  C   UNL     1      -8.985   9.743  67.794  1.00  0.00    -0.132 A  
HETATM   20  C   UNL     1      -8.794   8.822  66.763  1.00  0.00    -0.129 A  
HETATM   21  I   UNL     1      -8.041   6.936  67.249  1.00  0.00    -0.120 I  
HETATM   22  C   UNL     1      -9.089   9.185  65.448  1.00  0.00    -0.214 A  
HETATM   23  C   UNL     1      -9.593  10.466  65.185  1.00  0.00    -0.271 A  
HETATM   24  O   UNL     1      -8.896   8.296  64.420  1.00  0.00    -0.406 OA 
HETATM   25  H   UNL     1      -9.097   8.543  63.524  1.00  0.00     0.000 HD 
HETATM   26  I   UNL     1      -9.967  11.100  63.221  1.00  0.00    -0.330 I  
HETATM   27  C   UNL     1      -9.827  11.378  66.229  1.00  0.00    -0.250 A  
ENDBRANCH  17  18
ENDBRANCH  13  17
ENDBRANCH   8   9
ENDBRANCH   4   8
TORSDOF 4
ENDMDL
MODEL       53
REMARK 921   NORMALIZED FREE ENERGY PREDICTED BY IDOCK:   -5.33 KCAL/MOL
REMARK 922        TOTAL FREE ENERGY PREDICTED BY IDOCK:   -7.34 KCAL/MOL
REMARK 923 INTER-LIGAND FREE ENERGY PREDICTED BY IDOCK:   -6.63 KCAL/MOL
REMARK 924 INTRA-LIGAND FREE ENERGY PREDICTED BY IDOCK:   -0.71 KCAL/MOL
REMARK 927      BINDING AFFINITY PREDICTED BY RF-SCORE:    0.00 PKD
ROOT
HETATM    1  N   UNL     1     -11.282   6.430  66.797  1.00  0.00    -0.742 NA 
HETATM    2  H1  UNL     1     -11.977   5.728  67.053  1.00  0.00     0.000 HD 
HETATM    3  H2  UNL     1     -10.377   5.991  66.632  1.00  0.00     0.000 HD 
HETATM    4  CA  UNL     1     -11.151   7.548  67.780  1.00  0.00     0.158 C  
HETATM    5  C   UNL     1     -10.768   6.932  69.142  1.00  0.00    -0.234 C  
HETATM    6  OXT UNL     1     -10.246   7.528  70.069  1.00  0.00    -0.206 OA 
HETATM    7  O   UNL     1     -11.104   5.615  69.198  1.00  0.00    -0.244 OA 
ENDROOT
BRANCH   4   8
HETATM    8  C   UNL     1     -10.101   8.608  67.394  1.00  0.00    -0.292 C  
BRANCH   8   9
HETATM    9  C   UNL     1     -10.559  10.054  67.370  1.00  0.00    -0.330 A  
HETATM   10  C   UNL     1     -10.471  10.845  66.223  1.00  0.00    -0.304 A  
HETATM   11  C   UNL     1     -10.913  12.175  66.247  1.00  0.00    -0.295 A  
HETATM   12  I   UNL     1     -10.678  13.287  64.465  1.00  0.00    -0.350 I  
HETATM   13  C   UNL     1     -11.455  12.764  67.412  1.00  0.00    -0.340 A  
HETATM   14  C   UNL     1     -11.564  11.959  68.555  1.00  0.00    -0.318 A  
HETATM   15  C   UNL     1     -11.140  10.615  68.516  1.00  0.00    -0.318 A  
HETATM   16  I   UNL     1     -12.212  12.619  70.445  1.00  0.00     0.035 I  
BRANCH  13  17
HETATM   17  O   UNL     1     -11.553  14.136  67.403  1.00  0.00    -0.331 OA 
BRANCH  17  18
HETATM   18  C   UNL     1     -10.554  14.998  67.778  1.00  0.00    -0.264 A  
HETATM   19  C   UNL     1     -10.818  16.329  67.420  1.00  0.00    -0.242 A  
HETATM   20  C   UNL     1      -9.906  17.346  67.706  1.00  0.00    -0.283 A  
HETATM   21  I   UNL     1     -10.386  19.295  67.130  1.00  0.00    -0.636 I  
HETATM   22  C   UNL     1      -8.705  17.038  68.345  1.00  0.00    -0.247 A  
HETATM   23  C   UNL     1      -8.440  15.711  68.709  1.00  0.00    -0.192 A  
HETATM   24  O   UNL     1      -7.791  18.024  68.625  1.00  0.00    -0.294 OA 
HETATM   25  H   UNL     1      -6.973  17.814  69.060  1.00  0.00     0.000 HD 
HETATM   26  I   UNL     1      -6.613  15.173  69.588  1.00  0.00    -0.158 I  
HETATM   27  C   UNL     1      -9.378  14.694  68.459  1.00  0.00    -0.201 A  
ENDBRANCH  17  18
ENDBRANCH  13  17
ENDBRANCH   8   9
ENDBRANCH   4   8
TORSDOF 4
ENDMDL
MODEL       54
REMARK 921   NORMALIZED FREE ENERGY PREDICTED BY IDOCK:   -5.27 KCAL/MOL
REMARK 922        TOTAL FREE ENERGY PREDICTED BY IDOCK:   -7.26 KCAL/MOL
REMARK 923 INTER-LIGAND FREE ENERGY PREDICTED BY IDOCK:   -6.90 KCAL/MOL
REMARK 924 INTRA-LIGAND FREE ENERGY PREDICTED BY IDOCK:   -0.35 KCAL/MOL
REMARK 927      BINDING AFFINITY PREDICTED BY RF-SCORE:    0.00 PKD
ROOT
HETATM    1  N   UNL     1      -6.800   8.967  72.069  1.00  0.00    -0.301 NA 
HETATM    2  H1  UNL     1      -6.162   9.320  72.782  1.00  0.00     0.000 HD 
HETATM    3  H2  UNL     1      -7.513   9.664  71.852  1.00  0.00     0.000 HD 
HETATM    4  CA  UNL     1      -7.435   7.657  72.410  1.00  0.00    -0.079 C  
HETATM    5  C   UNL     1      -8.207   7.841  73.732  1.00  0.00    -0.202 C  
HETATM    6  OXT UNL     1      -9.110   7.125  74.132  1.00  0.00    -0.197 OA 
HETATM    7  O   UNL     1      -7.742   8.913  74.428  1.00  0.00    -0.403 OA 
ENDROOT
BRANCH   4   8
HETATM    8  C   UNL     1      -8.399   7.124  71.332  1.00  0.00    -0.112 C  
BRANCH   8   9
HETATM    9  C   UNL     1      -9.259   8.146  70.612  1.00  0.00    -0.162 A  
HETATM   10  C   UNL     1     -10.380   8.728  71.206  1.00  0.00    -0.331 A  
HETATM   11  C   UNL     1     -11.142   9.672  70.504  1.00  0.00    -0.308 A  
HETATM   12  I   UNL     1     -12.846  10.442  71.489  1.00  0.00    -0.520 I  
HETATM   13  C   UNL     1     -10.816  10.067  69.186  1.00  0.00    -0.222 A  
HETATM   14  C   UNL     1      -9.676   9.498  68.602  1.00  0.00    -0.155 A  
HETATM   15  C   UNL     1      -8.901   8.568  69.324  1.00  0.00    -0.142 A  
HETATM   16  I   UNL     1      -9.043   9.814  66.620  1.00  0.00    -0.210 I  
BRANCH  13  17
HETATM   17  O   UNL     1     -11.798  10.743  68.500  1.00  0.00    -0.444 OA 
BRANCH  17  18
HETATM   18  C   UNL     1     -11.721  12.055  68.107  1.00  0.00    -0.333 A  
HETATM   19  C   UNL     1     -11.626  12.945  69.189  1.00  0.00    -0.375 A  
HETATM   20  C   UNL     1     -11.554  14.324  68.982  1.00  0.00    -0.305 A  
HETATM   21  I   UNL     1     -11.419  15.568  70.654  1.00  0.00    -0.515 I  
HETATM   22  C   UNL     1     -11.592  14.831  67.683  1.00  0.00    -0.354 A  
HETATM   23  C   UNL     1     -11.682  13.946  66.601  1.00  0.00    -0.395 A  
HETATM   24  O   UNL     1     -11.533  16.185  67.462  1.00  0.00    -0.083 OA 
HETATM   25  H   UNL     1     -11.559  16.531  66.577  1.00  0.00     0.000 HD 
HETATM   26  I   UNL     1     -11.836  14.653  64.632  1.00  0.00    -0.302 I  
HETATM   27  C   UNL     1     -11.710  12.555  66.807  1.00  0.00    -0.453 A  
ENDBRANCH  17  18
ENDBRANCH  13  17
ENDBRANCH   8   9
ENDBRANCH   4   8
TORSDOF 4
ENDMDL
MODEL       55
REMARK 921   NORMALIZED FREE ENERGY PREDICTED BY IDOCK:   -5.27 KCAL/MOL
REMARK 922        TOTAL FREE ENERGY PREDICTED BY IDOCK:   -7.26 KCAL/MOL
REMARK 923 INTER-LIGAND FREE ENERGY PREDICTED BY IDOCK:   -6.72 KCAL/MOL
REMARK 924 INTRA-LIGAND FREE ENERGY PREDICTED BY IDOCK:   -0.54 KCAL/MOL
REMARK 927      BINDING AFFINITY PREDICTED BY RF-SCORE:    0.00 PKD
ROOT
HETATM    1  N   UNL     1      -9.619  15.403  69.940  1.00  0.00    -0.435 NA 
HETATM    2  H1  UNL     1      -8.859  15.902  70.403  1.00  0.00     0.000 HD 
HETATM    3  H2  UNL     1      -9.265  14.880  69.139  1.00  0.00     0.000 HD 
HETATM    4  CA  UNL     1     -10.765  16.271  69.534  1.00  0.00    -0.323 C  
HETATM    5  C   UNL     1     -10.219  17.354  68.581  1.00  0.00    -0.361 C  
HETATM    6  OXT UNL     1     -10.881  18.005  67.791  1.00  0.00    -0.383 OA 
HETATM    7  O   UNL     1      -8.877  17.515  68.738  1.00  0.00    -0.278 OA 
ENDROOT
BRANCH   4   8
HETATM    8  C   UNL     1     -11.912  15.516  68.834  1.00  0.00    -0.306 C  
BRANCH   8   9
HETATM    9  C   UNL     1     -11.680  14.051  68.519  1.00  0.00    -0.387 A  
HETATM   10  C   UNL     1     -11.249  13.618  67.264  1.00  0.00    -0.329 A  
HETATM   11  C   UNL     1     -11.042  12.253  67.020  1.00  0.00    -0.287 A  
HETATM   12  I   UNL     1     -10.442  11.715  65.067  1.00  0.00    -0.368 I  
HETATM   13  C   UNL     1     -11.259  11.272  68.016  1.00  0.00    -0.287 A  
HETATM   14  C   UNL     1     -11.669  11.714  69.282  1.00  0.00    -0.331 A  
HETATM   15  C   UNL     1     -11.851  13.090  69.526  1.00  0.00    -0.385 A  
HETATM   16  I   UNL     1     -12.182  10.462  70.894  1.00  0.00    -0.529 I  
BRANCH  13  17
HETATM   17  O   UNL     1     -11.331   9.972  67.574  1.00  0.00    -0.212 OA 
BRANCH  17  18
HETATM   18  C   UNL     1     -10.305   9.063  67.637  1.00  0.00    -0.257 A  
HETATM   19  C   UNL     1     -10.622   7.839  67.027  1.00  0.00    -0.396 A  
HETATM   20  C   UNL     1      -9.706   6.786  67.007  1.00  0.00    -0.156 A  
HETATM   21  I   UNL     1     -10.271   5.002  66.081  1.00  0.00    -0.199 I  
HETATM   22  C   UNL     1      -8.459   6.944  67.612  1.00  0.00    -0.122 A  
HETATM   23  C   UNL     1      -8.137   8.166  68.217  1.00  0.00    -0.128 A  
HETATM   24  O   UNL     1      -7.548   5.915  67.611  1.00  0.00    -0.087 OA 
HETATM   25  H   UNL     1      -6.699   6.022  68.023  1.00  0.00     0.000 HD 
HETATM   26  I   UNL     1      -6.315   8.430  69.223  1.00  0.00    -0.039 I  
HETATM   27  C   UNL     1      -9.043   9.240  68.199  1.00  0.00    -0.130 A  
ENDBRANCH  17  18
ENDBRANCH  13  17
ENDBRANCH   8   9
ENDBRANCH   4   8
TORSDOF 4
ENDMDL
MODEL       56
REMARK 921   NORMALIZED FREE ENERGY PREDICTED BY IDOCK:   -5.26 KCAL/MOL
REMARK 922        TOTAL FREE ENERGY PREDICTED BY IDOCK:   -7.25 KCAL/MOL
REMARK 923 INTER-LIGAND FREE ENERGY PREDICTED BY IDOCK:   -6.71 KCAL/MOL
REMARK 924 INTRA-LIGAND FREE ENERGY PREDICTED BY IDOCK:   -0.55 KCAL/MOL
REMARK 927      BINDING AFFINITY PREDICTED BY RF-SCORE:    0.00 PKD
ROOT
HETATM    1  N   UNL     1      -7.182   8.603  72.102  1.00  0.00    -0.252 NA 
HETATM    2  H1  UNL     1      -6.508   8.912  72.803  1.00  0.00     0.000 HD 
HETATM    3  H2  UNL     1      -7.830   9.357  71.874  1.00  0.00     0.000 HD 
HETATM    4  CA  UNL     1      -7.931   7.365  72.476  1.00  0.00    -0.100 C  
HETATM    5  C   UNL     1      -8.672   7.647  73.799  1.00  0.00    -0.239 C  
HETATM    6  OXT UNL     1      -9.633   7.026  74.221  1.00  0.00    -0.253 OA 
HETATM    7  O   UNL     1      -8.106   8.687  74.468  1.00  0.00    -0.293 OA 
ENDROOT
BRANCH   4   8
HETATM    8  C   UNL     1      -8.949   6.898  71.417  1.00  0.00    -0.141 C  
BRANCH   8   9
HETATM    9  C   UNL     1      -9.684   7.978  70.647  1.00  0.00    -0.180 A  
HETATM   10  C   UNL     1     -10.681   8.762  71.229  1.00  0.00    -0.339 A  
HETATM   11  C   UNL     1     -11.330   9.752  70.478  1.00  0.00    -0.314 A  
HETATM   12  I   UNL     1     -12.859  10.837  71.454  1.00  0.00    -0.404 I  
HETATM   13  C   UNL     1     -11.009   9.996  69.123  1.00  0.00    -0.220 A  
HETATM   14  C   UNL     1      -9.991   9.223  68.549  1.00  0.00    -0.175 A  
HETATM   15  C   UNL     1      -9.326   8.246  69.317  1.00  0.00    -0.155 A  
HETATM   16  I   UNL     1      -9.408   9.293  66.527  1.00  0.00    -0.297 I  
BRANCH  13  17
HETATM   17  O   UNL     1     -11.913  10.756  68.418  1.00  0.00    -0.508 OA 
BRANCH  17  18
HETATM   18  C   UNL     1     -11.667  12.011  67.921  1.00  0.00    -0.323 A  
HETATM   19  C   UNL     1     -11.875  12.100  66.535  1.00  0.00    -0.322 A  
HETATM   20  C   UNL     1     -11.659  13.297  65.851  1.00  0.00    -0.347 A  
HETATM   21  I   UNL     1     -11.990  13.331  63.790  1.00  0.00    -0.329 I  
HETATM   22  C   UNL     1     -11.215  14.421  66.548  1.00  0.00    -0.340 A  
HETATM   23  C   UNL     1     -11.011  14.337  67.932  1.00  0.00    -0.267 A  
HETATM   24  O   UNL     1     -10.987  15.605  65.889  1.00  0.00    -0.308 OA 
HETATM   25  H   UNL     1     -10.685  16.371  66.363  1.00  0.00     0.000 HD 
HETATM   26  I   UNL     1     -10.258  15.967  69.017  1.00  0.00    -0.286 I  
HETATM   27  C   UNL     1     -11.271  13.144  68.627  1.00  0.00    -0.314 A  
ENDBRANCH  17  18
ENDBRANCH  13  17
ENDBRANCH   8   9
ENDBRANCH   4   8
TORSDOF 4
ENDMDL
MODEL       57
REMARK 921   NORMALIZED FREE ENERGY PREDICTED BY IDOCK:   -5.26 KCAL/MOL
REMARK 922        TOTAL FREE ENERGY PREDICTED BY IDOCK:   -7.25 KCAL/MOL
REMARK 923 INTER-LIGAND FREE ENERGY PREDICTED BY IDOCK:   -6.48 KCAL/MOL
REMARK 924 INTRA-LIGAND FREE ENERGY PREDICTED BY IDOCK:   -0.77 KCAL/MOL
REMARK 927      BINDING AFFINITY PREDICTED BY RF-SCORE:    0.00 PKD
ROOT
HETATM    1  N   UNL     1     -12.131   7.507  70.607  1.00  0.00    -0.513 NA 
HETATM    2  H1  UNL     1     -12.808   7.576  71.367  1.00  0.00     0.000 HD 
HETATM    3  H2  UNL     1     -11.709   6.578  70.589  1.00  0.00     0.000 HD 
HETATM    4  CA  UNL     1     -11.074   8.562  70.632  1.00  0.00    -0.252 C  
HETATM    5  C   UNL     1     -10.332   8.452  71.979  1.00  0.00    -0.304 C  
HETATM    6  OXT UNL     1      -9.219   8.890  72.216  1.00  0.00    -0.376 OA 
HETATM    7  O   UNL     1     -11.089   7.804  72.905  1.00  0.00    -0.368 OA 
ENDROOT
BRANCH   4   8
HETATM    8  C   UNL     1     -10.051   8.458  69.483  1.00  0.00    -0.200 C  
BRANCH   8   9
HETATM    9  C   UNL     1      -9.620   9.755  68.825  1.00  0.00    -0.155 A  
HETATM   10  C   UNL     1      -8.426  10.398  69.157  1.00  0.00    -0.168 A  
HETATM   11  C   UNL     1      -8.066  11.593  68.518  1.00  0.00    -0.145 A  
HETATM   12  I   UNL     1      -6.263  12.500  69.143  1.00  0.00    -0.103 I  
HETATM   13  C   UNL     1      -8.883  12.189  67.529  1.00  0.00    -0.175 A  
HETATM   14  C   UNL     1     -10.069  11.528  67.183  1.00  0.00    -0.197 A  
HETATM   15  C   UNL     1     -10.412  10.314  67.812  1.00  0.00    -0.269 A  
HETATM   16  I   UNL     1     -11.518  12.260  65.843  1.00  0.00    -0.348 I  
BRANCH  13  17
HETATM   17  O   UNL     1      -8.588  13.495  67.213  1.00  0.00    -0.198 OA 
BRANCH  17  18
HETATM   18  C   UNL     1      -9.156  14.595  67.806  1.00  0.00    -0.191 A  
HETATM   19  C   UNL     1      -8.726  15.804  67.237  1.00  0.00    -0.210 A  
HETATM   20  C   UNL     1      -9.186  17.030  67.721  1.00  0.00    -0.236 A  
HETATM   21  I   UNL     1      -8.486  18.776  66.814  1.00  0.00    -0.329 I  
HETATM   22  C   UNL     1     -10.075  17.060  68.796  1.00  0.00    -0.307 A  
HETATM   23  C   UNL     1     -10.510  15.854  69.363  1.00  0.00    -0.265 A  
HETATM   24  O   UNL     1     -10.529  18.257  69.292  1.00  0.00    -0.426 OA 
HETATM   25  H   UNL     1     -11.135  18.278  70.024  1.00  0.00     0.000 HD 
HETATM   26  I   UNL     1     -11.773  15.838  71.037  1.00  0.00    -0.513 I  
HETATM   27  C   UNL     1     -10.081  14.619  68.847  1.00  0.00    -0.234 A  
ENDBRANCH  17  18
ENDBRANCH  13  17
ENDBRANCH   8   9
ENDBRANCH   4   8
TORSDOF 4
ENDMDL
MODEL       58
REMARK 921   NORMALIZED FREE ENERGY PREDICTED BY IDOCK:   -5.21 KCAL/MOL
REMARK 922        TOTAL FREE ENERGY PREDICTED BY IDOCK:   -7.19 KCAL/MOL
REMARK 923 INTER-LIGAND FREE ENERGY PREDICTED BY IDOCK:   -6.65 KCAL/MOL
REMARK 924 INTRA-LIGAND FREE ENERGY PREDICTED BY IDOCK:   -0.54 KCAL/MOL
REMARK 927      BINDING AFFINITY PREDICTED BY RF-SCORE:    0.00 PKD
ROOT
HETATM    1  N   UNL     1     -11.647  16.327  63.856  1.00  0.00    -1.573 NA 
HETATM    2  H1  UNL     1     -11.369  17.032  63.173  1.00  0.00     0.000 HD 
HETATM    3  H2  UNL     1     -12.597  16.501  64.183  1.00  0.00     0.000 HD 
HETATM    4  CA  UNL     1     -10.711  16.194  65.014  1.00  0.00    -0.337 C  
HETATM    5  C   UNL     1     -10.630  17.568  65.711  1.00  0.00    -0.174 C  
HETATM    6  OXT UNL     1     -10.262  17.762  66.858  1.00  0.00    -0.320 OA 
HETATM    7  O   UNL     1     -11.014  18.568  64.873  1.00  0.00    -0.547 OA 
ENDROOT
BRANCH   4   8
HETATM    8  C   UNL     1     -11.130  15.129  66.046  1.00  0.00    -0.312 C  
BRANCH   8   9
HETATM    9  C   UNL     1     -10.132  14.025  66.340  1.00  0.00    -0.299 A  
HETATM   10  C   UNL     1     -10.209  12.770  65.735  1.00  0.00    -0.302 A  
HETATM   11  C   UNL     1      -9.260  11.782  66.034  1.00  0.00    -0.194 A  
HETATM   12  I   UNL     1      -9.513   9.905  65.096  1.00  0.00    -0.279 I  
HETATM   13  C   UNL     1      -8.204  12.009  66.946  1.00  0.00    -0.146 A  
HETATM   14  C   UNL     1      -8.116  13.278  67.533  1.00  0.00    -0.186 A  
HETATM   15  C   UNL     1      -9.060  14.274  67.209  1.00  0.00    -0.221 A  
HETATM   16  I   UNL     1      -6.726  13.837  69.011  1.00  0.00    -0.065 I  
BRANCH  13  17
HETATM   17  O   UNL     1      -7.542  10.889  67.390  1.00  0.00    -0.095 OA 
BRANCH  17  18
HETATM   18  C   UNL     1      -7.702  10.320  68.628  1.00  0.00    -0.094 A  
HETATM   19  C   UNL     1      -9.046  10.249  69.027  1.00  0.00    -0.187 A  
HETATM   20  C   UNL     1      -9.401   9.714  70.267  1.00  0.00    -0.242 A  
HETATM   21  I   UNL     1     -11.426   9.655  70.773  1.00  0.00    -0.456 I  
HETATM   22  C   UNL     1      -8.408   9.255  71.132  1.00  0.00     0.006 A  
HETATM   23  C   UNL     1      -7.066   9.320  70.735  1.00  0.00    -0.117 A  
HETATM   24  O   UNL     1      -8.739   8.735  72.360  1.00  0.00    -0.392 OA 
HETATM   25  H   UNL     1      -8.063   8.423  72.949  1.00  0.00     0.000 HD 
HETATM   26  I   UNL     1      -5.524   8.731  72.030  1.00  0.00    -0.065 I  
HETATM   27  C   UNL     1      -6.712   9.818  69.469  1.00  0.00    -0.054 A  
ENDBRANCH  17  18
ENDBRANCH  13  17
ENDBRANCH   8   9
ENDBRANCH   4   8
TORSDOF 4
ENDMDL
MODEL       59
REMARK 921   NORMALIZED FREE ENERGY PREDICTED BY IDOCK:   -5.21 KCAL/MOL
REMARK 922        TOTAL FREE ENERGY PREDICTED BY IDOCK:   -7.19 KCAL/MOL
REMARK 923 INTER-LIGAND FREE ENERGY PREDICTED BY IDOCK:   -6.55 KCAL/MOL
REMARK 924 INTRA-LIGAND FREE ENERGY PREDICTED BY IDOCK:   -0.63 KCAL/MOL
REMARK 927      BINDING AFFINITY PREDICTED BY RF-SCORE:    0.00 PKD
ROOT
HETATM    1  N   UNL     1      -8.047  19.082  67.842  1.00  0.00    -0.272 NA 
HETATM    2  H1  UNL     1      -8.380  19.759  68.529  1.00  0.00     0.000 HD 
HETATM    3  H2  UNL     1      -7.441  19.537  67.159  1.00  0.00     0.000 HD 
HETATM    4  CA  UNL     1      -9.134  18.322  67.153  1.00  0.00    -0.264 C  
HETATM    5  C   UNL     1     -10.049  19.346  66.451  1.00  0.00    -0.444 C  
HETATM    6  OXT UNL     1     -10.809  19.104  65.528  1.00  0.00    -0.438 OA 
HETATM    7  O   UNL     1      -9.918  20.582  67.002  1.00  0.00    -0.453 OA 
ENDROOT
BRANCH   4   8
HETATM    8  C   UNL     1      -8.630  17.301  66.115  1.00  0.00    -0.207 C  
BRANCH   8   9
HETATM    9  C   UNL     1      -9.138  15.878  66.247  1.00  0.00    -0.379 A  
HETATM   10  C   UNL     1     -10.244  15.413  65.533  1.00  0.00    -0.411 A  
HETATM   11  C   UNL     1     -10.675  14.087  65.683  1.00  0.00    -0.303 A  
HETATM   12  I   UNL     1     -12.392  13.516  64.591  1.00  0.00    -0.350 I  
HETATM   13  C   UNL     1     -10.022  13.180  66.549  1.00  0.00    -0.268 A  
HETATM   14  C   UNL     1      -8.898  13.644  67.245  1.00  0.00    -0.224 A  
HETATM   15  C   UNL     1      -8.456  14.971  67.070  1.00  0.00    -0.258 A  
HETATM   16  I   UNL     1      -7.825  12.546  68.685  1.00  0.00     0.177 I  
BRANCH  13  17
HETATM   17  O   UNL     1     -10.714  12.030  66.847  1.00  0.00    -0.229 OA 
BRANCH  17  18
HETATM   18  C   UNL     1     -10.267  10.756  66.596  1.00  0.00    -0.233 A  
HETATM   19  C   UNL     1      -9.448  10.679  65.458  1.00  0.00    -0.261 A  
HETATM   20  C   UNL     1      -8.914   9.460  65.038  1.00  0.00    -0.211 A  
HETATM   21  I   UNL     1      -7.710   9.445  63.332  1.00  0.00    -0.146 I  
HETATM   22  C   UNL     1      -9.207   8.296  65.748  1.00  0.00    -0.078 A  
HETATM   23  C   UNL     1     -10.020   8.370  66.887  1.00  0.00    -0.271 A  
HETATM   24  O   UNL     1      -8.698   7.086  65.342  1.00  0.00    -0.322 OA 
HETATM   25  H   UNL     1      -8.897   6.292  65.826  1.00  0.00     0.000 HD 
HETATM   26  I   UNL     1     -10.570   6.641  67.939  1.00  0.00    -0.388 I  
HETATM   27  C   UNL     1     -10.522   9.604  67.335  1.00  0.00    -0.319 A  
ENDBRANCH  17  18
ENDBRANCH  13  17
ENDBRANCH   8   9
ENDBRANCH   4   8
TORSDOF 4
ENDMDL
MODEL       60
REMARK 921   NORMALIZED FREE ENERGY PREDICTED BY IDOCK:   -5.20 KCAL/MOL
REMARK 922        TOTAL FREE ENERGY PREDICTED BY IDOCK:   -7.18 KCAL/MOL
REMARK 923 INTER-LIGAND FREE ENERGY PREDICTED BY IDOCK:   -6.72 KCAL/MOL
REMARK 924 INTRA-LIGAND FREE ENERGY PREDICTED BY IDOCK:   -0.46 KCAL/MOL
REMARK 927      BINDING AFFINITY PREDICTED BY RF-SCORE:    0.00 PKD
ROOT
HETATM    1  N   UNL     1     -10.071  14.017  64.585  1.00  0.00    -0.644 NA 
HETATM    2  H1  UNL     1     -10.571  14.889  64.755  1.00  0.00     0.000 HD 
HETATM    3  H2  UNL     1      -9.658  14.018  63.652  1.00  0.00     0.000 HD 
HETATM    4  CA  UNL     1     -10.896  12.788  64.791  1.00  0.00    -0.308 C  
HETATM    5  C   UNL     1     -12.105  12.870  63.837  1.00  0.00    -0.480 C  
HETATM    6  OXT UNL     1     -12.786  11.927  63.471  1.00  0.00    -0.691 OA 
HETATM    7  O   UNL     1     -12.340  14.152  63.451  1.00  0.00    -0.714 OA 
ENDROOT
BRANCH   4   8
HETATM    8  C   UNL     1     -10.139  11.469  64.534  1.00  0.00    -0.324 C  
BRANCH   8   9
HETATM    9  C   UNL     1      -9.730  10.662  65.751  1.00  0.00    -0.272 A  
HETATM   10  C   UNL     1      -8.791  11.129  66.673  1.00  0.00    -0.168 A  
HETATM   11  C   UNL     1      -8.448  10.350  67.787  1.00  0.00    -0.114 A  
HETATM   12  I   UNL     1      -6.976  11.139  69.082  1.00  0.00    -0.087 I  
HETATM   13  C   UNL     1      -9.024   9.080  68.020  1.00  0.00    -0.132 A  
HETATM   14  C   UNL     1      -9.984   8.626  67.105  1.00  0.00    -0.231 A  
HETATM   15  C   UNL     1     -10.342   9.426  66.001  1.00  0.00    -0.081 A  
HETATM   16  I   UNL     1     -10.898   6.730  67.146  1.00  0.00    -0.178 I  
BRANCH  13  17
HETATM   17  O   UNL     1      -8.387   8.291  68.949  1.00  0.00    -0.124 OA 
BRANCH  17  18
HETATM   18  C   UNL     1      -8.943   7.859  70.127  1.00  0.00    -0.151 A  
HETATM   19  C   UNL     1     -10.132   8.531  70.449  1.00  0.00    -0.208 A  
HETATM   20  C   UNL     1     -10.831   8.235  71.621  1.00  0.00    -0.256 A  
HETATM   21  I   UNL     1     -12.588   9.292  72.017  1.00  0.00    -0.415 I  
HETATM   22  C   UNL     1     -10.336   7.267  72.495  1.00  0.00    -0.218 A  
HETATM   23  C   UNL     1      -9.152   6.591  72.174  1.00  0.00    -0.139 A  
HETATM   24  O   UNL     1     -11.005   6.971  73.657  1.00  0.00    -0.543 OA 
HETATM   25  H   UNL     1     -10.669   6.312  74.253  1.00  0.00     0.000 HD 
HETATM   26  I   UNL     1      -8.312   5.193  73.493  1.00  0.00    -0.107 I  
HETATM   27  C   UNL     1      -8.472   6.858  70.973  1.00  0.00    -0.131 A  
ENDBRANCH  17  18
ENDBRANCH  13  17
ENDBRANCH   8   9
ENDBRANCH   4   8
TORSDOF 4
ENDMDL
MODEL       61
REMARK 921   NORMALIZED FREE ENERGY PREDICTED BY IDOCK:   -5.20 KCAL/MOL
REMARK 922        TOTAL FREE ENERGY PREDICTED BY IDOCK:   -7.17 KCAL/MOL
REMARK 923 INTER-LIGAND FREE ENERGY PREDICTED BY IDOCK:   -6.92 KCAL/MOL
REMARK 924 INTRA-LIGAND FREE ENERGY PREDICTED BY IDOCK:   -0.25 KCAL/MOL
REMARK 927      BINDING AFFINITY PREDICTED BY RF-SCORE:    0.00 PKD
ROOT
HETATM    1  N   UNL     1      -7.050   5.877  72.051  1.00  0.00    -0.085 NA 
HETATM    2  H1  UNL     1      -7.148   4.876  72.221  1.00  0.00     0.000 HD 
HETATM    3  H2  UNL     1      -6.287   6.261  72.609  1.00  0.00     0.000 HD 
HETATM    4  CA  UNL     1      -8.304   6.661  72.271  1.00  0.00    -0.107 C  
HETATM    5  C   UNL     1      -8.747   6.437  73.731  1.00  0.00    -0.124 C  
HETATM    6  OXT UNL     1      -9.497   7.161  74.364  1.00  0.00    -0.231 OA 
HETATM    7  O   UNL     1      -8.202   5.300  74.241  1.00  0.00    -0.108 OA 
ENDROOT
BRANCH   4   8
HETATM    8  C   UNL     1      -8.156   8.174  72.015  1.00  0.00    -0.178 C  
BRANCH   8   9
HETATM    9  C   UNL     1      -9.153   8.812  71.067  1.00  0.00    -0.272 A  
HETATM   10  C   UNL     1      -8.836   9.108  69.740  1.00  0.00    -0.165 A  
HETATM   11  C   UNL     1      -9.793   9.693  68.899  1.00  0.00    -0.174 A  
HETATM   12  I   UNL     1      -9.178  10.144  66.928  1.00  0.00    -0.194 I  
HETATM   13  C   UNL     1     -11.096  10.006  69.349  1.00  0.00    -0.223 A  
HETATM   14  C   UNL     1     -11.418   9.686  70.675  1.00  0.00    -0.306 A  
HETATM   15  C   UNL     1     -10.458   9.074  71.508  1.00  0.00    -0.410 A  
HETATM   16  I   UNL     1     -13.233  10.157  71.630  1.00  0.00    -0.395 I  
BRANCH  13  17
HETATM   17  O   UNL     1     -11.824  10.851  68.544  1.00  0.00    -0.464 OA 
BRANCH  17  18
HETATM   18  C   UNL     1     -11.760  12.221  68.581  1.00  0.00    -0.328 A  
HETATM   19  C   UNL     1     -11.451  12.787  67.334  1.00  0.00    -0.396 A  
HETATM   20  C   UNL     1     -11.328  14.169  67.182  1.00  0.00    -0.332 A  
HETATM   21  I   UNL     1     -10.862  14.917  65.289  1.00  0.00    -0.471 I  
HETATM   22  C   UNL     1     -11.500  15.004  68.286  1.00  0.00    -0.332 A  
HETATM   23  C   UNL     1     -11.813  14.443  69.532  1.00  0.00    -0.329 A  
HETATM   24  O   UNL     1     -11.372  16.366  68.157  1.00  0.00    -0.324 OA 
HETATM   25  H   UNL     1     -11.489  16.935  68.909  1.00  0.00     0.000 HD 
HETATM   26  I   UNL     1     -11.991  15.640  71.245  1.00  0.00    -0.607 I  
HETATM   27  C   UNL     1     -11.980  13.054  69.675  1.00  0.00    -0.367 A  
ENDBRANCH  17  18
ENDBRANCH  13  17
ENDBRANCH   8   9
ENDBRANCH   4   8
TORSDOF 4
ENDMDL
MODEL       62
REMARK 921   NORMALIZED FREE ENERGY PREDICTED BY IDOCK:   -5.20 KCAL/MOL
REMARK 922        TOTAL FREE ENERGY PREDICTED BY IDOCK:   -7.17 KCAL/MOL
REMARK 923 INTER-LIGAND FREE ENERGY PREDICTED BY IDOCK:   -6.72 KCAL/MOL
REMARK 924 INTRA-LIGAND FREE ENERGY PREDICTED BY IDOCK:   -0.44 KCAL/MOL
REMARK 927      BINDING AFFINITY PREDICTED BY RF-SCORE:    0.00 PKD
ROOT
HETATM    1  N   UNL     1     -10.805  18.717  67.020  1.00  0.00    -0.327 NA 
HETATM    2  H1  UNL     1     -11.358  19.410  67.526  1.00  0.00     0.000 HD 
HETATM    3  H2  UNL     1     -10.964  17.785  67.404  1.00  0.00     0.000 HD 
HETATM    4  CA  UNL     1      -9.342  19.019  66.970  1.00  0.00    -0.309 C  
HETATM    5  C   UNL     1      -8.832  19.110  68.423  1.00  0.00    -0.347 C  
HETATM    6  OXT UNL     1      -7.670  18.994  68.776  1.00  0.00    -0.337 OA 
HETATM    7  O   UNL     1      -9.852  19.356  69.287  1.00  0.00    -0.394 OA 
ENDROOT
BRANCH   4   8
HETATM    8  C   UNL     1      -8.507  17.972  66.206  1.00  0.00    -0.214 C  
BRANCH   8   9
HETATM    9  C   UNL     1      -8.925  16.521  66.350  1.00  0.00    -0.340 A  
HETATM   10  C   UNL     1     -10.105  16.027  65.792  1.00  0.00    -0.393 A  
HETATM   11  C   UNL     1     -10.448  14.677  65.946  1.00  0.00    -0.314 A  
HETATM   12  I   UNL     1     -12.285  14.059  65.104  1.00  0.00    -0.465 I  
HETATM   13  C   UNL     1      -9.629  13.773  66.662  1.00  0.00    -0.288 A  
HETATM   14  C   UNL     1      -8.434  14.268  67.200  1.00  0.00    -0.200 A  
HETATM   15  C   UNL     1      -8.084  15.621  67.020  1.00  0.00    -0.276 A  
HETATM   16  I   UNL     1      -7.104  13.173  68.410  1.00  0.00    -0.138 I  
BRANCH  13  17
HETATM   17  O   UNL     1     -10.214  12.578  67.010  1.00  0.00    -0.220 OA 
BRANCH  17  18
HETATM   18  C   UNL     1      -9.912  11.362  66.451  1.00  0.00    -0.214 A  
HETATM   19  C   UNL     1     -10.087  10.292  67.343  1.00  0.00    -0.246 A  
HETATM   20  C   UNL     1      -9.813   8.979  66.954  1.00  0.00    -0.224 A  
HETATM   21  I   UNL     1     -10.099   7.455  68.352  1.00  0.00    -0.224 I  
HETATM   22  C   UNL     1      -9.345   8.723  65.665  1.00  0.00    -0.150 A  
HETATM   23  C   UNL     1      -9.174   9.788  64.771  1.00  0.00    -0.261 A  
HETATM   24  O   UNL     1      -9.060   7.439  65.269  1.00  0.00    -0.363 OA 
HETATM   25  H   UNL     1      -8.741   7.265  64.391  1.00  0.00     0.000 HD 
HETATM   26  I   UNL     1      -8.386   9.476  62.852  1.00  0.00    -0.225 I  
HETATM   27  C   UNL     1      -9.491  11.105  65.148  1.00  0.00    -0.257 A  
ENDBRANCH  17  18
ENDBRANCH  13  17
ENDBRANCH   8   9
ENDBRANCH   4   8
TORSDOF 4
ENDMDL
MODEL       63
REMARK 921   NORMALIZED FREE ENERGY PREDICTED BY IDOCK:   -5.19 KCAL/MOL
REMARK 922        TOTAL FREE ENERGY PREDICTED BY IDOCK:   -7.16 KCAL/MOL
REMARK 923 INTER-LIGAND FREE ENERGY PREDICTED BY IDOCK:   -6.95 KCAL/MOL
REMARK 924 INTRA-LIGAND FREE ENERGY PREDICTED BY IDOCK:   -0.21 KCAL/MOL
REMARK 927      BINDING AFFINITY PREDICTED BY RF-SCORE:    0.00 PKD
ROOT
HETATM    1  N   UNL     1     -11.511   6.636  68.471  1.00  0.00    -0.559 NA 
HETATM    2  H1  UNL     1     -11.668   5.791  67.922  1.00  0.00     0.000 HD 
HETATM    3  H2  UNL     1     -10.666   7.114  68.157  1.00  0.00     0.000 HD 
HETATM    4  CA  UNL     1     -11.463   6.407  69.948  1.00  0.00    -0.415 C  
HETATM    5  C   UNL     1     -10.327   5.403  70.230  1.00  0.00    -0.287 C  
HETATM    6  OXT UNL     1      -9.769   5.246  71.303  1.00  0.00    -0.154 OA 
HETATM    7  O   UNL     1     -10.020   4.683  69.118  1.00  0.00    -0.189 OA 
ENDROOT
BRANCH   4   8
HETATM    8  C   UNL     1     -11.226   7.684  70.777  1.00  0.00    -0.282 C  
BRANCH   8   9
HETATM    9  C   UNL     1     -10.772   8.920  70.023  1.00  0.00    -0.241 A  
HETATM   10  C   UNL     1      -9.712   8.892  69.116  1.00  0.00    -0.168 A  
HETATM   11  C   UNL     1      -9.331  10.058  68.438  1.00  0.00    -0.138 A  
HETATM   12  I   UNL     1      -7.678   9.902  67.130  1.00  0.00    -0.089 I  
HETATM   13  C   UNL     1      -9.991  11.292  68.641  1.00  0.00    -0.204 A  
HETATM   14  C   UNL     1     -11.070  11.311  69.535  1.00  0.00    -0.238 A  
HETATM   15  C   UNL     1     -11.462  10.128  70.194  1.00  0.00    -0.368 A  
HETATM   16  I   UNL     1     -12.136  13.031  70.112  1.00  0.00    -0.075 I  
BRANCH  13  17
HETATM   17  O   UNL     1      -9.337  12.408  68.172  1.00  0.00    -0.200 OA 
BRANCH  17  18
HETATM   18  C   UNL     1      -9.856  13.301  67.268  1.00  0.00    -0.233 A  
HETATM   19  C   UNL     1     -10.499  12.674  66.189  1.00  0.00    -0.278 A  
HETATM   20  C   UNL     1     -11.074  13.423  65.161  1.00  0.00    -0.301 A  
HETATM   21  I   UNL     1     -12.005  12.401  63.596  1.00  0.00    -0.614 I  
HETATM   22  C   UNL     1     -10.998  14.816  65.194  1.00  0.00    -0.393 A  
HETATM   23  C   UNL     1     -10.361  15.445  66.272  1.00  0.00    -0.294 A  
HETATM   24  O   UNL     1     -11.550  15.568  64.186  1.00  0.00    -0.747 OA 
HETATM   25  H   UNL     1     -11.498  16.516  64.208  1.00  0.00     0.000 HD 
HETATM   26  I   UNL     1     -10.135  17.529  66.330  1.00  0.00    -0.250 I  
HETATM   27  C   UNL     1      -9.820  14.691  67.329  1.00  0.00    -0.231 A  
ENDBRANCH  17  18
ENDBRANCH  13  17
ENDBRANCH   8   9
ENDBRANCH   4   8
TORSDOF 4
ENDMDL
MODEL       64
REMARK 921   NORMALIZED FREE ENERGY PREDICTED BY IDOCK:   -5.18 KCAL/MOL
REMARK 922        TOTAL FREE ENERGY PREDICTED BY IDOCK:   -7.15 KCAL/MOL
REMARK 923 INTER-LIGAND FREE ENERGY PREDICTED BY IDOCK:   -6.75 KCAL/MOL
REMARK 924 INTRA-LIGAND FREE ENERGY PREDICTED BY IDOCK:   -0.40 KCAL/MOL
REMARK 927      BINDING AFFINITY PREDICTED BY RF-SCORE:    0.00 PKD
ROOT
HETATM    1  N   UNL     1     -10.519  18.779  66.656  1.00  0.00    -0.412 NA 
HETATM    2  H1  UNL     1     -11.049  19.514  67.125  1.00  0.00     0.000 HD 
HETATM    3  H2  UNL     1     -10.846  17.860  66.952  1.00  0.00     0.000 HD 
HETATM    4  CA  UNL     1      -9.038  18.888  66.827  1.00  0.00    -0.312 C  
HETATM    5  C   UNL     1      -8.736  18.841  68.339  1.00  0.00    -0.337 C  
HETATM    6  OXT UNL     1      -7.661  18.556  68.840  1.00  0.00    -0.295 OA 
HETATM    7  O   UNL     1      -9.832  19.179  69.070  1.00  0.00    -0.410 OA 
ENDROOT
BRANCH   4   8
HETATM    8  C   UNL     1      -8.238  17.777  66.118  1.00  0.00    -0.193 C  
BRANCH   8   9
HETATM    9  C   UNL     1      -8.767  16.361  66.243  1.00  0.00    -0.369 A  
HETATM   10  C   UNL     1      -9.941  15.946  65.612  1.00  0.00    -0.368 A  
HETATM   11  C   UNL     1     -10.388  14.625  65.752  1.00  0.00    -0.332 A  
HETATM   12  I   UNL     1     -12.206  14.130  64.793  1.00  0.00    -0.374 I  
HETATM   13  C   UNL     1      -9.685  13.673  66.526  1.00  0.00    -0.292 A  
HETATM   14  C   UNL     1      -8.495  14.088  67.139  1.00  0.00    -0.190 A  
HETATM   15  C   UNL     1      -8.038  15.411  66.973  1.00  0.00    -0.265 A  
HETATM   16  I   UNL     1      -7.329  12.915  68.441  1.00  0.00    -0.106 I  
BRANCH  13  17
HETATM   17  O   UNL     1     -10.376  12.527  66.843  1.00  0.00    -0.227 OA 
BRANCH  17  18
HETATM   18  C   UNL     1     -10.035  11.264  66.429  1.00  0.00    -0.215 A  
HETATM   19  C   UNL     1      -9.412  11.251  65.170  1.00  0.00    -0.242 A  
HETATM   20  C   UNL     1      -9.009  10.052  64.580  1.00  0.00    -0.226 A  
HETATM   21  I   UNL     1      -8.095  10.134  62.704  1.00  0.00    -0.206 I  
HETATM   22  C   UNL     1      -9.238   8.845  65.239  1.00  0.00    -0.091 A  
HETATM   23  C   UNL     1      -9.855   8.854  66.497  1.00  0.00    -0.274 A  
HETATM   24  O   UNL     1      -8.857   7.655  64.668  1.00  0.00    -0.348 OA 
HETATM   25  H   UNL     1      -9.014   6.832  65.117  1.00  0.00     0.000 HD 
HETATM   26  I   UNL     1     -10.310   7.065  67.494  1.00  0.00    -0.382 I  
HETATM   27  C   UNL     1     -10.222  10.065  67.111  1.00  0.00    -0.284 A  
ENDBRANCH  17  18
ENDBRANCH  13  17
ENDBRANCH   8   9
ENDBRANCH   4   8
TORSDOF 4
ENDMDL
MODEL       65
REMARK 921   NORMALIZED FREE ENERGY PREDICTED BY IDOCK:   -5.16 KCAL/MOL
REMARK 922        TOTAL FREE ENERGY PREDICTED BY IDOCK:   -7.12 KCAL/MOL
REMARK 923 INTER-LIGAND FREE ENERGY PREDICTED BY IDOCK:   -6.66 KCAL/MOL
REMARK 924 INTRA-LIGAND FREE ENERGY PREDICTED BY IDOCK:   -0.46 KCAL/MOL
REMARK 927      BINDING AFFINITY PREDICTED BY RF-SCORE:    0.00 PKD
ROOT
HETATM    1  N   UNL     1      -9.456  15.393  69.818  1.00  0.00    -0.414 NA 
HETATM    2  H1  UNL     1      -8.593  15.792  70.190  1.00  0.00     0.000 HD 
HETATM    3  H2  UNL     1      -9.267  14.874  68.961  1.00  0.00     0.000 HD 
HETATM    4  CA  UNL     1     -10.546  16.392  69.596  1.00  0.00    -0.307 C  
HETATM    5  C   UNL     1     -10.015  17.455  68.613  1.00  0.00    -0.340 C  
HETATM    6  OXT UNL     1     -10.701  18.205  67.939  1.00  0.00    -0.396 OA 
HETATM    7  O   UNL     1      -8.655  17.471  68.593  1.00  0.00    -0.279 OA 
ENDROOT
BRANCH   4   8
HETATM    8  C   UNL     1     -11.848  15.790  69.034  1.00  0.00    -0.367 C  
BRANCH   8   9
HETATM    9  C   UNL     1     -11.830  14.313  68.685  1.00  0.00    -0.379 A  
HETATM   10  C   UNL     1     -12.052  13.320  69.640  1.00  0.00    -0.331 A  
HETATM   11  C   UNL     1     -12.031  11.968  69.270  1.00  0.00    -0.270 A  
HETATM   12  I   UNL     1     -12.329  10.555  70.814  1.00  0.00    -0.525 I  
HETATM   13  C   UNL     1     -11.786  11.558  67.940  1.00  0.00    -0.247 A  
HETATM   14  C   UNL     1     -11.586  12.560  66.980  1.00  0.00    -0.368 A  
HETATM   15  C   UNL     1     -11.634  13.918  67.354  1.00  0.00    -0.398 A  
HETATM   16  I   UNL     1     -11.078  12.224  64.965  1.00  0.00    -0.395 I  
BRANCH  13  17
HETATM   17  O   UNL     1     -11.478  10.229  67.766  1.00  0.00    -0.351 OA 
BRANCH  17  18
HETATM   18  C   UNL     1     -10.215   9.734  67.564  1.00  0.00    -0.220 A  
HETATM   19  C   UNL     1      -9.252  10.344  68.383  1.00  0.00    -0.147 A  
HETATM   20  C   UNL     1      -7.906   9.980  68.306  1.00  0.00    -0.089 A  
HETATM   21  I   UNL     1      -6.547  10.946  69.562  1.00  0.00    -0.128 I  
HETATM   22  C   UNL     1      -7.506   9.005  67.391  1.00  0.00    -0.085 A  
HETATM   23  C   UNL     1      -8.465   8.391  66.575  1.00  0.00    -0.113 A  
HETATM   24  O   UNL     1      -6.184   8.642  67.294  1.00  0.00    -0.054 OA 
HETATM   25  H   UNL     1      -5.911   7.979  66.671  1.00  0.00     0.000 HD 
HETATM   26  I   UNL     1      -7.909   6.988  65.118  1.00  0.00    -0.117 I  
HETATM   27  C   UNL     1      -9.825   8.727  66.684  1.00  0.00    -0.335 A  
ENDBRANCH  17  18
ENDBRANCH  13  17
ENDBRANCH   8   9
ENDBRANCH   4   8
TORSDOF 4
ENDMDL
MODEL       66
REMARK 921   NORMALIZED FREE ENERGY PREDICTED BY IDOCK:   -5.16 KCAL/MOL
REMARK 922        TOTAL FREE ENERGY PREDICTED BY IDOCK:   -7.12 KCAL/MOL
REMARK 923 INTER-LIGAND FREE ENERGY PREDICTED BY IDOCK:   -6.50 KCAL/MOL
REMARK 924 INTRA-LIGAND FREE ENERGY PREDICTED BY IDOCK:   -0.62 KCAL/MOL
REMARK 927      BINDING AFFINITY PREDICTED BY RF-SCORE:    0.00 PKD
ROOT
HETATM    1  N   UNL     1     -11.407   6.609  68.511  1.00  0.00    -0.576 NA 
HETATM    2  H1  UNL     1     -11.689   5.818  67.932  1.00  0.00     0.000 HD 
HETATM    3  H2  UNL     1     -10.632   7.110  68.077  1.00  0.00     0.000 HD 
HETATM    4  CA  UNL     1     -11.070   6.246  69.922  1.00  0.00    -0.401 C  
HETATM    5  C   UNL     1      -9.923   5.216  69.880  1.00  0.00    -0.246 C  
HETATM    6  OXT UNL     1      -9.165   4.960  70.800  1.00  0.00    -0.134 OA 
HETATM    7  O   UNL     1      -9.860   4.599  68.670  1.00  0.00    -0.161 OA 
ENDROOT
BRANCH   4   8
HETATM    8  C   UNL     1     -10.644   7.441  70.797  1.00  0.00    -0.234 C  
BRANCH   8   9
HETATM    9  C   UNL     1     -10.314   8.736  70.079  1.00  0.00    -0.213 A  
HETATM   10  C   UNL     1      -9.195   8.867  69.254  1.00  0.00    -0.145 A  
HETATM   11  C   UNL     1      -8.933  10.082  68.606  1.00  0.00    -0.136 A  
HETATM   12  I   UNL     1      -7.182  10.173  67.427  1.00  0.00    -0.090 I  
HETATM   13  C   UNL     1      -9.773  11.209  68.759  1.00  0.00    -0.185 A  
HETATM   14  C   UNL     1     -10.908  11.066  69.569  1.00  0.00    -0.216 A  
HETATM   15  C   UNL     1     -11.178   9.834  70.197  1.00  0.00    -0.324 A  
HETATM   16  I   UNL     1     -12.246  12.614  70.063  1.00  0.00     0.029 I  
BRANCH  13  17
HETATM   17  O   UNL     1      -9.250  12.410  68.340  1.00  0.00    -0.197 OA 
BRANCH  17  18
HETATM   18  C   UNL     1      -9.721  13.146  67.282  1.00  0.00    -0.230 A  
HETATM   19  C   UNL     1      -9.376  14.505  67.366  1.00  0.00    -0.197 A  
HETATM   20  C   UNL     1      -9.781  15.412  66.386  1.00  0.00    -0.288 A  
HETATM   21  I   UNL     1      -9.224  17.413  66.599  1.00  0.00    -0.271 I  
HETATM   22  C   UNL     1     -10.554  14.969  65.311  1.00  0.00    -0.397 A  
HETATM   23  C   UNL     1     -10.896  13.613  65.222  1.00  0.00    -0.322 A  
HETATM   24  O   UNL     1     -10.971  15.850  64.343  1.00  0.00    -0.849 OA 
HETATM   25  H   UNL     1     -11.497  15.549  63.612  1.00  0.00     0.000 HD 
HETATM   26  I   UNL     1     -12.131  12.907  63.681  1.00  0.00    -0.438 I  
HETATM   27  C   UNL     1     -10.450  12.693  66.186  1.00  0.00    -0.278 A  
ENDBRANCH  17  18
ENDBRANCH  13  17
ENDBRANCH   8   9
ENDBRANCH   4   8
TORSDOF 4
ENDMDL
MODEL       67
REMARK 921   NORMALIZED FREE ENERGY PREDICTED BY IDOCK:   -5.14 KCAL/MOL
REMARK 922        TOTAL FREE ENERGY PREDICTED BY IDOCK:   -7.10 KCAL/MOL
REMARK 923 INTER-LIGAND FREE ENERGY PREDICTED BY IDOCK:   -6.66 KCAL/MOL
REMARK 924 INTRA-LIGAND FREE ENERGY PREDICTED BY IDOCK:   -0.43 KCAL/MOL
REMARK 927      BINDING AFFINITY PREDICTED BY RF-SCORE:    0.00 PKD
ROOT
HETATM    1  N   UNL     1      -9.710  15.493  70.149  1.00  0.00    -0.297 NA 
HETATM    2  H1  UNL     1      -8.904  15.971  70.551  1.00  0.00     0.000 HD 
HETATM    3  H2  UNL     1      -9.412  14.832  69.432  1.00  0.00     0.000 HD 
HETATM    4  CA  UNL     1     -10.761  16.411  69.612  1.00  0.00    -0.337 C  
HETATM    5  C   UNL     1     -10.104  17.291  68.528  1.00  0.00    -0.341 C  
HETATM    6  OXT UNL     1     -10.695  17.892  67.647  1.00  0.00    -0.399 OA 
HETATM    7  O   UNL     1      -8.753  17.333  68.681  1.00  0.00    -0.272 OA 
ENDROOT
BRANCH   4   8
HETATM    8  C   UNL     1     -11.979  15.688  69.004  1.00  0.00    -0.323 C  
BRANCH   8   9
HETATM    9  C   UNL     1     -11.784  14.244  68.585  1.00  0.00    -0.380 A  
HETATM   10  C   UNL     1     -11.412  13.887  67.288  1.00  0.00    -0.369 A  
HETATM   11  C   UNL     1     -11.238  12.538  66.948  1.00  0.00    -0.303 A  
HETATM   12  I   UNL     1     -10.727  12.121  64.941  1.00  0.00    -0.393 I  
HETATM   13  C   UNL     1     -11.430  11.498  67.886  1.00  0.00    -0.301 A  
HETATM   14  C   UNL     1     -11.781  11.862  69.194  1.00  0.00    -0.319 A  
HETATM   15  C   UNL     1     -11.930  13.221  69.534  1.00  0.00    -0.366 A  
HETATM   16  I   UNL     1     -12.248  10.515  70.742  1.00  0.00    -0.519 I  
BRANCH  13  17
HETATM   17  O   UNL     1     -11.541  10.231  67.365  1.00  0.00    -0.198 OA 
BRANCH  17  18
HETATM   18  C   UNL     1     -10.545   9.287  67.373  1.00  0.00    -0.255 A  
HETATM   19  C   UNL     1      -9.303   9.808  67.769  1.00  0.00    -0.148 A  
HETATM   20  C   UNL     1      -8.167   8.998  67.822  1.00  0.00    -0.109 A  
HETATM   21  I   UNL     1      -6.363   9.864  68.418  1.00  0.00    -0.049 I  
HETATM   22  C   UNL     1      -8.260   7.653  67.464  1.00  0.00    -0.121 A  
HETATM   23  C   UNL     1      -9.499   7.128  67.074  1.00  0.00    -0.155 A  
HETATM   24  O   UNL     1      -7.150   6.844  67.501  1.00  0.00    -0.079 OA 
HETATM   25  H   UNL     1      -7.213   5.928  67.257  1.00  0.00     0.000 HD 
HETATM   26  I   UNL     1      -9.681   5.138  66.436  1.00  0.00    -0.250 I  
HETATM   27  C   UNL     1     -10.651   7.934  67.062  1.00  0.00    -0.381 A  
ENDBRANCH  17  18
ENDBRANCH  13  17
ENDBRANCH   8   9
ENDBRANCH   4   8
TORSDOF 4
ENDMDL
MODEL       68
REMARK 921   NORMALIZED FREE ENERGY PREDICTED BY IDOCK:   -5.14 KCAL/MOL
REMARK 922        TOTAL FREE ENERGY PREDICTED BY IDOCK:   -7.09 KCAL/MOL
REMARK 923 INTER-LIGAND FREE ENERGY PREDICTED BY IDOCK:   -6.70 KCAL/MOL
REMARK 924 INTRA-LIGAND FREE ENERGY PREDICTED BY IDOCK:   -0.40 KCAL/MOL
REMARK 927      BINDING AFFINITY PREDICTED BY RF-SCORE:    0.00 PKD
ROOT
HETATM    1  N   UNL     1     -11.856  16.323  63.812  1.00  0.00    -1.413 NA 
HETATM    2  H1  UNL     1     -11.458  17.118  63.311  1.00  0.00     0.000 HD 
HETATM    3  H2  UNL     1     -12.733  16.588  64.262  1.00  0.00     0.000 HD 
HETATM    4  CA  UNL     1     -10.929  15.696  64.803  1.00  0.00    -0.400 C  
HETATM    5  C   UNL     1     -10.525  16.783  65.820  1.00  0.00    -0.292 C  
HETATM    6  OXT UNL     1     -10.080  16.580  66.937  1.00  0.00    -0.265 OA 
HETATM    7  O   UNL     1     -10.713  18.029  65.308  1.00  0.00    -0.625 OA 
ENDROOT
BRANCH   4   8
HETATM    8  C   UNL     1     -11.530  14.496  65.560  1.00  0.00    -0.343 C  
BRANCH   8   9
HETATM    9  C   UNL     1     -10.676  13.246  65.658  1.00  0.00    -0.292 A  
HETATM   10  C   UNL     1     -10.171  12.783  66.874  1.00  0.00    -0.241 A  
HETATM   11  C   UNL     1      -9.391  11.620  66.917  1.00  0.00    -0.188 A  
HETATM   12  I   UNL     1      -8.638  11.048  68.808  1.00  0.00    -0.011 I  
HETATM   13  C   UNL     1      -9.084  10.879  65.753  1.00  0.00    -0.196 A  
HETATM   14  C   UNL     1      -9.613  11.334  64.537  1.00  0.00    -0.227 A  
HETATM   15  C   UNL     1     -10.418  12.491  64.505  1.00  0.00    -0.366 A  
HETATM   16  I   UNL     1      -9.210  10.496  62.649  1.00  0.00    -0.332 I  
BRANCH  13  17
HETATM   17  O   UNL     1      -8.069   9.959  65.874  1.00  0.00    -0.115 OA 
BRANCH  17  18
HETATM   18  C   UNL     1      -8.230   8.598  65.813  1.00  0.00    -0.126 A  
HETATM   19  C   UNL     1      -9.077   8.103  66.818  1.00  0.00    -0.191 A  
HETATM   20  C   UNL     1      -9.346   6.737  66.924  1.00  0.00    -0.150 A  
HETATM   21  I   UNL     1     -10.614   6.095  68.454  1.00  0.00    -0.384 I  
HETATM   22  C   UNL     1      -8.755   5.845  66.028  1.00  0.00    -0.148 A  
HETATM   23  C   UNL     1      -7.913   6.336  65.022  1.00  0.00    -0.120 A  
HETATM   24  O   UNL     1      -9.001   4.497  66.125  1.00  0.00    -0.116 OA 
HETATM   25  H   UNL     1      -8.598   3.889  65.515  1.00  0.00     0.000 HD 
HETATM   26  I   UNL     1      -6.925   5.035  63.706  1.00  0.00    -0.051 I  
HETATM   27  C   UNL     1      -7.678   7.715  64.889  1.00  0.00    -0.107 A  
ENDBRANCH  17  18
ENDBRANCH  13  17
ENDBRANCH   8   9
ENDBRANCH   4   8
TORSDOF 4
ENDMDL
MODEL       69
REMARK 921   NORMALIZED FREE ENERGY PREDICTED BY IDOCK:   -5.14 KCAL/MOL
REMARK 922        TOTAL FREE ENERGY PREDICTED BY IDOCK:   -7.09 KCAL/MOL
REMARK 923 INTER-LIGAND FREE ENERGY PREDICTED BY IDOCK:   -6.35 KCAL/MOL
REMARK 924 INTRA-LIGAND FREE ENERGY PREDICTED BY IDOCK:   -0.75 KCAL/MOL
REMARK 927      BINDING AFFINITY PREDICTED BY RF-SCORE:    0.00 PKD
ROOT
HETATM    1  N   UNL     1     -12.622  12.552  65.269  1.00  0.00    -0.637 NA 
HETATM    2  H1  UNL     1     -12.344  12.550  64.287  1.00  0.00     0.000 HD 
HETATM    3  H2  UNL     1     -13.283  13.308  65.449  1.00  0.00     0.000 HD 
HETATM    4  CA  UNL     1     -11.479  12.615  66.230  1.00  0.00    -0.364 C  
HETATM    5  C   UNL     1     -10.683  13.901  65.927  1.00  0.00    -0.286 C  
HETATM    6  OXT UNL     1      -9.920  14.461  66.697  1.00  0.00    -0.257 OA 
HETATM    7  O   UNL     1     -10.924  14.343  64.664  1.00  0.00    -0.390 OA 
ENDROOT
BRANCH   4   8
HETATM    8  C   UNL     1     -11.901  12.620  67.712  1.00  0.00    -0.381 C  
BRANCH   8   9
HETATM    9  C   UNL     1     -11.233  11.605  68.621  1.00  0.00    -0.308 A  
HETATM   10  C   UNL     1      -9.863  11.341  68.563  1.00  0.00    -0.198 A  
HETATM   11  C   UNL     1      -9.288  10.399  69.427  1.00  0.00    -0.167 A  
HETATM   12  I   UNL     1      -7.216  10.047  69.208  1.00  0.00    -0.119 I  
HETATM   13  C   UNL     1     -10.057   9.685  70.376  1.00  0.00    -0.276 A  
HETATM   14  C   UNL     1     -11.427   9.970  70.447  1.00  0.00    -0.314 A  
HETATM   15  C   UNL     1     -11.993  10.938  69.592  1.00  0.00    -0.414 A  
HETATM   16  I   UNL     1     -12.812   8.968  71.674  1.00  0.00    -0.473 I  
BRANCH  13  17
HETATM   17  O   UNL     1      -9.452   8.583  70.933  1.00  0.00    -0.160 OA 
BRANCH  17  18
HETATM   18  C   UNL     1      -9.539   7.305  70.439  1.00  0.00    -0.165 A  
HETATM   19  C   UNL     1      -9.522   6.328  71.447  1.00  0.00    -0.167 A  
HETATM   20  C   UNL     1      -9.587   4.969  71.133  1.00  0.00    -0.166 A  
HETATM   21  I   UNL     1      -9.551   3.590  72.701  1.00  0.00    -0.224 I  
HETATM   22  C   UNL     1      -9.654   4.571  69.798  1.00  0.00    -0.199 A  
HETATM   23  C   UNL     1      -9.676   5.543  68.790  1.00  0.00    -0.143 A  
HETATM   24  O   UNL     1      -9.707   3.238  69.471  1.00  0.00    -0.116 OA 
HETATM   25  H   UNL     1      -9.753   2.966  68.561  1.00  0.00     0.000 HD 
HETATM   26  I   UNL     1      -9.683   5.002  66.763  1.00  0.00    -0.278 I  
HETATM   27  C   UNL     1      -9.656   6.912  69.108  1.00  0.00    -0.144 A  
ENDBRANCH  17  18
ENDBRANCH  13  17
ENDBRANCH   8   9
ENDBRANCH   4   8
TORSDOF 4
ENDMDL
MODEL       70
REMARK 921   NORMALIZED FREE ENERGY PREDICTED BY IDOCK:   -5.09 KCAL/MOL
REMARK 922        TOTAL FREE ENERGY PREDICTED BY IDOCK:   -7.04 KCAL/MOL
REMARK 923 INTER-LIGAND FREE ENERGY PREDICTED BY IDOCK:   -6.51 KCAL/MOL
REMARK 924 INTRA-LIGAND FREE ENERGY PREDICTED BY IDOCK:   -0.53 KCAL/MOL
REMARK 927      BINDING AFFINITY PREDICTED BY RF-SCORE:    0.00 PKD
ROOT
HETATM    1  N   UNL     1     -11.087  14.405  70.160  1.00  0.00    -0.468 NA 
HETATM    2  H1  UNL     1     -11.071  15.311  70.628  1.00  0.00     0.000 HD 
HETATM    3  H2  UNL     1     -10.141  14.035  70.065  1.00  0.00     0.000 HD 
HETATM    4  CA  UNL     1     -11.782  14.411  68.836  1.00  0.00    -0.322 C  
HETATM    5  C   UNL     1     -11.061  15.433  67.933  1.00  0.00    -0.323 C  
HETATM    6  OXT UNL     1     -11.109  15.463  66.715  1.00  0.00    -0.312 OA 
HETATM    7  O   UNL     1     -10.356  16.331  68.673  1.00  0.00    -0.238 OA 
ENDROOT
BRANCH   4   8
HETATM    8  C   UNL     1     -11.807  13.042  68.129  1.00  0.00    -0.381 C  
BRANCH   8   9
HETATM    9  C   UNL     1     -11.389  11.836  68.949  1.00  0.00    -0.326 A  
HETATM   10  C   UNL     1     -12.255  11.210  69.848  1.00  0.00    -0.385 A  
HETATM   11  C   UNL     1     -11.826  10.095  70.581  1.00  0.00    -0.342 A  
HETATM   12  I   UNL     1     -13.208   9.266  71.947  1.00  0.00    -0.590 I  
HETATM   13  C   UNL     1     -10.521   9.566  70.447  1.00  0.00    -0.278 A  
HETATM   14  C   UNL     1      -9.663  10.183  69.527  1.00  0.00    -0.229 A  
HETATM   15  C   UNL     1     -10.110  11.289  68.775  1.00  0.00    -0.204 A  
HETATM   16  I   UNL     1      -7.642   9.679  69.227  1.00  0.00    -0.126 I  
BRANCH  13  17
HETATM   17  O   UNL     1     -10.123   8.690  71.430  1.00  0.00    -0.209 OA 
BRANCH  17  18
HETATM   18  C   UNL     1     -10.015   7.331  71.275  1.00  0.00    -0.188 A  
HETATM   19  C   UNL     1     -10.127   6.633  72.488  1.00  0.00    -0.189 A  
HETATM   20  C   UNL     1     -10.026   5.241  72.528  1.00  0.00    -0.170 A  
HETATM   21  I   UNL     1     -10.202   4.292  74.380  1.00  0.00    -0.296 I  
HETATM   22  C   UNL     1      -9.796   4.530  71.351  1.00  0.00    -0.194 A  
HETATM   23  C   UNL     1      -9.688   5.223  70.138  1.00  0.00    -0.196 A  
HETATM   24  O   UNL     1      -9.684   3.161  71.374  1.00  0.00    -0.151 OA 
HETATM   25  H   UNL     1      -9.527   2.676  70.572  1.00  0.00     0.000 HD 
HETATM   26  I   UNL     1      -9.250   4.217  68.350  1.00  0.00    -0.211 I  
HETATM   27  C   UNL     1      -9.834   6.621  70.091  1.00  0.00    -0.180 A  
ENDBRANCH  17  18
ENDBRANCH  13  17
ENDBRANCH   8   9
ENDBRANCH   4   8
TORSDOF 4
ENDMDL
MODEL       71
REMARK 921   NORMALIZED FREE ENERGY PREDICTED BY IDOCK:   -5.07 KCAL/MOL
REMARK 922        TOTAL FREE ENERGY PREDICTED BY IDOCK:   -7.01 KCAL/MOL
REMARK 923 INTER-LIGAND FREE ENERGY PREDICTED BY IDOCK:   -6.70 KCAL/MOL
REMARK 924 INTRA-LIGAND FREE ENERGY PREDICTED BY IDOCK:   -0.32 KCAL/MOL
REMARK 927      BINDING AFFINITY PREDICTED BY RF-SCORE:    0.00 PKD
ROOT
HETATM    1  N   UNL     1      -8.671   4.220  70.516  1.00  0.00    -0.077 NA 
HETATM    2  H1  UNL     1      -9.047   3.289  70.337  1.00  0.00     0.000 HD 
HETATM    3  H2  UNL     1      -7.875   4.168  71.151  1.00  0.00     0.000 HD 
HETATM    4  CA  UNL     1      -9.679   5.201  71.020  1.00  0.00    -0.183 C  
HETATM    5  C   UNL     1     -10.270   4.636  72.328  1.00  0.00    -0.193 C  
HETATM    6  OXT UNL     1     -10.840   5.285  73.189  1.00  0.00    -0.238 OA 
HETATM    7  O   UNL     1     -10.089   3.290  72.407  1.00  0.00    -0.155 OA 
ENDROOT
BRANCH   4   8
HETATM    8  C   UNL     1      -9.111   6.608  71.290  1.00  0.00    -0.151 C  
BRANCH   8   9
HETATM    9  C   UNL     1      -9.844   7.778  70.662  1.00  0.00    -0.182 A  
HETATM   10  C   UNL     1     -10.888   8.439  71.311  1.00  0.00    -0.293 A  
HETATM   11  C   UNL     1     -11.532   9.520  70.693  1.00  0.00    -0.297 A  
HETATM   12  I   UNL     1     -13.133  10.405  71.751  1.00  0.00    -0.306 I  
HETATM   13  C   UNL     1     -11.161   9.979  69.408  1.00  0.00    -0.188 A  
HETATM   14  C   UNL     1     -10.097   9.328  68.770  1.00  0.00    -0.195 A  
HETATM   15  C   UNL     1      -9.437   8.258  69.408  1.00  0.00    -0.159 A  
HETATM   16  I   UNL     1      -9.431   9.725  66.813  1.00  0.00    -0.252 I  
BRANCH  13  17
HETATM   17  O   UNL     1     -12.056  10.818  68.787  1.00  0.00    -0.451 OA 
BRANCH  17  18
HETATM   18  C   UNL     1     -11.810  12.129  68.463  1.00  0.00    -0.310 A  
HETATM   19  C   UNL     1     -11.794  12.975  69.584  1.00  0.00    -0.385 A  
HETATM   20  C   UNL     1     -11.574  14.346  69.447  1.00  0.00    -0.304 A  
HETATM   21  I   UNL     1     -11.573  15.524  71.172  1.00  0.00    -0.564 I  
HETATM   22  C   UNL     1     -11.381  14.892  68.178  1.00  0.00    -0.312 A  
HETATM   23  C   UNL     1     -11.392  14.050  67.058  1.00  0.00    -0.330 A  
HETATM   24  O   UNL     1     -11.174  16.241  68.024  1.00  0.00    -0.334 OA 
HETATM   25  H   UNL     1     -11.042  16.613  67.159  1.00  0.00     0.000 HD 
HETATM   26  I   UNL     1     -11.199  14.826  65.118  1.00  0.00    -0.404 I  
HETATM   27  C   UNL     1     -11.570  12.663  67.200  1.00  0.00    -0.434 A  
ENDBRANCH  17  18
ENDBRANCH  13  17
ENDBRANCH   8   9
ENDBRANCH   4   8
TORSDOF 4
ENDMDL
MODEL       72
REMARK 921   NORMALIZED FREE ENERGY PREDICTED BY IDOCK:   -5.04 KCAL/MOL
REMARK 922        TOTAL FREE ENERGY PREDICTED BY IDOCK:   -6.97 KCAL/MOL
REMARK 923 INTER-LIGAND FREE ENERGY PREDICTED BY IDOCK:   -7.38 KCAL/MOL
REMARK 924 INTRA-LIGAND FREE ENERGY PREDICTED BY IDOCK:    0.41 KCAL/MOL
REMARK 927      BINDING AFFINITY PREDICTED BY RF-SCORE:    0.00 PKD
ROOT
HETATM    1  N   UNL     1     -12.262   6.860  70.134  1.00  0.00    -0.623 NA 
HETATM    2  H1  UNL     1     -12.303   5.851  69.988  1.00  0.00     0.000 HD 
HETATM    3  H2  UNL     1     -11.392   7.239  69.760  1.00  0.00     0.000 HD 
HETATM    4  CA  UNL     1     -12.447   7.281  71.557  1.00  0.00    -0.373 C  
HETATM    5  C   UNL     1     -11.342   6.605  72.393  1.00  0.00    -0.272 C  
HETATM    6  OXT UNL     1     -10.960   6.969  73.492  1.00  0.00    -0.302 OA 
HETATM    7  O   UNL     1     -10.838   5.516  71.753  1.00  0.00    -0.242 OA 
ENDROOT
BRANCH   4   8
HETATM    8  C   UNL     1     -12.384   8.806  71.777  1.00  0.00    -0.412 C  
BRANCH   8   9
HETATM    9  C   UNL     1     -11.505   9.602  70.831  1.00  0.00    -0.427 A  
HETATM   10  C   UNL     1     -11.893  10.841  70.318  1.00  0.00    -0.438 A  
HETATM   11  C   UNL     1     -11.045  11.544  69.452  1.00  0.00    -0.226 A  
HETATM   12  I   UNL     1     -11.765  13.382  68.699  1.00  0.00    -0.359 I  
HETATM   13  C   UNL     1      -9.783  11.037  69.064  1.00  0.00    -0.134 A  
HETATM   14  C   UNL     1      -9.387   9.804  69.600  1.00  0.00    -0.219 A  
HETATM   15  C   UNL     1     -10.235   9.115  70.491  1.00  0.00    -0.288 A  
HETATM   16  I   UNL     1      -7.625   8.771  69.092  1.00  0.00    -0.092 I  
BRANCH  13  17
HETATM   17  O   UNL     1      -9.194  11.651  67.984  1.00  0.00    -0.165 OA 
BRANCH  17  18
HETATM   18  C   UNL     1      -9.305  11.230  66.683  1.00  0.00    -0.180 A  
HETATM   19  C   UNL     1     -10.356  11.856  65.994  1.00  0.00    -0.268 A  
HETATM   20  C   UNL     1     -10.631  11.542  64.662  1.00  0.00    -0.311 A  
HETATM   21  I   UNL     1     -12.217  12.523  63.723  1.00  0.00    -0.584 I  
HETATM   22  C   UNL     1      -9.862  10.580  64.005  1.00  0.00    -0.324 A  
HETATM   23  C   UNL     1      -8.810   9.957  64.689  1.00  0.00    -0.204 A  
HETATM   24  O   UNL     1     -10.126  10.251  62.698  1.00  0.00    -0.646 OA 
HETATM   25  H   UNL     1      -9.603   9.596  62.251  1.00  0.00     0.000 HD 
HETATM   26  I   UNL     1      -7.680   8.439  63.783  1.00  0.00    -0.148 I  
HETATM   27  C   UNL     1      -8.505  10.305  66.016  1.00  0.00    -0.144 A  
ENDBRANCH  17  18
ENDBRANCH  13  17
ENDBRANCH   8   9
ENDBRANCH   4   8
TORSDOF 4
ENDMDL
MODEL       73
REMARK 921   NORMALIZED FREE ENERGY PREDICTED BY IDOCK:   -5.00 KCAL/MOL
REMARK 922        TOTAL FREE ENERGY PREDICTED BY IDOCK:   -6.93 KCAL/MOL
REMARK 923 INTER-LIGAND FREE ENERGY PREDICTED BY IDOCK:   -6.29 KCAL/MOL
REMARK 924 INTRA-LIGAND FREE ENERGY PREDICTED BY IDOCK:   -0.64 KCAL/MOL
REMARK 927      BINDING AFFINITY PREDICTED BY RF-SCORE:    0.00 PKD
ROOT
HETATM    1  N   UNL     1     -12.408  13.886  63.021  1.00  0.00    -1.023 NA 
HETATM    2  H1  UNL     1     -12.050  14.515  62.301  1.00  0.00     0.000 HD 
HETATM    3  H2  UNL     1     -13.282  14.244  63.404  1.00  0.00     0.000 HD 
HETATM    4  CA  UNL     1     -11.435  13.596  64.117  1.00  0.00    -0.329 C  
HETATM    5  C   UNL     1     -11.047  14.939  64.768  1.00  0.00    -0.383 C  
HETATM    6  OXT UNL     1     -10.568  15.078  65.881  1.00  0.00    -0.299 OA 
HETATM    7  O   UNL     1     -11.291  15.981  63.928  1.00  0.00    -0.556 OA 
ENDROOT
BRANCH   4   8
HETATM    8  C   UNL     1     -11.975  12.646  65.205  1.00  0.00    -0.487 C  
BRANCH   8   9
HETATM    9  C   UNL     1     -10.953  11.843  65.986  1.00  0.00    -0.355 A  
HETATM   10  C   UNL     1      -9.749  11.417  65.421  1.00  0.00    -0.265 A  
HETATM   11  C   UNL     1      -8.832  10.680  66.184  1.00  0.00    -0.168 A  
HETATM   12  I   UNL     1      -7.072  10.046  65.202  1.00  0.00    -0.103 I  
HETATM   13  C   UNL     1      -9.081  10.341  67.533  1.00  0.00    -0.137 A  
HETATM   14  C   UNL     1     -10.280  10.791  68.104  1.00  0.00    -0.172 A  
HETATM   15  C   UNL     1     -11.186  11.552  67.338  1.00  0.00    -0.367 A  
HETATM   16  I   UNL     1     -10.951  10.321  70.043  1.00  0.00    -0.343 I  
BRANCH  13  17
HETATM   17  O   UNL     1      -8.272   9.366  68.068  1.00  0.00    -0.113 OA 
BRANCH  17  18
HETATM   18  C   UNL     1      -8.585   8.031  68.130  1.00  0.00    -0.126 A  
HETATM   19  C   UNL     1      -8.336   7.470  69.392  1.00  0.00    -0.132 A  
HETATM   20  C   UNL     1      -8.579   6.118  69.639  1.00  0.00    -0.128 A  
HETATM   21  I   UNL     1      -8.172   5.373  71.547  1.00  0.00    -0.120 I  
HETATM   22  C   UNL     1      -9.064   5.305  68.615  1.00  0.00    -0.109 A  
HETATM   23  C   UNL     1      -9.319   5.863  67.355  1.00  0.00    -0.111 A  
HETATM   24  O   UNL     1      -9.299   3.970  68.838  1.00  0.00    -0.140 OA 
HETATM   25  H   UNL     1      -9.630   3.415  68.140  1.00  0.00     0.000 HD 
HETATM   26  I   UNL     1      -9.961   4.671  65.753  1.00  0.00    -0.184 I  
HETATM   27  C   UNL     1      -9.115   7.233  67.120  1.00  0.00    -0.144 A  
ENDBRANCH  17  18
ENDBRANCH  13  17
ENDBRANCH   8   9
ENDBRANCH   4   8
TORSDOF 4
ENDMDL
MODEL       74
REMARK 921   NORMALIZED FREE ENERGY PREDICTED BY IDOCK:   -5.00 KCAL/MOL
REMARK 922        TOTAL FREE ENERGY PREDICTED BY IDOCK:   -6.93 KCAL/MOL
REMARK 923 INTER-LIGAND FREE ENERGY PREDICTED BY IDOCK:   -6.48 KCAL/MOL
REMARK 924 INTRA-LIGAND FREE ENERGY PREDICTED BY IDOCK:   -0.44 KCAL/MOL
REMARK 927      BINDING AFFINITY PREDICTED BY RF-SCORE:    0.00 PKD
ROOT
HETATM    1  N   UNL     1      -7.703  17.881  65.824  1.00  0.00    -0.551 NA 
HETATM    2  H1  UNL     1      -6.951  18.360  66.320  1.00  0.00     0.000 HD 
HETATM    3  H2  UNL     1      -7.713  18.155  64.842  1.00  0.00     0.000 HD 
HETATM    4  CA  UNL     1      -9.055  18.069  66.434  1.00  0.00    -0.235 C  
HETATM    5  C   UNL     1      -9.351  19.582  66.460  1.00  0.00    -0.370 C  
HETATM    6  OXT UNL     1     -10.457  20.088  66.552  1.00  0.00    -0.449 OA 
HETATM    7  O   UNL     1      -8.204  20.309  66.381  1.00  0.00    -0.266 OA 
ENDROOT
BRANCH   4   8
HETATM    8  C   UNL     1     -10.191  17.346  65.684  1.00  0.00    -0.117 C  
BRANCH   8   9
HETATM    9  C   UNL     1     -10.424  15.887  66.029  1.00  0.00    -0.357 A  
HETATM   10  C   UNL     1     -10.303  14.868  65.083  1.00  0.00    -0.431 A  
HETATM   11  C   UNL     1     -10.523  13.534  65.450  1.00  0.00    -0.315 A  
HETATM   12  I   UNL     1     -10.364  12.087  63.918  1.00  0.00    -0.505 I  
HETATM   13  C   UNL     1     -10.873  13.167  66.770  1.00  0.00    -0.276 A  
HETATM   14  C   UNL     1     -10.970  14.190  67.723  1.00  0.00    -0.262 A  
HETATM   15  C   UNL     1     -10.723  15.528  67.352  1.00  0.00    -0.301 A  
HETATM   16  I   UNL     1     -11.595  13.936  69.716  1.00  0.00    -0.224 I  
BRANCH  13  17
HETATM   17  O   UNL     1     -11.365  11.893  66.930  1.00  0.00    -0.306 OA 
BRANCH  17  18
HETATM   18  C   UNL     1     -10.643  10.824  67.398  1.00  0.00    -0.242 A  
HETATM   19  C   UNL     1      -9.496  11.210  68.109  1.00  0.00    -0.180 A  
HETATM   20  C   UNL     1      -8.629  10.257  68.647  1.00  0.00    -0.128 A  
HETATM   21  I   UNL     1      -6.945  10.927  69.684  1.00  0.00     0.028 I  
HETATM   22  C   UNL     1      -8.895   8.899  68.466  1.00  0.00    -0.134 A  
HETATM   23  C   UNL     1     -10.042   8.511  67.761  1.00  0.00    -0.211 A  
HETATM   24  O   UNL     1      -8.048   7.948  68.980  1.00  0.00    -0.120 OA 
HETATM   25  H   UNL     1      -8.229   7.024  68.856  1.00  0.00     0.000 HD 
HETATM   26  I   UNL     1     -10.445   6.489  67.378  1.00  0.00    -0.470 I  
HETATM   27  C   UNL     1     -10.938   9.470  67.257  1.00  0.00    -0.062 A  
ENDBRANCH  17  18
ENDBRANCH  13  17
ENDBRANCH   8   9
ENDBRANCH   4   8
TORSDOF 4
ENDMDL
MODEL       75
REMARK 921   NORMALIZED FREE ENERGY PREDICTED BY IDOCK:   -4.97 KCAL/MOL
REMARK 922        TOTAL FREE ENERGY PREDICTED BY IDOCK:   -6.89 KCAL/MOL
REMARK 923 INTER-LIGAND FREE ENERGY PREDICTED BY IDOCK:   -6.52 KCAL/MOL
REMARK 924 INTRA-LIGAND FREE ENERGY PREDICTED BY IDOCK:   -0.37 KCAL/MOL
REMARK 927      BINDING AFFINITY PREDICTED BY RF-SCORE:    0.00 PKD
ROOT
HETATM    1  N   UNL     1     -10.036  17.808  68.936  1.00  0.00    -0.367 NA 
HETATM    2  H1  UNL     1     -10.819  18.274  69.396  1.00  0.00     0.000 HD 
HETATM    3  H2  UNL     1      -9.165  18.304  69.125  1.00  0.00     0.000 HD 
HETATM    4  CA  UNL     1     -10.219  17.613  67.465  1.00  0.00    -0.348 C  
HETATM    5  C   UNL     1     -10.424  19.004  66.830  1.00  0.00    -0.431 C  
HETATM    6  OXT UNL     1     -10.258  19.278  65.653  1.00  0.00    -0.473 OA 
HETATM    7  O   UNL     1     -10.838  19.911  67.755  1.00  0.00    -0.318 OA 
ENDROOT
BRANCH   4   8
HETATM    8  C   UNL     1      -9.037  16.910  66.770  1.00  0.00    -0.266 C  
BRANCH   8   9
HETATM    9  C   UNL     1      -9.036  15.394  66.778  1.00  0.00    -0.286 A  
HETATM   10  C   UNL     1     -10.003  14.644  66.105  1.00  0.00    -0.323 A  
HETATM   11  C   UNL     1      -9.958  13.243  66.137  1.00  0.00    -0.293 A  
HETATM   12  I   UNL     1     -11.506  12.220  65.126  1.00  0.00    -0.341 I  
HETATM   13  C   UNL     1      -8.953  12.541  66.840  1.00  0.00    -0.212 A  
HETATM   14  C   UNL     1      -7.971  13.297  67.495  1.00  0.00    -0.184 A  
HETATM   15  C   UNL     1      -8.008  14.705  67.438  1.00  0.00    -0.223 A  
HETATM   16  I   UNL     1      -6.446  12.509  68.712  1.00  0.00    -0.101 I  
BRANCH  13  17
HETATM   17  O   UNL     1      -9.194  11.205  67.060  1.00  0.00    -0.160 OA 
BRANCH  17  18
HETATM   18  C   UNL     1      -9.543  10.657  68.269  1.00  0.00    -0.162 A  
HETATM   19  C   UNL     1      -8.580   9.760  68.760  1.00  0.00    -0.127 A  
HETATM   20  C   UNL     1      -8.770   9.093  69.971  1.00  0.00    -0.177 A  
HETATM   21  I   UNL     1      -7.284   7.776  70.617  1.00  0.00    -0.064 I  
HETATM   22  C   UNL     1      -9.939   9.306  70.702  1.00  0.00    -0.273 A  
HETATM   23  C   UNL     1     -10.900  10.204  70.217  1.00  0.00    -0.310 A  
HETATM   24  O   UNL     1     -10.146   8.650  71.891  1.00  0.00    -0.270 OA 
HETATM   25  H   UNL     1     -10.943   8.795  72.389  1.00  0.00     0.000 HD 
HETATM   26  I   UNL     1     -12.716  10.494  71.225  1.00  0.00    -0.544 I  
HETATM   27  C   UNL     1     -10.688  10.908  69.019  1.00  0.00    -0.262 A  
ENDBRANCH  17  18
ENDBRANCH  13  17
ENDBRANCH   8   9
ENDBRANCH   4   8
TORSDOF 4
ENDMDL
MODEL       76
REMARK 921   NORMALIZED FREE ENERGY PREDICTED BY IDOCK:   -4.97 KCAL/MOL
REMARK 922        TOTAL FREE ENERGY PREDICTED BY IDOCK:   -6.88 KCAL/MOL
REMARK 923 INTER-LIGAND FREE ENERGY PREDICTED BY IDOCK:   -7.06 KCAL/MOL
REMARK 924 INTRA-LIGAND FREE ENERGY PREDICTED BY IDOCK:    0.18 KCAL/MOL
REMARK 927      BINDING AFFINITY PREDICTED BY RF-SCORE:    0.00 PKD
ROOT
HETATM    1  N   UNL     1      -6.061   7.487  71.469  1.00  0.00    -0.036 NA 
HETATM    2  H1  UNL     1      -5.075   7.724  71.578  1.00  0.00     0.000 HD 
HETATM    3  H2  UNL     1      -6.531   8.178  70.884  1.00  0.00     0.000 HD 
HETATM    4  CA  UNL     1      -6.794   7.307  72.759  1.00  0.00    -0.068 C  
HETATM    5  C   UNL     1      -6.677   8.625  73.552  1.00  0.00     0.012 C  
HETATM    6  OXT UNL     1      -7.413   8.976  74.459  1.00  0.00    -0.418 OA 
HETATM    7  O   UNL     1      -5.619   9.365  73.123  1.00  0.00    -0.243 OA 
ENDROOT
BRANCH   4   8
HETATM    8  C   UNL     1      -8.284   6.948  72.594  1.00  0.00    -0.115 C  
BRANCH   8   9
HETATM    9  C   UNL     1      -9.150   7.939  71.839  1.00  0.00    -0.192 A  
HETATM   10  C   UNL     1     -10.507   8.108  72.122  1.00  0.00    -0.352 A  
HETATM   11  C   UNL     1     -11.267   9.040  71.401  1.00  0.00    -0.324 A  
HETATM   12  I   UNL     1     -13.321   9.168  71.883  1.00  0.00    -0.585 I  
HETATM   13  C   UNL     1     -10.705   9.833  70.375  1.00  0.00    -0.308 A  
HETATM   14  C   UNL     1      -9.337   9.677  70.111  1.00  0.00    -0.251 A  
HETATM   15  C   UNL     1      -8.574   8.756  70.856  1.00  0.00    -0.229 A  
HETATM   16  I   UNL     1      -8.285  10.635  68.560  1.00  0.00    -0.148 I  
BRANCH  13  17
HETATM   17  O   UNL     1     -11.600  10.464  69.544  1.00  0.00    -0.247 OA 
BRANCH  17  18
HETATM   18  C   UNL     1     -11.790  11.822  69.478  1.00  0.00    -0.337 A  
HETATM   19  C   UNL     1     -11.553  12.345  68.197  1.00  0.00    -0.395 A  
HETATM   20  C   UNL     1     -11.682  13.712  67.943  1.00  0.00    -0.360 A  
HETATM   21  I   UNL     1     -11.305  14.397  66.007  1.00  0.00    -0.337 I  
HETATM   22  C   UNL     1     -12.036  14.577  68.979  1.00  0.00    -0.251 A  
HETATM   23  C   UNL     1     -12.277  14.058  70.258  1.00  0.00    -0.361 A  
HETATM   24  O   UNL     1     -12.157  15.926  68.749  1.00  0.00    -0.526 OA 
HETATM   25  H   UNL     1     -12.398  16.515  69.455  1.00  0.00     0.000 HD 
HETATM   26  I   UNL     1     -12.722  15.319  71.873  1.00  0.00    -0.608 I  
HETATM   27  C   UNL     1     -12.191  12.676  70.502  1.00  0.00    -0.383 A  
ENDBRANCH  17  18
ENDBRANCH  13  17
ENDBRANCH   8   9
ENDBRANCH   4   8
TORSDOF 4
ENDMDL
MODEL       77
REMARK 921   NORMALIZED FREE ENERGY PREDICTED BY IDOCK:   -4.97 KCAL/MOL
REMARK 922        TOTAL FREE ENERGY PREDICTED BY IDOCK:   -6.88 KCAL/MOL
REMARK 923 INTER-LIGAND FREE ENERGY PREDICTED BY IDOCK:   -6.61 KCAL/MOL
REMARK 924 INTRA-LIGAND FREE ENERGY PREDICTED BY IDOCK:   -0.27 KCAL/MOL
REMARK 927      BINDING AFFINITY PREDICTED BY RF-SCORE:    0.00 PKD
ROOT
HETATM    1  N   UNL     1     -10.934   6.247  66.673  1.00  0.00    -0.697 NA 
HETATM    2  H1  UNL     1     -11.593   5.506  66.914  1.00  0.00     0.000 HD 
HETATM    3  H2  UNL     1      -9.985   5.878  66.622  1.00  0.00     0.000 HD 
HETATM    4  CA  UNL     1     -10.987   7.434  67.580  1.00  0.00    -0.066 C  
HETATM    5  C   UNL     1     -10.690   6.942  69.012  1.00  0.00    -0.230 C  
HETATM    6  OXT UNL     1     -10.308   7.639  69.937  1.00  0.00    -0.213 OA 
HETATM    7  O   UNL     1     -10.923   5.607  69.132  1.00  0.00    -0.274 OA 
ENDROOT
BRANCH   4   8
HETATM    8  C   UNL     1      -9.992   8.553  67.215  1.00  0.00    -0.289 C  
BRANCH   8   9
HETATM    9  C   UNL     1     -10.551   9.957  67.092  1.00  0.00    -0.295 A  
HETATM   10  C   UNL     1     -10.636  10.621  65.867  1.00  0.00    -0.178 A  
HETATM   11  C   UNL     1     -11.166  11.918  65.802  1.00  0.00    -0.312 A  
HETATM   12  I   UNL     1     -11.194  12.839  63.900  1.00  0.00    -0.447 I  
HETATM   13  C   UNL     1     -11.626  12.598  66.953  1.00  0.00    -0.373 A  
HETATM   14  C   UNL     1     -11.560  11.919  68.177  1.00  0.00    -0.334 A  
HETATM   15  C   UNL     1     -11.050  10.606  68.231  1.00  0.00    -0.334 A  
HETATM   16  I   UNL     1     -12.057  12.744  70.049  1.00  0.00    -0.054 I  
BRANCH  13  17
HETATM   17  O   UNL     1     -11.821  13.953  66.813  1.00  0.00    -0.377 OA 
BRANCH  17  18
HETATM   18  C   UNL     1     -10.906  14.918  67.152  1.00  0.00    -0.311 A  
HETATM   19  C   UNL     1      -9.686  14.382  67.597  1.00  0.00    -0.219 A  
HETATM   20  C   UNL     1      -8.640  15.213  68.000  1.00  0.00    -0.156 A  
HETATM   21  I   UNL     1      -6.866  14.324  68.650  1.00  0.00    -0.131 I  
HETATM   22  C   UNL     1      -8.809  16.598  67.977  1.00  0.00    -0.206 A  
HETATM   23  C   UNL     1     -10.023  17.136  67.529  1.00  0.00    -0.279 A  
HETATM   24  O   UNL     1      -7.793  17.430  68.380  1.00  0.00    -0.236 OA 
HETATM   25  H   UNL     1      -7.908  18.373  68.364  1.00  0.00     0.000 HD 
HETATM   26  I   UNL     1     -10.367  19.205  67.559  1.00  0.00    -0.585 I  
HETATM   27  C   UNL     1     -11.060  16.300  67.082  1.00  0.00    -0.014 A  
ENDBRANCH  17  18
ENDBRANCH  13  17
ENDBRANCH   8   9
ENDBRANCH   4   8
TORSDOF 4
ENDMDL
MODEL       78
REMARK 921   NORMALIZED FREE ENERGY PREDICTED BY IDOCK:   -4.96 KCAL/MOL
REMARK 922        TOTAL FREE ENERGY PREDICTED BY IDOCK:   -6.88 KCAL/MOL
REMARK 923 INTER-LIGAND FREE ENERGY PREDICTED BY IDOCK:   -6.17 KCAL/MOL
REMARK 924 INTRA-LIGAND FREE ENERGY PREDICTED BY IDOCK:   -0.71 KCAL/MOL
REMARK 927      BINDING AFFINITY PREDICTED BY RF-SCORE:    0.00 PKD
ROOT
HETATM    1  N   UNL     1      -8.137   5.189  72.384  1.00  0.00    -0.108 NA 
HETATM    2  H1  UNL     1      -7.954   4.241  72.054  1.00  0.00     0.000 HD 
HETATM    3  H2  UNL     1      -7.935   5.264  73.381  1.00  0.00     0.000 HD 
HETATM    4  CA  UNL     1      -9.516   5.685  72.090  1.00  0.00    -0.149 C  
HETATM    5  C   UNL     1     -10.514   4.717  72.757  1.00  0.00    -0.201 C  
HETATM    6  OXT UNL     1     -11.675   4.972  73.031  1.00  0.00    -0.297 OA 
HETATM    7  O   UNL     1      -9.941   3.508  72.998  1.00  0.00    -0.129 OA 
ENDROOT
BRANCH   4   8
HETATM    8  C   UNL     1      -9.792   7.117  72.589  1.00  0.00    -0.197 C  
BRANCH   8   9
HETATM    9  C   UNL     1     -10.246   8.130  71.556  1.00  0.00    -0.261 A  
HETATM   10  C   UNL     1     -11.107   9.183  71.873  1.00  0.00    -0.385 A  
HETATM   11  C   UNL     1     -11.496  10.099  70.885  1.00  0.00    -0.360 A  
HETATM   12  I   UNL     1     -12.843  11.617  71.474  1.00  0.00    -0.033 I  
HETATM   13  C   UNL     1     -11.044   9.998  69.549  1.00  0.00    -0.238 A  
HETATM   14  C   UNL     1     -10.161   8.954  69.241  1.00  0.00    -0.209 A  
HETATM   15  C   UNL     1      -9.755   8.051  70.245  1.00  0.00    -0.175 A  
HETATM   16  I   UNL     1      -9.442   8.503  67.315  1.00  0.00    -0.258 I  
BRANCH  13  17
HETATM   17  O   UNL     1     -11.731  10.747  68.623  1.00  0.00    -0.334 OA 
BRANCH  17  18
HETATM   18  C   UNL     1     -11.183  11.741  67.853  1.00  0.00    -0.267 A  
HETATM   19  C   UNL     1     -11.716  11.783  66.555  1.00  0.00    -0.149 A  
HETATM   20  C   UNL     1     -11.268  12.720  65.622  1.00  0.00    -0.301 A  
HETATM   21  I   UNL     1     -12.118  12.701  63.715  1.00  0.00    -0.630 I  
HETATM   22  C   UNL     1     -10.264  13.621  65.976  1.00  0.00    -0.307 A  
HETATM   23  C   UNL     1      -9.732  13.585  67.272  1.00  0.00    -0.236 A  
HETATM   24  O   UNL     1      -9.803  14.543  65.068  1.00  0.00    -0.502 OA 
HETATM   25  H   UNL     1      -9.119  15.157  65.309  1.00  0.00     0.000 HD 
HETATM   26  I   UNL     1      -8.158  14.853  67.833  1.00  0.00    -0.205 I  
HETATM   27  C   UNL     1     -10.215  12.671  68.224  1.00  0.00    -0.240 A  
ENDBRANCH  17  18
ENDBRANCH  13  17
ENDBRANCH   8   9
ENDBRANCH   4   8
TORSDOF 4
ENDMDL
MODEL       79
REMARK 921   NORMALIZED FREE ENERGY PREDICTED BY IDOCK:   -4.95 KCAL/MOL
REMARK 922        TOTAL FREE ENERGY PREDICTED BY IDOCK:   -6.86 KCAL/MOL
REMARK 923 INTER-LIGAND FREE ENERGY PREDICTED BY IDOCK:   -6.48 KCAL/MOL
REMARK 924 INTRA-LIGAND FREE ENERGY PREDICTED BY IDOCK:   -0.38 KCAL/MOL
REMARK 927      BINDING AFFINITY PREDICTED BY RF-SCORE:    0.00 PKD
ROOT
HETATM    1  N   UNL     1     -10.705  14.182  69.532  1.00  0.00    -0.437 NA 
HETATM    2  H1  UNL     1     -10.737  15.144  69.871  1.00  0.00     0.000 HD 
HETATM    3  H2  UNL     1      -9.773  13.958  69.183  1.00  0.00     0.000 HD 
HETATM    4  CA  UNL     1     -11.741  13.859  68.504  1.00  0.00    -0.355 C  
HETATM    5  C   UNL     1     -11.536  14.820  67.316  1.00  0.00    -0.369 C  
HETATM    6  OXT UNL     1     -11.943  14.641  66.179  1.00  0.00    -0.338 OA 
HETATM    7  O   UNL     1     -10.845  15.929  67.693  1.00  0.00    -0.310 OA 
ENDROOT
BRANCH   4   8
HETATM    8  C   UNL     1     -11.692  12.406  67.992  1.00  0.00    -0.414 C  
BRANCH   8   9
HETATM    9  C   UNL     1     -11.179  11.354  68.957  1.00  0.00    -0.319 A  
HETATM   10  C   UNL     1      -9.836  10.976  69.003  1.00  0.00    -0.165 A  
HETATM   11  C   UNL     1      -9.406  10.002  69.915  1.00  0.00    -0.169 A  
HETATM   12  I   UNL     1      -7.361   9.476  69.852  1.00  0.00    -0.161 I  
HETATM   13  C   UNL     1     -10.298   9.370  70.812  1.00  0.00    -0.298 A  
HETATM   14  C   UNL     1     -11.642   9.770  70.779  1.00  0.00    -0.339 A  
HETATM   15  C   UNL     1     -12.061  10.767  69.876  1.00  0.00    -0.410 A  
HETATM   16  I   UNL     1     -13.191   8.905  71.910  1.00  0.00    -0.549 I  
BRANCH  13  17
HETATM   17  O   UNL     1      -9.831   8.230  71.422  1.00  0.00    -0.166 OA 
BRANCH  17  18
HETATM   18  C   UNL     1      -9.833   6.979  70.857  1.00  0.00    -0.185 A  
HETATM   19  C   UNL     1      -9.815   5.949  71.812  1.00  0.00    -0.192 A  
HETATM   20  C   UNL     1      -9.799   4.609  71.424  1.00  0.00    -0.194 A  
HETATM   21  I   UNL     1      -9.769   3.148  72.916  1.00  0.00    -0.216 I  
HETATM   22  C   UNL     1      -9.786   4.282  70.067  1.00  0.00    -0.205 A  
HETATM   23  C   UNL     1      -9.808   5.307  69.112  1.00  0.00    -0.187 A  
HETATM   24  O   UNL     1      -9.759   2.968  69.668  1.00  0.00    -0.088 OA 
HETATM   25  H   UNL     1      -9.750   2.745  68.744  1.00  0.00     0.000 HD 
HETATM   26  I   UNL     1      -9.696   4.879  67.062  1.00  0.00    -0.252 I  
HETATM   27  C   UNL     1      -9.869   6.656  69.503  1.00  0.00    -0.162 A  
ENDBRANCH  17  18
ENDBRANCH  13  17
ENDBRANCH   8   9
ENDBRANCH   4   8
TORSDOF 4
ENDMDL
MODEL       80
REMARK 921   NORMALIZED FREE ENERGY PREDICTED BY IDOCK:   -4.93 KCAL/MOL
REMARK 922        TOTAL FREE ENERGY PREDICTED BY IDOCK:   -6.83 KCAL/MOL
REMARK 923 INTER-LIGAND FREE ENERGY PREDICTED BY IDOCK:   -6.78 KCAL/MOL
REMARK 924 INTRA-LIGAND FREE ENERGY PREDICTED BY IDOCK:   -0.06 KCAL/MOL
REMARK 927      BINDING AFFINITY PREDICTED BY RF-SCORE:    0.00 PKD
ROOT
HETATM    1  N   UNL     1      -7.437   5.246  66.959  1.00  0.00    -0.086 NA 
HETATM    2  H1  UNL     1      -7.188   4.824  66.065  1.00  0.00     0.000 HD 
HETATM    3  H2  UNL     1      -7.476   4.536  67.691  1.00  0.00     0.000 HD 
HETATM    4  CA  UNL     1      -8.704   6.039  66.931  1.00  0.00    -0.112 C  
HETATM    5  C   UNL     1      -9.838   5.093  66.487  1.00  0.00    -0.192 C  
HETATM    6  OXT UNL     1     -11.029   5.273  66.678  1.00  0.00    -0.184 OA 
HETATM    7  O   UNL     1      -9.346   4.012  65.825  1.00  0.00    -0.141 OA 
ENDROOT
BRANCH   4   8
HETATM    8  C   UNL     1      -9.080   6.677  68.283  1.00  0.00    -0.123 C  
BRANCH   8   9
HETATM    9  C   UNL     1      -9.761   8.031  68.239  1.00  0.00    -0.177 A  
HETATM   10  C   UNL     1     -10.506   8.526  69.311  1.00  0.00    -0.224 A  
HETATM   11  C   UNL     1     -11.114   9.786  69.226  1.00  0.00    -0.149 A  
HETATM   12  I   UNL     1     -12.260  10.403  70.892  1.00  0.00    -0.529 I  
HETATM   13  C   UNL     1     -11.003  10.596  68.073  1.00  0.00    -0.282 A  
HETATM   14  C   UNL     1     -10.235  10.106  67.008  1.00  0.00    -0.234 A  
HETATM   15  C   UNL     1      -9.606   8.848  67.110  1.00  0.00    -0.225 A  
HETATM   16  I   UNL     1     -10.014  11.047  65.138  1.00  0.00    -0.396 I  
BRANCH  13  17
HETATM   17  O   UNL     1     -11.888  11.646  67.987  1.00  0.00    -0.514 OA 
BRANCH  17  18
HETATM   18  C   UNL     1     -11.555  12.969  68.139  1.00  0.00    -0.341 A  
HETATM   19  C   UNL     1     -11.812  13.452  69.431  1.00  0.00    -0.390 A  
HETATM   20  C   UNL     1     -11.551  14.782  69.767  1.00  0.00    -0.297 A  
HETATM   21  I   UNL     1     -11.972  15.410  71.714  1.00  0.00    -0.656 I  
HETATM   22  C   UNL     1     -11.040  15.651  68.803  1.00  0.00    -0.307 A  
HETATM   23  C   UNL     1     -10.777  15.170  67.513  1.00  0.00    -0.284 A  
HETATM   24  O   UNL     1     -10.787  16.965  69.114  1.00  0.00    -0.312 OA 
HETATM   25  H   UNL     1     -10.438  17.557  68.457  1.00  0.00     0.000 HD 
HETATM   26  I   UNL     1     -10.095  16.451  65.998  1.00  0.00    -0.319 I  
HETATM   27  C   UNL     1     -10.999  13.821  67.188  1.00  0.00    -0.299 A  
ENDBRANCH  17  18
ENDBRANCH  13  17
ENDBRANCH   8   9
ENDBRANCH   4   8
TORSDOF 4
ENDMDL
MODEL       81
REMARK 921   NORMALIZED FREE ENERGY PREDICTED BY IDOCK:   -4.89 KCAL/MOL
REMARK 922        TOTAL FREE ENERGY PREDICTED BY IDOCK:   -6.79 KCAL/MOL
REMARK 923 INTER-LIGAND FREE ENERGY PREDICTED BY IDOCK:   -6.09 KCAL/MOL
REMARK 924 INTRA-LIGAND FREE ENERGY PREDICTED BY IDOCK:   -0.71 KCAL/MOL
REMARK 927      BINDING AFFINITY PREDICTED BY RF-SCORE:    0.00 PKD
ROOT
HETATM    1  N   UNL     1     -11.426  16.381  64.043  1.00  0.00    -1.573 NA 
HETATM    2  H1  UNL     1     -11.147  17.122  63.399  1.00  0.00     0.000 HD 
HETATM    3  H2  UNL     1     -12.396  16.508  64.333  1.00  0.00     0.000 HD 
HETATM    4  CA  UNL     1     -10.536  16.241  65.236  1.00  0.00    -0.336 C  
HETATM    5  C   UNL     1     -10.540  17.589  65.985  1.00  0.00    -0.217 C  
HETATM    6  OXT UNL     1     -10.230  17.754  67.153  1.00  0.00    -0.326 OA 
HETATM    7  O   UNL     1     -10.926  18.605  65.167  1.00  0.00    -0.543 OA 
ENDROOT
BRANCH   4   8
HETATM    8  C   UNL     1     -10.958  15.122  66.210  1.00  0.00    -0.335 C  
BRANCH   8   9
HETATM    9  C   UNL     1     -10.158  13.835  66.166  1.00  0.00    -0.314 A  
HETATM   10  C   UNL     1      -9.326  13.438  67.215  1.00  0.00    -0.233 A  
HETATM   11  C   UNL     1      -8.609  12.236  67.132  1.00  0.00    -0.187 A  
HETATM   12  I   UNL     1      -7.343  11.770  68.758  1.00  0.00    -0.011 I  
HETATM   13  C   UNL     1      -8.694  11.389  66.003  1.00  0.00    -0.131 A  
HETATM   14  C   UNL     1      -9.549  11.779  64.963  1.00  0.00    -0.130 A  
HETATM   15  C   UNL     1     -10.285  12.977  65.064  1.00  0.00    -0.287 A  
HETATM   16  I   UNL     1      -9.762  10.772  63.127  1.00  0.00    -0.254 I  
BRANCH  13  17
HETATM   17  O   UNL     1      -7.722  10.421  65.903  1.00  0.00    -0.134 OA 
BRANCH  17  18
HETATM   18  C   UNL     1      -7.922   9.081  66.116  1.00  0.00    -0.103 A  
HETATM   19  C   UNL     1      -6.929   8.281  65.529  1.00  0.00    -0.066 A  
HETATM   20  C   UNL     1      -6.974   6.889  65.628  1.00  0.00    -0.064 A  
HETATM   21  I   UNL     1      -5.455   5.783  64.719  1.00  0.00    -0.017 I  
HETATM   22  C   UNL     1      -8.029   6.279  66.308  1.00  0.00    -0.110 A  
HETATM   23  C   UNL     1      -9.019   7.074  66.899  1.00  0.00    -0.126 A  
HETATM   24  O   UNL     1      -8.095   4.910  66.406  1.00  0.00    -0.106 OA 
HETATM   25  H   UNL     1      -8.814   4.494  66.869  1.00  0.00     0.000 HD 
HETATM   26  I   UNL     1     -10.676   6.211  67.853  1.00  0.00    -0.315 I  
HETATM   27  C   UNL     1      -8.949   8.477  66.836  1.00  0.00    -0.166 A  
ENDBRANCH  17  18
ENDBRANCH  13  17
ENDBRANCH   8   9
ENDBRANCH   4   8
TORSDOF 4
ENDMDL
MODEL       82
REMARK 921   NORMALIZED FREE ENERGY PREDICTED BY IDOCK:   -4.87 KCAL/MOL
REMARK 922        TOTAL FREE ENERGY PREDICTED BY IDOCK:   -6.76 KCAL/MOL
REMARK 923 INTER-LIGAND FREE ENERGY PREDICTED BY IDOCK:   -7.78 KCAL/MOL
REMARK 924 INTRA-LIGAND FREE ENERGY PREDICTED BY IDOCK:    1.01 KCAL/MOL
REMARK 927      BINDING AFFINITY PREDICTED BY RF-SCORE:    0.00 PKD
ROOT
HETATM    1  N   UNL     1     -11.094   6.854  73.475  1.00  0.00    -0.517 NA 
HETATM    2  H1  UNL     1     -10.272   6.300  73.716  1.00  0.00     0.000 HD 
HETATM    3  H2  UNL     1     -11.947   6.339  73.691  1.00  0.00     0.000 HD 
HETATM    4  CA  UNL     1     -11.116   7.333  72.060  1.00  0.00    -0.244 C  
HETATM    5  C   UNL     1     -11.057   6.094  71.144  1.00  0.00    -0.298 C  
HETATM    6  OXT UNL     1     -11.401   6.058  69.974  1.00  0.00    -0.384 OA 
HETATM    7  O   UNL     1     -10.551   5.018  71.805  1.00  0.00    -0.201 OA 
ENDROOT
BRANCH   4   8
HETATM    8  C   UNL     1     -12.358   8.171  71.696  1.00  0.00    -0.347 C  
BRANCH   8   9
HETATM    9  C   UNL     1     -12.113   9.576  71.180  1.00  0.00    -0.429 A  
HETATM   10  C   UNL     1     -12.833  10.677  71.645  1.00  0.00    -0.570 A  
HETATM   11  C   UNL     1     -12.568  11.959  71.143  1.00  0.00    -0.288 A  
HETATM   12  I   UNL     1     -13.761  13.537  71.885  1.00  0.00    -0.244 I  
HETATM   13  C   UNL     1     -11.579  12.188  70.158  1.00  0.00    -0.118 A  
HETATM   14  C   UNL     1     -10.842  11.083  69.711  1.00  0.00    -0.144 A  
HETATM   15  C   UNL     1     -11.097   9.802  70.239  1.00  0.00    -0.349 A  
HETATM   16  I   UNL     1      -9.409  11.126  68.170  1.00  0.00    -0.198 I  
BRANCH  13  17
HETATM   17  O   UNL     1     -11.631  13.408  69.526  1.00  0.00    -0.281 OA 
BRANCH  17  18
HETATM   18  C   UNL     1     -11.310  13.626  68.210  1.00  0.00    -0.289 A  
HETATM   19  C   UNL     1     -10.366  14.651  68.041  1.00  0.00    -0.235 A  
HETATM   20  C   UNL     1      -9.930  15.025  66.768  1.00  0.00    -0.248 A  
HETATM   21  I   UNL     1      -8.527  16.564  66.617  1.00  0.00    -0.377 I  
HETATM   22  C   UNL     1     -10.448  14.382  65.644  1.00  0.00    -0.334 A  
HETATM   23  C   UNL     1     -11.387  13.355  65.809  1.00  0.00    -0.305 A  
HETATM   24  O   UNL     1     -10.037  14.743  64.384  1.00  0.00    -0.436 OA 
HETATM   25  H   UNL     1     -10.390  14.306  63.617  1.00  0.00     0.000 HD 
HETATM   26  I   UNL     1     -12.268  12.416  64.154  1.00  0.00    -0.516 I  
HETATM   27  C   UNL     1     -11.793  12.950  67.093  1.00  0.00    -0.424 A  
ENDBRANCH  17  18
ENDBRANCH  13  17
ENDBRANCH   8   9
ENDBRANCH   4   8
TORSDOF 4
ENDMDL
MODEL       83
REMARK 921   NORMALIZED FREE ENERGY PREDICTED BY IDOCK:   -4.85 KCAL/MOL
REMARK 922        TOTAL FREE ENERGY PREDICTED BY IDOCK:   -6.74 KCAL/MOL
REMARK 923 INTER-LIGAND FREE ENERGY PREDICTED BY IDOCK:   -6.40 KCAL/MOL
REMARK 924 INTRA-LIGAND FREE ENERGY PREDICTED BY IDOCK:   -0.35 KCAL/MOL
REMARK 927      BINDING AFFINITY PREDICTED BY RF-SCORE:    0.00 PKD
ROOT
HETATM    1  N   UNL     1     -10.597   9.069  71.633  1.00  0.00    -0.343 NA 
HETATM    2  H1  UNL     1     -10.038   8.557  72.315  1.00  0.00     0.000 HD 
HETATM    3  H2  UNL     1     -11.570   9.120  71.936  1.00  0.00     0.000 HD 
HETATM    4  CA  UNL     1     -10.509   8.532  70.241  1.00  0.00    -0.220 C  
HETATM    5  C   UNL     1     -10.977   7.062  70.276  1.00  0.00    -0.271 C  
HETATM    6  OXT UNL     1     -11.369   6.419  69.317  1.00  0.00    -0.379 OA 
HETATM    7  O   UNL     1     -10.885   6.547  71.531  1.00  0.00    -0.233 OA 
ENDROOT
BRANCH   4   8
HETATM    8  C   UNL     1     -11.355   9.305  69.211  1.00  0.00     0.176 C  
BRANCH   8   9
HETATM    9  C   UNL     1     -10.682  10.462  68.497  1.00  0.00    -0.255 A  
HETATM   10  C   UNL     1      -9.355  10.819  68.744  1.00  0.00    -0.186 A  
HETATM   11  C   UNL     1      -8.773  11.893  68.056  1.00  0.00    -0.173 A  
HETATM   12  I   UNL     1      -6.775  12.371  68.554  1.00  0.00    -0.099 I  
HETATM   13  C   UNL     1      -9.490  12.649  67.101  1.00  0.00    -0.214 A  
HETATM   14  C   UNL     1     -10.815  12.272  66.839  1.00  0.00    -0.251 A  
HETATM   15  C   UNL     1     -11.386  11.176  67.516  1.00  0.00    -0.351 A  
HETATM   16  I   UNL     1     -12.138  13.300  65.565  1.00  0.00    -0.546 I  
BRANCH  13  17
HETATM   17  O   UNL     1      -8.926  13.849  66.736  1.00  0.00    -0.237 OA 
BRANCH  17  18
HETATM   18  C   UNL     1      -9.259  15.068  67.270  1.00  0.00    -0.201 A  
HETATM   19  C   UNL     1     -10.009  14.961  68.452  1.00  0.00    -0.222 A  
HETATM   20  C   UNL     1     -10.451  16.098  69.129  1.00  0.00    -0.265 A  
HETATM   21  I   UNL     1     -11.565  15.838  70.876  1.00  0.00    -0.482 I  
HETATM   22  C   UNL     1     -10.158  17.364  68.620  1.00  0.00    -0.355 A  
HETATM   23  C   UNL     1      -9.405  17.475  67.443  1.00  0.00    -0.249 A  
HETATM   24  O   UNL     1     -10.594  18.494  69.268  1.00  0.00    -0.327 OA 
HETATM   25  H   UNL     1     -10.394  19.356  68.921  1.00  0.00     0.000 HD 
HETATM   26  I   UNL     1      -9.012  19.346  66.581  1.00  0.00    -0.456 I  
HETATM   27  C   UNL     1      -8.923  16.330  66.786  1.00  0.00    -0.259 A  
ENDBRANCH  17  18
ENDBRANCH  13  17
ENDBRANCH   8   9
ENDBRANCH   4   8
TORSDOF 4
ENDMDL
MODEL       84
REMARK 921   NORMALIZED FREE ENERGY PREDICTED BY IDOCK:   -4.85 KCAL/MOL
REMARK 922        TOTAL FREE ENERGY PREDICTED BY IDOCK:   -6.74 KCAL/MOL
REMARK 923 INTER-LIGAND FREE ENERGY PREDICTED BY IDOCK:   -6.36 KCAL/MOL
REMARK 924 INTRA-LIGAND FREE ENERGY PREDICTED BY IDOCK:   -0.38 KCAL/MOL
REMARK 927      BINDING AFFINITY PREDICTED BY RF-SCORE:    0.00 PKD
ROOT
HETATM    1  N   UNL     1     -12.671   9.088  70.715  1.00  0.00    -0.490 NA 
HETATM    2  H1  UNL     1     -13.228   9.115  71.569  1.00  0.00     0.000 HD 
HETATM    3  H2  UNL     1     -12.614   8.135  70.356  1.00  0.00     0.000 HD 
HETATM    4  CA  UNL     1     -11.304   9.676  70.857  1.00  0.00    -0.360 C  
HETATM    5  C   UNL     1     -10.570   8.893  71.965  1.00  0.00    -0.318 C  
HETATM    6  OXT UNL     1      -9.361   8.846  72.119  1.00  0.00    -0.348 OA 
HETATM    7  O   UNL     1     -11.450   8.256  72.782  1.00  0.00    -0.391 OA 
ENDROOT
BRANCH   4   8
HETATM    8  C   UNL     1     -10.461   9.635  69.567  1.00  0.00    -0.240 C  
BRANCH   8   9
HETATM    9  C   UNL     1      -9.982  10.964  69.016  1.00  0.00    -0.206 A  
HETATM   10  C   UNL     1     -10.849  12.038  68.800  1.00  0.00    -0.267 A  
HETATM   11  C   UNL     1     -10.359  13.249  68.293  1.00  0.00    -0.249 A  
HETATM   12  I   UNL     1     -11.776  14.782  67.958  1.00  0.00    -0.180 I  
HETATM   13  C   UNL     1      -8.993  13.435  67.982  1.00  0.00    -0.190 A  
HETATM   14  C   UNL     1      -8.122  12.363  68.223  1.00  0.00    -0.166 A  
HETATM   15  C   UNL     1      -8.618  11.155  68.756  1.00  0.00    -0.133 A  
HETATM   16  I   UNL     1      -6.075  12.329  67.733  1.00  0.00    -0.147 I  
BRANCH  13  17
HETATM   17  O   UNL     1      -8.695  14.532  67.209  1.00  0.00    -0.186 OA 
BRANCH  17  18
HETATM   18  C   UNL     1      -8.242  15.735  67.691  1.00  0.00    -0.151 A  
HETATM   19  C   UNL     1      -8.932  16.833  67.154  1.00  0.00    -0.218 A  
HETATM   20  C   UNL     1      -8.599  18.139  67.517  1.00  0.00    -0.249 A  
HETATM   21  I   UNL     1      -9.679  19.708  66.661  1.00  0.00    -0.620 I  
HETATM   22  C   UNL     1      -7.556  18.362  68.416  1.00  0.00    -0.291 A  
HETATM   23  C   UNL     1      -6.868  17.268  68.957  1.00  0.00    -0.245 A  
HETATM   24  O   UNL     1      -7.208  19.641  68.775  1.00  0.00    -0.328 OA 
HETATM   25  H   UNL     1      -6.497  19.794  69.388  1.00  0.00     0.000 HD 
HETATM   26  I   UNL     1      -5.233  17.544  70.241  1.00  0.00    -0.246 I  
HETATM   27  C   UNL     1      -7.233  15.951  68.626  1.00  0.00    -0.139 A  
ENDBRANCH  17  18
ENDBRANCH  13  17
ENDBRANCH   8   9
ENDBRANCH   4   8
TORSDOF 4
ENDMDL
MODEL       85
REMARK 921   NORMALIZED FREE ENERGY PREDICTED BY IDOCK:   -4.84 KCAL/MOL
REMARK 922        TOTAL FREE ENERGY PREDICTED BY IDOCK:   -6.72 KCAL/MOL
REMARK 923 INTER-LIGAND FREE ENERGY PREDICTED BY IDOCK:   -6.30 KCAL/MOL
REMARK 924 INTRA-LIGAND FREE ENERGY PREDICTED BY IDOCK:   -0.42 KCAL/MOL
REMARK 927      BINDING AFFINITY PREDICTED BY RF-SCORE:    0.00 PKD
ROOT
HETATM    1  N   UNL     1      -9.797  18.173  65.902  1.00  0.00    -0.547 NA 
HETATM    2  H1  UNL     1      -9.369  18.892  65.318  1.00  0.00     0.000 HD 
HETATM    3  H2  UNL     1     -10.792  18.090  65.694  1.00  0.00     0.000 HD 
HETATM    4  CA  UNL     1      -9.584  18.368  67.369  1.00  0.00    -0.286 C  
HETATM    5  C   UNL     1     -10.171  19.743  67.749  1.00  0.00    -0.437 C  
HETATM    6  OXT UNL     1     -10.494  20.091  68.872  1.00  0.00    -0.345 OA 
HETATM    7  O   UNL     1     -10.276  20.551  66.660  1.00  0.00    -0.357 OA 
ENDROOT
BRANCH   4   8
HETATM    8  C   UNL     1     -10.230  17.282  68.251  1.00  0.00    -0.348 C  
BRANCH   8   9
HETATM    9  C   UNL     1      -9.965  15.838  67.871  1.00  0.00    -0.227 A  
HETATM   10  C   UNL     1     -10.830  15.112  67.050  1.00  0.00    -0.314 A  
HETATM   11  C   UNL     1     -10.540  13.781  66.721  1.00  0.00    -0.273 A  
HETATM   12  I   UNL     1     -11.952  12.770  65.516  1.00  0.00    -0.466 I  
HETATM   13  C   UNL     1      -9.381  13.126  67.197  1.00  0.00    -0.235 A  
HETATM   14  C   UNL     1      -8.503  13.866  68.002  1.00  0.00    -0.173 A  
HETATM   15  C   UNL     1      -8.789  15.212  68.308  1.00  0.00    -0.173 A  
HETATM   16  I   UNL     1      -6.783  13.099  68.941  1.00  0.00    -0.046 I  
BRANCH  13  17
HETATM   17  O   UNL     1      -9.370  11.757  67.073  1.00  0.00    -0.177 OA 
BRANCH  17  18
HETATM   18  C   UNL     1      -9.578  10.871  68.100  1.00  0.00    -0.164 A  
HETATM   19  C   UNL     1     -10.681  11.213  68.900  1.00  0.00    -0.246 A  
HETATM   20  C   UNL     1     -11.037  10.436  70.003  1.00  0.00    -0.314 A  
HETATM   21  I   UNL     1     -12.690  11.027  71.135  1.00  0.00    -0.343 I  
HETATM   22  C   UNL     1     -10.281   9.310  70.329  1.00  0.00    -0.227 A  
HETATM   23  C   UNL     1      -9.182   8.964  69.531  1.00  0.00    -0.150 A  
HETATM   24  O   UNL     1     -10.611   8.541  71.418  1.00  0.00    -0.215 OA 
HETATM   25  H   UNL     1     -10.095   7.774  71.641  1.00  0.00     0.000 HD 
HETATM   26  I   UNL     1      -7.954   7.337  70.026  1.00  0.00    -0.121 I  
HETATM   27  C   UNL     1      -8.850   9.722  68.395  1.00  0.00    -0.120 A  
ENDBRANCH  17  18
ENDBRANCH  13  17
ENDBRANCH   8   9
ENDBRANCH   4   8
TORSDOF 4
ENDMDL
MODEL       86
REMARK 921   NORMALIZED FREE ENERGY PREDICTED BY IDOCK:   -4.83 KCAL/MOL
REMARK 922        TOTAL FREE ENERGY PREDICTED BY IDOCK:   -6.72 KCAL/MOL
REMARK 923 INTER-LIGAND FREE ENERGY PREDICTED BY IDOCK:   -6.54 KCAL/MOL
REMARK 924 INTRA-LIGAND FREE ENERGY PREDICTED BY IDOCK:   -0.18 KCAL/MOL
REMARK 927      BINDING AFFINITY PREDICTED BY RF-SCORE:    0.00 PKD
ROOT
HETATM    1  N   UNL     1      -6.742   9.967  66.924  1.00  0.00    -0.077 NA 
HETATM    2  H1  UNL     1      -5.843  10.098  67.387  1.00  0.00     0.000 HD 
HETATM    3  H2  UNL     1      -7.473  10.484  67.413  1.00  0.00     0.000 HD 
HETATM    4  CA  UNL     1      -7.139   8.536  66.752  1.00  0.00    -0.074 C  
HETATM    5  C   UNL     1      -7.194   7.893  68.152  1.00  0.00    -0.090 C  
HETATM    6  OXT UNL     1      -7.800   6.875  68.443  1.00  0.00    -0.116 OA 
HETATM    7  O   UNL     1      -6.456   8.602  69.048  1.00  0.00    -0.046 OA 
ENDROOT
BRANCH   4   8
HETATM    8  C   UNL     1      -8.499   8.339  66.052  1.00  0.00    -0.148 C  
BRANCH   8   9
HETATM    9  C   UNL     1      -9.539   9.425  66.250  1.00  0.00    -0.297 A  
HETATM   10  C   UNL     1      -9.972  10.241  65.204  1.00  0.00    -0.395 A  
HETATM   11  C   UNL     1     -10.940  11.229  65.433  1.00  0.00    -0.132 A  
HETATM   12  I   UNL     1     -11.476  12.436  63.784  1.00  0.00    -0.622 I  
HETATM   13  C   UNL     1     -11.508  11.440  66.711  1.00  0.00    -0.078 A  
HETATM   14  C   UNL     1     -11.087  10.603  67.753  1.00  0.00    -0.321 A  
HETATM   15  C   UNL     1     -10.132   9.595  67.509  1.00  0.00    -0.247 A  
HETATM   16  I   UNL     1     -11.675  10.784  69.766  1.00  0.00    -0.436 I  
BRANCH  13  17
HETATM   17  O   UNL     1     -12.193  12.620  66.877  1.00  0.00    -0.489 OA 
BRANCH  17  18
HETATM   18  C   UNL     1     -11.740  13.698  67.596  1.00  0.00    -0.363 A  
HETATM   19  C   UNL     1     -10.809  14.474  66.887  1.00  0.00    -0.305 A  
HETATM   20  C   UNL     1     -10.227  15.604  67.465  1.00  0.00    -0.263 A  
HETATM   21  I   UNL     1      -8.849  16.692  66.335  1.00  0.00    -0.297 I  
HETATM   22  C   UNL     1     -10.561  15.963  68.771  1.00  0.00    -0.245 A  
HETATM   23  C   UNL     1     -11.494  15.193  69.479  1.00  0.00    -0.296 A  
HETATM   24  O   UNL     1      -9.990  17.065  69.359  1.00  0.00    -0.203 OA 
HETATM   25  H   UNL     1     -10.217  17.309  70.248  1.00  0.00     0.000 HD 
HETATM   26  I   UNL     1     -11.966  15.630  71.476  1.00  0.00    -0.644 I  
HETATM   27  C   UNL     1     -12.113  14.081  68.881  1.00  0.00    -0.351 A  
ENDBRANCH  17  18
ENDBRANCH  13  17
ENDBRANCH   8   9
ENDBRANCH   4   8
TORSDOF 4
ENDMDL
MODEL       87
REMARK 921   NORMALIZED FREE ENERGY PREDICTED BY IDOCK:   -4.82 KCAL/MOL
REMARK 922        TOTAL FREE ENERGY PREDICTED BY IDOCK:   -6.70 KCAL/MOL
REMARK 923 INTER-LIGAND FREE ENERGY PREDICTED BY IDOCK:   -6.82 KCAL/MOL
REMARK 924 INTRA-LIGAND FREE ENERGY PREDICTED BY IDOCK:    0.12 KCAL/MOL
REMARK 927      BINDING AFFINITY PREDICTED BY RF-SCORE:    0.00 PKD
ROOT
HETATM    1  N   UNL     1     -14.277  14.959  70.756  1.00  0.00    -0.518 NA 
HETATM    2  H1  UNL     1     -15.062  15.193  71.363  1.00  0.00     0.000 HD 
HETATM    3  H2  UNL     1     -14.123  13.950  70.745  1.00  0.00     0.000 HD 
HETATM    4  CA  UNL     1     -13.009  15.677  71.089  1.00  0.00    -0.478 C  
HETATM    5  C   UNL     1     -12.643  15.330  72.546  1.00  0.00    -0.359 C  
HETATM    6  OXT UNL     1     -11.534  15.435  73.044  1.00  0.00    -0.394 OA 
HETATM    7  O   UNL     1     -13.731  14.895  73.237  1.00  0.00    -0.454 OA 
ENDROOT
BRANCH   4   8
HETATM    8  C   UNL     1     -11.822  15.322  70.172  1.00  0.00    -0.356 C  
BRANCH   8   9
HETATM    9  C   UNL     1     -11.845  13.955  69.516  1.00  0.00    -0.383 A  
HETATM   10  C   UNL     1     -11.949  12.775  70.256  1.00  0.00    -0.358 A  
HETATM   11  C   UNL     1     -11.971  11.533  69.605  1.00  0.00    -0.339 A  
HETATM   12  I   UNL     1     -12.077   9.818  70.834  1.00  0.00    -0.380 I  
HETATM   13  C   UNL     1     -11.889  11.423  68.198  1.00  0.00    -0.218 A  
HETATM   14  C   UNL     1     -11.808  12.610  67.458  1.00  0.00    -0.334 A  
HETATM   15  C   UNL     1     -11.811  13.856  68.118  1.00  0.00    -0.407 A  
HETATM   16  I   UNL     1     -11.549  12.724  65.373  1.00  0.00    -0.477 I  
BRANCH  13  17
HETATM   17  O   UNL     1     -11.603  10.170  67.709  1.00  0.00    -0.239 OA 
BRANCH  17  18
HETATM   18  C   UNL     1     -10.380   9.553  67.791  1.00  0.00    -0.239 A  
HETATM   19  C   UNL     1      -9.337  10.340  67.275  1.00  0.00    -0.169 A  
HETATM   20  C   UNL     1      -8.023   9.870  67.259  1.00  0.00    -0.109 A  
HETATM   21  I   UNL     1      -6.540  11.110  66.468  1.00  0.00     0.009 I  
HETATM   22  C   UNL     1      -7.738   8.596  67.749  1.00  0.00    -0.102 A  
HETATM   23  C   UNL     1      -8.775   7.810  68.269  1.00  0.00    -0.127 A  
HETATM   24  O   UNL     1      -6.451   8.114  67.732  1.00  0.00    -0.051 OA 
HETATM   25  H   UNL     1      -6.257   7.245  68.065  1.00  0.00     0.000 HD 
HETATM   26  I   UNL     1      -8.423   5.852  68.934  1.00  0.00    -0.102 I  
HETATM   27  C   UNL     1     -10.092   8.300  68.325  1.00  0.00    -0.231 A  
ENDBRANCH  17  18
ENDBRANCH  13  17
ENDBRANCH   8   9
ENDBRANCH   4   8
TORSDOF 4
ENDMDL
MODEL       88
REMARK 921   NORMALIZED FREE ENERGY PREDICTED BY IDOCK:   -4.80 KCAL/MOL
REMARK 922        TOTAL FREE ENERGY PREDICTED BY IDOCK:   -6.68 KCAL/MOL
REMARK 923 INTER-LIGAND FREE ENERGY PREDICTED BY IDOCK:   -5.97 KCAL/MOL
REMARK 924 INTRA-LIGAND FREE ENERGY PREDICTED BY IDOCK:   -0.71 KCAL/MOL
REMARK 927      BINDING AFFINITY PREDICTED BY RF-SCORE:    0.00 PKD
ROOT
HETATM    1  N   UNL     1     -13.188  10.359  70.109  1.00  0.00    -0.408 NA 
HETATM    2  H1  UNL     1     -13.502  10.403  71.079  1.00  0.00     0.000 HD 
HETATM    3  H2  UNL     1     -13.335   9.424  69.729  1.00  0.00     0.000 HD 
HETATM    4  CA  UNL     1     -11.772  10.791  69.903  1.00  0.00    -0.333 C  
HETATM    5  C   UNL     1     -10.875   9.881  70.766  1.00  0.00    -0.317 C  
HETATM    6  OXT UNL     1      -9.680   9.698  70.600  1.00  0.00    -0.257 OA 
HETATM    7  O   UNL     1     -11.584   9.301  71.771  1.00  0.00    -0.366 OA 
ENDROOT
BRANCH   4   8
HETATM    8  C   UNL     1     -11.299  10.724  68.438  1.00  0.00    -0.367 C  
BRANCH   8   9
HETATM    9  C   UNL     1     -10.712  11.991  67.846  1.00  0.00    -0.243 A  
HETATM   10  C   UNL     1     -11.305  12.654  66.769  1.00  0.00    -0.373 A  
HETATM   11  C   UNL     1     -10.730  13.826  66.258  1.00  0.00    -0.285 A  
HETATM   12  I   UNL     1     -11.688  14.708  64.594  1.00  0.00    -0.299 I  
HETATM   13  C   UNL     1      -9.545  14.377  66.799  1.00  0.00    -0.268 A  
HETATM   14  C   UNL     1      -8.967  13.721  67.894  1.00  0.00    -0.193 A  
HETATM   15  C   UNL     1      -9.565  12.557  68.419  1.00  0.00    -0.176 A  
HETATM   16  I   UNL     1      -7.144  14.255  68.802  1.00  0.00    -0.110 I  
BRANCH  13  17
HETATM   17  O   UNL     1      -8.916  15.325  66.027  1.00  0.00    -0.292 OA 
BRANCH  17  18
HETATM   18  C   UNL     1      -8.667  16.617  66.417  1.00  0.00    -0.310 A  
HETATM   19  C   UNL     1      -7.507  17.150  65.832  1.00  0.00     0.014 A  
HETATM   20  C   UNL     1      -7.085  18.448  66.124  1.00  0.00    -0.265 A  
HETATM   21  I   UNL     1      -5.345  19.151  65.209  1.00  0.00    -0.249 I  
HETATM   22  C   UNL     1      -7.817  19.227  67.021  1.00  0.00    -0.247 A  
HETATM   23  C   UNL     1      -8.978  18.701  67.603  1.00  0.00    -0.275 A  
HETATM   24  O   UNL     1      -7.411  20.503  67.328  1.00  0.00    -0.291 OA 
HETATM   25  H   UNL     1      -7.909  21.034  67.939  1.00  0.00     0.000 HD 
HETATM   26  I   UNL     1     -10.066  19.790  69.027  1.00  0.00     0.190 I  
HETATM   27  C   UNL     1      -9.426  17.409  67.275  1.00  0.00    -0.251 A  
ENDBRANCH  17  18
ENDBRANCH  13  17
ENDBRANCH   8   9
ENDBRANCH   4   8
TORSDOF 4
ENDMDL
MODEL       89
REMARK 921   NORMALIZED FREE ENERGY PREDICTED BY IDOCK:   -4.80 KCAL/MOL
REMARK 922        TOTAL FREE ENERGY PREDICTED BY IDOCK:   -6.68 KCAL/MOL
REMARK 923 INTER-LIGAND FREE ENERGY PREDICTED BY IDOCK:   -6.32 KCAL/MOL
REMARK 924 INTRA-LIGAND FREE ENERGY PREDICTED BY IDOCK:   -0.36 KCAL/MOL
REMARK 927      BINDING AFFINITY PREDICTED BY RF-SCORE:    0.00 PKD
ROOT
HETATM    1  N   UNL     1     -11.660  14.323  70.722  1.00  0.00    -0.507 NA 
HETATM    2  H1  UNL     1     -11.493  15.219  71.180  1.00  0.00     0.000 HD 
HETATM    3  H2  UNL     1     -10.996  13.624  71.054  1.00  0.00     0.000 HD 
HETATM    4  CA  UNL     1     -11.651  14.387  69.229  1.00  0.00    -0.304 C  
HETATM    5  C   UNL     1     -10.275  14.929  68.791  1.00  0.00    -0.243 C  
HETATM    6  OXT UNL     1      -9.777  14.793  67.686  1.00  0.00    -0.211 OA 
HETATM    7  O   UNL     1      -9.669  15.606  69.803  1.00  0.00    -0.284 OA 
ENDROOT
BRANCH   4   8
HETATM    8  C   UNL     1     -11.904  13.033  68.537  1.00  0.00    -0.360 C  
BRANCH   8   9
HETATM    9  C   UNL     1     -11.507  11.785  69.303  1.00  0.00    -0.369 A  
HETATM   10  C   UNL     1     -12.413  11.074  70.091  1.00  0.00    -0.344 A  
HETATM   11  C   UNL     1     -12.001   9.922  70.776  1.00  0.00    -0.323 A  
HETATM   12  I   UNL     1     -13.450   8.963  71.979  1.00  0.00    -0.571 I  
HETATM   13  C   UNL     1     -10.674   9.440  70.702  1.00  0.00    -0.290 A  
HETATM   14  C   UNL     1      -9.774  10.143  69.890  1.00  0.00    -0.150 A  
HETATM   15  C   UNL     1     -10.201  11.286  69.185  1.00  0.00    -0.123 A  
HETATM   16  I   UNL     1      -7.721   9.717  69.705  1.00  0.00    -0.191 I  
BRANCH  13  17
HETATM   17  O   UNL     1     -10.319   8.509  71.649  1.00  0.00    -0.217 OA 
BRANCH  17  18
HETATM   18  C   UNL     1     -10.179   7.164  71.417  1.00  0.00    -0.192 A  
HETATM   19  C   UNL     1     -10.018   6.859  70.056  1.00  0.00    -0.190 A  
HETATM   20  C   UNL     1      -9.877   5.539  69.626  1.00  0.00    -0.193 A  
HETATM   21  I   UNL     1      -9.647   5.184  67.581  1.00  0.00    -0.204 I  
HETATM   22  C   UNL     1      -9.910   4.501  70.558  1.00  0.00    -0.227 A  
HETATM   23  C   UNL     1     -10.066   4.802  71.918  1.00  0.00    -0.198 A  
HETATM   24  O   UNL     1      -9.784   3.195  70.151  1.00  0.00    -0.139 OA 
HETATM   25  H   UNL     1      -9.807   2.488  70.786  1.00  0.00     0.000 HD 
HETATM   26  I   UNL     1     -10.217   3.280  73.353  1.00  0.00    -0.277 I  
HETATM   27  C   UNL     1     -10.164   6.135  72.354  1.00  0.00    -0.212 A  
ENDBRANCH  17  18
ENDBRANCH  13  17
ENDBRANCH   8   9
ENDBRANCH   4   8
TORSDOF 4
ENDMDL
MODEL       90
REMARK 921   NORMALIZED FREE ENERGY PREDICTED BY IDOCK:   -4.79 KCAL/MOL
REMARK 922        TOTAL FREE ENERGY PREDICTED BY IDOCK:   -6.67 KCAL/MOL
REMARK 923 INTER-LIGAND FREE ENERGY PREDICTED BY IDOCK:   -6.35 KCAL/MOL
REMARK 924 INTRA-LIGAND FREE ENERGY PREDICTED BY IDOCK:   -0.31 KCAL/MOL
REMARK 927      BINDING AFFINITY PREDICTED BY RF-SCORE:    0.00 PKD
ROOT
HETATM    1  N   UNL     1      -8.590   4.118  70.549  1.00  0.00    -0.076 NA 
HETATM    2  H1  UNL     1      -9.067   3.266  70.846  1.00  0.00     0.000 HD 
HETATM    3  H2  UNL     1      -7.585   4.036  70.702  1.00  0.00     0.000 HD 
HETATM    4  CA  UNL     1      -9.116   5.366  71.180  1.00  0.00    -0.141 C  
HETATM    5  C   UNL     1      -8.972   5.215  72.708  1.00  0.00    -0.121 C  
HETATM    6  OXT UNL     1      -8.962   6.130  73.514  1.00  0.00    -0.125 OA 
HETATM    7  O   UNL     1      -8.870   3.907  73.065  1.00  0.00    -0.097 OA 
ENDROOT
BRANCH   4   8
HETATM    8  C   UNL     1      -8.395   6.653  70.730  1.00  0.00    -0.129 C  
BRANCH   8   9
HETATM    9  C   UNL     1      -9.267   7.805  70.269  1.00  0.00    -0.156 A  
HETATM   10  C   UNL     1     -10.373   8.242  71.000  1.00  0.00    -0.230 A  
HETATM   11  C   UNL     1     -11.147   9.315  70.536  1.00  0.00    -0.265 A  
HETATM   12  I   UNL     1     -12.826   9.851  71.703  1.00  0.00    -0.572 I  
HETATM   13  C   UNL     1     -10.849   9.987  69.329  1.00  0.00    -0.230 A  
HETATM   14  C   UNL     1      -9.724   9.560  68.609  1.00  0.00    -0.155 A  
HETATM   15  C   UNL     1      -8.936   8.497  69.095  1.00  0.00    -0.146 A  
HETATM   16  I   UNL     1      -9.135  10.300  66.729  1.00  0.00    -0.181 I  
BRANCH  13  17
HETATM   17  O   UNL     1     -11.844  10.794  68.828  1.00  0.00    -0.359 OA 
BRANCH  17  18
HETATM   18  C   UNL     1     -11.829  12.166  68.850  1.00  0.00    -0.304 A  
HETATM   19  C   UNL     1     -11.589  12.730  67.586  1.00  0.00    -0.412 A  
HETATM   20  C   UNL     1     -11.524  14.114  67.417  1.00  0.00    -0.345 A  
HETATM   21  I   UNL     1     -11.158  14.858  65.500  1.00  0.00    -0.354 I  
HETATM   22  C   UNL     1     -11.683  14.953  68.519  1.00  0.00    -0.310 A  
HETATM   23  C   UNL     1     -11.927  14.395  69.781  1.00  0.00    -0.332 A  
HETATM   24  O   UNL     1     -11.610  16.317  68.372  1.00  0.00    -0.327 OA 
HETATM   25  H   UNL     1     -11.719  16.890  69.123  1.00  0.00     0.000 HD 
HETATM   26  I   UNL     1     -12.082  15.602  71.489  1.00  0.00    -0.640 I  
HETATM   27  C   UNL     1     -12.037  13.002  69.943  1.00  0.00    -0.347 A  
ENDBRANCH  17  18
ENDBRANCH  13  17
ENDBRANCH   8   9
ENDBRANCH   4   8
TORSDOF 4
ENDMDL
MODEL       91
REMARK 921   NORMALIZED FREE ENERGY PREDICTED BY IDOCK:   -4.79 KCAL/MOL
REMARK 922        TOTAL FREE ENERGY PREDICTED BY IDOCK:   -6.66 KCAL/MOL
REMARK 923 INTER-LIGAND FREE ENERGY PREDICTED BY IDOCK:   -6.13 KCAL/MOL
REMARK 924 INTRA-LIGAND FREE ENERGY PREDICTED BY IDOCK:   -0.53 KCAL/MOL
REMARK 927      BINDING AFFINITY PREDICTED BY RF-SCORE:    0.00 PKD
ROOT
HETATM    1  N   UNL     1     -11.989   8.169  70.435  1.00  0.00    -0.464 NA 
HETATM    2  H1  UNL     1     -12.154   7.963  71.421  1.00  0.00     0.000 HD 
HETATM    3  H2  UNL     1     -12.708   7.736  69.855  1.00  0.00     0.000 HD 
HETATM    4  CA  UNL     1     -10.627   7.793  69.950  1.00  0.00    -0.239 C  
HETATM    5  C   UNL     1     -10.448   6.279  70.185  1.00  0.00    -0.222 C  
HETATM    6  OXT UNL     1      -9.639   5.563  69.618  1.00  0.00    -0.143 OA 
HETATM    7  O   UNL     1     -11.308   5.823  71.134  1.00  0.00    -0.215 OA 
ENDROOT
BRANCH   4   8
HETATM    8  C   UNL     1     -10.378   8.105  68.461  1.00  0.00    -0.230 C  
BRANCH   8   9
HETATM    9  C   UNL     1     -10.065   9.545  68.103  1.00  0.00    -0.214 A  
HETATM   10  C   UNL     1     -10.880  10.297  67.255  1.00  0.00    -0.312 A  
HETATM   11  C   UNL     1     -10.553  11.627  66.957  1.00  0.00    -0.237 A  
HETATM   12  I   UNL     1     -11.834  12.644  65.619  1.00  0.00    -0.434 I  
HETATM   13  C   UNL     1      -9.403  12.254  67.490  1.00  0.00    -0.183 A  
HETATM   14  C   UNL     1      -8.600  11.503  68.360  1.00  0.00    -0.159 A  
HETATM   15  C   UNL     1      -8.949  10.174  68.675  1.00  0.00    -0.136 A  
HETATM   16  I   UNL     1      -6.776  12.149  69.188  1.00  0.00     0.015 I  
BRANCH  13  17
HETATM   17  O   UNL     1      -9.023  13.429  66.886  1.00  0.00    -0.229 OA 
BRANCH  17  18
HETATM   18  C   UNL     1      -9.254  14.684  67.391  1.00  0.00    -0.198 A  
HETATM   19  C   UNL     1     -10.031  14.667  68.560  1.00  0.00    -0.235 A  
HETATM   20  C   UNL     1     -10.380  15.853  69.209  1.00  0.00    -0.249 A  
HETATM   21  I   UNL     1     -11.543  15.727  70.939  1.00  0.00    -0.482 I  
HETATM   22  C   UNL     1      -9.965  17.076  68.683  1.00  0.00    -0.294 A  
HETATM   23  C   UNL     1      -9.185  17.097  67.519  1.00  0.00    -0.233 A  
HETATM   24  O   UNL     1     -10.309  18.253  69.302  1.00  0.00    -0.452 OA 
HETATM   25  H   UNL     1     -10.026  19.087  68.944  1.00  0.00     0.000 HD 
HETATM   26  I   UNL     1      -8.610  18.908  66.632  1.00  0.00    -0.323 I  
HETATM   27  C   UNL     1      -8.797  15.900  66.891  1.00  0.00    -0.264 A  
ENDBRANCH  17  18
ENDBRANCH  13  17
ENDBRANCH   8   9
ENDBRANCH   4   8
TORSDOF 4
ENDMDL
MODEL       92
REMARK 921   NORMALIZED FREE ENERGY PREDICTED BY IDOCK:   -4.76 KCAL/MOL
REMARK 922        TOTAL FREE ENERGY PREDICTED BY IDOCK:   -6.63 KCAL/MOL
REMARK 923 INTER-LIGAND FREE ENERGY PREDICTED BY IDOCK:   -6.81 KCAL/MOL
REMARK 924 INTRA-LIGAND FREE ENERGY PREDICTED BY IDOCK:    0.19 KCAL/MOL
REMARK 927      BINDING AFFINITY PREDICTED BY RF-SCORE:    0.00 PKD
ROOT
HETATM    1  N   UNL     1     -14.070   8.554  70.956  1.00  0.00    -0.606 NA 
HETATM    2  H1  UNL     1     -14.366   7.578  70.956  1.00  0.00     0.000 HD 
HETATM    3  H2  UNL     1     -13.566   8.774  70.097  1.00  0.00     0.000 HD 
HETATM    4  CA  UNL     1     -13.266   8.951  72.152  1.00  0.00    -0.429 C  
HETATM    5  C   UNL     1     -12.017   8.046  72.198  1.00  0.00    -0.348 C  
HETATM    6  OXT UNL     1     -10.985   8.291  72.799  1.00  0.00    -0.354 OA 
HETATM    7  O   UNL     1     -12.211   6.905  71.484  1.00  0.00    -0.333 OA 
ENDROOT
BRANCH   4   8
HETATM    8  C   UNL     1     -12.819  10.426  72.151  1.00  0.00    -0.321 C  
BRANCH   8   9
HETATM    9  C   UNL     1     -12.256  10.974  70.853  1.00  0.00    -0.471 A  
HETATM   10  C   UNL     1     -11.695  10.149  69.877  1.00  0.00    -0.248 A  
HETATM   11  C   UNL     1     -11.191  10.699  68.690  1.00  0.00    -0.278 A  
HETATM   12  I   UNL     1     -10.318   9.355  67.313  1.00  0.00    -0.271 I  
HETATM   13  C   UNL     1     -11.227  12.090  68.435  1.00  0.00    -0.262 A  
HETATM   14  C   UNL     1     -11.812  12.912  69.407  1.00  0.00    -0.312 A  
HETATM   15  C   UNL     1     -12.339  12.348  70.587  1.00  0.00    -0.367 A  
HETATM   16  I   UNL     1     -11.879  15.015  69.336  1.00  0.00    -0.328 I  
BRANCH  13  17
HETATM   17  O   UNL     1     -10.432  12.533  67.404  1.00  0.00    -0.217 OA 
BRANCH  17  18
HETATM   18  C   UNL     1      -9.307  13.304  67.554  1.00  0.00    -0.218 A  
HETATM   19  C   UNL     1      -8.308  12.671  68.312  1.00  0.00    -0.165 A  
HETATM   20  C   UNL     1      -7.097  13.310  68.583  1.00  0.00    -0.103 A  
HETATM   21  I   UNL     1      -5.675  12.291  69.722  1.00  0.00    -0.148 I  
HETATM   22  C   UNL     1      -6.877  14.603  68.107  1.00  0.00    -0.124 A  
HETATM   23  C   UNL     1      -7.869  15.236  67.347  1.00  0.00    -0.194 A  
HETATM   24  O   UNL     1      -5.695  15.251  68.373  1.00  0.00    -0.094 OA 
HETATM   25  H   UNL     1      -5.545  16.132  68.050  1.00  0.00     0.000 HD 
HETATM   26  I   UNL     1      -7.632  17.212  66.685  1.00  0.00    -0.373 I  
HETATM   27  C   UNL     1      -9.071  14.575  67.038  1.00  0.00    -0.254 A  
ENDBRANCH  17  18
ENDBRANCH  13  17
ENDBRANCH   8   9
ENDBRANCH   4   8
TORSDOF 4
ENDMDL
MODEL       93
REMARK 921   NORMALIZED FREE ENERGY PREDICTED BY IDOCK:   -4.75 KCAL/MOL
REMARK 922        TOTAL FREE ENERGY PREDICTED BY IDOCK:   -6.62 KCAL/MOL
REMARK 923 INTER-LIGAND FREE ENERGY PREDICTED BY IDOCK:   -6.07 KCAL/MOL
REMARK 924 INTRA-LIGAND FREE ENERGY PREDICTED BY IDOCK:   -0.55 KCAL/MOL
REMARK 927      BINDING AFFINITY PREDICTED BY RF-SCORE:    0.00 PKD
ROOT
HETATM    1  N   UNL     1     -10.251  13.903  64.278  1.00  0.00    -0.703 NA 
HETATM    2  H1  UNL     1     -10.715  14.808  64.204  1.00  0.00     0.000 HD 
HETATM    3  H2  UNL     1      -9.744  13.691  63.419  1.00  0.00     0.000 HD 
HETATM    4  CA  UNL     1     -11.164  12.775  64.638  1.00  0.00    -0.319 C  
HETATM    5  C   UNL     1     -12.259  12.694  63.555  1.00  0.00    -0.547 C  
HETATM    6  OXT UNL     1     -12.952  11.719  63.318  1.00  0.00    -0.633 OA 
HETATM    7  O   UNL     1     -12.378  13.872  62.887  1.00  0.00    -0.487 OA 
ENDROOT
BRANCH   4   8
HETATM    8  C   UNL     1     -10.462  11.407  64.749  1.00  0.00    -0.366 C  
BRANCH   8   9
HETATM    9  C   UNL     1      -9.976  10.993  66.125  1.00  0.00    -0.277 A  
HETATM   10  C   UNL     1     -10.807  11.012  67.247  1.00  0.00    -0.335 A  
HETATM   11  C   UNL     1     -10.315  10.615  68.498  1.00  0.00    -0.183 A  
HETATM   12  I   UNL     1     -11.652  10.739  70.129  1.00  0.00    -0.421 I  
HETATM   13  C   UNL     1      -8.979  10.188  68.676  1.00  0.00    -0.136 A  
HETATM   14  C   UNL     1      -8.154  10.147  67.543  1.00  0.00    -0.113 A  
HETATM   15  C   UNL     1      -8.664  10.524  66.284  1.00  0.00    -0.159 A  
HETATM   16  I   UNL     1      -6.103   9.674  67.553  1.00  0.00    -0.052 I  
BRANCH  13  17
HETATM   17  O   UNL     1      -8.534  10.132  69.976  1.00  0.00    -0.160 OA 
BRANCH  17  18
HETATM   18  C   UNL     1      -8.302   8.976  70.679  1.00  0.00    -0.186 A  
HETATM   19  C   UNL     1      -8.778   7.831  70.019  1.00  0.00    -0.141 A  
HETATM   20  C   UNL     1      -8.645   6.565  70.591  1.00  0.00    -0.139 A  
HETATM   21  I   UNL     1      -9.389   4.922  69.537  1.00  0.00    -0.248 I  
HETATM   22  C   UNL     1      -8.043   6.430  71.842  1.00  0.00    -0.109 A  
HETATM   23  C   UNL     1      -7.563   7.570  72.501  1.00  0.00    -0.083 A  
HETATM   24  O   UNL     1      -7.914   5.193  72.424  1.00  0.00    -0.099 OA 
HETATM   25  H   UNL     1      -7.504   5.101  73.276  1.00  0.00     0.000 HD 
HETATM   26  I   UNL     1      -6.733   7.441  74.423  1.00  0.00    -0.121 I  
HETATM   27  C   UNL     1      -7.657   8.840  71.905  1.00  0.00    -0.051 A  
ENDBRANCH  17  18
ENDBRANCH  13  17
ENDBRANCH   8   9
ENDBRANCH   4   8
TORSDOF 4
ENDMDL
MODEL       94
REMARK 921   NORMALIZED FREE ENERGY PREDICTED BY IDOCK:   -4.75 KCAL/MOL
REMARK 922        TOTAL FREE ENERGY PREDICTED BY IDOCK:   -6.62 KCAL/MOL
REMARK 923 INTER-LIGAND FREE ENERGY PREDICTED BY IDOCK:   -6.36 KCAL/MOL
REMARK 924 INTRA-LIGAND FREE ENERGY PREDICTED BY IDOCK:   -0.26 KCAL/MOL
REMARK 927      BINDING AFFINITY PREDICTED BY RF-SCORE:    0.00 PKD
ROOT
HETATM    1  N   UNL     1     -10.355  17.353  68.995  1.00  0.00    -0.349 NA 
HETATM    2  H1  UNL     1     -10.983  18.036  69.419  1.00  0.00     0.000 HD 
HETATM    3  H2  UNL     1      -9.389  17.677  69.048  1.00  0.00     0.000 HD 
HETATM    4  CA  UNL     1     -10.707  16.988  67.589  1.00  0.00    -0.295 C  
HETATM    5  C   UNL     1     -10.688  18.281  66.749  1.00  0.00    -0.218 C  
HETATM    6  OXT UNL     1     -10.579  18.339  65.536  1.00  0.00    -0.632 OA 
HETATM    7  O   UNL     1     -10.826  19.381  67.537  1.00  0.00    -0.478 OA 
ENDROOT
BRANCH   4   8
HETATM    8  C   UNL     1      -9.757  15.957  66.948  1.00  0.00    -0.241 C  
BRANCH   8   9
HETATM    9  C   UNL     1     -10.094  14.492  67.149  1.00  0.00    -0.252 A  
HETATM   10  C   UNL     1      -9.713  13.507  66.236  1.00  0.00    -0.287 A  
HETATM   11  C   UNL     1     -10.043  12.164  66.466  1.00  0.00    -0.209 A  
HETATM   12  I   UNL     1      -9.458  10.773  64.987  1.00  0.00    -0.353 I  
HETATM   13  C   UNL     1     -10.765  11.756  67.611  1.00  0.00    -0.214 A  
HETATM   14  C   UNL     1     -11.126  12.744  68.537  1.00  0.00    -0.266 A  
HETATM   15  C   UNL     1     -10.769  14.089  68.311  1.00  0.00    -0.262 A  
HETATM   16  I   UNL     1     -12.306  12.428  70.250  1.00  0.00     0.042 I  
BRANCH  13  17
HETATM   17  O   UNL     1     -11.295  10.487  67.567  1.00  0.00    -0.396 OA 
BRANCH  17  18
HETATM   18  C   UNL     1     -10.813   9.409  68.266  1.00  0.00    -0.112 A  
HETATM   19  C   UNL     1     -10.754   8.239  67.492  1.00  0.00    -0.217 A  
HETATM   20  C   UNL     1     -10.303   7.037  68.040  1.00  0.00    -0.193 A  
HETATM   21  I   UNL     1     -10.254   5.349  66.812  1.00  0.00    -0.329 I  
HETATM   22  C   UNL     1      -9.919   6.989  69.380  1.00  0.00    -0.162 A  
HETATM   23  C   UNL     1      -9.973   8.155  70.154  1.00  0.00    -0.187 A  
HETATM   24  O   UNL     1      -9.483   5.811  69.938  1.00  0.00    -0.144 OA 
HETATM   25  H   UNL     1      -9.221   5.778  70.851  1.00  0.00     0.000 HD 
HETATM   26  I   UNL     1      -9.496   8.123  72.197  1.00  0.00    -0.372 I  
HETATM   27  C   UNL     1     -10.385   9.376  69.591  1.00  0.00    -0.229 A  
ENDBRANCH  17  18
ENDBRANCH  13  17
ENDBRANCH   8   9
ENDBRANCH   4   8
TORSDOF 4
ENDMDL
MODEL       95
REMARK 921   NORMALIZED FREE ENERGY PREDICTED BY IDOCK:   -4.74 KCAL/MOL
REMARK 922        TOTAL FREE ENERGY PREDICTED BY IDOCK:   -6.61 KCAL/MOL
REMARK 923 INTER-LIGAND FREE ENERGY PREDICTED BY IDOCK:   -6.44 KCAL/MOL
REMARK 924 INTRA-LIGAND FREE ENERGY PREDICTED BY IDOCK:   -0.17 KCAL/MOL
REMARK 927      BINDING AFFINITY PREDICTED BY RF-SCORE:    0.00 PKD
ROOT
HETATM    1  N   UNL     1     -11.176   5.268  66.034  1.00  0.00    -0.772 NA 
HETATM    2  H1  UNL     1     -11.765   4.591  66.520  1.00  0.00     0.000 HD 
HETATM    3  H2  UNL     1     -10.717   4.833  65.234  1.00  0.00     0.000 HD 
HETATM    4  CA  UNL     1     -10.172   5.944  66.910  1.00  0.00    -0.214 C  
HETATM    5  C   UNL     1      -9.277   4.851  67.529  1.00  0.00    -0.123 C  
HETATM    6  OXT UNL     1      -8.165   5.024  67.999  1.00  0.00    -0.097 OA 
HETATM    7  O   UNL     1      -9.894   3.639  67.503  1.00  0.00    -0.129 OA 
ENDROOT
BRANCH   4   8
HETATM    8  C   UNL     1      -9.282   6.968  66.177  1.00  0.00    -0.119 C  
BRANCH   8   9
HETATM    9  C   UNL     1      -9.174   8.350  66.792  1.00  0.00    -0.214 A  
HETATM   10  C   UNL     1     -10.211   8.921  67.532  1.00  0.00    -0.309 A  
HETATM   11  C   UNL     1     -10.063  10.200  68.086  1.00  0.00    -0.152 A  
HETATM   12  I   UNL     1     -11.722  10.978  69.140  1.00  0.00    -0.342 I  
HETATM   13  C   UNL     1      -8.879  10.955  67.922  1.00  0.00    -0.134 A  
HETATM   14  C   UNL     1      -7.832  10.370  67.198  1.00  0.00    -0.110 A  
HETATM   15  C   UNL     1      -7.979   9.073  66.665  1.00  0.00    -0.100 A  
HETATM   16  I   UNL     1      -6.022  11.322  66.701  1.00  0.00    -0.066 I  
BRANCH  13  17
HETATM   17  O   UNL     1      -8.971  12.292  68.231  1.00  0.00    -0.190 OA 
BRANCH  17  18
HETATM   18  C   UNL     1      -9.436  13.266  67.383  1.00  0.00    -0.218 A  
HETATM   19  C   UNL     1     -10.141  12.744  66.287  1.00  0.00    -0.267 A  
HETATM   20  C   UNL     1     -10.674  13.584  65.309  1.00  0.00    -0.323 A  
HETATM   21  I   UNL     1     -11.703  12.715  63.713  1.00  0.00    -0.637 I  
HETATM   22  C   UNL     1     -10.495  14.964  65.410  1.00  0.00    -0.384 A  
HETATM   23  C   UNL     1      -9.795  15.489  66.505  1.00  0.00    -0.264 A  
HETATM   24  O   UNL     1     -11.004  15.805  64.450  1.00  0.00    -0.790 OA 
HETATM   25  H   UNL     1     -10.881  16.745  64.519  1.00  0.00     0.000 HD 
HETATM   26  I   UNL     1      -9.414  17.545  66.662  1.00  0.00    -0.286 I  
HETATM   27  C   UNL     1      -9.296  14.645  67.512  1.00  0.00    -0.195 A  
ENDBRANCH  17  18
ENDBRANCH  13  17
ENDBRANCH   8   9
ENDBRANCH   4   8
TORSDOF 4
ENDMDL
MODEL       96
REMARK 921   NORMALIZED FREE ENERGY PREDICTED BY IDOCK:   -4.74 KCAL/MOL
REMARK 922        TOTAL FREE ENERGY PREDICTED BY IDOCK:   -6.61 KCAL/MOL
REMARK 923 INTER-LIGAND FREE ENERGY PREDICTED BY IDOCK:   -5.98 KCAL/MOL
REMARK 924 INTRA-LIGAND FREE ENERGY PREDICTED BY IDOCK:   -0.63 KCAL/MOL
REMARK 927      BINDING AFFINITY PREDICTED BY RF-SCORE:    0.00 PKD
ROOT
HETATM    1  N   UNL     1      -7.880   5.280  72.221  1.00  0.00    -0.100 NA 
HETATM    2  H1  UNL     1      -8.005   4.272  72.310  1.00  0.00     0.000 HD 
HETATM    3  H2  UNL     1      -7.135   5.604  72.838  1.00  0.00     0.000 HD 
HETATM    4  CA  UNL     1      -9.127   6.074  72.446  1.00  0.00    -0.136 C  
HETATM    5  C   UNL     1      -9.637   5.752  73.865  1.00  0.00    -0.148 C  
HETATM    6  OXT UNL     1     -10.400   6.443  74.519  1.00  0.00    -0.329 OA 
HETATM    7  O   UNL     1      -9.138   4.568  74.310  1.00  0.00    -0.107 OA 
ENDROOT
BRANCH   4   8
HETATM    8  C   UNL     1      -8.938   7.598  72.311  1.00  0.00    -0.177 C  
BRANCH   8   9
HETATM    9  C   UNL     1      -9.676   8.285  71.178  1.00  0.00    -0.209 A  
HETATM   10  C   UNL     1      -9.444   7.969  69.838  1.00  0.00    -0.160 A  
HETATM   11  C   UNL     1     -10.154   8.627  68.824  1.00  0.00    -0.196 A  
HETATM   12  I   UNL     1      -9.677   8.102  66.834  1.00  0.00    -0.349 I  
HETATM   13  C   UNL     1     -11.117   9.623  69.108  1.00  0.00    -0.092 A  
HETATM   14  C   UNL     1     -11.363   9.920  70.456  1.00  0.00    -0.327 A  
HETATM   15  C   UNL     1     -10.663   9.237  71.470  1.00  0.00    -0.425 A  
HETATM   16  I   UNL     1     -12.645  11.440  71.147  1.00  0.00    -0.214 I  
BRANCH  13  17
HETATM   17  O   UNL     1     -11.506  10.405  68.046  1.00  0.00    -0.356 OA 
BRANCH  17  18
HETATM   18  C   UNL     1     -10.825  11.505  67.588  1.00  0.00    -0.227 A  
HETATM   19  C   UNL     1     -11.538  12.223  66.615  1.00  0.00    -0.438 A  
HETATM   20  C   UNL     1     -10.996  13.364  66.022  1.00  0.00    -0.271 A  
HETATM   21  I   UNL     1     -12.130  14.362  64.581  1.00  0.00    -0.331 I  
HETATM   22  C   UNL     1      -9.721  13.794  66.389  1.00  0.00    -0.294 A  
HETATM   23  C   UNL     1      -9.008  13.083  67.363  1.00  0.00    -0.204 A  
HETATM   24  O   UNL     1      -9.168  14.910  65.808  1.00  0.00    -0.498 OA 
HETATM   25  H   UNL     1      -8.299  15.203  66.057  1.00  0.00     0.000 HD 
HETATM   26  I   UNL     1      -7.051  13.628  67.887  1.00  0.00    -0.195 I  
HETATM   27  C   UNL     1      -9.572  11.959  67.991  1.00  0.00    -0.193 A  
ENDBRANCH  17  18
ENDBRANCH  13  17
ENDBRANCH   8   9
ENDBRANCH   4   8
TORSDOF 4
ENDMDL
MODEL       97
REMARK 921   NORMALIZED FREE ENERGY PREDICTED BY IDOCK:   -4.70 KCAL/MOL
REMARK 922        TOTAL FREE ENERGY PREDICTED BY IDOCK:   -6.56 KCAL/MOL
REMARK 923 INTER-LIGAND FREE ENERGY PREDICTED BY IDOCK:   -6.13 KCAL/MOL
REMARK 924 INTRA-LIGAND FREE ENERGY PREDICTED BY IDOCK:   -0.43 KCAL/MOL
REMARK 927      BINDING AFFINITY PREDICTED BY RF-SCORE:    0.00 PKD
ROOT
HETATM    1  N   UNL     1      -9.635   2.887  67.423  1.00  0.00    -0.379 NA 
HETATM    2  H1  UNL     1      -8.902   2.178  67.425  1.00  0.00     0.000 HD 
HETATM    3  H2  UNL     1     -10.548   2.457  67.275  1.00  0.00     0.000 HD 
HETATM    4  CA  UNL     1      -9.414   3.994  66.443  1.00  0.00    -0.191 C  
HETATM    5  C   UNL     1      -9.318   3.365  65.039  1.00  0.00    -0.154 C  
HETATM    6  OXT UNL     1      -9.488   3.953  63.984  1.00  0.00    -0.142 OA 
HETATM    7  O   UNL     1      -8.997   2.045  65.112  1.00  0.00    -0.118 OA 
ENDROOT
BRANCH   4   8
HETATM    8  C   UNL     1     -10.522   5.066  66.441  1.00  0.00    -0.349 C  
BRANCH   8   9
HETATM    9  C   UNL     1     -10.141   6.450  66.930  1.00  0.00    -0.244 A  
HETATM   10  C   UNL     1     -10.632   6.980  68.125  1.00  0.00    -0.250 A  
HETATM   11  C   UNL     1     -10.248   8.262  68.540  1.00  0.00    -0.208 A  
HETATM   12  I   UNL     1     -11.099   8.976  70.338  1.00  0.00    -0.219 I  
HETATM   13  C   UNL     1      -9.364   9.063  67.780  1.00  0.00    -0.140 A  
HETATM   14  C   UNL     1      -8.854   8.518  66.593  1.00  0.00    -0.135 A  
HETATM   15  C   UNL     1      -9.226   7.218  66.195  1.00  0.00    -0.136 A  
HETATM   16  I   UNL     1      -7.629   9.538  65.219  1.00  0.00    -0.128 I  
BRANCH  13  17
HETATM   17  O   UNL     1      -9.315  10.394  68.120  1.00  0.00    -0.141 OA 
BRANCH  17  18
HETATM   18  C   UNL     1     -10.132  11.368  67.602  1.00  0.00    -0.180 A  
HETATM   19  C   UNL     1     -10.498  12.335  68.552  1.00  0.00    -0.248 A  
HETATM   20  C   UNL     1     -11.340  13.395  68.212  1.00  0.00    -0.295 A  
HETATM   21  I   UNL     1     -11.833  14.781  69.694  1.00  0.00    -0.381 I  
HETATM   22  C   UNL     1     -11.839  13.492  66.913  1.00  0.00    -0.407 A  
HETATM   23  C   UNL     1     -11.472  12.531  65.961  1.00  0.00    -0.377 A  
HETATM   24  O   UNL     1     -12.677  14.523  66.563  1.00  0.00    -0.425 OA 
HETATM   25  H   UNL     1     -13.017  14.589  65.678  1.00  0.00     0.000 HD 
HETATM   26  I   UNL     1     -12.263  12.573  64.019  1.00  0.00    -0.571 I  
HETATM   27  C   UNL     1     -10.589  11.489  66.293  1.00  0.00    -0.309 A  
ENDBRANCH  17  18
ENDBRANCH  13  17
ENDBRANCH   8   9
ENDBRANCH   4   8
TORSDOF 4
ENDMDL
MODEL       98
REMARK 921   NORMALIZED FREE ENERGY PREDICTED BY IDOCK:   -4.70 KCAL/MOL
REMARK 922        TOTAL FREE ENERGY PREDICTED BY IDOCK:   -6.55 KCAL/MOL
REMARK 923 INTER-LIGAND FREE ENERGY PREDICTED BY IDOCK:   -6.67 KCAL/MOL
REMARK 924 INTRA-LIGAND FREE ENERGY PREDICTED BY IDOCK:    0.12 KCAL/MOL
REMARK 927      BINDING AFFINITY PREDICTED BY RF-SCORE:    0.00 PKD
ROOT
HETATM    1  N   UNL     1      -7.782   5.890  71.905  1.00  0.00    -0.100 NA 
HETATM    2  H1  UNL     1      -8.108   5.182  72.563  1.00  0.00     0.000 HD 
HETATM    3  H2  UNL     1      -6.764   5.959  71.931  1.00  0.00     0.000 HD 
HETATM    4  CA  UNL     1      -8.402   7.237  72.097  1.00  0.00    -0.105 C  
HETATM    5  C   UNL     1      -8.085   7.699  73.534  1.00  0.00    -0.147 C  
HETATM    6  OXT UNL     1      -8.114   8.851  73.933  1.00  0.00    -0.315 OA 
HETATM    7  O   UNL     1      -7.773   6.643  74.332  1.00  0.00    -0.104 OA 
ENDROOT
BRANCH   4   8
HETATM    8  C   UNL     1      -7.909   8.307  71.103  1.00  0.00    -0.102 C  
BRANCH   8   9
HETATM    9  C   UNL     1      -8.965   9.174  70.445  1.00  0.00    -0.263 A  
HETATM   10  C   UNL     1      -8.727   9.865  69.256  1.00  0.00    -0.172 A  
HETATM   11  C   UNL     1      -9.736  10.650  68.682  1.00  0.00    -0.178 A  
HETATM   12  I   UNL     1      -9.239  11.691  66.910  1.00  0.00    -0.211 I  
HETATM   13  C   UNL     1     -11.015  10.777  69.272  1.00  0.00    -0.241 A  
HETATM   14  C   UNL     1     -11.257  10.063  70.453  1.00  0.00    -0.323 A  
HETATM   15  C   UNL     1     -10.245   9.255  71.011  1.00  0.00    -0.384 A  
HETATM   16  I   UNL     1     -13.020  10.175  71.598  1.00  0.00    -0.515 I  
BRANCH  13  17
HETATM   17  O   UNL     1     -11.796  11.805  68.799  1.00  0.00    -0.306 OA 
BRANCH  17  18
HETATM   18  C   UNL     1     -11.639  13.128  69.129  1.00  0.00    -0.316 A  
HETATM   19  C   UNL     1     -12.202  13.450  70.374  1.00  0.00    -0.415 A  
HETATM   20  C   UNL     1     -12.153  14.755  70.870  1.00  0.00    -0.324 A  
HETATM   21  I   UNL     1     -13.021  15.138  72.729  1.00  0.00    -0.724 I  
HETATM   22  C   UNL     1     -11.550  15.759  70.113  1.00  0.00    -0.357 A  
HETATM   23  C   UNL     1     -10.983  15.440  68.872  1.00  0.00    -0.261 A  
HETATM   24  O   UNL     1     -11.502  17.050  70.580  1.00  0.00    -0.232 OA 
HETATM   25  H   UNL     1     -11.091  17.735  70.065  1.00  0.00     0.000 HD 
HETATM   26  I   UNL     1     -10.145  16.925  67.649  1.00  0.00    -0.304 I  
HETATM   27  C   UNL     1     -10.994  14.118  68.393  1.00  0.00    -0.270 A  
ENDBRANCH  17  18
ENDBRANCH  13  17
ENDBRANCH   8   9
ENDBRANCH   4   8
TORSDOF 4
ENDMDL
MODEL       99
REMARK 921   NORMALIZED FREE ENERGY PREDICTED BY IDOCK:   -4.69 KCAL/MOL
REMARK 922        TOTAL FREE ENERGY PREDICTED BY IDOCK:   -6.55 KCAL/MOL
REMARK 923 INTER-LIGAND FREE ENERGY PREDICTED BY IDOCK:   -6.49 KCAL/MOL
REMARK 924 INTRA-LIGAND FREE ENERGY PREDICTED BY IDOCK:   -0.06 KCAL/MOL
REMARK 927      BINDING AFFINITY PREDICTED BY RF-SCORE:    0.00 PKD
ROOT
HETATM    1  N   UNL     1      -9.722  13.948  65.697  1.00  0.00    -0.510 NA 
HETATM    2  H1  UNL     1     -10.051  14.883  65.938  1.00  0.00     0.000 HD 
HETATM    3  H2  UNL     1      -9.430  13.914  64.720  1.00  0.00     0.000 HD 
HETATM    4  CA  UNL     1     -10.703  12.859  65.988  1.00  0.00    -0.277 C  
HETATM    5  C   UNL     1     -11.989  13.162  65.193  1.00  0.00    -0.394 C  
HETATM    6  OXT UNL     1     -12.853  12.351  64.903  1.00  0.00    -0.711 OA 
HETATM    7  O   UNL     1     -12.060  14.478  64.854  1.00  0.00    -0.402 OA 
ENDROOT
BRANCH   4   8
HETATM    8  C   UNL     1     -10.205  11.447  65.623  1.00  0.00    -0.298 C  
BRANCH   8   9
HETATM    9  C   UNL     1     -10.398  10.359  66.663  1.00  0.00    -0.292 A  
HETATM   10  C   UNL     1     -10.073   9.025  66.415  1.00  0.00    -0.351 A  
HETATM   11  C   UNL     1     -10.264   8.055  67.409  1.00  0.00    -0.261 A  
HETATM   12  I   UNL     1      -9.786   6.061  66.896  1.00  0.00    -0.221 I  
HETATM   13  C   UNL     1     -10.785   8.379  68.682  1.00  0.00    -0.034 A  
HETATM   14  C   UNL     1     -11.088   9.724  68.935  1.00  0.00    -0.099 A  
HETATM   15  C   UNL     1     -10.870  10.697  67.940  1.00  0.00    -0.328 A  
HETATM   16  I   UNL     1     -11.990  10.453  70.692  1.00  0.00    -0.482 I  
BRANCH  13  17
HETATM   17  O   UNL     1     -11.217   7.318  69.443  1.00  0.00    -0.125 OA 
BRANCH  17  18
HETATM   18  C   UNL     1     -10.423   6.577  70.282  1.00  0.00    -0.216 A  
HETATM   19  C   UNL     1      -9.883   7.335  71.333  1.00  0.00    -0.191 A  
HETATM   20  C   UNL     1      -9.037   6.753  72.279  1.00  0.00    -0.132 A  
HETATM   21  I   UNL     1      -8.279   7.962  73.803  1.00  0.00    -0.303 I  
HETATM   22  C   UNL     1      -8.708   5.401  72.173  1.00  0.00    -0.130 A  
HETATM   23  C   UNL     1      -9.249   4.641  71.128  1.00  0.00    -0.139 A  
HETATM   24  O   UNL     1      -7.868   4.815  73.089  1.00  0.00    -0.094 OA 
HETATM   25  H   UNL     1      -7.644   3.894  73.017  1.00  0.00     0.000 HD 
HETATM   26  I   UNL     1      -8.718   2.629  70.865  1.00  0.00    -0.160 I  
HETATM   27  C   UNL     1     -10.136   5.217  70.202  1.00  0.00    -0.342 A  
ENDBRANCH  17  18
ENDBRANCH  13  17
ENDBRANCH   8   9
ENDBRANCH   4   8
TORSDOF 4
ENDMDL
MODEL      100
REMARK 921   NORMALIZED FREE ENERGY PREDICTED BY IDOCK:   -4.67 KCAL/MOL
REMARK 922        TOTAL FREE ENERGY PREDICTED BY IDOCK:   -6.52 KCAL/MOL
REMARK 923 INTER-LIGAND FREE ENERGY PREDICTED BY IDOCK:   -6.24 KCAL/MOL
REMARK 924 INTRA-LIGAND FREE ENERGY PREDICTED BY IDOCK:   -0.28 KCAL/MOL
REMARK 927      BINDING AFFINITY PREDICTED BY RF-SCORE:    0.00 PKD
ROOT
HETATM    1  N   UNL     1     -10.404  18.615  65.916  1.00  0.00    -0.588 NA 
HETATM    2  H1  UNL     1     -10.926  19.431  66.237  1.00  0.00     0.000 HD 
HETATM    3  H2  UNL     1     -10.887  17.756  66.179  1.00  0.00     0.000 HD 
HETATM    4  CA  UNL     1      -8.982  18.578  66.376  1.00  0.00    -0.266 C  
HETATM    5  C   UNL     1      -8.989  18.598  67.918  1.00  0.00    -0.287 C  
HETATM    6  OXT UNL     1      -8.073  18.234  68.637  1.00  0.00    -0.306 OA 
HETATM    7  O   UNL     1     -10.160  19.096  68.399  1.00  0.00    -0.380 OA 
ENDROOT
BRANCH   4   8
HETATM    8  C   UNL     1      -8.194  17.345  65.891  1.00  0.00    -0.029 C  
BRANCH   8   9
HETATM    9  C   UNL     1      -8.684  15.988  66.357  1.00  0.00    -0.362 A  
HETATM   10  C   UNL     1      -7.922  15.166  67.190  1.00  0.00    -0.248 A  
HETATM   11  C   UNL     1      -8.419  13.921  67.600  1.00  0.00    -0.192 A  
HETATM   12  I   UNL     1      -7.152  12.744  68.814  1.00  0.00     0.034 I  
HETATM   13  C   UNL     1      -9.689  13.450  67.194  1.00  0.00    -0.237 A  
HETATM   14  C   UNL     1     -10.461  14.289  66.378  1.00  0.00    -0.282 A  
HETATM   15  C   UNL     1      -9.965  15.550  65.990  1.00  0.00    -0.356 A  
HETATM   16  I   UNL     1     -12.321  13.782  65.534  1.00  0.00    -0.508 I  
BRANCH  13  17
HETATM   17  O   UNL     1      -9.926  12.110  67.394  1.00  0.00    -0.197 OA 
BRANCH  17  18
HETATM   18  C   UNL     1      -9.624  11.116  66.498  1.00  0.00    -0.197 A  
HETATM   19  C   UNL     1      -9.621   9.839  67.080  1.00  0.00    -0.218 A  
HETATM   20  C   UNL     1      -9.319   8.705  66.324  1.00  0.00    -0.220 A  
HETATM   21  I   UNL     1      -9.335   6.848  67.279  1.00  0.00    -0.191 I  
HETATM   22  C   UNL     1      -9.001   8.839  64.972  1.00  0.00    -0.060 A  
HETATM   23  C   UNL     1      -9.007  10.112  64.387  1.00  0.00    -0.233 A  
HETATM   24  O   UNL     1      -8.691   7.735  64.216  1.00  0.00    -0.357 OA 
HETATM   25  H   UNL     1      -8.474   7.827  63.295  1.00  0.00     0.000 HD 
HETATM   26  I   UNL     1      -8.448  10.387  62.384  1.00  0.00    -0.349 I  
HETATM   27  C   UNL     1      -9.354  11.249  65.138  1.00  0.00    -0.211 A  
ENDBRANCH  17  18
ENDBRANCH  13  17
ENDBRANCH   8   9
ENDBRANCH   4   8
TORSDOF 4
ENDMDL
MODEL      101
REMARK 921   NORMALIZED FREE ENERGY PREDICTED BY IDOCK:   -4.67 KCAL/MOL
REMARK 922        TOTAL FREE ENERGY PREDICTED BY IDOCK:   -6.52 KCAL/MOL
REMARK 923 INTER-LIGAND FREE ENERGY PREDICTED BY IDOCK:   -5.95 KCAL/MOL
REMARK 924 INTRA-LIGAND FREE ENERGY PREDICTED BY IDOCK:   -0.57 KCAL/MOL
REMARK 927      BINDING AFFINITY PREDICTED BY RF-SCORE:    0.00 PKD
ROOT
HETATM    1  N   UNL     1      -9.868  15.126  70.274  1.00  0.00    -0.450 NA 
HETATM    2  H1  UNL     1      -9.212  15.747  70.747  1.00  0.00     0.000 HD 
HETATM    3  H2  UNL     1      -9.377  14.531  69.606  1.00  0.00     0.000 HD 
HETATM    4  CA  UNL     1     -11.006  15.830  69.608  1.00  0.00    -0.306 C  
HETATM    5  C   UNL     1     -10.412  16.815  68.581  1.00  0.00    -0.333 C  
HETATM    6  OXT UNL     1     -11.006  17.293  67.629  1.00  0.00    -0.286 OA 
HETATM    7  O   UNL     1      -9.117  17.109  68.874  1.00  0.00    -0.260 OA 
ENDROOT
BRANCH   4   8
HETATM    8  C   UNL     1     -11.997  14.891  68.893  1.00  0.00    -0.295 C  
BRANCH   8   9
HETATM    9  C   UNL     1     -11.687  13.407  68.928  1.00  0.00    -0.369 A  
HETATM   10  C   UNL     1     -10.808  12.807  68.024  1.00  0.00    -0.254 A  
HETATM   11  C   UNL     1     -10.548  11.432  68.099  1.00  0.00    -0.189 A  
HETATM   12  I   UNL     1      -9.242  10.630  66.644  1.00  0.00    -0.211 I  
HETATM   13  C   UNL     1     -11.154  10.606  69.074  1.00  0.00    -0.254 A  
HETATM   14  C   UNL     1     -12.018  11.216  69.994  1.00  0.00    -0.367 A  
HETATM   15  C   UNL     1     -12.255  12.604  69.928  1.00  0.00    -0.238 A  
HETATM   16  I   UNL     1     -13.142  10.204  71.457  1.00  0.00    -0.476 I  
BRANCH  13  17
HETATM   17  O   UNL     1     -11.072   9.252  68.851  1.00  0.00    -0.080 OA 
BRANCH  17  18
HETATM   18  C   UNL     1     -10.273   8.386  69.555  1.00  0.00    -0.207 A  
HETATM   19  C   UNL     1     -10.147   7.133  68.934  1.00  0.00    -0.177 A  
HETATM   20  C   UNL     1      -9.384   6.117  69.514  1.00  0.00    -0.137 A  
HETATM   21  I   UNL     1      -9.259   4.285  68.519  1.00  0.00    -0.217 I  
HETATM   22  C   UNL     1      -8.747   6.342  70.734  1.00  0.00    -0.136 A  
HETATM   23  C   UNL     1      -8.867   7.593  71.354  1.00  0.00    -0.132 A  
HETATM   24  O   UNL     1      -8.001   5.350  71.324  1.00  0.00    -0.105 OA 
HETATM   25  H   UNL     1      -7.567   5.503  72.155  1.00  0.00     0.000 HD 
HETATM   26  I   UNL     1      -8.009   7.958  73.233  1.00  0.00    -0.242 I  
HETATM   27  C   UNL     1      -9.599   8.629  70.748  1.00  0.00    -0.231 A  
ENDBRANCH  17  18
ENDBRANCH  13  17
ENDBRANCH   8   9
ENDBRANCH   4   8
TORSDOF 4
ENDMDL
MODEL      102
REMARK 921   NORMALIZED FREE ENERGY PREDICTED BY IDOCK:   -4.66 KCAL/MOL
REMARK 922        TOTAL FREE ENERGY PREDICTED BY IDOCK:   -6.50 KCAL/MOL
REMARK 923 INTER-LIGAND FREE ENERGY PREDICTED BY IDOCK:   -6.72 KCAL/MOL
REMARK 924 INTRA-LIGAND FREE ENERGY PREDICTED BY IDOCK:    0.22 KCAL/MOL
REMARK 927      BINDING AFFINITY PREDICTED BY RF-SCORE:    0.00 PKD
ROOT
HETATM    1  N   UNL     1     -10.332   6.004  69.879  1.00  0.00    -0.206 NA 
HETATM    2  H1  UNL     1     -10.608   5.022  69.864  1.00  0.00     0.000 HD 
HETATM    3  H2  UNL     1     -10.732   6.499  69.081  1.00  0.00     0.000 HD 
HETATM    4  CA  UNL     1      -8.855   6.225  69.945  1.00  0.00    -0.141 C  
HETATM    5  C   UNL     1      -8.224   5.541  68.714  1.00  0.00    -0.102 C  
HETATM    6  OXT UNL     1      -7.126   5.794  68.247  1.00  0.00    -0.070 OA 
HETATM    7  O   UNL     1      -9.049   4.588  68.204  1.00  0.00    -0.112 OA 
ENDROOT
BRANCH   4   8
HETATM    8  C   UNL     1      -8.439   7.709  69.966  1.00  0.00    -0.136 C  
BRANCH   8   9
HETATM    9  C   UNL     1      -9.441   8.712  69.429  1.00  0.00    -0.161 A  
HETATM   10  C   UNL     1      -9.374   9.208  68.125  1.00  0.00    -0.147 A  
HETATM   11  C   UNL     1     -10.326  10.131  67.671  1.00  0.00    -0.219 A  
HETATM   12  I   UNL     1     -10.088  10.848  65.697  1.00  0.00    -0.320 I  
HETATM   13  C   UNL     1     -11.376  10.594  68.497  1.00  0.00    -0.284 A  
HETATM   14  C   UNL     1     -11.453  10.076  69.797  1.00  0.00    -0.184 A  
HETATM   15  C   UNL     1     -10.507   9.129  70.239  1.00  0.00    -0.257 A  
HETATM   16  I   UNL     1     -12.832  10.687  71.265  1.00  0.00    -0.452 I  
BRANCH  13  17
HETATM   17  O   UNL     1     -12.041  11.713  68.054  1.00  0.00    -0.597 OA 
BRANCH  17  18
HETATM   18  C   UNL     1     -11.776  12.997  68.459  1.00  0.00    -0.342 A  
HETATM   19  C   UNL     1     -11.180  13.774  67.453  1.00  0.00    -0.330 A  
HETATM   20  C   UNL     1     -10.824  15.103  67.687  1.00  0.00    -0.295 A  
HETATM   21  I   UNL     1      -9.939  16.178  66.131  1.00  0.00    -0.409 I  
HETATM   22  C   UNL     1     -11.048  15.668  68.943  1.00  0.00    -0.290 A  
HETATM   23  C   UNL     1     -11.647  14.897  69.948  1.00  0.00    -0.289 A  
HETATM   24  O   UNL     1     -10.694  16.971  69.194  1.00  0.00    -0.324 OA 
HETATM   25  H   UNL     1     -10.847  17.356  70.050  1.00  0.00     0.000 HD 
HETATM   26  I   UNL     1     -11.925  15.662  71.881  1.00  0.00    -0.693 I  
HETATM   27  C   UNL     1     -12.046  13.572  69.698  1.00  0.00    -0.365 A  
ENDBRANCH  17  18
ENDBRANCH  13  17
ENDBRANCH   8   9
ENDBRANCH   4   8
TORSDOF 4
ENDMDL
MODEL      103
REMARK 921   NORMALIZED FREE ENERGY PREDICTED BY IDOCK:   -4.66 KCAL/MOL
REMARK 922        TOTAL FREE ENERGY PREDICTED BY IDOCK:   -6.50 KCAL/MOL
REMARK 923 INTER-LIGAND FREE ENERGY PREDICTED BY IDOCK:   -6.19 KCAL/MOL
REMARK 924 INTRA-LIGAND FREE ENERGY PREDICTED BY IDOCK:   -0.31 KCAL/MOL
REMARK 927      BINDING AFFINITY PREDICTED BY RF-SCORE:    0.00 PKD
ROOT
HETATM    1  N   UNL     1     -12.221  13.589  69.433  1.00  0.00    -0.278 NA 
HETATM    2  H1  UNL     1     -11.961  14.574  69.486  1.00  0.00     0.000 HD 
HETATM    3  H2  UNL     1     -13.112  13.481  68.950  1.00  0.00     0.000 HD 
HETATM    4  CA  UNL     1     -12.253  12.892  70.755  1.00  0.00    -0.260 C  
HETATM    5  C   UNL     1     -13.267  13.633  71.650  1.00  0.00    -0.367 C  
HETATM    6  OXT UNL     1     -13.812  13.170  72.639  1.00  0.00    -0.691 OA 
HETATM    7  O   UNL     1     -13.479  14.901  71.208  1.00  0.00    -0.381 OA 
ENDROOT
BRANCH   4   8
HETATM    8  C   UNL     1     -12.645  11.403  70.674  1.00  0.00    -0.360 C  
BRANCH   8   9
HETATM    9  C   UNL     1     -11.513  10.395  70.636  1.00  0.00    -0.438 A  
HETATM   10  C   UNL     1     -10.476  10.472  69.704  1.00  0.00    -0.257 A  
HETATM   11  C   UNL     1      -9.448   9.519  69.712  1.00  0.00    -0.210 A  
HETATM   12  I   UNL     1      -7.964   9.710  68.219  1.00  0.00    -0.097 I  
HETATM   13  C   UNL     1      -9.416   8.457  70.645  1.00  0.00    -0.167 A  
HETATM   14  C   UNL     1     -10.446   8.397  71.594  1.00  0.00    -0.252 A  
HETATM   15  C   UNL     1     -11.463   9.373  71.596  1.00  0.00    -0.463 A  
HETATM   16  I   UNL     1     -10.705   6.858  73.005  1.00  0.00    -0.352 I  
BRANCH  13  17
HETATM   17  O   UNL     1      -8.551   7.428  70.355  1.00  0.00    -0.140 OA 
BRANCH  17  18
HETATM   18  C   UNL     1      -8.886   6.290  69.665  1.00  0.00    -0.136 A  
HETATM   19  C   UNL     1      -8.882   5.141  70.471  1.00  0.00    -0.142 A  
HETATM   20  C   UNL     1      -9.183   3.887  69.937  1.00  0.00    -0.144 A  
HETATM   21  I   UNL     1      -9.147   2.235  71.214  1.00  0.00    -0.202 I  
HETATM   22  C   UNL     1      -9.479   3.767  68.579  1.00  0.00    -0.145 A  
HETATM   23  C   UNL     1      -9.488   4.912  67.772  1.00  0.00    -0.138 A  
HETATM   24  O   UNL     1      -9.767   2.539  68.035  1.00  0.00    -0.297 OA 
HETATM   25  H   UNL     1      -9.968   2.456  67.110  1.00  0.00     0.000 HD 
HETATM   26  I   UNL     1      -9.834   4.781  65.708  1.00  0.00    -0.162 I  
HETATM   27  C   UNL     1      -9.228   6.181  68.319  1.00  0.00    -0.114 A  
ENDBRANCH  17  18
ENDBRANCH  13  17
ENDBRANCH   8   9
ENDBRANCH   4   8
TORSDOF 4
ENDMDL
MODEL      104
REMARK 921   NORMALIZED FREE ENERGY PREDICTED BY IDOCK:   -4.65 KCAL/MOL
REMARK 922        TOTAL FREE ENERGY PREDICTED BY IDOCK:   -6.49 KCAL/MOL
REMARK 923 INTER-LIGAND FREE ENERGY PREDICTED BY IDOCK:   -6.41 KCAL/MOL
REMARK 924 INTRA-LIGAND FREE ENERGY PREDICTED BY IDOCK:   -0.09 KCAL/MOL
REMARK 927      BINDING AFFINITY PREDICTED BY RF-SCORE:    0.00 PKD
ROOT
HETATM    1  N   UNL     1      -6.938   9.536  67.702  1.00  0.00    -0.079 NA 
HETATM    2  H1  UNL     1      -6.085   9.634  68.254  1.00  0.00     0.000 HD 
HETATM    3  H2  UNL     1      -7.733   9.937  68.199  1.00  0.00     0.000 HD 
HETATM    4  CA  UNL     1      -7.237   8.133  67.282  1.00  0.00    -0.084 C  
HETATM    5  C   UNL     1      -7.362   7.278  68.559  1.00  0.00    -0.100 C  
HETATM    6  OXT UNL     1      -7.929   6.201  68.640  1.00  0.00    -0.099 OA 
HETATM    7  O   UNL     1      -6.737   7.871  69.611  1.00  0.00    -0.041 OA 
ENDROOT
BRANCH   4   8
HETATM    8  C   UNL     1      -8.525   7.985  66.448  1.00  0.00    -0.138 C  
BRANCH   8   9
HETATM    9  C   UNL     1      -9.544   9.104  66.551  1.00  0.00    -0.289 A  
HETATM   10  C   UNL     1      -9.933   9.863  65.446  1.00  0.00    -0.349 A  
HETATM   11  C   UNL     1     -10.883  10.884  65.589  1.00  0.00    -0.042 A  
HETATM   12  I   UNL     1     -11.350  11.998  63.855  1.00  0.00    -0.558 I  
HETATM   13  C   UNL     1     -11.477  11.186  66.836  1.00  0.00     0.030 A  
HETATM   14  C   UNL     1     -11.101  10.406  67.939  1.00  0.00    -0.299 A  
HETATM   15  C   UNL     1     -10.164   9.365  67.782  1.00  0.00    -0.273 A  
HETATM   16  I   UNL     1     -11.734  10.724  69.921  1.00  0.00    -0.464 I  
BRANCH  13  17
HETATM   17  O   UNL     1     -12.139  12.389  66.912  1.00  0.00    -0.564 OA 
BRANCH  17  18
HETATM   18  C   UNL     1     -11.611  13.545  67.430  1.00  0.00    -0.356 A  
HETATM   19  C   UNL     1     -12.086  13.831  68.720  1.00  0.00    -0.344 A  
HETATM   20  C   UNL     1     -11.671  14.977  69.401  1.00  0.00    -0.326 A  
HETATM   21  I   UNL     1     -12.435  15.321  71.313  1.00  0.00    -0.600 I  
HETATM   22  C   UNL     1     -10.783  15.862  68.788  1.00  0.00    -0.265 A  
HETATM   23  C   UNL     1     -10.304  15.577  67.503  1.00  0.00    -0.271 A  
HETATM   24  O   UNL     1     -10.373  17.000  69.440  1.00  0.00    -0.299 OA 
HETATM   25  H   UNL     1      -9.768  17.603  69.023  1.00  0.00     0.000 HD 
HETATM   26  I   UNL     1      -9.040  16.915  66.496  1.00  0.00    -0.307 I  
HETATM   27  C   UNL     1     -10.688  14.400  66.835  1.00  0.00    -0.292 A  
ENDBRANCH  17  18
ENDBRANCH  13  17
ENDBRANCH   8   9
ENDBRANCH   4   8
TORSDOF 4
ENDMDL
MODEL      105
REMARK 921   NORMALIZED FREE ENERGY PREDICTED BY IDOCK:   -4.65 KCAL/MOL
REMARK 922        TOTAL FREE ENERGY PREDICTED BY IDOCK:   -6.49 KCAL/MOL
REMARK 923 INTER-LIGAND FREE ENERGY PREDICTED BY IDOCK:   -5.95 KCAL/MOL
REMARK 924 INTRA-LIGAND FREE ENERGY PREDICTED BY IDOCK:   -0.54 KCAL/MOL
REMARK 927      BINDING AFFINITY PREDICTED BY RF-SCORE:    0.00 PKD
ROOT
HETATM    1  N   UNL     1     -11.139   6.285  66.463  1.00  0.00    -0.723 NA 
HETATM    2  H1  UNL     1     -11.798   5.838  65.825  1.00  0.00     0.000 HD 
HETATM    3  H2  UNL     1     -10.409   6.769  65.940  1.00  0.00     0.000 HD 
HETATM    4  CA  UNL     1     -10.536   5.358  67.469  1.00  0.00    -0.129 C  
HETATM    5  C   UNL     1      -9.810   4.238  66.697  1.00  0.00    -0.214 C  
HETATM    6  OXT UNL     1      -8.932   3.520  67.146  1.00  0.00    -0.124 OA 
HETATM    7  O   UNL     1     -10.284   4.128  65.427  1.00  0.00    -0.218 OA 
ENDROOT
BRANCH   4   8
HETATM    8  C   UNL     1      -9.541   6.034  68.433  1.00  0.00    -0.130 C  
BRANCH   8   9
HETATM    9  C   UNL     1      -9.394   7.540  68.326  1.00  0.00    -0.141 A  
HETATM   10  C   UNL     1      -8.341   8.139  67.633  1.00  0.00    -0.127 A  
HETATM   11  C   UNL     1      -8.250   9.536  67.557  1.00  0.00    -0.121 A  
HETATM   12  I   UNL     1      -6.583  10.325  66.526  1.00  0.00    -0.106 I  
HETATM   13  C   UNL     1      -9.201  10.384  68.169  1.00  0.00    -0.145 A  
HETATM   14  C   UNL     1     -10.270   9.778  68.844  1.00  0.00    -0.200 A  
HETATM   15  C   UNL     1     -10.369   8.373  68.895  1.00  0.00    -0.231 A  
HETATM   16  I   UNL     1     -11.745  10.800  69.944  1.00  0.00    -0.464 I  
BRANCH  13  17
HETATM   17  O   UNL     1      -8.838  11.704  68.296  1.00  0.00    -0.157 OA 
BRANCH  17  18
HETATM   18  C   UNL     1      -9.236  12.713  67.455  1.00  0.00    -0.191 A  
HETATM   19  C   UNL     1      -8.433  13.860  67.560  1.00  0.00    -0.200 A  
HETATM   20  C   UNL     1      -8.696  14.995  66.792  1.00  0.00    -0.260 A  
HETATM   21  I   UNL     1      -7.450  16.655  67.022  1.00  0.00    -0.308 I  
HETATM   22  C   UNL     1      -9.781  15.000  65.915  1.00  0.00    -0.342 A  
HETATM   23  C   UNL     1     -10.582  13.855  65.803  1.00  0.00    -0.297 A  
HETATM   24  O   UNL     1     -10.061  16.112  65.159  1.00  0.00    -0.503 OA 
HETATM   25  H   UNL     1     -10.800  16.116  64.561  1.00  0.00     0.000 HD 
HETATM   26  I   UNL     1     -12.279  13.836  64.571  1.00  0.00    -0.360 I  
HETATM   27  C   UNL     1     -10.290  12.697  66.545  1.00  0.00    -0.256 A  
ENDBRANCH  17  18
ENDBRANCH  13  17
ENDBRANCH   8   9
ENDBRANCH   4   8
TORSDOF 4
ENDMDL
MODEL      106
REMARK 921   NORMALIZED FREE ENERGY PREDICTED BY IDOCK:   -4.65 KCAL/MOL
REMARK 922        TOTAL FREE ENERGY PREDICTED BY IDOCK:   -6.49 KCAL/MOL
REMARK 923 INTER-LIGAND FREE ENERGY PREDICTED BY IDOCK:   -6.53 KCAL/MOL
REMARK 924 INTRA-LIGAND FREE ENERGY PREDICTED BY IDOCK:    0.05 KCAL/MOL
REMARK 927      BINDING AFFINITY PREDICTED BY RF-SCORE:    0.00 PKD
ROOT
HETATM    1  N   UNL     1      -9.625   9.435  71.454  1.00  0.00    -0.270 NA 
HETATM    2  H1  UNL     1      -8.832   8.821  71.641  1.00  0.00     0.000 HD 
HETATM    3  H2  UNL     1     -10.023   9.780  72.328  1.00  0.00     0.000 HD 
HETATM    4  CA  UNL     1     -10.688   8.821  70.601  1.00  0.00    -0.225 C  
HETATM    5  C   UNL     1     -11.191   7.553  71.319  1.00  0.00    -0.251 C  
HETATM    6  OXT UNL     1     -12.259   6.999  71.118  1.00  0.00    -0.350 OA 
HETATM    7  O   UNL     1     -10.275   7.101  72.217  1.00  0.00    -0.186 OA 
ENDROOT
BRANCH   4   8
HETATM    8  C   UNL     1     -11.885   9.750  70.319  1.00  0.00    -0.208 C  
BRANCH   8   9
HETATM    9  C   UNL     1     -11.643  10.921  69.386  1.00  0.00    -0.387 A  
HETATM   10  C   UNL     1     -11.856  12.243  69.779  1.00  0.00    -0.388 A  
HETATM   11  C   UNL     1     -11.614  13.294  68.883  1.00  0.00    -0.314 A  
HETATM   12  I   UNL     1     -12.025  15.248  69.576  1.00  0.00    -0.262 I  
HETATM   13  C   UNL     1     -11.153  13.066  67.566  1.00  0.00    -0.268 A  
HETATM   14  C   UNL     1     -10.917  11.738  67.183  1.00  0.00    -0.276 A  
HETATM   15  C   UNL     1     -11.140  10.688  68.097  1.00  0.00    -0.343 A  
HETATM   16  I   UNL     1     -10.355  11.114  65.253  1.00  0.00    -0.292 I  
BRANCH  13  17
HETATM   17  O   UNL     1     -11.256  14.128  66.700  1.00  0.00    -0.309 OA 
BRANCH  17  18
HETATM   18  C   UNL     1     -10.439  15.231  66.706  1.00  0.00    -0.293 A  
HETATM   19  C   UNL     1      -9.120  14.930  67.079  1.00  0.00    -0.255 A  
HETATM   20  C   UNL     1      -8.149  15.930  67.158  1.00  0.00    -0.207 A  
HETATM   21  I   UNL     1      -6.214  15.387  67.726  1.00  0.00    -0.082 I  
HETATM   22  C   UNL     1      -8.494  17.252  66.876  1.00  0.00    -0.226 A  
HETATM   23  C   UNL     1      -9.809  17.555  66.499  1.00  0.00    -0.310 A  
HETATM   24  O   UNL     1      -7.554  18.250  66.959  1.00  0.00    -0.211 OA 
HETATM   25  H   UNL     1      -7.789  19.151  66.767  1.00  0.00     0.000 HD 
HETATM   26  I   UNL     1     -10.408  19.535  66.154  1.00  0.00    -0.473 I  
HETATM   27  C   UNL     1     -10.775  16.541  66.378  1.00  0.00    -0.146 A  
ENDBRANCH  17  18
ENDBRANCH  13  17
ENDBRANCH   8   9
ENDBRANCH   4   8
TORSDOF 4
ENDMDL
MODEL      107
REMARK 921   NORMALIZED FREE ENERGY PREDICTED BY IDOCK:   -4.64 KCAL/MOL
REMARK 922        TOTAL FREE ENERGY PREDICTED BY IDOCK:   -6.49 KCAL/MOL
REMARK 923 INTER-LIGAND FREE ENERGY PREDICTED BY IDOCK:   -5.95 KCAL/MOL
REMARK 924 INTRA-LIGAND FREE ENERGY PREDICTED BY IDOCK:   -0.53 KCAL/MOL
REMARK 927      BINDING AFFINITY PREDICTED BY RF-SCORE:    0.00 PKD
ROOT
HETATM    1  N   UNL     1     -11.974  12.220  65.845  1.00  0.00    -0.597 NA 
HETATM    2  H1  UNL     1     -11.640  12.627  64.971  1.00  0.00     0.000 HD 
HETATM    3  H2  UNL     1     -12.986  12.318  65.920  1.00  0.00     0.000 HD 
HETATM    4  CA  UNL     1     -11.304  12.762  67.067  1.00  0.00    -0.314 C  
HETATM    5  C   UNL     1     -11.541  14.285  67.095  1.00  0.00    -0.380 C  
HETATM    6  OXT UNL     1     -11.458  14.999  68.081  1.00  0.00    -0.315 OA 
HETATM    7  O   UNL     1     -11.849  14.758  65.858  1.00  0.00    -0.314 OA 
ENDROOT
BRANCH   4   8
HETATM    8  C   UNL     1     -11.808  12.148  68.388  1.00  0.00    -0.360 C  
BRANCH   8   9
HETATM    9  C   UNL     1     -10.899  11.144  69.071  1.00  0.00    -0.276 A  
HETATM   10  C   UNL     1      -9.553  11.002  68.727  1.00  0.00    -0.194 A  
HETATM   11  C   UNL     1      -8.750  10.064  69.390  1.00  0.00    -0.186 A  
HETATM   12  I   UNL     1      -6.744   9.903  68.744  1.00  0.00    -0.051 I  
HETATM   13  C   UNL     1      -9.257   9.235  70.417  1.00  0.00    -0.247 A  
HETATM   14  C   UNL     1     -10.602   9.398  70.776  1.00  0.00    -0.303 A  
HETATM   15  C   UNL     1     -11.398  10.360  70.122  1.00  0.00    -0.397 A  
HETATM   16  I   UNL     1     -11.636   8.213  72.176  1.00  0.00    -0.483 I  
BRANCH  13  17
HETATM   17  O   UNL     1      -8.475   8.158  70.763  1.00  0.00    -0.117 OA 
BRANCH  17  18
HETATM   18  C   UNL     1      -8.752   6.852  70.448  1.00  0.00    -0.147 A  
HETATM   19  C   UNL     1      -9.118   6.680  69.103  1.00  0.00    -0.137 A  
HETATM   20  C   UNL     1      -9.451   5.420  68.604  1.00  0.00    -0.123 A  
HETATM   21  I   UNL     1      -9.986   5.265  66.591  1.00  0.00    -0.318 I  
HETATM   22  C   UNL     1      -9.436   4.313  69.453  1.00  0.00    -0.186 A  
HETATM   23  C   UNL     1      -9.067   4.480  70.795  1.00  0.00    -0.127 A  
HETATM   24  O   UNL     1      -9.771   3.068  68.981  1.00  0.00    -0.070 OA 
HETATM   25  H   UNL     1      -9.761   2.314  69.559  1.00  0.00     0.000 HD 
HETATM   26  I   UNL     1      -9.115   2.871  72.139  1.00  0.00    -0.179 I  
HETATM   27  C   UNL     1      -8.689   5.742  71.287  1.00  0.00    -0.132 A  
ENDBRANCH  17  18
ENDBRANCH  13  17
ENDBRANCH   8   9
ENDBRANCH   4   8
TORSDOF 4
ENDMDL
MODEL      108
REMARK 921   NORMALIZED FREE ENERGY PREDICTED BY IDOCK:   -4.64 KCAL/MOL
REMARK 922        TOTAL FREE ENERGY PREDICTED BY IDOCK:   -6.47 KCAL/MOL
REMARK 923 INTER-LIGAND FREE ENERGY PREDICTED BY IDOCK:   -7.00 KCAL/MOL
REMARK 924 INTRA-LIGAND FREE ENERGY PREDICTED BY IDOCK:    0.52 KCAL/MOL
REMARK 927      BINDING AFFINITY PREDICTED BY RF-SCORE:    0.00 PKD
ROOT
HETATM    1  N   UNL     1      -7.212  17.288  67.754  1.00  0.00    -0.157 NA 
HETATM    2  H1  UNL     1      -6.309  17.337  67.281  1.00  0.00     0.000 HD 
HETATM    3  H2  UNL     1      -7.814  16.599  67.304  1.00  0.00     0.000 HD 
HETATM    4  CA  UNL     1      -7.915  18.602  67.870  1.00  0.00    -0.259 C  
HETATM    5  C   UNL     1      -8.123  19.150  66.443  1.00  0.00    -0.308 C  
HETATM    6  OXT UNL     1      -8.942  19.993  66.119  1.00  0.00    -0.353 OA 
HETATM    7  O   UNL     1      -7.254  18.579  65.566  1.00  0.00    -0.515 OA 
ENDROOT
BRANCH   4   8
HETATM    8  C   UNL     1      -9.278  18.527  68.586  1.00  0.00    -0.336 C  
BRANCH   8   9
HETATM    9  C   UNL     1     -10.124  17.296  68.327  1.00  0.00    -0.321 A  
HETATM   10  C   UNL     1     -10.771  16.606  69.354  1.00  0.00    -0.331 A  
HETATM   11  C   UNL     1     -11.547  15.475  69.067  1.00  0.00    -0.365 A  
HETATM   12  I   UNL     1     -12.432  14.485  70.711  1.00  0.00    -0.479 I  
HETATM   13  C   UNL     1     -11.706  14.990  67.748  1.00  0.00    -0.274 A  
HETATM   14  C   UNL     1     -11.074  15.699  66.717  1.00  0.00    -0.169 A  
HETATM   15  C   UNL     1     -10.316  16.850  67.011  1.00  0.00    -0.307 A  
HETATM   16  I   UNL     1     -11.043  15.123  64.693  1.00  0.00     0.003 I  
BRANCH  13  17
HETATM   17  O   UNL     1     -12.215  13.718  67.632  1.00  0.00    -0.337 OA 
BRANCH  17  18
HETATM   18  C   UNL     1     -11.485  12.607  67.291  1.00  0.00    -0.342 A  
HETATM   19  C   UNL     1     -11.198  11.784  68.392  1.00  0.00    -0.307 A  
HETATM   20  C   UNL     1     -10.450  10.615  68.240  1.00  0.00    -0.187 A  
HETATM   21  I   UNL     1     -10.070   9.458  69.936  1.00  0.00    -0.320 I  
HETATM   22  C   UNL     1      -9.966  10.262  66.980  1.00  0.00    -0.201 A  
HETATM   23  C   UNL     1     -10.255  11.079  65.879  1.00  0.00    -0.254 A  
HETATM   24  O   UNL     1      -9.220   9.121  66.814  1.00  0.00    -0.144 OA 
HETATM   25  H   UNL     1      -8.890   8.881  65.956  1.00  0.00     0.000 HD 
HETATM   26  I   UNL     1      -9.477  10.650  63.978  1.00  0.00    -0.391 I  
HETATM   27  C   UNL     1     -11.045  12.233  66.024  1.00  0.00    -0.347 A  
ENDBRANCH  17  18
ENDBRANCH  13  17
ENDBRANCH   8   9
ENDBRANCH   4   8
TORSDOF 4
ENDMDL
MODEL      109
REMARK 921   NORMALIZED FREE ENERGY PREDICTED BY IDOCK:   -4.63 KCAL/MOL
REMARK 922        TOTAL FREE ENERGY PREDICTED BY IDOCK:   -6.46 KCAL/MOL
REMARK 923 INTER-LIGAND FREE ENERGY PREDICTED BY IDOCK:   -6.32 KCAL/MOL
REMARK 924 INTRA-LIGAND FREE ENERGY PREDICTED BY IDOCK:   -0.14 KCAL/MOL
REMARK 927      BINDING AFFINITY PREDICTED BY RF-SCORE:    0.00 PKD
ROOT
HETATM    1  N   UNL     1      -9.746   7.854  66.026  1.00  0.00    -0.452 NA 
HETATM    2  H1  UNL     1     -10.022   7.215  65.280  1.00  0.00     0.000 HD 
HETATM    3  H2  UNL     1      -8.812   7.624  66.366  1.00  0.00     0.000 HD 
HETATM    4  CA  UNL     1     -10.715   7.922  67.162  1.00  0.00    -0.236 C  
HETATM    5  C   UNL     1     -10.857   6.500  67.743  1.00  0.00    -0.314 C  
HETATM    6  OXT UNL     1     -11.267   6.227  68.859  1.00  0.00    -0.370 OA 
HETATM    7  O   UNL     1     -10.476   5.559  66.838  1.00  0.00    -0.236 OA 
ENDROOT
BRANCH   4   8
HETATM    8  C   UNL     1     -10.298   8.888  68.289  1.00  0.00    -0.250 C  
BRANCH   8   9
HETATM    9  C   UNL     1      -9.922  10.300  67.882  1.00  0.00    -0.191 A  
HETATM   10  C   UNL     1     -10.872  11.230  67.455  1.00  0.00    -0.292 A  
HETATM   11  C   UNL     1     -10.478  12.526  67.094  1.00  0.00    -0.224 A  
HETATM   12  I   UNL     1     -11.998  13.827  66.413  1.00  0.00    -0.482 I  
HETATM   13  C   UNL     1      -9.127  12.940  67.142  1.00  0.00    -0.220 A  
HETATM   14  C   UNL     1      -8.180  12.010  67.593  1.00  0.00    -0.155 A  
HETATM   15  C   UNL     1      -8.587  10.717  67.979  1.00  0.00    -0.122 A  
HETATM   16  I   UNL     1      -6.099  12.325  67.641  1.00  0.00    -0.152 I  
BRANCH  13  17
HETATM   17  O   UNL     1      -8.830  14.104  66.473  1.00  0.00    -0.173 OA 
BRANCH  17  18
HETATM   18  C   UNL     1      -8.453  15.280  67.072  1.00  0.00    -0.228 A  
HETATM   19  C   UNL     1      -9.214  16.380  66.643  1.00  0.00    -0.279 A  
HETATM   20  C   UNL     1      -8.962  17.663  67.133  1.00  0.00    -0.244 A  
HETATM   21  I   UNL     1     -10.144  19.236  66.433  1.00  0.00    -0.587 I  
HETATM   22  C   UNL     1      -7.931  17.863  68.051  1.00  0.00    -0.250 A  
HETATM   23  C   UNL     1      -7.172  16.767  68.484  1.00  0.00    -0.194 A  
HETATM   24  O   UNL     1      -7.663  19.120  68.534  1.00  0.00    -0.313 OA 
HETATM   25  H   UNL     1      -6.960  19.257  69.159  1.00  0.00     0.000 HD 
HETATM   26  I   UNL     1      -5.551  17.020  69.790  1.00  0.00    -0.221 I  
HETATM   27  C   UNL     1      -7.454  15.469  68.024  1.00  0.00    -0.136 A  
ENDBRANCH  17  18
ENDBRANCH  13  17
ENDBRANCH   8   9
ENDBRANCH   4   8
TORSDOF 4
ENDMDL
MODEL      110
REMARK 921   NORMALIZED FREE ENERGY PREDICTED BY IDOCK:   -4.61 KCAL/MOL
REMARK 922        TOTAL FREE ENERGY PREDICTED BY IDOCK:   -6.45 KCAL/MOL
REMARK 923 INTER-LIGAND FREE ENERGY PREDICTED BY IDOCK:   -5.70 KCAL/MOL
REMARK 924 INTRA-LIGAND FREE ENERGY PREDICTED BY IDOCK:   -0.75 KCAL/MOL
REMARK 927      BINDING AFFINITY PREDICTED BY RF-SCORE:    0.00 PKD
ROOT
HETATM    1  N   UNL     1     -11.043   5.102  65.927  1.00  0.00    -0.803 NA 
HETATM    2  H1  UNL     1     -11.619   4.399  66.391  1.00  0.00     0.000 HD 
HETATM    3  H2  UNL     1     -10.479   4.673  65.193  1.00  0.00     0.000 HD 
HETATM    4  CA  UNL     1     -10.179   5.894  66.855  1.00  0.00    -0.214 C  
HETATM    5  C   UNL     1      -9.264   4.904  67.604  1.00  0.00    -0.124 C  
HETATM    6  OXT UNL     1      -8.217   5.187  68.162  1.00  0.00    -0.097 OA 
HETATM    7  O   UNL     1      -9.779   3.645  67.582  1.00  0.00    -0.176 OA 
ENDROOT
BRANCH   4   8
HETATM    8  C   UNL     1      -9.308   6.956  66.155  1.00  0.00    -0.089 C  
BRANCH   8   9
HETATM    9  C   UNL     1      -9.164   8.295  66.852  1.00  0.00    -0.197 A  
HETATM   10  C   UNL     1     -10.149   8.805  67.698  1.00  0.00    -0.273 A  
HETATM   11  C   UNL     1      -9.969  10.046  68.325  1.00  0.00    -0.153 A  
HETATM   12  I   UNL     1     -11.554  10.737  69.540  1.00  0.00    -0.400 I  
HETATM   13  C   UNL     1      -8.804  10.823  68.129  1.00  0.00    -0.133 A  
HETATM   14  C   UNL     1      -7.806  10.296  67.297  1.00  0.00    -0.103 A  
HETATM   15  C   UNL     1      -7.984   9.036  66.690  1.00  0.00    -0.100 A  
HETATM   16  I   UNL     1      -6.040  11.296  66.739  1.00  0.00    -0.099 I  
BRANCH  13  17
HETATM   17  O   UNL     1      -8.880  12.135  68.532  1.00  0.00    -0.160 OA 
BRANCH  17  18
HETATM   18  C   UNL     1      -9.202  13.191  67.717  1.00  0.00    -0.203 A  
HETATM   19  C   UNL     1      -8.481  14.356  68.023  1.00  0.00    -0.164 A  
HETATM   20  C   UNL     1      -8.687  15.538  67.308  1.00  0.00    -0.195 A  
HETATM   21  I   UNL     1      -7.571  17.221  67.839  1.00  0.00    -0.218 I  
HETATM   22  C   UNL     1      -9.632  15.570  66.282  1.00  0.00    -0.309 A  
HETATM   23  C   UNL     1     -10.350  14.407  65.972  1.00  0.00    -0.309 A  
HETATM   24  O   UNL     1      -9.855  16.726  65.576  1.00  0.00    -0.564 OA 
HETATM   25  H   UNL     1     -10.499  16.748  64.877  1.00  0.00     0.000 HD 
HETATM   26  I   UNL     1     -11.848  14.419  64.504  1.00  0.00    -0.350 I  
HETATM   27  C   UNL     1     -10.111  13.206  66.663  1.00  0.00    -0.264 A  
ENDBRANCH  17  18
ENDBRANCH  13  17
ENDBRANCH   8   9
ENDBRANCH   4   8
TORSDOF 4
ENDMDL
MODEL      111
REMARK 921   NORMALIZED FREE ENERGY PREDICTED BY IDOCK:   -4.59 KCAL/MOL
REMARK 922        TOTAL FREE ENERGY PREDICTED BY IDOCK:   -6.42 KCAL/MOL
REMARK 923 INTER-LIGAND FREE ENERGY PREDICTED BY IDOCK:   -5.91 KCAL/MOL
REMARK 924 INTRA-LIGAND FREE ENERGY PREDICTED BY IDOCK:   -0.51 KCAL/MOL
REMARK 927      BINDING AFFINITY PREDICTED BY RF-SCORE:    0.00 PKD
ROOT
HETATM    1  N   UNL     1     -11.547  16.147  64.100  1.00  0.00    -1.259 NA 
HETATM    2  H1  UNL     1     -11.035  16.765  63.470  1.00  0.00     0.000 HD 
HETATM    3  H2  UNL     1     -12.492  16.500  64.254  1.00  0.00     0.000 HD 
HETATM    4  CA  UNL     1     -10.862  15.898  65.405  1.00  0.00    -0.349 C  
HETATM    5  C   UNL     1     -10.655  17.262  66.094  1.00  0.00    -0.204 C  
HETATM    6  OXT UNL     1     -10.460  17.434  67.285  1.00  0.00    -0.335 OA 
HETATM    7  O   UNL     1     -10.703  18.280  65.193  1.00  0.00    -0.586 OA 
ENDROOT
BRANCH   4   8
HETATM    8  C   UNL     1     -11.637  14.965  66.356  1.00  0.00    -0.238 C  
BRANCH   8   9
HETATM    9  C   UNL     1     -10.831  13.917  67.100  1.00  0.00    -0.288 A  
HETATM   10  C   UNL     1      -9.435  13.893  67.074  1.00  0.00    -0.256 A  
HETATM   11  C   UNL     1      -8.732  12.909  67.782  1.00  0.00    -0.188 A  
HETATM   12  I   UNL     1      -6.625  12.944  67.622  1.00  0.00    -0.081 I  
HETATM   13  C   UNL     1      -9.393  11.913  68.538  1.00  0.00    -0.140 A  
HETATM   14  C   UNL     1     -10.794  11.955  68.581  1.00  0.00    -0.235 A  
HETATM   15  C   UNL     1     -11.493  12.963  67.886  1.00  0.00    -0.362 A  
HETATM   16  I   UNL     1     -12.021  10.527  69.521  1.00  0.00    -0.006 I  
BRANCH  13  17
HETATM   17  O   UNL     1      -8.626  10.837  68.917  1.00  0.00    -0.151 OA 
BRANCH  17  18
HETATM   18  C   UNL     1      -8.690   9.588  68.353  1.00  0.00    -0.124 A  
HETATM   19  C   UNL     1      -8.459   9.602  66.968  1.00  0.00    -0.124 A  
HETATM   20  C   UNL     1      -8.500   8.424  66.220  1.00  0.00    -0.127 A  
HETATM   21  I   UNL     1      -8.148   8.546  64.165  1.00  0.00    -0.055 I  
HETATM   22  C   UNL     1      -8.788   7.214  66.851  1.00  0.00    -0.128 A  
HETATM   23  C   UNL     1      -9.015   7.196  68.234  1.00  0.00    -0.125 A  
HETATM   24  O   UNL     1      -8.843   6.047  66.128  1.00  0.00    -0.140 OA 
HETATM   25  H   UNL     1      -9.040   5.223  66.558  1.00  0.00     0.000 HD 
HETATM   26  I   UNL     1      -9.544   5.422  69.221  1.00  0.00    -0.261 I  
HETATM   27  C   UNL     1      -8.930   8.375  68.994  1.00  0.00    -0.147 A  
ENDBRANCH  17  18
ENDBRANCH  13  17
ENDBRANCH   8   9
ENDBRANCH   4   8
TORSDOF 4
ENDMDL
MODEL      112
REMARK 921   NORMALIZED FREE ENERGY PREDICTED BY IDOCK:   -4.57 KCAL/MOL
REMARK 922        TOTAL FREE ENERGY PREDICTED BY IDOCK:   -6.40 KCAL/MOL
REMARK 923 INTER-LIGAND FREE ENERGY PREDICTED BY IDOCK:   -6.37 KCAL/MOL
REMARK 924 INTRA-LIGAND FREE ENERGY PREDICTED BY IDOCK:   -0.03 KCAL/MOL
REMARK 927      BINDING AFFINITY PREDICTED BY RF-SCORE:    0.00 PKD
ROOT
HETATM    1  N   UNL     1     -10.933   5.748  68.735  1.00  0.00    -0.234 NA 
HETATM    2  H1  UNL     1     -11.081   5.060  67.997  1.00  0.00     0.000 HD 
HETATM    3  H2  UNL     1     -11.099   6.691  68.383  1.00  0.00     0.000 HD 
HETATM    4  CA  UNL     1      -9.593   5.663  69.392  1.00  0.00    -0.143 C  
HETATM    5  C   UNL     1      -8.522   5.858  68.299  1.00  0.00    -0.114 C  
HETATM    6  OXT UNL     1      -7.366   6.195  68.490  1.00  0.00    -0.082 OA 
HETATM    7  O   UNL     1      -9.025   5.589  67.065  1.00  0.00    -0.114 OA 
ENDROOT
BRANCH   4   8
HETATM    8  C   UNL     1      -9.370   6.703  70.508  1.00  0.00    -0.167 C  
BRANCH   8   9
HETATM    9  C   UNL     1     -10.137   8.007  70.397  1.00  0.00    -0.194 A  
HETATM   10  C   UNL     1     -11.307   8.246  71.121  1.00  0.00    -0.298 A  
HETATM   11  C   UNL     1     -11.980   9.469  70.990  1.00  0.00    -0.328 A  
HETATM   12  I   UNL     1     -13.768   9.693  72.095  1.00  0.00    -0.046 I  
HETATM   13  C   UNL     1     -11.514  10.494  70.135  1.00  0.00    -0.325 A  
HETATM   14  C   UNL     1     -10.327  10.258  69.429  1.00  0.00    -0.235 A  
HETATM   15  C   UNL     1      -9.642   9.036  69.584  1.00  0.00    -0.175 A  
HETATM   16  I   UNL     1      -9.487  11.557  68.001  1.00  0.00    -0.199 I  
BRANCH  13  17
HETATM   17  O   UNL     1     -12.411  11.498  69.854  1.00  0.00    -0.200 OA 
BRANCH  17  18
HETATM   18  C   UNL     1     -12.262  12.811  70.222  1.00  0.00    -0.277 A  
HETATM   19  C   UNL     1     -11.686  13.599  69.213  1.00  0.00    -0.376 A  
HETATM   20  C   UNL     1     -11.443  14.959  69.413  1.00  0.00    -0.299 A  
HETATM   21  I   UNL     1     -10.579  16.048  67.855  1.00  0.00    -0.306 I  
HETATM   22  C   UNL     1     -11.762  15.546  70.638  1.00  0.00    -0.357 A  
HETATM   23  C   UNL     1     -12.341  14.763  71.646  1.00  0.00    -0.345 A  
HETATM   24  O   UNL     1     -11.520  16.880  70.856  1.00  0.00    -0.419 OA 
HETATM   25  H   UNL     1     -11.737  17.280  71.690  1.00  0.00     0.000 HD 
HETATM   26  I   UNL     1     -12.756  15.568  73.538  1.00  0.00    -0.758 I  
HETATM   27  C   UNL     1     -12.626  13.404  71.428  1.00  0.00    -0.374 A  
ENDBRANCH  17  18
ENDBRANCH  13  17
ENDBRANCH   8   9
ENDBRANCH   4   8
TORSDOF 4
ENDMDL
MODEL      113
REMARK 921   NORMALIZED FREE ENERGY PREDICTED BY IDOCK:   -4.57 KCAL/MOL
REMARK 922        TOTAL FREE ENERGY PREDICTED BY IDOCK:   -6.39 KCAL/MOL
REMARK 923 INTER-LIGAND FREE ENERGY PREDICTED BY IDOCK:   -6.43 KCAL/MOL
REMARK 924 INTRA-LIGAND FREE ENERGY PREDICTED BY IDOCK:    0.04 KCAL/MOL
REMARK 927      BINDING AFFINITY PREDICTED BY RF-SCORE:    0.00 PKD
ROOT
HETATM    1  N   UNL     1     -14.166   9.188  70.612  1.00  0.00    -0.205 NA 
HETATM    2  H1  UNL     1     -14.471   8.218  70.522  1.00  0.00     0.000 HD 
HETATM    3  H2  UNL     1     -13.667   9.484  69.774  1.00  0.00     0.000 HD 
HETATM    4  CA  UNL     1     -13.349   9.462  71.833  1.00  0.00    -0.434 C  
HETATM    5  C   UNL     1     -12.108   8.546  71.781  1.00  0.00    -0.333 C  
HETATM    6  OXT UNL     1     -11.068   8.724  72.393  1.00  0.00    -0.327 OA 
HETATM    7  O   UNL     1     -12.318   7.480  70.964  1.00  0.00    -0.301 OA 
ENDROOT
BRANCH   4   8
HETATM    8  C   UNL     1     -12.889  10.927  71.969  1.00  0.00    -0.322 C  
BRANCH   8   9
HETATM    9  C   UNL     1     -12.373  11.605  70.715  1.00  0.00    -0.454 A  
HETATM   10  C   UNL     1     -11.948  10.884  69.598  1.00  0.00    -0.414 A  
HETATM   11  C   UNL     1     -11.484  11.555  68.458  1.00  0.00    -0.292 A  
HETATM   12  I   UNL     1     -10.817  10.353  66.852  1.00  0.00     0.038 I  
HETATM   13  C   UNL     1     -11.425  12.966  68.391  1.00  0.00    -0.312 A  
HETATM   14  C   UNL     1     -11.875  13.687  69.505  1.00  0.00    -0.337 A  
HETATM   15  C   UNL     1     -12.363  13.006  70.638  1.00  0.00    -0.391 A  
HETATM   16  I   UNL     1     -11.778  15.779  69.715  1.00  0.00    -0.256 I  
BRANCH  13  17
HETATM   17  O   UNL     1     -10.669  13.488  67.368  1.00  0.00    -0.259 OA 
BRANCH  17  18
HETATM   18  C   UNL     1      -9.346  13.840  67.467  1.00  0.00    -0.222 A  
HETATM   19  C   UNL     1      -9.095  15.151  67.034  1.00  0.00    -0.249 A  
HETATM   20  C   UNL     1      -7.803  15.678  67.048  1.00  0.00    -0.231 A  
HETATM   21  I   UNL     1      -7.528  17.637  66.379  1.00  0.00    -0.319 I  
HETATM   22  C   UNL     1      -6.739  14.889  67.484  1.00  0.00    -0.139 A  
HETATM   23  C   UNL     1      -6.986  13.581  67.922  1.00  0.00    -0.144 A  
HETATM   24  O   UNL     1      -5.459  15.388  67.494  1.00  0.00    -0.297 OA 
HETATM   25  H   UNL     1      -4.734  14.851  67.792  1.00  0.00     0.000 HD 
HETATM   26  I   UNL     1      -5.416  12.318  68.502  1.00  0.00    -0.063 I  
HETATM   27  C   UNL     1      -8.294  13.066  67.950  1.00  0.00    -0.170 A  
ENDBRANCH  17  18
ENDBRANCH  13  17
ENDBRANCH   8   9
ENDBRANCH   4   8
TORSDOF 4
ENDMDL
MODEL      114
REMARK 921   NORMALIZED FREE ENERGY PREDICTED BY IDOCK:   -4.55 KCAL/MOL
REMARK 922        TOTAL FREE ENERGY PREDICTED BY IDOCK:   -6.37 KCAL/MOL
REMARK 923 INTER-LIGAND FREE ENERGY PREDICTED BY IDOCK:   -5.96 KCAL/MOL
REMARK 924 INTRA-LIGAND FREE ENERGY PREDICTED BY IDOCK:   -0.42 KCAL/MOL
REMARK 927      BINDING AFFINITY PREDICTED BY RF-SCORE:    0.00 PKD
ROOT
HETATM    1  N   UNL     1     -10.152  10.720  69.848  1.00  0.00    -0.401 NA 
HETATM    2  H1  UNL     1      -9.958   9.719  69.833  1.00  0.00     0.000 HD 
HETATM    3  H2  UNL     1      -9.657  11.169  70.619  1.00  0.00     0.000 HD 
HETATM    4  CA  UNL     1     -11.607  11.061  69.891  1.00  0.00    -0.337 C  
HETATM    5  C   UNL     1     -12.203  10.413  71.158  1.00  0.00    -0.394 C  
HETATM    6  OXT UNL     1     -13.240  10.748  71.706  1.00  0.00    -0.445 OA 
HETATM    7  O   UNL     1     -11.425   9.388  71.598  1.00  0.00    -0.369 OA 
ENDROOT
BRANCH   4   8
HETATM    8  C   UNL     1     -11.900  12.575  69.914  1.00  0.00    -0.373 C  
BRANCH   8   9
HETATM    9  C   UNL     1     -11.095  13.445  68.968  1.00  0.00    -0.293 A  
HETATM   10  C   UNL     1     -11.500  13.693  67.655  1.00  0.00    -0.357 A  
HETATM   11  C   UNL     1     -10.726  14.509  66.819  1.00  0.00    -0.291 A  
HETATM   12  I   UNL     1     -11.415  14.766  64.838  1.00  0.00    -0.332 I  
HETATM   13  C   UNL     1      -9.522  15.105  67.259  1.00  0.00    -0.210 A  
HETATM   14  C   UNL     1      -9.131  14.873  68.585  1.00  0.00    -0.185 A  
HETATM   15  C   UNL     1      -9.928  14.071  69.428  1.00  0.00     0.302 A  
HETATM   16  I   UNL     1      -7.329  15.532  69.451  1.00  0.00    -0.129 I  
BRANCH  13  17
HETATM   17  O   UNL     1      -8.705  15.610  66.275  1.00  0.00    -0.307 OA 
BRANCH  17  18
HETATM   18  C   UNL     1      -8.266  16.908  66.207  1.00  0.00    -0.309 A  
HETATM   19  C   UNL     1      -9.141  17.814  66.826  1.00  0.00    -0.273 A  
HETATM   20  C   UNL     1      -8.866  19.183  66.843  1.00  0.00    -0.305 A  
HETATM   21  I   UNL     1     -10.230  20.453  67.785  1.00  0.00     0.101 I  
HETATM   22  C   UNL     1      -7.712  19.664  66.224  1.00  0.00    -0.315 A  
HETATM   23  C   UNL     1      -6.834  18.762  65.609  1.00  0.00    -0.254 A  
HETATM   24  O   UNL     1      -7.432  21.009  66.222  1.00  0.00    -0.495 OA 
HETATM   25  H   UNL     1      -6.646  21.337  65.800  1.00  0.00     0.000 HD 
HETATM   26  I   UNL     1      -5.133  19.435  64.583  1.00  0.00    -0.263 I  
HETATM   27  C   UNL     1      -7.089  17.380  65.631  1.00  0.00     0.277 A  
ENDBRANCH  17  18
ENDBRANCH  13  17
ENDBRANCH   8   9
ENDBRANCH   4   8
TORSDOF 4
ENDMDL
MODEL      115
REMARK 921   NORMALIZED FREE ENERGY PREDICTED BY IDOCK:   -4.55 KCAL/MOL
REMARK 922        TOTAL FREE ENERGY PREDICTED BY IDOCK:   -6.37 KCAL/MOL
REMARK 923 INTER-LIGAND FREE ENERGY PREDICTED BY IDOCK:   -5.69 KCAL/MOL
REMARK 924 INTRA-LIGAND FREE ENERGY PREDICTED BY IDOCK:   -0.68 KCAL/MOL
REMARK 927      BINDING AFFINITY PREDICTED BY RF-SCORE:    0.00 PKD
ROOT
HETATM    1  N   UNL     1      -8.928   4.926  72.451  1.00  0.00    -0.129 NA 
HETATM    2  H1  UNL     1      -9.603   4.162  72.426  1.00  0.00     0.000 HD 
HETATM    3  H2  UNL     1      -8.514   5.006  73.380  1.00  0.00     0.000 HD 
HETATM    4  CA  UNL     1      -9.476   6.243  72.006  1.00  0.00    -0.151 C  
HETATM    5  C   UNL     1     -10.665   6.590  72.925  1.00  0.00    -0.251 C  
HETATM    6  OXT UNL     1     -11.127   7.706  73.097  1.00  0.00    -0.404 OA 
HETATM    7  O   UNL     1     -11.162   5.477  73.528  1.00  0.00    -0.243 OA 
ENDROOT
BRANCH   4   8
HETATM    8  C   UNL     1      -8.455   7.397  72.044  1.00  0.00    -0.119 C  
BRANCH   8   9
HETATM    9  C   UNL     1      -8.367   8.279  70.813  1.00  0.00    -0.127 A  
HETATM   10  C   UNL     1      -7.557   9.415  70.766  1.00  0.00    -0.138 A  
HETATM   11  C   UNL     1      -7.504  10.196  69.603  1.00  0.00    -0.147 A  
HETATM   12  I   UNL     1      -6.283  11.921  69.672  1.00  0.00    -0.060 I  
HETATM   13  C   UNL     1      -8.255   9.876  68.449  1.00  0.00    -0.106 A  
HETATM   14  C   UNL     1      -9.049   8.722  68.493  1.00  0.00    -0.138 A  
HETATM   15  C   UNL     1      -9.078   7.927  69.656  1.00  0.00    -0.153 A  
HETATM   16  I   UNL     1     -10.356   8.091  66.968  1.00  0.00    -0.224 I  
BRANCH  13  17
HETATM   17  O   UNL     1      -8.365  10.872  67.507  1.00  0.00    -0.116 OA 
BRANCH  17  18
HETATM   18  C   UNL     1      -9.433  11.724  67.384  1.00  0.00    -0.173 A  
HETATM   19  C   UNL     1      -9.980  11.731  66.090  1.00  0.00    -0.254 A  
HETATM   20  C   UNL     1     -11.065  12.549  65.772  1.00  0.00    -0.308 A  
HETATM   21  I   UNL     1     -11.806  12.494  63.821  1.00  0.00    -0.677 I  
HETATM   22  C   UNL     1     -11.608  13.386  66.747  1.00  0.00    -0.365 A  
HETATM   23  C   UNL     1     -11.068  13.379  68.040  1.00  0.00    -0.255 A  
HETATM   24  O   UNL     1     -12.669  14.206  66.449  1.00  0.00    -0.529 OA 
HETATM   25  H   UNL     1     -13.040  14.777  67.112  1.00  0.00     0.000 HD 
HETATM   26  I   UNL     1     -11.783  14.681  69.520  1.00  0.00    -0.412 I  
HETATM   27  C   UNL     1     -10.004  12.522  68.372  1.00  0.00    -0.212 A  
ENDBRANCH  17  18
ENDBRANCH  13  17
ENDBRANCH   8   9
ENDBRANCH   4   8
TORSDOF 4
ENDMDL
MODEL      116
REMARK 921   NORMALIZED FREE ENERGY PREDICTED BY IDOCK:   -4.53 KCAL/MOL
REMARK 922        TOTAL FREE ENERGY PREDICTED BY IDOCK:   -6.34 KCAL/MOL
REMARK 923 INTER-LIGAND FREE ENERGY PREDICTED BY IDOCK:   -5.65 KCAL/MOL
REMARK 924 INTRA-LIGAND FREE ENERGY PREDICTED BY IDOCK:   -0.69 KCAL/MOL
REMARK 927      BINDING AFFINITY PREDICTED BY RF-SCORE:    0.00 PKD
ROOT
HETATM    1  N   UNL     1     -11.456  16.209  63.981  1.00  0.00    -1.425 NA 
HETATM    2  H1  UNL     1     -11.006  16.886  63.366  1.00  0.00     0.000 HD 
HETATM    3  H2  UNL     1     -12.421  16.481  64.166  1.00  0.00     0.000 HD 
HETATM    4  CA  UNL     1     -10.726  15.967  65.263  1.00  0.00    -0.424 C  
HETATM    5  C   UNL     1     -10.610  17.318  65.998  1.00  0.00    -0.217 C  
HETATM    6  OXT UNL     1     -10.402  17.462  67.192  1.00  0.00    -0.317 OA 
HETATM    7  O   UNL     1     -10.755  18.360  65.137  1.00  0.00    -0.562 OA 
ENDROOT
BRANCH   4   8
HETATM    8  C   UNL     1     -11.406  14.943  66.194  1.00  0.00    -0.307 C  
BRANCH   8   9
HETATM    9  C   UNL     1     -10.498  14.005  66.966  1.00  0.00    -0.275 A  
HETATM   10  C   UNL     1      -9.119  14.207  67.054  1.00  0.00    -0.255 A  
HETATM   11  C   UNL     1      -8.320  13.316  67.783  1.00  0.00    -0.171 A  
HETATM   12  I   UNL     1      -6.241  13.697  67.799  1.00  0.00     0.027 I  
HETATM   13  C   UNL     1      -8.864  12.194  68.449  1.00  0.00    -0.143 A  
HETATM   14  C   UNL     1     -10.252  12.008  68.377  1.00  0.00    -0.209 A  
HETATM   15  C   UNL     1     -11.052  12.922  67.662  1.00  0.00    -0.297 A  
HETATM   16  I   UNL     1     -11.296  10.359  69.165  1.00  0.00    -0.199 I  
BRANCH  13  17
HETATM   17  O   UNL     1      -7.962  11.238  68.853  1.00  0.00    -0.141 OA 
BRANCH  17  18
HETATM   18  C   UNL     1      -7.715  10.060  68.193  1.00  0.00    -0.085 A  
HETATM   19  C   UNL     1      -7.238   9.049  69.042  1.00  0.00    -0.072 A  
HETATM   20  C   UNL     1      -6.917   7.784  68.545  1.00  0.00    -0.071 A  
HETATM   21  I   UNL     1      -6.210   6.346  69.884  1.00  0.00    -0.033 I  
HETATM   22  C   UNL     1      -7.058   7.521  67.182  1.00  0.00    -0.085 A  
HETATM   23  C   UNL     1      -7.539   8.527  66.333  1.00  0.00    -0.091 A  
HETATM   24  O   UNL     1      -6.737   6.286  66.674  1.00  0.00    -0.056 OA 
HETATM   25  H   UNL     1      -6.833   6.106  65.746  1.00  0.00     0.000 HD 
HETATM   26  I   UNL     1      -7.684   8.219  64.263  1.00  0.00    -0.140 I  
HETATM   27  C   UNL     1      -7.903   9.786  66.841  1.00  0.00    -0.102 A  
ENDBRANCH  17  18
ENDBRANCH  13  17
ENDBRANCH   8   9
ENDBRANCH   4   8
TORSDOF 4
ENDMDL
MODEL      117
REMARK 921   NORMALIZED FREE ENERGY PREDICTED BY IDOCK:   -4.53 KCAL/MOL
REMARK 922        TOTAL FREE ENERGY PREDICTED BY IDOCK:   -6.34 KCAL/MOL
REMARK 923 INTER-LIGAND FREE ENERGY PREDICTED BY IDOCK:   -6.15 KCAL/MOL
REMARK 924 INTRA-LIGAND FREE ENERGY PREDICTED BY IDOCK:   -0.19 KCAL/MOL
REMARK 927      BINDING AFFINITY PREDICTED BY RF-SCORE:    0.00 PKD
ROOT
HETATM    1  N   UNL     1     -12.399   7.012  70.445  1.00  0.00    -0.618 NA 
HETATM    2  H1  UNL     1     -12.614   6.016  70.400  1.00  0.00     0.000 HD 
HETATM    3  H2  UNL     1     -11.511   7.206  69.981  1.00  0.00     0.000 HD 
HETATM    4  CA  UNL     1     -12.401   7.578  71.828  1.00  0.00    -0.326 C  
HETATM    5  C   UNL     1     -11.358   6.799  72.655  1.00  0.00    -0.222 C  
HETATM    6  OXT UNL     1     -10.838   7.186  73.688  1.00  0.00    -0.352 OA 
HETATM    7  O   UNL     1     -11.089   5.590  72.094  1.00  0.00    -0.245 OA 
ENDROOT
BRANCH   4   8
HETATM    8  C   UNL     1     -12.076   9.083  71.895  1.00  0.00    -0.448 C  
BRANCH   8   9
HETATM    9  C   UNL     1     -11.112   9.625  70.857  1.00  0.00    -0.422 A  
HETATM   10  C   UNL     1     -11.514  10.515  69.859  1.00  0.00    -0.384 A  
HETATM   11  C   UNL     1     -10.586  10.994  68.924  1.00  0.00    -0.207 A  
HETATM   12  I   UNL     1     -11.325  12.292  67.430  1.00  0.00    -0.417 I  
HETATM   13  C   UNL     1      -9.227  10.603  68.949  1.00  0.00    -0.183 A  
HETATM   14  C   UNL     1      -8.823   9.729  69.966  1.00  0.00    -0.215 A  
HETATM   15  C   UNL     1      -9.756   9.271  70.918  1.00  0.00    -0.346 A  
HETATM   16  I   UNL     1      -6.899   8.895  70.155  1.00  0.00    -0.061 I  
BRANCH  13  17
HETATM   17  O   UNL     1      -8.501  10.881  67.815  1.00  0.00    -0.121 OA 
BRANCH  17  18
HETATM   18  C   UNL     1      -8.508  10.123  66.670  1.00  0.00    -0.126 A  
HETATM   19  C   UNL     1      -8.503   8.743  66.929  1.00  0.00    -0.112 A  
HETATM   20  C   UNL     1      -8.494   7.816  65.886  1.00  0.00    -0.142 A  
HETATM   21  I   UNL     1      -8.481   5.785  66.370  1.00  0.00    -0.135 I  
HETATM   22  C   UNL     1      -8.475   8.262  64.565  1.00  0.00    -0.022 A  
HETATM   23  C   UNL     1      -8.486   9.639  64.302  1.00  0.00    -0.181 A  
HETATM   24  O   UNL     1      -8.455   7.363  63.526  1.00  0.00    -0.363 OA 
HETATM   25  H   UNL     1      -8.443   7.667  62.626  1.00  0.00     0.000 HD 
HETATM   26  I   UNL     1      -8.365  10.368  62.340  1.00  0.00    -0.317 I  
HETATM   27  C   UNL     1      -8.539  10.572  65.353  1.00  0.00    -0.188 A  
ENDBRANCH  17  18
ENDBRANCH  13  17
ENDBRANCH   8   9
ENDBRANCH   4   8
TORSDOF 4
ENDMDL
MODEL      118
REMARK 921   NORMALIZED FREE ENERGY PREDICTED BY IDOCK:   -4.52 KCAL/MOL
REMARK 922        TOTAL FREE ENERGY PREDICTED BY IDOCK:   -6.33 KCAL/MOL
REMARK 923 INTER-LIGAND FREE ENERGY PREDICTED BY IDOCK:   -6.29 KCAL/MOL
REMARK 924 INTRA-LIGAND FREE ENERGY PREDICTED BY IDOCK:   -0.05 KCAL/MOL
REMARK 927      BINDING AFFINITY PREDICTED BY RF-SCORE:    0.00 PKD
ROOT
HETATM    1  N   UNL     1      -5.649  16.918  66.367  1.00  0.00    -0.341 NA 
HETATM    2  H1  UNL     1      -4.858  17.303  65.850  1.00  0.00     0.000 HD 
HETATM    3  H2  UNL     1      -6.152  16.240  65.796  1.00  0.00     0.000 HD 
HETATM    4  CA  UNL     1      -6.588  17.949  66.906  1.00  0.00    -0.180 C  
HETATM    5  C   UNL     1      -7.117  18.770  65.713  1.00  0.00    -0.230 C  
HETATM    6  OXT UNL     1      -8.135  19.442  65.709  1.00  0.00    -0.436 OA 
HETATM    7  O   UNL     1      -6.288  18.668  64.640  1.00  0.00    -0.457 OA 
ENDROOT
BRANCH   4   8
HETATM    8  C   UNL     1      -7.782  17.367  67.688  1.00  0.00    -0.203 C  
BRANCH   8   9
HETATM    9  C   UNL     1      -8.337  16.039  67.208  1.00  0.00    -0.205 A  
HETATM   10  C   UNL     1      -9.458  15.955  66.379  1.00  0.00    -0.324 A  
HETATM   11  C   UNL     1      -9.932  14.706  65.956  1.00  0.00    -0.316 A  
HETATM   12  I   UNL     1     -11.666  14.705  64.748  1.00  0.00    -0.329 I  
HETATM   13  C   UNL     1      -9.309  13.497  66.345  1.00  0.00    -0.176 A  
HETATM   14  C   UNL     1      -8.171  13.587  67.158  1.00  0.00    -0.112 A  
HETATM   15  C   UNL     1      -7.685  14.848  67.559  1.00  0.00    -0.214 A  
HETATM   16  I   UNL     1      -7.136  11.949  67.980  1.00  0.00    -0.119 I  
BRANCH  13  17
HETATM   17  O   UNL     1     -10.038  12.350  66.135  1.00  0.00    -0.237 OA 
BRANCH  17  18
HETATM   18  C   UNL     1     -10.406  11.462  67.115  1.00  0.00    -0.212 A  
HETATM   19  C   UNL     1     -10.031  10.141  66.822  1.00  0.00    -0.266 A  
HETATM   20  C   UNL     1     -10.335   9.097  67.697  1.00  0.00    -0.255 A  
HETATM   21  I   UNL     1      -9.740   7.165  67.174  1.00  0.00    -0.279 I  
HETATM   22  C   UNL     1     -11.035   9.363  68.874  1.00  0.00    -0.050 A  
HETATM   23  C   UNL     1     -11.407  10.680  69.171  1.00  0.00    -0.273 A  
HETATM   24  O   UNL     1     -11.353   8.345  69.741  1.00  0.00    -0.451 OA 
HETATM   25  H   UNL     1     -11.830   8.526  70.543  1.00  0.00     0.000 HD 
HETATM   26  I   UNL     1     -12.541  11.127  70.879  1.00  0.00    -0.329 I  
HETATM   27  C   UNL     1     -11.062  11.738  68.311  1.00  0.00    -0.291 A  
ENDBRANCH  17  18
ENDBRANCH  13  17
ENDBRANCH   8   9
ENDBRANCH   4   8
TORSDOF 4
ENDMDL
MODEL      119
REMARK 921   NORMALIZED FREE ENERGY PREDICTED BY IDOCK:   -4.51 KCAL/MOL
REMARK 922        TOTAL FREE ENERGY PREDICTED BY IDOCK:   -6.32 KCAL/MOL
REMARK 923 INTER-LIGAND FREE ENERGY PREDICTED BY IDOCK:   -5.85 KCAL/MOL
REMARK 924 INTRA-LIGAND FREE ENERGY PREDICTED BY IDOCK:   -0.47 KCAL/MOL
REMARK 927      BINDING AFFINITY PREDICTED BY RF-SCORE:    0.00 PKD
ROOT
HETATM    1  N   UNL     1     -10.458   6.750  66.300  1.00  0.00    -0.415 NA 
HETATM    2  H1  UNL     1     -10.716   6.227  65.463  1.00  0.00     0.000 HD 
HETATM    3  H2  UNL     1     -10.081   7.664  66.048  1.00  0.00     0.000 HD 
HETATM    4  CA  UNL     1      -9.515   6.027  67.207  1.00  0.00    -0.114 C  
HETATM    5  C   UNL     1      -8.241   5.706  66.399  1.00  0.00    -0.107 C  
HETATM    6  OXT UNL     1      -7.146   5.450  66.872  1.00  0.00    -0.064 OA 
HETATM    7  O   UNL     1      -8.487   5.729  65.062  1.00  0.00    -0.147 OA 
ENDROOT
BRANCH   4   8
HETATM    8  C   UNL     1      -9.125   6.816  68.472  1.00  0.00    -0.129 C  
BRANCH   8   9
HETATM    9  C   UNL     1      -9.208   8.329  68.392  1.00  0.00    -0.135 A  
HETATM   10  C   UNL     1      -8.214   9.099  67.787  1.00  0.00    -0.109 A  
HETATM   11  C   UNL     1      -8.336  10.494  67.731  1.00  0.00    -0.111 A  
HETATM   12  I   UNL     1      -6.741  11.555  66.838  1.00  0.00    -0.021 I  
HETATM   13  C   UNL     1      -9.451  11.171  68.277  1.00  0.00    -0.182 A  
HETATM   14  C   UNL     1     -10.459  10.392  68.863  1.00  0.00    -0.212 A  
HETATM   15  C   UNL     1     -10.340   8.988  68.893  1.00  0.00    -0.232 A  
HETATM   16  I   UNL     1     -12.153  11.150  69.857  1.00  0.00    -0.361 I  
BRANCH  13  17
HETATM   17  O   UNL     1      -9.308  12.529  68.444  1.00  0.00    -0.202 OA 
BRANCH  17  18
HETATM   18  C   UNL     1      -9.770  13.481  67.569  1.00  0.00    -0.228 A  
HETATM   19  C   UNL     1     -10.359  12.928  66.421  1.00  0.00    -0.277 A  
HETATM   20  C   UNL     1     -10.871  13.744  65.411  1.00  0.00    -0.312 A  
HETATM   21  I   UNL     1     -11.724  12.830  63.739  1.00  0.00    -0.592 I  
HETATM   22  C   UNL     1     -10.787  15.131  65.534  1.00  0.00    -0.364 A  
HETATM   23  C   UNL     1     -10.204  15.686  66.681  1.00  0.00    -0.279 A  
HETATM   24  O   UNL     1     -11.277  15.949  64.545  1.00  0.00    -0.667 OA 
HETATM   25  H   UNL     1     -11.219  16.894  64.629  1.00  0.00     0.000 HD 
HETATM   26  I   UNL     1      -9.966  17.761  66.879  1.00  0.00    -0.380 I  
HETATM   27  C   UNL     1      -9.728  14.864  67.717  1.00  0.00    -0.212 A  
ENDBRANCH  17  18
ENDBRANCH  13  17
ENDBRANCH   8   9
ENDBRANCH   4   8
TORSDOF 4
ENDMDL
MODEL      120
REMARK 921   NORMALIZED FREE ENERGY PREDICTED BY IDOCK:   -4.51 KCAL/MOL
REMARK 922        TOTAL FREE ENERGY PREDICTED BY IDOCK:   -6.32 KCAL/MOL
REMARK 923 INTER-LIGAND FREE ENERGY PREDICTED BY IDOCK:   -5.75 KCAL/MOL
REMARK 924 INTRA-LIGAND FREE ENERGY PREDICTED BY IDOCK:   -0.57 KCAL/MOL
REMARK 927      BINDING AFFINITY PREDICTED BY RF-SCORE:    0.00 PKD
ROOT
HETATM    1  N   UNL     1      -9.872   3.404  72.038  1.00  0.00    -0.163 NA 
HETATM    2  H1  UNL     1     -10.579   2.778  72.423  1.00  0.00     0.000 HD 
HETATM    3  H2  UNL     1      -8.955   3.191  72.432  1.00  0.00     0.000 HD 
HETATM    4  CA  UNL     1     -10.187   4.856  72.197  1.00  0.00    -0.196 C  
HETATM    5  C   UNL     1     -10.344   5.139  73.706  1.00  0.00    -0.238 C  
HETATM    6  OXT UNL     1     -10.254   6.233  74.236  1.00  0.00    -0.304 OA 
HETATM    7  O   UNL     1     -10.615   3.997  74.394  1.00  0.00    -0.221 OA 
ENDROOT
BRANCH   4   8
HETATM    8  C   UNL     1      -9.117   5.802  71.616  1.00  0.00    -0.152 C  
BRANCH   8   9
HETATM    9  C   UNL     1      -9.593   6.861  70.640  1.00  0.00    -0.171 A  
HETATM   10  C   UNL     1     -10.408   7.924  71.032  1.00  0.00    -0.221 A  
HETATM   11  C   UNL     1     -10.819   8.882  70.095  1.00  0.00    -0.231 A  
HETATM   12  I   UNL     1     -12.095  10.413  70.797  1.00  0.00    -0.503 I  
HETATM   13  C   UNL     1     -10.434   8.815  68.736  1.00  0.00    -0.191 A  
HETATM   14  C   UNL     1      -9.595   7.760  68.351  1.00  0.00    -0.152 A  
HETATM   15  C   UNL     1      -9.167   6.814  69.304  1.00  0.00    -0.141 A  
HETATM   16  I   UNL     1      -8.981   7.356  66.379  1.00  0.00    -0.159 I  
BRANCH  13  17
HETATM   17  O   UNL     1     -11.144   9.613  67.869  1.00  0.00    -0.205 OA 
BRANCH  17  18
HETATM   18  C   UNL     1     -10.680  10.779  67.316  1.00  0.00    -0.274 A  
HETATM   19  C   UNL     1      -9.370  11.090  67.713  1.00  0.00    -0.162 A  
HETATM   20  C   UNL     1      -8.737  12.249  67.262  1.00  0.00    -0.188 A  
HETATM   21  I   UNL     1      -6.789  12.628  67.912  1.00  0.00    -0.166 I  
HETATM   22  C   UNL     1      -9.418  13.123  66.415  1.00  0.00    -0.220 A  
HETATM   23  C   UNL     1     -10.724  12.815  66.012  1.00  0.00    -0.272 A  
HETATM   24  O   UNL     1      -8.814  14.274  65.970  1.00  0.00    -0.423 OA 
HETATM   25  H   UNL     1      -9.278  14.870  65.393  1.00  0.00     0.000 HD 
HETATM   26  I   UNL     1     -11.830  14.135  64.815  1.00  0.00    -0.484 I  
HETATM   27  C   UNL     1     -11.345  11.625  66.431  1.00  0.00    -0.312 A  
ENDBRANCH  17  18
ENDBRANCH  13  17
ENDBRANCH   8   9
ENDBRANCH   4   8
TORSDOF 4
ENDMDL
MODEL      121
REMARK 921   NORMALIZED FREE ENERGY PREDICTED BY IDOCK:   -4.47 KCAL/MOL
REMARK 922        TOTAL FREE ENERGY PREDICTED BY IDOCK:   -6.27 KCAL/MOL
REMARK 923 INTER-LIGAND FREE ENERGY PREDICTED BY IDOCK:   -6.12 KCAL/MOL
REMARK 924 INTRA-LIGAND FREE ENERGY PREDICTED BY IDOCK:   -0.15 KCAL/MOL
REMARK 927      BINDING AFFINITY PREDICTED BY RF-SCORE:    0.00 PKD
ROOT
HETATM    1  N   UNL     1      -9.727   3.028  67.222  1.00  0.00    -0.349 NA 
HETATM    2  H1  UNL     1      -9.028   2.292  67.120  1.00  0.00     0.000 HD 
HETATM    3  H2  UNL     1     -10.666   2.645  67.111  1.00  0.00     0.000 HD 
HETATM    4  CA  UNL     1      -9.525   4.194  66.309  1.00  0.00    -0.186 C  
HETATM    5  C   UNL     1      -9.555   3.666  64.860  1.00  0.00    -0.173 C  
HETATM    6  OXT UNL     1      -9.773   4.336  63.864  1.00  0.00    -0.146 OA 
HETATM    7  O   UNL     1      -9.289   2.333  64.817  1.00  0.00    -0.139 OA 
ENDROOT
BRANCH   4   8
HETATM    8  C   UNL     1     -10.582   5.306  66.462  1.00  0.00    -0.348 C  
BRANCH   8   9
HETATM    9  C   UNL     1     -10.082   6.679  66.870  1.00  0.00    -0.258 A  
HETATM   10  C   UNL     1     -10.442   7.275  68.080  1.00  0.00    -0.249 A  
HETATM   11  C   UNL     1      -9.951   8.543  68.416  1.00  0.00    -0.187 A  
HETATM   12  I   UNL     1     -10.610   9.363  70.249  1.00  0.00    -0.375 I  
HETATM   13  C   UNL     1      -9.086   9.264  67.560  1.00  0.00    -0.120 A  
HETATM   14  C   UNL     1      -8.708   8.652  66.357  1.00  0.00    -0.130 A  
HETATM   15  C   UNL     1      -9.187   7.365  66.037  1.00  0.00    -0.092 A  
HETATM   16  I   UNL     1      -7.541   9.552  64.854  1.00  0.00    -0.132 I  
BRANCH  13  17
HETATM   17  O   UNL     1      -8.932  10.600  67.847  1.00  0.00    -0.135 OA 
BRANCH  17  18
HETATM   18  C   UNL     1      -9.879  11.567  67.621  1.00  0.00    -0.181 A  
HETATM   19  C   UNL     1     -10.432  11.500  66.332  1.00  0.00    -0.292 A  
HETATM   20  C   UNL     1     -11.402  12.414  65.917  1.00  0.00    -0.356 A  
HETATM   21  I   UNL     1     -12.161  12.237  63.980  1.00  0.00    -0.514 I  
HETATM   22  C   UNL     1     -11.821  13.420  66.787  1.00  0.00    -0.403 A  
HETATM   23  C   UNL     1     -11.274  13.488  68.076  1.00  0.00    -0.271 A  
HETATM   24  O   UNL     1     -12.766  14.335  66.391  1.00  0.00    -0.524 OA 
HETATM   25  H   UNL     1     -13.052  15.021  66.984  1.00  0.00     0.000 HD 
HETATM   26  I   UNL     1     -11.797  15.033  69.395  1.00  0.00    -0.328 I  
HETATM   27  C   UNL     1     -10.330  12.540  68.509  1.00  0.00    -0.233 A  
ENDBRANCH  17  18
ENDBRANCH  13  17
ENDBRANCH   8   9
ENDBRANCH   4   8
TORSDOF 4
ENDMDL
MODEL      122
REMARK 921   NORMALIZED FREE ENERGY PREDICTED BY IDOCK:   -4.44 KCAL/MOL
REMARK 922        TOTAL FREE ENERGY PREDICTED BY IDOCK:   -6.23 KCAL/MOL
REMARK 923 INTER-LIGAND FREE ENERGY PREDICTED BY IDOCK:   -6.01 KCAL/MOL
REMARK 924 INTRA-LIGAND FREE ENERGY PREDICTED BY IDOCK:   -0.22 KCAL/MOL
REMARK 927      BINDING AFFINITY PREDICTED BY RF-SCORE:    0.00 PKD
ROOT
HETATM    1  N   UNL     1     -12.102   6.890  69.901  1.00  0.00    -0.600 NA 
HETATM    2  H1  UNL     1     -12.289   5.924  69.630  1.00  0.00     0.000 HD 
HETATM    3  H2  UNL     1     -11.677   7.401  69.127  1.00  0.00     0.000 HD 
HETATM    4  CA  UNL     1     -11.274   7.029  71.137  1.00  0.00    -0.270 C  
HETATM    5  C   UNL     1      -9.935   6.306  70.888  1.00  0.00    -0.186 C  
HETATM    6  OXT UNL     1      -8.900   6.495  71.506  1.00  0.00    -0.139 OA 
HETATM    7  O   UNL     1     -10.046   5.396  69.884  1.00  0.00    -0.206 OA 
ENDROOT
BRANCH   4   8
HETATM    8  C   UNL     1     -10.991   8.488  71.546  1.00  0.00    -0.337 C  
BRANCH   8   9
HETATM    9  C   UNL     1     -11.025   9.530  70.445  1.00  0.00    -0.333 A  
HETATM   10  C   UNL     1     -10.539   9.275  69.161  1.00  0.00    -0.228 A  
HETATM   11  C   UNL     1     -10.596  10.267  68.173  1.00  0.00    -0.221 A  
HETATM   12  I   UNL     1      -9.780   9.780  66.286  1.00  0.00    -0.335 I  
HETATM   13  C   UNL     1     -11.137  11.549  68.429  1.00  0.00    -0.235 A  
HETATM   14  C   UNL     1     -11.645  11.793  69.712  1.00  0.00    -0.299 A  
HETATM   15  C   UNL     1     -11.607  10.782  70.693  1.00  0.00    -0.388 A  
HETATM   16  I   UNL     1     -12.385  13.644  70.390  1.00  0.00    -0.243 I  
BRANCH  13  17
HETATM   17  O   UNL     1     -10.852  12.519  67.497  1.00  0.00    -0.223 OA 
BRANCH  17  18
HETATM   18  C   UNL     1      -9.834  13.434  67.600  1.00  0.00    -0.226 A  
HETATM   19  C   UNL     1     -10.235  14.736  67.260  1.00  0.00    -0.241 A  
HETATM   20  C   UNL     1      -9.330  15.798  67.291  1.00  0.00    -0.211 A  
HETATM   21  I   UNL     1     -10.017  17.698  66.765  1.00  0.00    -0.357 I  
HETATM   22  C   UNL     1      -8.002  15.564  67.651  1.00  0.00    -0.151 A  
HETATM   23  C   UNL     1      -7.600  14.267  67.994  1.00  0.00    -0.142 A  
HETATM   24  O   UNL     1      -7.095  16.596  67.676  1.00  0.00    -0.125 OA 
HETATM   25  H   UNL     1      -6.191  16.437  67.920  1.00  0.00     0.000 HD 
HETATM   26  I   UNL     1      -5.598  13.839  68.453  1.00  0.00    -0.130 I  
HETATM   27  C   UNL     1      -8.522  13.206  68.006  1.00  0.00    -0.181 A  
ENDBRANCH  17  18
ENDBRANCH  13  17
ENDBRANCH   8   9
ENDBRANCH   4   8
TORSDOF 4
ENDMDL
MODEL      123
REMARK 921   NORMALIZED FREE ENERGY PREDICTED BY IDOCK:   -4.42 KCAL/MOL
REMARK 922        TOTAL FREE ENERGY PREDICTED BY IDOCK:   -6.21 KCAL/MOL
REMARK 923 INTER-LIGAND FREE ENERGY PREDICTED BY IDOCK:   -5.78 KCAL/MOL
REMARK 924 INTRA-LIGAND FREE ENERGY PREDICTED BY IDOCK:   -0.42 KCAL/MOL
REMARK 927      BINDING AFFINITY PREDICTED BY RF-SCORE:    0.00 PKD
ROOT
HETATM    1  N   UNL     1     -11.441  15.844  68.397  1.00  0.00    -0.367 NA 
HETATM    2  H1  UNL     1     -11.321  16.785  68.773  1.00  0.00     0.000 HD 
HETATM    3  H2  UNL     1     -10.953  15.163  68.979  1.00  0.00     0.000 HD 
HETATM    4  CA  UNL     1     -11.033  15.700  66.967  1.00  0.00    -0.261 C  
HETATM    5  C   UNL     1      -9.547  16.100  66.860  1.00  0.00    -0.230 C  
HETATM    6  OXT UNL     1      -8.790  15.786  65.957  1.00  0.00    -0.327 OA 
HETATM    7  O   UNL     1      -9.171  16.877  67.911  1.00  0.00    -0.227 OA 
ENDROOT
BRANCH   4   8
HETATM    8  C   UNL     1     -11.215  14.278  66.399  1.00  0.00    -0.337 C  
BRANCH   8   9
HETATM    9  C   UNL     1     -10.799  13.123  67.290  1.00  0.00    -0.270 A  
HETATM   10  C   UNL     1     -11.629  12.618  68.291  1.00  0.00    -0.377 A  
HETATM   11  C   UNL     1     -11.204  11.545  69.087  1.00  0.00    -0.274 A  
HETATM   12  I   UNL     1     -12.527  10.904  70.605  1.00  0.00    -0.414 I  
HETATM   13  C   UNL     1      -9.939  10.940  68.915  1.00  0.00    -0.196 A  
HETATM   14  C   UNL     1      -9.117  11.434  67.892  1.00  0.00    -0.164 A  
HETATM   15  C   UNL     1      -9.562  12.497  67.080  1.00  0.00    -0.208 A  
HETATM   16  I   UNL     1      -7.147  10.802  67.507  1.00  0.00    -0.100 I  
BRANCH  13  17
HETATM   17  O   UNL     1      -9.516  10.127  69.940  1.00  0.00    -0.204 OA 
BRANCH  17  18
HETATM   18  C   UNL     1      -9.692   8.767  69.990  1.00  0.00    -0.173 A  
HETATM   19  C   UNL     1      -9.801   8.278  71.302  1.00  0.00    -0.225 A  
HETATM   20  C   UNL     1      -9.969   6.915  71.549  1.00  0.00    -0.177 A  
HETATM   21  I   UNL     1     -10.116   6.282  73.534  1.00  0.00    -0.326 I  
HETATM   22  C   UNL     1     -10.016   6.019  70.481  1.00  0.00    -0.185 A  
HETATM   23  C   UNL     1      -9.912   6.504  69.171  1.00  0.00    -0.146 A  
HETATM   24  O   UNL     1     -10.170   4.672  70.707  1.00  0.00    -0.215 OA 
HETATM   25  H   UNL     1     -10.202   4.062  69.980  1.00  0.00     0.000 HD 
HETATM   26  I   UNL     1      -9.883   5.196  67.531  1.00  0.00    -0.204 I  
HETATM   27  C   UNL     1      -9.787   7.881  68.920  1.00  0.00    -0.174 A  
ENDBRANCH  17  18
ENDBRANCH  13  17
ENDBRANCH   8   9
ENDBRANCH   4   8
TORSDOF 4
ENDMDL
MODEL      124
REMARK 921   NORMALIZED FREE ENERGY PREDICTED BY IDOCK:   -4.42 KCAL/MOL
REMARK 922        TOTAL FREE ENERGY PREDICTED BY IDOCK:   -6.20 KCAL/MOL
REMARK 923 INTER-LIGAND FREE ENERGY PREDICTED BY IDOCK:   -6.26 KCAL/MOL
REMARK 924 INTRA-LIGAND FREE ENERGY PREDICTED BY IDOCK:    0.05 KCAL/MOL
REMARK 927      BINDING AFFINITY PREDICTED BY RF-SCORE:    0.00 PKD
ROOT
HETATM    1  N   UNL     1     -10.373  17.814  65.656  1.00  0.00    -0.635 NA 
HETATM    2  H1  UNL     1     -11.104  18.486  65.889  1.00  0.00     0.000 HD 
HETATM    3  H2  UNL     1     -10.760  16.873  65.591  1.00  0.00     0.000 HD 
HETATM    4  CA  UNL     1      -9.203  17.836  66.586  1.00  0.00    -0.269 C  
HETATM    5  C   UNL     1      -9.727  17.538  68.006  1.00  0.00    -0.287 C  
HETATM    6  OXT UNL     1      -9.056  17.135  68.941  1.00  0.00    -0.260 OA 
HETATM    7  O   UNL     1     -11.058  17.798  68.103  1.00  0.00    -0.173 OA 
ENDROOT
BRANCH   4   8
HETATM    8  C   UNL     1      -8.097  16.821  66.234  1.00  0.00    -0.365 C  
BRANCH   8   9
HETATM    9  C   UNL     1      -8.348  15.373  66.609  1.00  0.00    -0.255 A  
HETATM   10  C   UNL     1      -7.426  14.622  67.341  1.00  0.00    -0.212 A  
HETATM   11  C   UNL     1      -7.704  13.288  67.669  1.00  0.00    -0.171 A  
HETATM   12  I   UNL     1      -6.209  12.239  68.732  1.00  0.00    -0.093 I  
HETATM   13  C   UNL     1      -8.906  12.654  67.278  1.00  0.00    -0.196 A  
HETATM   14  C   UNL     1      -9.839  13.419  66.564  1.00  0.00    -0.286 A  
HETATM   15  C   UNL     1      -9.564  14.767  66.259  1.00  0.00    -0.339 A  
HETATM   16  I   UNL     1     -11.641  12.689  65.757  1.00  0.00    -0.481 I  
BRANCH  13  17
HETATM   17  O   UNL     1      -8.924  11.283  67.379  1.00  0.00    -0.142 OA 
BRANCH  17  18
HETATM   18  C   UNL     1      -9.445  10.578  68.435  1.00  0.00    -0.157 A  
HETATM   19  C   UNL     1      -8.736   9.397  68.706  1.00  0.00    -0.131 A  
HETATM   20  C   UNL     1      -9.130   8.543  69.737  1.00  0.00    -0.153 A  
HETATM   21  I   UNL     1      -8.015   6.807  70.062  1.00  0.00    -0.119 I  
HETATM   22  C   UNL     1     -10.254   8.855  70.503  1.00  0.00    -0.204 A  
HETATM   23  C   UNL     1     -10.961  10.035  70.237  1.00  0.00    -0.316 A  
HETATM   24  O   UNL     1     -10.662   8.020  71.514  1.00  0.00    -0.220 OA 
HETATM   25  H   UNL     1     -11.427   8.232  72.036  1.00  0.00     0.000 HD 
HETATM   26  I   UNL     1     -12.710  10.510  71.293  1.00  0.00    -0.544 I  
HETATM   27  C   UNL     1     -10.538  10.918  69.228  1.00  0.00    -0.251 A  
ENDBRANCH  17  18
ENDBRANCH  13  17
ENDBRANCH   8   9
ENDBRANCH   4   8
TORSDOF 4
ENDMDL
MODEL      125
REMARK 921   NORMALIZED FREE ENERGY PREDICTED BY IDOCK:   -4.39 KCAL/MOL
REMARK 922        TOTAL FREE ENERGY PREDICTED BY IDOCK:   -6.17 KCAL/MOL
REMARK 923 INTER-LIGAND FREE ENERGY PREDICTED BY IDOCK:   -5.88 KCAL/MOL
REMARK 924 INTRA-LIGAND FREE ENERGY PREDICTED BY IDOCK:   -0.29 KCAL/MOL
REMARK 927      BINDING AFFINITY PREDICTED BY RF-SCORE:    0.00 PKD
ROOT
HETATM    1  N   UNL     1     -10.958   4.760  65.232  1.00  0.00    -0.792 NA 
HETATM    2  H1  UNL     1     -11.809   4.265  64.963  1.00  0.00     0.000 HD 
HETATM    3  H2  UNL     1     -10.578   5.272  64.436  1.00  0.00     0.000 HD 
HETATM    4  CA  UNL     1      -9.910   3.886  65.842  1.00  0.00    -0.128 C  
HETATM    5  C   UNL     1      -9.555   2.792  64.814  1.00  0.00    -0.086 C  
HETATM    6  OXT UNL     1      -8.530   2.131  64.805  1.00  0.00    -0.086 OA 
HETATM    7  O   UNL     1     -10.552   2.633  63.902  1.00  0.00    -0.136 OA 
ENDROOT
BRANCH   4   8
HETATM    8  C   UNL     1      -8.623   4.633  66.247  1.00  0.00    -0.113 C  
BRANCH   8   9
HETATM    9  C   UNL     1      -8.745   6.123  66.504  1.00  0.00    -0.133 A  
HETATM   10  C   UNL     1      -8.212   7.075  65.633  1.00  0.00    -0.134 A  
HETATM   11  C   UNL     1      -8.354   8.442  65.909  1.00  0.00    -0.134 A  
HETATM   12  I   UNL     1      -7.458   9.786  64.545  1.00  0.00    -0.140 I  
HETATM   13  C   UNL     1      -9.028   8.908  67.061  1.00  0.00    -0.127 A  
HETATM   14  C   UNL     1      -9.582   7.950  67.920  1.00  0.00    -0.147 A  
HETATM   15  C   UNL     1      -9.457   6.577  67.623  1.00  0.00    -0.126 A  
HETATM   16  I   UNL     1     -10.520   8.366  69.758  1.00  0.00    -0.184 I  
BRANCH  13  17
HETATM   17  O   UNL     1      -8.828  10.231  67.381  1.00  0.00    -0.131 OA 
BRANCH  17  18
HETATM   18  C   UNL     1      -9.791  11.206  67.332  1.00  0.00    -0.173 A  
HETATM   19  C   UNL     1     -10.314  11.393  66.042  1.00  0.00    -0.297 A  
HETATM   20  C   UNL     1     -11.294  12.355  65.795  1.00  0.00    -0.352 A  
HETATM   21  I   UNL     1     -12.007  12.562  63.843  1.00  0.00    -0.678 I  
HETATM   22  C   UNL     1     -11.755  13.156  66.840  1.00  0.00    -0.387 A  
HETATM   23  C   UNL     1     -11.239  12.970  68.130  1.00  0.00    -0.272 A  
HETATM   24  O   UNL     1     -12.712  14.115  66.613  1.00  0.00    -0.523 OA 
HETATM   25  H   UNL     1     -13.026  14.661  67.325  1.00  0.00     0.000 HD 
HETATM   26  I   UNL     1     -11.826  14.205  69.720  1.00  0.00    -0.392 I  
HETATM   27  C   UNL     1     -10.284  11.971  68.386  1.00  0.00    -0.211 A  
ENDBRANCH  17  18
ENDBRANCH  13  17
ENDBRANCH   8   9
ENDBRANCH   4   8
TORSDOF 4
ENDMDL
MODEL      126
REMARK 921   NORMALIZED FREE ENERGY PREDICTED BY IDOCK:   -4.38 KCAL/MOL
REMARK 922        TOTAL FREE ENERGY PREDICTED BY IDOCK:   -6.15 KCAL/MOL
REMARK 923 INTER-LIGAND FREE ENERGY PREDICTED BY IDOCK:   -6.57 KCAL/MOL
REMARK 924 INTRA-LIGAND FREE ENERGY PREDICTED BY IDOCK:    0.42 KCAL/MOL
REMARK 927      BINDING AFFINITY PREDICTED BY RF-SCORE:    0.00 PKD
ROOT
HETATM    1  N   UNL     1     -11.891   7.067  69.979  1.00  0.00    -0.600 NA 
HETATM    2  H1  UNL     1     -11.412   6.192  69.764  1.00  0.00     0.000 HD 
HETATM    3  H2  UNL     1     -11.375   7.859  69.596  1.00  0.00     0.000 HD 
HETATM    4  CA  UNL     1     -12.164   7.274  71.433  1.00  0.00    -0.349 C  
HETATM    5  C   UNL     1     -10.812   7.244  72.174  1.00  0.00    -0.229 C  
HETATM    6  OXT UNL     1     -10.597   7.712  73.279  1.00  0.00    -0.365 OA 
HETATM    7  O   UNL     1      -9.863   6.605  71.438  1.00  0.00    -0.179 OA 
ENDROOT
BRANCH   4   8
HETATM    8  C   UNL     1     -12.888   8.595  71.758  1.00  0.00    -0.397 C  
BRANCH   8   9
HETATM    9  C   UNL     1     -12.496   9.813  70.942  1.00  0.00    -0.366 A  
HETATM   10  C   UNL     1     -12.766  11.114  71.368  1.00  0.00    -0.524 A  
HETATM   11  C   UNL     1     -12.379  12.209  70.583  1.00  0.00    -0.295 A  
HETATM   12  I   UNL     1     -12.891  14.127  71.308  1.00  0.00    -0.432 I  
HETATM   13  C   UNL     1     -11.714  12.047  69.346  1.00  0.00    -0.340 A  
HETATM   14  C   UNL     1     -11.424  10.739  68.933  1.00  0.00    -0.293 A  
HETATM   15  C   UNL     1     -11.793   9.644  69.740  1.00  0.00     0.141 A  
HETATM   16  I   UNL     1     -10.560  10.215  67.087  1.00  0.00    -0.199 I  
BRANCH  13  17
HETATM   17  O   UNL     1     -11.674  13.156  68.535  1.00  0.00    -0.310 OA 
BRANCH  17  18
HETATM   18  C   UNL     1     -10.552  13.906  68.282  1.00  0.00    -0.257 A  
HETATM   19  C   UNL     1     -10.849  15.236  67.947  1.00  0.00    -0.288 A  
HETATM   20  C   UNL     1      -9.834  16.145  67.641  1.00  0.00    -0.236 A  
HETATM   21  I   UNL     1     -10.373  18.101  67.150  1.00  0.00    -0.351 I  
HETATM   22  C   UNL     1      -8.503  15.725  67.654  1.00  0.00    -0.160 A  
HETATM   23  C   UNL     1      -8.204  14.398  67.992  1.00  0.00    -0.149 A  
HETATM   24  O   UNL     1      -7.493  16.602  67.346  1.00  0.00    -0.144 OA 
HETATM   25  H   UNL     1      -6.586  16.316  67.354  1.00  0.00     0.000 HD 
HETATM   26  I   UNL     1      -6.231  13.686  67.938  1.00  0.00    -0.092 I  
HETATM   27  C   UNL     1      -9.223  13.496  68.343  1.00  0.00    -0.159 A  
ENDBRANCH  17  18
ENDBRANCH  13  17
ENDBRANCH   8   9
ENDBRANCH   4   8
TORSDOF 4
ENDMDL
MODEL      127
REMARK 921   NORMALIZED FREE ENERGY PREDICTED BY IDOCK:   -4.36 KCAL/MOL
REMARK 922        TOTAL FREE ENERGY PREDICTED BY IDOCK:   -6.13 KCAL/MOL
REMARK 923 INTER-LIGAND FREE ENERGY PREDICTED BY IDOCK:   -6.45 KCAL/MOL
REMARK 924 INTRA-LIGAND FREE ENERGY PREDICTED BY IDOCK:    0.32 KCAL/MOL
REMARK 927      BINDING AFFINITY PREDICTED BY RF-SCORE:    0.00 PKD
ROOT
HETATM    1  N   UNL     1      -6.801   7.296  67.956  1.00  0.00    -0.068 NA 
HETATM    2  H1  UNL     1      -5.802   7.302  68.162  1.00  0.00     0.000 HD 
HETATM    3  H2  UNL     1      -7.149   8.249  67.848  1.00  0.00     0.000 HD 
HETATM    4  CA  UNL     1      -7.627   6.547  68.951  1.00  0.00    -0.100 C  
HETATM    5  C   UNL     1      -7.400   7.197  70.332  1.00  0.00    -0.079 C  
HETATM    6  OXT UNL     1      -8.143   7.096  71.294  1.00  0.00    -0.105 OA 
HETATM    7  O   UNL     1      -6.238   7.901  70.359  1.00  0.00    -0.036 OA 
ENDROOT
BRANCH   4   8
HETATM    8  C   UNL     1      -9.137   6.539  68.640  1.00  0.00    -0.128 C  
BRANCH   8   9
HETATM    9  C   UNL     1      -9.826   7.886  68.537  1.00  0.00    -0.186 A  
HETATM   10  C   UNL     1     -10.662   8.374  69.543  1.00  0.00    -0.181 A  
HETATM   11  C   UNL     1     -11.273   9.628  69.406  1.00  0.00    -0.077 A  
HETATM   12  I   UNL     1     -12.559  10.235  70.970  1.00  0.00    -0.531 I  
HETATM   13  C   UNL     1     -11.075  10.438  68.265  1.00  0.00    -0.281 A  
HETATM   14  C   UNL     1     -10.217   9.955  67.268  1.00  0.00    -0.222 A  
HETATM   15  C   UNL     1      -9.586   8.704  67.424  1.00  0.00    -0.204 A  
HETATM   16  I   UNL     1      -9.851  10.897  65.421  1.00  0.00    -0.376 I  
BRANCH  13  17
HETATM   17  O   UNL     1     -11.960  11.479  68.104  1.00  0.00    -0.571 OA 
BRANCH  17  18
HETATM   18  C   UNL     1     -11.727  12.775  68.490  1.00  0.00    -0.333 A  
HETATM   19  C   UNL     1     -11.159  13.555  67.470  1.00  0.00    -0.293 A  
HETATM   20  C   UNL     1     -10.838  14.897  67.684  1.00  0.00    -0.286 A  
HETATM   21  I   UNL     1      -9.993  15.974  66.107  1.00  0.00    -0.418 I  
HETATM   22  C   UNL     1     -11.070  15.472  68.934  1.00  0.00    -0.282 A  
HETATM   23  C   UNL     1     -11.640  14.698  69.953  1.00  0.00    -0.285 A  
HETATM   24  O   UNL     1     -10.749  16.787  69.165  1.00  0.00    -0.329 OA 
HETATM   25  H   UNL     1     -10.907  17.180  70.016  1.00  0.00     0.000 HD 
HETATM   26  I   UNL     1     -11.925  15.481  71.877  1.00  0.00    -0.687 I  
HETATM   27  C   UNL     1     -12.004  13.359  69.723  1.00  0.00    -0.396 A  
ENDBRANCH  17  18
ENDBRANCH  13  17
ENDBRANCH   8   9
ENDBRANCH   4   8
TORSDOF 4
ENDMDL
MODEL      128
REMARK 921   NORMALIZED FREE ENERGY PREDICTED BY IDOCK:   -4.31 KCAL/MOL
REMARK 922        TOTAL FREE ENERGY PREDICTED BY IDOCK:   -6.08 KCAL/MOL
REMARK 923 INTER-LIGAND FREE ENERGY PREDICTED BY IDOCK:   -6.06 KCAL/MOL
REMARK 924 INTRA-LIGAND FREE ENERGY PREDICTED BY IDOCK:   -0.02 KCAL/MOL
REMARK 927      BINDING AFFINITY PREDICTED BY RF-SCORE:    0.00 PKD
ROOT
HETATM    1  N   UNL     1     -11.748   6.905  69.370  1.00  0.00    -0.567 NA 
HETATM    2  H1  UNL     1     -12.256   6.030  69.240  1.00  0.00     0.000 HD 
HETATM    3  H2  UNL     1     -10.995   6.985  68.687  1.00  0.00     0.000 HD 
HETATM    4  CA  UNL     1     -11.221   7.107  70.755  1.00  0.00    -0.279 C  
HETATM    5  C   UNL     1     -10.283   5.926  71.076  1.00  0.00    -0.211 C  
HETATM    6  OXT UNL     1      -9.421   5.918  71.939  1.00  0.00    -0.151 OA 
HETATM    7  O   UNL     1     -10.545   4.858  70.275  1.00  0.00    -0.184 OA 
ENDROOT
BRANCH   4   8
HETATM    8  C   UNL     1     -10.453   8.429  70.951  1.00  0.00    -0.235 C  
BRANCH   8   9
HETATM    9  C   UNL     1     -10.775   9.561  69.994  1.00  0.00    -0.278 A  
HETATM   10  C   UNL     1     -10.442   9.508  68.639  1.00  0.00    -0.237 A  
HETATM   11  C   UNL     1     -10.764  10.576  67.791  1.00  0.00    -0.272 A  
HETATM   12  I   UNL     1     -10.161  10.404  65.773  1.00  0.00    -0.232 I  
HETATM   13  C   UNL     1     -11.427  11.733  68.261  1.00  0.00    -0.307 A  
HETATM   14  C   UNL     1     -11.781  11.772  69.616  1.00  0.00    -0.344 A  
HETATM   15  C   UNL     1     -11.476  10.683  70.458  1.00  0.00    -0.407 A  
HETATM   16  I   UNL     1     -12.655  13.418  70.595  1.00  0.00    -0.106 I  
BRANCH  13  17
HETATM   17  O   UNL     1     -11.403  12.823  67.422  1.00  0.00    -0.277 OA 
BRANCH  17  18
HETATM   18  C   UNL     1     -10.546  13.888  67.542  1.00  0.00    -0.256 A  
HETATM   19  C   UNL     1      -9.316  13.537  68.121  1.00  0.00    -0.213 A  
HETATM   20  C   UNL     1      -8.323  14.494  68.336  1.00  0.00    -0.153 A  
HETATM   21  I   UNL     1      -6.529  13.877  69.208  1.00  0.00    -0.084 I  
HETATM   22  C   UNL     1      -8.557  15.824  67.986  1.00  0.00    -0.163 A  
HETATM   23  C   UNL     1      -9.782  16.177  67.404  1.00  0.00    -0.233 A  
HETATM   24  O   UNL     1      -7.595  16.781  68.201  1.00  0.00    -0.167 OA 
HETATM   25  H   UNL     1      -7.754  17.687  67.962  1.00  0.00     0.000 HD 
HETATM   26  I   UNL     1     -10.225  18.175  66.942  1.00  0.00    -0.390 I  
HETATM   27  C   UNL     1     -10.764  15.205  67.146  1.00  0.00    -0.310 A  
ENDBRANCH  17  18
ENDBRANCH  13  17
ENDBRANCH   8   9
ENDBRANCH   4   8
TORSDOF 4
ENDMDL
MODEL      129
REMARK 921   NORMALIZED FREE ENERGY PREDICTED BY IDOCK:   -4.31 KCAL/MOL
REMARK 922        TOTAL FREE ENERGY PREDICTED BY IDOCK:   -6.07 KCAL/MOL
REMARK 923 INTER-LIGAND FREE ENERGY PREDICTED BY IDOCK:   -5.66 KCAL/MOL
REMARK 924 INTRA-LIGAND FREE ENERGY PREDICTED BY IDOCK:   -0.41 KCAL/MOL
REMARK 927      BINDING AFFINITY PREDICTED BY RF-SCORE:    0.00 PKD
ROOT
HETATM    1  N   UNL     1      -6.879  16.383  67.192  1.00  0.00    -0.186 NA 
HETATM    2  H1  UNL     1      -6.492  17.202  66.723  1.00  0.00     0.000 HD 
HETATM    3  H2  UNL     1      -7.469  15.851  66.551  1.00  0.00     0.000 HD 
HETATM    4  CA  UNL     1      -7.621  16.692  68.452  1.00  0.00    -0.197 C  
HETATM    5  C   UNL     1      -8.768  17.659  68.096  1.00  0.00    -0.265 C  
HETATM    6  OXT UNL     1      -9.769  17.851  68.766  1.00  0.00    -0.329 OA 
HETATM    7  O   UNL     1      -8.523  18.302  66.923  1.00  0.00    -0.243 OA 
ENDROOT
BRANCH   4   8
HETATM    8  C   UNL     1      -8.206  15.454  69.160  1.00  0.00    -0.243 C  
BRANCH   8   9
HETATM    9  C   UNL     1      -8.550  14.261  68.288  1.00  0.00    -0.176 A  
HETATM   10  C   UNL     1      -9.753  14.173  67.587  1.00  0.00    -0.228 A  
HETATM   11  C   UNL     1     -10.025  13.053  66.788  1.00  0.00    -0.245 A  
HETATM   12  I   UNL     1     -11.902  13.009  65.818  1.00  0.00    -0.504 I  
HETATM   13  C   UNL     1      -9.110  11.982  66.663  1.00  0.00    -0.205 A  
HETATM   14  C   UNL     1      -7.893  12.086  67.350  1.00  0.00    -0.162 A  
HETATM   15  C   UNL     1      -7.616  13.226  68.131  1.00  0.00    -0.141 A  
HETATM   16  I   UNL     1      -6.418  10.586  67.436  1.00  0.00    -0.069 I  
BRANCH  13  17
HETATM   17  O   UNL     1      -9.613  10.822  66.122  1.00  0.00    -0.182 OA 
BRANCH  17  18
HETATM   18  C   UNL     1      -9.932   9.695  66.836  1.00  0.00    -0.212 A  
HETATM   19  C   UNL     1     -10.340   9.979  68.150  1.00  0.00    -0.228 A  
HETATM   20  C   UNL     1     -10.690   8.954  69.031  1.00  0.00    -0.126 A  
HETATM   21  I   UNL     1     -11.279   9.474  70.966  1.00  0.00    -0.465 I  
HETATM   22  C   UNL     1     -10.621   7.626  68.610  1.00  0.00    -0.130 A  
HETATM   23  C   UNL     1     -10.218   7.340  67.299  1.00  0.00    -0.253 A  
HETATM   24  O   UNL     1     -10.951   6.605  69.468  1.00  0.00    -0.263 OA 
HETATM   25  H   UNL     1     -10.903   5.700  69.181  1.00  0.00     0.000 HD 
HETATM   26  I   UNL     1     -10.006   5.360  66.639  1.00  0.00    -0.301 I  
HETATM   27  C   UNL     1      -9.908   8.374  66.398  1.00  0.00    -0.310 A  
ENDBRANCH  17  18
ENDBRANCH  13  17
ENDBRANCH   8   9
ENDBRANCH   4   8
TORSDOF 4
ENDMDL
MODEL      130
REMARK 921   NORMALIZED FREE ENERGY PREDICTED BY IDOCK:   -4.29 KCAL/MOL
REMARK 922        TOTAL FREE ENERGY PREDICTED BY IDOCK:   -6.05 KCAL/MOL
REMARK 923 INTER-LIGAND FREE ENERGY PREDICTED BY IDOCK:   -7.10 KCAL/MOL
REMARK 924 INTRA-LIGAND FREE ENERGY PREDICTED BY IDOCK:    1.05 KCAL/MOL
REMARK 927      BINDING AFFINITY PREDICTED BY RF-SCORE:    0.00 PKD
ROOT
HETATM    1  N   UNL     1     -13.480  13.362  72.950  1.00  0.00    -0.579 NA 
HETATM    2  H1  UNL     1     -13.793  13.507  73.910  1.00  0.00     0.000 HD 
HETATM    3  H2  UNL     1     -12.616  12.819  72.935  1.00  0.00     0.000 HD 
HETATM    4  CA  UNL     1     -13.320  14.621  72.161  1.00  0.00    -0.375 C  
HETATM    5  C   UNL     1     -12.296  15.509  72.898  1.00  0.00    -0.429 C  
HETATM    6  OXT UNL     1     -11.661  16.423  72.400  1.00  0.00    -0.508 OA 
HETATM    7  O   UNL     1     -12.189  15.154  74.206  1.00  0.00    -0.628 OA 
ENDROOT
BRANCH   4   8
HETATM    8  C   UNL     1     -12.846  14.402  70.711  1.00  0.00    -0.417 C  
BRANCH   8   9
HETATM    9  C   UNL     1     -12.363  13.010  70.347  1.00  0.00    -0.351 A  
HETATM   10  C   UNL     1     -11.435  12.786  69.329  1.00  0.00    -0.349 A  
HETATM   11  C   UNL     1     -11.014  11.482  69.032  1.00  0.00    -0.234 A  
HETATM   12  I   UNL     1      -9.648  11.264  67.435  1.00  0.00    -0.197 I  
HETATM   13  C   UNL     1     -11.503  10.358  69.737  1.00  0.00    -0.280 A  
HETATM   14  C   UNL     1     -12.417  10.590  70.774  1.00  0.00    -0.378 A  
HETATM   15  C   UNL     1     -12.817  11.906  71.083  1.00  0.00    -0.346 A  
HETATM   16  I   UNL     1     -13.390   9.094  71.890  1.00  0.00    -0.585 I  
BRANCH  13  17
HETATM   17  O   UNL     1     -11.266   9.134  69.156  1.00  0.00    -0.017 OA 
BRANCH  17  18
HETATM   18  C   UNL     1     -10.275   8.263  69.535  1.00  0.00    -0.210 A  
HETATM   19  C   UNL     1     -10.169   8.129  70.928  1.00  0.00    -0.216 A  
HETATM   20  C   UNL     1      -9.206   7.296  71.500  1.00  0.00    -0.144 A  
HETATM   21  I   UNL     1      -9.123   7.164  73.582  1.00  0.00    -0.299 I  
HETATM   22  C   UNL     1      -8.323   6.595  70.678  1.00  0.00    -0.129 A  
HETATM   23  C   UNL     1      -8.428   6.723  69.286  1.00  0.00    -0.129 A  
HETATM   24  O   UNL     1      -7.361   5.780  71.223  1.00  0.00    -0.075 OA 
HETATM   25  H   UNL     1      -6.759   5.302  70.664  1.00  0.00     0.000 HD 
HETATM   26  I   UNL     1      -7.070   5.768  68.005  1.00  0.00    -0.074 I  
HETATM   27  C   UNL     1      -9.427   7.528  68.711  1.00  0.00    -0.148 A  
ENDBRANCH  17  18
ENDBRANCH  13  17
ENDBRANCH   8   9
ENDBRANCH   4   8
TORSDOF 4
ENDMDL
MODEL      131
REMARK 921   NORMALIZED FREE ENERGY PREDICTED BY IDOCK:   -4.27 KCAL/MOL
REMARK 922        TOTAL FREE ENERGY PREDICTED BY IDOCK:   -6.02 KCAL/MOL
REMARK 923 INTER-LIGAND FREE ENERGY PREDICTED BY IDOCK:   -5.33 KCAL/MOL
REMARK 924 INTRA-LIGAND FREE ENERGY PREDICTED BY IDOCK:   -0.69 KCAL/MOL
REMARK 927      BINDING AFFINITY PREDICTED BY RF-SCORE:    0.00 PKD
ROOT
HETATM    1  N   UNL     1     -10.676  16.679  65.146  1.00  0.00    -0.646 NA 
HETATM    2  H1  UNL     1     -10.458  17.106  64.245  1.00  0.00     0.000 HD 
HETATM    3  H2  UNL     1     -11.684  16.572  65.256  1.00  0.00     0.000 HD 
HETATM    4  CA  UNL     1     -10.095  17.399  66.320  1.00  0.00    -0.322 C  
HETATM    5  C   UNL     1     -10.638  18.842  66.301  1.00  0.00    -0.392 C  
HETATM    6  OXT UNL     1     -10.672  19.601  67.256  1.00  0.00    -0.474 OA 
HETATM    7  O   UNL     1     -11.072  19.188  65.059  1.00  0.00    -0.363 OA 
ENDROOT
BRANCH   4   8
HETATM    8  C   UNL     1     -10.423  16.754  67.681  1.00  0.00    -0.328 C  
BRANCH   8   9
HETATM    9  C   UNL     1      -9.953  15.329  67.899  1.00  0.00    -0.228 A  
HETATM   10  C   UNL     1     -10.835  14.292  68.210  1.00  0.00    -0.256 A  
HETATM   11  C   UNL     1     -10.355  12.989  68.397  1.00  0.00    -0.252 A  
HETATM   12  I   UNL     1     -11.779  11.516  68.916  1.00  0.00    -0.352 I  
HETATM   13  C   UNL     1      -8.981  12.672  68.284  1.00  0.00    -0.176 A  
HETATM   14  C   UNL     1      -8.102  13.711  67.949  1.00  0.00    -0.164 A  
HETATM   15  C   UNL     1      -8.596  15.015  67.737  1.00  0.00    -0.165 A  
HETATM   16  I   UNL     1      -6.007  13.540  67.843  1.00  0.00    -0.058 I  
BRANCH  13  17
HETATM   17  O   UNL     1      -8.601  11.453  68.794  1.00  0.00    -0.153 OA 
BRANCH  17  18
HETATM   18  C   UNL     1      -8.391  10.320  68.048  1.00  0.00    -0.114 A  
HETATM   19  C   UNL     1      -8.115   9.191  68.836  1.00  0.00    -0.100 A  
HETATM   20  C   UNL     1      -7.859   7.950  68.250  1.00  0.00    -0.120 A  
HETATM   21  I   UNL     1      -7.455   6.330  69.504  1.00  0.00    -0.098 I  
HETATM   22  C   UNL     1      -7.863   7.828  66.860  1.00  0.00    -0.107 A  
HETATM   23  C   UNL     1      -8.142   8.951  66.071  1.00  0.00    -0.111 A  
HETATM   24  O   UNL     1      -7.602   6.617  66.267  1.00  0.00    -0.086 OA 
HETATM   25  H   UNL     1      -7.604   6.533  65.320  1.00  0.00     0.000 HD 
HETATM   26  I   UNL     1      -8.070   8.849  63.977  1.00  0.00    -0.139 I  
HETATM   27  C   UNL     1      -8.443  10.191  66.663  1.00  0.00    -0.127 A  
ENDBRANCH  17  18
ENDBRANCH  13  17
ENDBRANCH   8   9
ENDBRANCH   4   8
TORSDOF 4
ENDMDL
MODEL      132
REMARK 921   NORMALIZED FREE ENERGY PREDICTED BY IDOCK:   -4.25 KCAL/MOL
REMARK 922        TOTAL FREE ENERGY PREDICTED BY IDOCK:   -6.00 KCAL/MOL
REMARK 923 INTER-LIGAND FREE ENERGY PREDICTED BY IDOCK:   -5.43 KCAL/MOL
REMARK 924 INTRA-LIGAND FREE ENERGY PREDICTED BY IDOCK:   -0.57 KCAL/MOL
REMARK 927      BINDING AFFINITY PREDICTED BY RF-SCORE:    0.00 PKD
ROOT
HETATM    1  N   UNL     1      -7.474   3.851  71.509  1.00  0.00    -0.054 NA 
HETATM    2  H1  UNL     1      -6.625   3.390  71.180  1.00  0.00     0.000 HD 
HETATM    3  H2  UNL     1      -8.023   3.216  72.088  1.00  0.00     0.000 HD 
HETATM    4  CA  UNL     1      -8.318   4.430  70.420  1.00  0.00    -0.073 C  
HETATM    5  C   UNL     1      -8.705   3.281  69.466  1.00  0.00    -0.078 C  
HETATM    6  OXT UNL     1      -9.644   3.291  68.687  1.00  0.00    -0.164 OA 
HETATM    7  O   UNL     1      -7.848   2.232  69.587  1.00  0.00    -0.043 OA 
ENDROOT
BRANCH   4   8
HETATM    8  C   UNL     1      -9.600   5.127  70.917  1.00  0.00    -0.235 C  
BRANCH   8   9
HETATM    9  C   UNL     1      -9.950   6.458  70.281  1.00  0.00    -0.199 A  
HETATM   10  C   UNL     1     -10.753   7.403  70.923  1.00  0.00    -0.248 A  
HETATM   11  C   UNL     1     -11.046   8.623  70.297  1.00  0.00    -0.217 A  
HETATM   12  I   UNL     1     -12.316   9.948  71.346  1.00  0.00    -0.527 I  
HETATM   13  C   UNL     1     -10.553   8.944  69.012  1.00  0.00    -0.183 A  
HETATM   14  C   UNL     1      -9.728   8.003  68.381  1.00  0.00    -0.158 A  
HETATM   15  C   UNL     1      -9.417   6.789  69.027  1.00  0.00    -0.133 A  
HETATM   16  I   UNL     1      -8.968   8.174  66.425  1.00  0.00    -0.237 I  
BRANCH  13  17
HETATM   17  O   UNL     1     -11.156  10.008  68.384  1.00  0.00    -0.237 OA 
BRANCH  17  18
HETATM   18  C   UNL     1     -10.503  11.123  67.923  1.00  0.00    -0.190 A  
HETATM   19  C   UNL     1     -11.259  11.853  66.992  1.00  0.00    -0.379 A  
HETATM   20  C   UNL     1     -10.749  13.011  66.402  1.00  0.00    -0.282 A  
HETATM   21  I   UNL     1     -11.946  14.027  65.025  1.00  0.00    -0.499 I  
HETATM   22  C   UNL     1      -9.465  13.446  66.729  1.00  0.00    -0.261 A  
HETATM   23  C   UNL     1      -8.709  12.722  67.661  1.00  0.00    -0.180 A  
HETATM   24  O   UNL     1      -8.944  14.577  66.149  1.00  0.00    -0.492 OA 
HETATM   25  H   UNL     1      -8.068  14.873  66.371  1.00  0.00     0.000 HD 
HETATM   26  I   UNL     1      -6.739  13.274  68.121  1.00  0.00    -0.179 I  
HETATM   27  C   UNL     1      -9.239  11.580  68.287  1.00  0.00    -0.186 A  
ENDBRANCH  17  18
ENDBRANCH  13  17
ENDBRANCH   8   9
ENDBRANCH   4   8
TORSDOF 4
ENDMDL
MODEL      133
REMARK 921   NORMALIZED FREE ENERGY PREDICTED BY IDOCK:   -4.24 KCAL/MOL
REMARK 922        TOTAL FREE ENERGY PREDICTED BY IDOCK:   -5.99 KCAL/MOL
REMARK 923 INTER-LIGAND FREE ENERGY PREDICTED BY IDOCK:   -5.46 KCAL/MOL
REMARK 924 INTRA-LIGAND FREE ENERGY PREDICTED BY IDOCK:   -0.53 KCAL/MOL
REMARK 927      BINDING AFFINITY PREDICTED BY RF-SCORE:    0.00 PKD
ROOT
HETATM    1  N   UNL     1      -9.025   5.085  72.676  1.00  0.00    -0.125 NA 
HETATM    2  H1  UNL     1      -9.625   4.264  72.603  1.00  0.00     0.000 HD 
HETATM    3  H2  UNL     1      -8.823   5.293  73.654  1.00  0.00     0.000 HD 
HETATM    4  CA  UNL     1      -9.558   6.297  71.983  1.00  0.00    -0.151 C  
HETATM    5  C   UNL     1     -10.935   6.621  72.598  1.00  0.00    -0.255 C  
HETATM    6  OXT UNL     1     -11.500   7.701  72.546  1.00  0.00    -0.318 OA 
HETATM    7  O   UNL     1     -11.469   5.531  73.211  1.00  0.00    -0.230 OA 
ENDROOT
BRANCH   4   8
HETATM    8  C   UNL     1      -8.651   7.539  72.095  1.00  0.00    -0.137 C  
BRANCH   8   9
HETATM    9  C   UNL     1      -8.478   8.379  70.844  1.00  0.00    -0.158 A  
HETATM   10  C   UNL     1      -7.602   9.464  70.790  1.00  0.00    -0.138 A  
HETATM   11  C   UNL     1      -7.471  10.209  69.610  1.00  0.00    -0.147 A  
HETATM   12  I   UNL     1      -6.153  11.860  69.668  1.00  0.00    -0.110 I  
HETATM   13  C   UNL     1      -8.209   9.902  68.444  1.00  0.00    -0.106 A  
HETATM   14  C   UNL     1      -9.071   8.798  68.495  1.00  0.00    -0.138 A  
HETATM   15  C   UNL     1      -9.178   8.038  69.678  1.00  0.00    -0.152 A  
HETATM   16  I   UNL     1     -10.372   8.203  66.951  1.00  0.00    -0.092 I  
BRANCH  13  17
HETATM   17  O   UNL     1      -8.234  10.876  67.474  1.00  0.00    -0.115 OA 
BRANCH  17  18
HETATM   18  C   UNL     1      -9.339  11.613  67.128  1.00  0.00    -0.174 A  
HETATM   19  C   UNL     1      -9.911  12.285  68.220  1.00  0.00    -0.216 A  
HETATM   20  C   UNL     1     -11.053  13.072  68.062  1.00  0.00    -0.260 A  
HETATM   21  I   UNL     1     -11.833  14.030  69.745  1.00  0.00    -0.375 I  
HETATM   22  C   UNL     1     -11.647  13.185  66.804  1.00  0.00    -0.366 A  
HETATM   23  C   UNL     1     -11.076  12.519  65.712  1.00  0.00    -0.308 A  
HETATM   24  O   UNL     1     -12.777  13.947  66.633  1.00  0.00    -0.440 OA 
HETATM   25  H   UNL     1     -13.182  14.023  65.777  1.00  0.00     0.000 HD 
HETATM   26  I   UNL     1     -11.976  12.575  63.818  1.00  0.00    -0.681 I  
HETATM   27  C   UNL     1      -9.901  11.762  65.862  1.00  0.00    -0.265 A  
ENDBRANCH  17  18
ENDBRANCH  13  17
ENDBRANCH   8   9
ENDBRANCH   4   8
TORSDOF 4
ENDMDL
MODEL      134
REMARK 921   NORMALIZED FREE ENERGY PREDICTED BY IDOCK:   -4.23 KCAL/MOL
REMARK 922        TOTAL FREE ENERGY PREDICTED BY IDOCK:   -5.97 KCAL/MOL
REMARK 923 INTER-LIGAND FREE ENERGY PREDICTED BY IDOCK:   -6.20 KCAL/MOL
REMARK 924 INTRA-LIGAND FREE ENERGY PREDICTED BY IDOCK:    0.23 KCAL/MOL
REMARK 927      BINDING AFFINITY PREDICTED BY RF-SCORE:    0.00 PKD
ROOT
HETATM    1  N   UNL     1     -11.053   7.538  69.057  1.00  0.00    -0.430 NA 
HETATM    2  H1  UNL     1     -10.507   6.676  69.034  1.00  0.00     0.000 HD 
HETATM    3  H2  UNL     1     -11.985   7.380  68.675  1.00  0.00     0.000 HD 
HETATM    4  CA  UNL     1     -10.397   8.695  68.375  1.00  0.00    -0.201 C  
HETATM    5  C   UNL     1     -10.148   8.295  66.907  1.00  0.00    -0.296 C  
HETATM    6  OXT UNL     1      -9.963   9.068  65.982  1.00  0.00    -0.283 OA 
HETATM    7  O   UNL     1     -10.143   6.943  66.760  1.00  0.00    -0.201 OA 
ENDROOT
BRANCH   4   8
HETATM    8  C   UNL     1     -11.221   9.998  68.410  1.00  0.00    -0.187 C  
BRANCH   8   9
HETATM    9  C   UNL     1     -10.522  11.267  67.961  1.00  0.00    -0.215 A  
HETATM   10  C   UNL     1     -11.128  12.189  67.107  1.00  0.00    -0.345 A  
HETATM   11  C   UNL     1     -10.445  13.351  66.723  1.00  0.00    -0.275 A  
HETATM   12  I   UNL     1     -11.445  14.645  65.384  1.00  0.00    -0.296 I  
HETATM   13  C   UNL     1      -9.135  13.635  67.174  1.00  0.00    -0.239 A  
HETATM   14  C   UNL     1      -8.539  12.718  68.051  1.00  0.00    -0.186 A  
HETATM   15  C   UNL     1      -9.242  11.563  68.452  1.00  0.00    -0.190 A  
HETATM   16  I   UNL     1      -6.563  12.833  68.767  1.00  0.00    -0.094 I  
BRANCH  13  17
HETATM   17  O   UNL     1      -8.463  14.621  66.491  1.00  0.00    -0.111 OA 
BRANCH  17  18
HETATM   18  C   UNL     1      -8.352  15.926  66.902  1.00  0.00    -0.246 A  
HETATM   19  C   UNL     1      -7.305  16.123  67.816  1.00  0.00    -0.153 A  
HETATM   20  C   UNL     1      -7.049  17.384  68.356  1.00  0.00    -0.212 A  
HETATM   21  I   UNL     1      -5.473  17.578  69.712  1.00  0.00    -0.249 I  
HETATM   22  C   UNL     1      -7.853  18.466  67.995  1.00  0.00    -0.274 A  
HETATM   23  C   UNL     1      -8.896  18.274  67.080  1.00  0.00    -0.266 A  
HETATM   24  O   UNL     1      -7.622  19.712  68.525  1.00  0.00    -0.330 OA 
HETATM   25  H   UNL     1      -8.169  20.450  68.280  1.00  0.00     0.000 HD 
HETATM   26  I   UNL     1     -10.193  19.842  66.571  1.00  0.00    -0.626 I  
HETATM   27  C   UNL     1      -9.125  17.013  66.503  1.00  0.00    -0.291 A  
ENDBRANCH  17  18
ENDBRANCH  13  17
ENDBRANCH   8   9
ENDBRANCH   4   8
TORSDOF 4
ENDMDL
MODEL      135
REMARK 921   NORMALIZED FREE ENERGY PREDICTED BY IDOCK:   -4.21 KCAL/MOL
REMARK 922        TOTAL FREE ENERGY PREDICTED BY IDOCK:   -5.95 KCAL/MOL
REMARK 923 INTER-LIGAND FREE ENERGY PREDICTED BY IDOCK:   -5.52 KCAL/MOL
REMARK 924 INTRA-LIGAND FREE ENERGY PREDICTED BY IDOCK:   -0.44 KCAL/MOL
REMARK 927      BINDING AFFINITY PREDICTED BY RF-SCORE:    0.00 PKD
ROOT
HETATM    1  N   UNL     1     -10.083   4.267  72.037  1.00  0.00    -0.182 NA 
HETATM    2  H1  UNL     1      -9.348   3.753  72.524  1.00  0.00     0.000 HD 
HETATM    3  H2  UNL     1      -9.705   4.736  71.213  1.00  0.00     0.000 HD 
HETATM    4  CA  UNL     1     -10.825   5.237  72.897  1.00  0.00    -0.270 C  
HETATM    5  C   UNL     1      -9.800   6.240  73.464  1.00  0.00    -0.179 C  
HETATM    6  OXT UNL     1     -10.058   7.348  73.905  1.00  0.00    -0.313 OA 
HETATM    7  O   UNL     1      -8.540   5.728  73.430  1.00  0.00    -0.118 OA 
ENDROOT
BRANCH   4   8
HETATM    8  C   UNL     1     -11.935   6.013  72.161  1.00  0.00    -0.261 C  
BRANCH   8   9
HETATM    9  C   UNL     1     -11.527   6.790  70.924  1.00  0.00    -0.384 A  
HETATM   10  C   UNL     1     -11.540   8.185  70.882  1.00  0.00    -0.283 A  
HETATM   11  C   UNL     1     -11.149   8.861  69.718  1.00  0.00    -0.089 A  
HETATM   12  I   UNL     1     -11.262  10.971  69.758  1.00  0.00    -0.237 I  
HETATM   13  C   UNL     1     -10.734   8.172  68.555  1.00  0.00    -0.014 A  
HETATM   14  C   UNL     1     -10.700   6.772  68.609  1.00  0.00    -0.234 A  
HETATM   15  C   UNL     1     -11.071   6.100  69.792  1.00  0.00    -0.486 A  
HETATM   16  I   UNL     1     -10.247   5.507  66.989  1.00  0.00    -0.339 I  
BRANCH  13  17
HETATM   17  O   UNL     1     -10.684   8.916  67.400  1.00  0.00    -0.272 OA 
BRANCH  17  18
HETATM   18  C   UNL     1      -9.531   9.342  66.788  1.00  0.00    -0.175 A  
HETATM   19  C   UNL     1      -9.716   9.654  65.432  1.00  0.00    -0.365 A  
HETATM   20  C   UNL     1      -8.651  10.089  64.642  1.00  0.00    -0.181 A  
HETATM   21  I   UNL     1      -9.022  10.525  62.634  1.00  0.00    -0.398 I  
HETATM   22  C   UNL     1      -7.378  10.203  65.201  1.00  0.00    -0.141 A  
HETATM   23  C   UNL     1      -7.190   9.897  66.556  1.00  0.00    -0.095 A  
HETATM   24  O   UNL     1      -6.316  10.620  64.436  1.00  0.00    -0.353 OA 
HETATM   25  H   UNL     1      -5.448  10.697  64.816  1.00  0.00     0.000 HD 
HETATM   26  I   UNL     1      -5.283   9.961  67.427  1.00  0.00    -0.033 I  
HETATM   27  C   UNL     1      -8.272   9.501  67.361  1.00  0.00    -0.114 A  
ENDBRANCH  17  18
ENDBRANCH  13  17
ENDBRANCH   8   9
ENDBRANCH   4   8
TORSDOF 4
ENDMDL
MODEL      136
REMARK 921   NORMALIZED FREE ENERGY PREDICTED BY IDOCK:   -4.19 KCAL/MOL
REMARK 922        TOTAL FREE ENERGY PREDICTED BY IDOCK:   -5.92 KCAL/MOL
REMARK 923 INTER-LIGAND FREE ENERGY PREDICTED BY IDOCK:   -5.64 KCAL/MOL
REMARK 924 INTRA-LIGAND FREE ENERGY PREDICTED BY IDOCK:   -0.28 KCAL/MOL
REMARK 927      BINDING AFFINITY PREDICTED BY RF-SCORE:    0.00 PKD
ROOT
HETATM    1  N   UNL     1     -11.239   5.544  66.161  1.00  0.00    -0.761 NA 
HETATM    2  H1  UNL     1     -12.063   4.946  66.098  1.00  0.00     0.000 HD 
HETATM    3  H2  UNL     1     -11.269   6.269  65.444  1.00  0.00     0.000 HD 
HETATM    4  CA  UNL     1      -9.941   4.805  66.104  1.00  0.00    -0.241 C  
HETATM    5  C   UNL     1      -9.901   4.030  64.771  1.00  0.00    -0.198 C  
HETATM    6  OXT UNL     1      -8.895   3.611  64.223  1.00  0.00    -0.103 OA 
HETATM    7  O   UNL     1     -11.152   3.848  64.270  1.00  0.00    -0.341 OA 
ENDROOT
BRANCH   4   8
HETATM    8  C   UNL     1      -8.696   5.709  66.199  1.00  0.00    -0.136 C  
BRANCH   8   9
HETATM    9  C   UNL     1      -8.919   7.143  66.640  1.00  0.00    -0.164 A  
HETATM   10  C   UNL     1      -9.288   8.149  65.746  1.00  0.00    -0.053 A  
HETATM   11  C   UNL     1      -9.488   9.460  66.201  1.00  0.00    -0.226 A  
HETATM   12  I   UNL     1      -9.993  10.905  64.744  1.00  0.00    -0.425 I  
HETATM   13  C   UNL     1      -9.326   9.815  67.560  1.00  0.00    -0.133 A  
HETATM   14  C   UNL     1      -8.978   8.797  68.458  1.00  0.00    -0.138 A  
HETATM   15  C   UNL     1      -8.803   7.476  67.998  1.00  0.00    -0.127 A  
HETATM   16  I   UNL     1      -8.552   9.076  70.500  1.00  0.00    -0.283 I  
BRANCH  13  17
HETATM   17  O   UNL     1      -9.238  11.162  67.823  1.00  0.00    -0.148 OA 
BRANCH  17  18
HETATM   18  C   UNL     1     -10.185  11.895  68.494  1.00  0.00    -0.215 A  
HETATM   19  C   UNL     1     -10.222  13.239  68.089  1.00  0.00    -0.243 A  
HETATM   20  C   UNL     1     -11.112  14.142  68.673  1.00  0.00    -0.262 A  
HETATM   21  I   UNL     1     -11.091  16.121  68.008  1.00  0.00    -0.140 I  
HETATM   22  C   UNL     1     -11.971  13.710  69.684  1.00  0.00    -0.343 A  
HETATM   23  C   UNL     1     -11.940  12.368  70.087  1.00  0.00    -0.298 A  
HETATM   24  O   UNL     1     -12.846  14.587  70.277  1.00  0.00    -0.495 OA 
HETATM   25  H   UNL     1     -13.431  14.293  70.966  1.00  0.00     0.000 HD 
HETATM   26  I   UNL     1     -13.140  11.683  71.665  1.00  0.00     0.103 I  
HETATM   27  C   UNL     1     -11.073  11.450  69.469  1.00  0.00    -0.274 A  
ENDBRANCH  17  18
ENDBRANCH  13  17
ENDBRANCH   8   9
ENDBRANCH   4   8
TORSDOF 4
ENDMDL
MODEL      137
REMARK 921   NORMALIZED FREE ENERGY PREDICTED BY IDOCK:   -4.19 KCAL/MOL
REMARK 922        TOTAL FREE ENERGY PREDICTED BY IDOCK:   -5.92 KCAL/MOL
REMARK 923 INTER-LIGAND FREE ENERGY PREDICTED BY IDOCK:   -5.45 KCAL/MOL
REMARK 924 INTRA-LIGAND FREE ENERGY PREDICTED BY IDOCK:   -0.47 KCAL/MOL
REMARK 927      BINDING AFFINITY PREDICTED BY RF-SCORE:    0.00 PKD
ROOT
HETATM    1  N   UNL     1      -6.051   8.945  73.135  1.00  0.00    -0.255 NA 
HETATM    2  H1  UNL     1      -5.055   8.778  72.994  1.00  0.00     0.000 HD 
HETATM    3  H2  UNL     1      -6.243   9.149  74.116  1.00  0.00     0.000 HD 
HETATM    4  CA  UNL     1      -6.933   7.841  72.648  1.00  0.00    -0.075 C  
HETATM    5  C   UNL     1      -6.527   6.554  73.393  1.00  0.00    -0.065 C  
HETATM    6  OXT UNL     1      -7.221   5.559  73.524  1.00  0.00    -0.084 OA 
HETATM    7  O   UNL     1      -5.264   6.650  73.890  1.00  0.00    -0.040 OA 
ENDROOT
BRANCH   4   8
HETATM    8  C   UNL     1      -8.438   8.094  72.861  1.00  0.00    -0.259 C  
BRANCH   8   9
HETATM    9  C   UNL     1      -9.249   8.491  71.642  1.00  0.00    -0.304 A  
HETATM   10  C   UNL     1      -8.876   8.125  70.347  1.00  0.00    -0.141 A  
HETATM   11  C   UNL     1      -9.660   8.510  69.251  1.00  0.00    -0.170 A  
HETATM   12  I   UNL     1      -8.964   7.942  67.338  1.00  0.00    -0.158 I  
HETATM   13  C   UNL     1     -10.840   9.274  69.405  1.00  0.00    -0.169 A  
HETATM   14  C   UNL     1     -11.223   9.619  70.708  1.00  0.00    -0.336 A  
HETATM   15  C   UNL     1     -10.443   9.207  71.807  1.00  0.00    -0.361 A  
HETATM   16  I   UNL     1     -12.856  10.851  71.205  1.00  0.00    -0.317 I  
BRANCH  13  17
HETATM   17  O   UNL     1     -11.337   9.850  68.259  1.00  0.00    -0.144 OA 
BRANCH  17  18
HETATM   18  C   UNL     1     -10.869  11.010  67.695  1.00  0.00    -0.256 A  
HETATM   19  C   UNL     1     -10.827  10.957  66.293  1.00  0.00    -0.191 A  
HETATM   20  C   UNL     1     -10.363  12.041  65.546  1.00  0.00    -0.263 A  
HETATM   21  I   UNL     1     -10.333  11.867  63.465  1.00  0.00    -0.395 I  
HETATM   22  C   UNL     1      -9.921  13.192  66.199  1.00  0.00    -0.291 A  
HETATM   23  C   UNL     1      -9.966  13.250  67.598  1.00  0.00    -0.229 A  
HETATM   24  O   UNL     1      -9.451  14.264  65.480  1.00  0.00    -0.534 OA 
HETATM   25  H   UNL     1      -9.149  15.048  65.924  1.00  0.00     0.000 HD 
HETATM   26  I   UNL     1      -9.228  14.916  68.637  1.00  0.00    -0.171 I  
HETATM   27  C   UNL     1     -10.474  12.175  68.348  1.00  0.00    -0.242 A  
ENDBRANCH  17  18
ENDBRANCH  13  17
ENDBRANCH   8   9
ENDBRANCH   4   8
TORSDOF 4
ENDMDL
MODEL      138
REMARK 921   NORMALIZED FREE ENERGY PREDICTED BY IDOCK:   -4.18 KCAL/MOL
REMARK 922        TOTAL FREE ENERGY PREDICTED BY IDOCK:   -5.91 KCAL/MOL
REMARK 923 INTER-LIGAND FREE ENERGY PREDICTED BY IDOCK:   -5.28 KCAL/MOL
REMARK 924 INTRA-LIGAND FREE ENERGY PREDICTED BY IDOCK:   -0.63 KCAL/MOL
REMARK 927      BINDING AFFINITY PREDICTED BY RF-SCORE:    0.00 PKD
ROOT
HETATM    1  N   UNL     1      -5.817  15.554  67.167  1.00  0.00    -0.275 NA 
HETATM    2  H1  UNL     1      -5.318  16.239  66.600  1.00  0.00     0.000 HD 
HETATM    3  H2  UNL     1      -6.381  14.944  66.576  1.00  0.00     0.000 HD 
HETATM    4  CA  UNL     1      -6.654  16.151  68.252  1.00  0.00    -0.124 C  
HETATM    5  C   UNL     1      -7.676  17.097  67.589  1.00  0.00    -0.172 C  
HETATM    6  OXT UNL     1      -8.720  17.479  68.091  1.00  0.00    -0.246 OA 
HETATM    7  O   UNL     1      -7.261  17.479  66.351  1.00  0.00    -0.234 OA 
ENDROOT
BRANCH   4   8
HETATM    8  C   UNL     1      -7.408  15.115  69.110  1.00  0.00    -0.167 C  
BRANCH   8   9
HETATM    9  C   UNL     1      -7.953  13.894  68.393  1.00  0.00    -0.144 A  
HETATM   10  C   UNL     1      -9.217  13.880  67.801  1.00  0.00    -0.197 A  
HETATM   11  C   UNL     1      -9.676  12.730  67.144  1.00  0.00    -0.216 A  
HETATM   12  I   UNL     1     -11.626  12.811  66.334  1.00  0.00    -0.449 I  
HETATM   13  C   UNL     1      -8.895  11.554  67.056  1.00  0.00    -0.173 A  
HETATM   14  C   UNL     1      -7.617  11.581  67.632  1.00  0.00    -0.115 A  
HETATM   15  C   UNL     1      -7.152  12.750  68.269  1.00  0.00    -0.104 A  
HETATM   16  I   UNL     1      -6.308   9.937  67.754  1.00  0.00    -0.055 I  
BRANCH  13  17
HETATM   17  O   UNL     1      -9.564  10.414  66.677  1.00  0.00    -0.167 OA 
BRANCH  17  18
HETATM   18  C   UNL     1      -9.962   9.416  67.530  1.00  0.00    -0.199 A  
HETATM   19  C   UNL     1      -9.932   8.145  66.934  1.00  0.00    -0.343 A  
HETATM   20  C   UNL     1     -10.319   7.008  67.645  1.00  0.00    -0.211 A  
HETATM   21  I   UNL     1     -10.244   5.161  66.673  1.00  0.00    -0.290 I  
HETATM   22  C   UNL     1     -10.757   7.133  68.964  1.00  0.00    -0.184 A  
HETATM   23  C   UNL     1     -10.784   8.399  69.563  1.00  0.00    -0.175 A  
HETATM   24  O   UNL     1     -11.152   6.026  69.675  1.00  0.00    -0.369 OA 
HETATM   25  H   UNL     1     -11.451   6.111  70.573  1.00  0.00     0.000 HD 
HETATM   26  I   UNL     1     -11.521   8.661  71.509  1.00  0.00    -0.446 I  
HETATM   27  C   UNL     1     -10.353   9.538  68.860  1.00  0.00    -0.225 A  
ENDBRANCH  17  18
ENDBRANCH  13  17
ENDBRANCH   8   9
ENDBRANCH   4   8
TORSDOF 4
ENDMDL
MODEL      139
REMARK 921   NORMALIZED FREE ENERGY PREDICTED BY IDOCK:   -4.17 KCAL/MOL
REMARK 922        TOTAL FREE ENERGY PREDICTED BY IDOCK:   -5.90 KCAL/MOL
REMARK 923 INTER-LIGAND FREE ENERGY PREDICTED BY IDOCK:   -6.24 KCAL/MOL
REMARK 924 INTRA-LIGAND FREE ENERGY PREDICTED BY IDOCK:    0.35 KCAL/MOL
REMARK 927      BINDING AFFINITY PREDICTED BY RF-SCORE:    0.00 PKD
ROOT
HETATM    1  N   UNL     1      -7.566  16.877  66.194  1.00  0.00    -0.276 NA 
HETATM    2  H1  UNL     1      -6.607  16.985  66.527  1.00  0.00     0.000 HD 
HETATM    3  H2  UNL     1      -7.705  17.403  65.331  1.00  0.00     0.000 HD 
HETATM    4  CA  UNL     1      -8.608  17.239  67.203  1.00  0.00    -0.206 C  
HETATM    5  C   UNL     1      -8.378  18.709  67.608  1.00  0.00    -0.267 C  
HETATM    6  OXT UNL     1      -9.207  19.443  68.121  1.00  0.00    -0.314 OA 
HETATM    7  O   UNL     1      -7.105  19.101  67.333  1.00  0.00    -0.208 OA 
ENDROOT
BRANCH   4   8
HETATM    8  C   UNL     1     -10.056  17.075  66.700  1.00  0.00    -0.308 C  
BRANCH   8   9
HETATM    9  C   UNL     1     -10.651  15.681  66.757  1.00  0.00    -0.307 A  
HETATM   10  C   UNL     1     -10.962  15.052  67.964  1.00  0.00    -0.285 A  
HETATM   11  C   UNL     1     -11.515  13.764  67.967  1.00  0.00    -0.310 A  
HETATM   12  I   UNL     1     -11.893  12.895  69.856  1.00  0.00    -0.096 I  
HETATM   13  C   UNL     1     -11.776  13.057  66.770  1.00  0.00    -0.382 A  
HETATM   14  C   UNL     1     -11.484  13.702  65.560  1.00  0.00    -0.305 A  
HETATM   15  C   UNL     1     -10.951  15.007  65.564  1.00  0.00    -0.364 A  
HETATM   16  I   UNL     1     -11.656  12.832  63.651  1.00  0.00    -0.414 I  
BRANCH  13  17
HETATM   17  O   UNL     1     -12.014  11.710  66.907  1.00  0.00    -0.567 OA 
BRANCH  17  18
HETATM   18  C   UNL     1     -11.128  10.717  66.572  1.00  0.00     0.058 A  
HETATM   19  C   UNL     1     -11.141   9.645  67.479  1.00  0.00    -0.035 A  
HETATM   20  C   UNL     1     -10.293   8.549  67.309  1.00  0.00    -0.302 A  
HETATM   21  I   UNL     1     -10.380   7.006  68.713  1.00  0.00    -0.231 I  
HETATM   22  C   UNL     1      -9.408   8.520  66.231  1.00  0.00    -0.224 A  
HETATM   23  C   UNL     1      -9.397   9.585  65.321  1.00  0.00    -0.253 A  
HETATM   24  O   UNL     1      -8.560   7.454  66.055  1.00  0.00    -0.141 OA 
HETATM   25  H   UNL     1      -7.957   7.434  65.320  1.00  0.00     0.000 HD 
HETATM   26  I   UNL     1      -8.026   9.640  63.735  1.00  0.00    -0.180 I  
HETATM   27  C   UNL     1     -10.281  10.668  65.468  1.00  0.00    -0.329 A  
ENDBRANCH  17  18
ENDBRANCH  13  17
ENDBRANCH   8   9
ENDBRANCH   4   8
TORSDOF 4
ENDMDL
MODEL      140
REMARK 921   NORMALIZED FREE ENERGY PREDICTED BY IDOCK:   -4.17 KCAL/MOL
REMARK 922        TOTAL FREE ENERGY PREDICTED BY IDOCK:   -5.90 KCAL/MOL
REMARK 923 INTER-LIGAND FREE ENERGY PREDICTED BY IDOCK:   -5.40 KCAL/MOL
REMARK 924 INTRA-LIGAND FREE ENERGY PREDICTED BY IDOCK:   -0.49 KCAL/MOL
REMARK 927      BINDING AFFINITY PREDICTED BY RF-SCORE:    0.00 PKD
ROOT
HETATM    1  N   UNL     1     -12.218  12.000  64.252  1.00  0.00    -0.338 NA 
HETATM    2  H1  UNL     1     -12.317  12.363  63.304  1.00  0.00     0.000 HD 
HETATM    3  H2  UNL     1     -13.087  12.123  64.774  1.00  0.00     0.000 HD 
HETATM    4  CA  UNL     1     -11.066  12.575  65.012  1.00  0.00    -0.299 C  
HETATM    5  C   UNL     1     -11.263  14.104  65.074  1.00  0.00    -0.356 C  
HETATM    6  OXT UNL     1     -10.741  14.855  65.881  1.00  0.00    -0.300 OA 
HETATM    7  O   UNL     1     -12.098  14.533  64.090  1.00  0.00    -0.454 OA 
ENDROOT
BRANCH   4   8
HETATM    8  C   UNL     1     -10.917  12.027  66.444  1.00  0.00    -0.337 C  
BRANCH   8   9
HETATM    9  C   UNL     1     -10.361  10.623  66.589  1.00  0.00    -0.297 A  
HETATM   10  C   UNL     1     -10.676   9.805  67.675  1.00  0.00    -0.334 A  
HETATM   11  C   UNL     1     -10.142   8.512  67.764  1.00  0.00    -0.211 A  
HETATM   12  I   UNL     1     -10.649   7.389  69.481  1.00  0.00    -0.178 I  
HETATM   13  C   UNL     1      -9.274   7.990  66.777  1.00  0.00    -0.165 A  
HETATM   14  C   UNL     1      -8.979   8.806  65.676  1.00  0.00    -0.200 A  
HETATM   15  C   UNL     1      -9.540  10.096  65.582  1.00  0.00    -0.302 A  
HETATM   16  I   UNL     1      -7.624   8.325  64.139  1.00  0.00    -0.146 I  
BRANCH  13  17
HETATM   17  O   UNL     1      -8.577   6.858  67.127  1.00  0.00    -0.119 OA 
BRANCH  17  18
HETATM   18  C   UNL     1      -8.860   5.590  66.683  1.00  0.00    -0.117 A  
HETATM   19  C   UNL     1      -8.609   4.604  67.649  1.00  0.00    -0.104 A  
HETATM   20  C   UNL     1      -8.824   3.253  67.372  1.00  0.00    -0.134 A  
HETATM   21  I   UNL     1      -8.416   1.859  68.871  1.00  0.00    -0.124 I  
HETATM   22  C   UNL     1      -9.283   2.871  66.111  1.00  0.00    -0.094 A  
HETATM   23  C   UNL     1      -9.539   3.854  65.145  1.00  0.00    -0.181 A  
HETATM   24  O   UNL     1      -9.490   1.545  65.817  1.00  0.00    -0.325 OA 
HETATM   25  H   UNL     1      -9.802   1.285  64.958  1.00  0.00     0.000 HD 
HETATM   26  I   UNL     1     -10.141   3.333  63.204  1.00  0.00    -0.200 I  
HETATM   27  C   UNL     1      -9.364   5.217  65.440  1.00  0.00    -0.090 A  
ENDBRANCH  17  18
ENDBRANCH  13  17
ENDBRANCH   8   9
ENDBRANCH   4   8
TORSDOF 4
ENDMDL
MODEL      141
REMARK 921   NORMALIZED FREE ENERGY PREDICTED BY IDOCK:   -4.15 KCAL/MOL
REMARK 922        TOTAL FREE ENERGY PREDICTED BY IDOCK:   -5.88 KCAL/MOL
REMARK 923 INTER-LIGAND FREE ENERGY PREDICTED BY IDOCK:   -5.39 KCAL/MOL
REMARK 924 INTRA-LIGAND FREE ENERGY PREDICTED BY IDOCK:   -0.49 KCAL/MOL
REMARK 927      BINDING AFFINITY PREDICTED BY RF-SCORE:    0.00 PKD
ROOT
HETATM    1  N   UNL     1     -11.039   6.040  66.537  1.00  0.00    -0.761 NA 
HETATM    2  H1  UNL     1     -11.908   5.535  66.712  1.00  0.00     0.000 HD 
HETATM    3  H2  UNL     1     -11.160   6.704  65.773  1.00  0.00     0.000 HD 
HETATM    4  CA  UNL     1      -9.859   5.158  66.284  1.00  0.00    -0.192 C  
HETATM    5  C   UNL     1     -10.186   4.278  65.060  1.00  0.00    -0.196 C  
HETATM    6  OXT UNL     1      -9.369   3.706  64.358  1.00  0.00    -0.129 OA 
HETATM    7  O   UNL     1     -11.529   4.199  64.856  1.00  0.00    -0.136 OA 
ENDROOT
BRANCH   4   8
HETATM    8  C   UNL     1      -8.546   5.921  66.020  1.00  0.00    -0.142 C  
BRANCH   8   9
HETATM    9  C   UNL     1      -8.482   7.362  66.488  1.00  0.00    -0.128 A  
HETATM   10  C   UNL     1      -7.803   7.741  67.647  1.00  0.00    -0.123 A  
HETATM   11  C   UNL     1      -7.766   9.087  68.037  1.00  0.00    -0.097 A  
HETATM   12  I   UNL     1      -6.752   9.528  69.838  1.00  0.00    -0.101 I  
HETATM   13  C   UNL     1      -8.405  10.101  67.288  1.00  0.00    -0.121 A  
HETATM   14  C   UNL     1      -9.066   9.721  66.112  1.00  0.00    -0.161 A  
HETATM   15  C   UNL     1      -9.077   8.369  65.713  1.00  0.00    -0.195 A  
HETATM   16  I   UNL     1     -10.199  11.004  64.888  1.00  0.00    -0.358 I  
BRANCH  13  17
HETATM   17  O   UNL     1      -8.567  11.309  67.926  1.00  0.00    -0.126 OA 
BRANCH  17  18
HETATM   18  C   UNL     1      -9.678  11.675  68.644  1.00  0.00    -0.143 A  
HETATM   19  C   UNL     1      -9.960  13.048  68.550  1.00  0.00    -0.174 A  
HETATM   20  C   UNL     1     -11.045  13.607  69.228  1.00  0.00    -0.193 A  
HETATM   21  I   UNL     1     -11.382  15.658  69.031  1.00  0.00    -0.391 I  
HETATM   22  C   UNL     1     -11.855  12.796  70.024  1.00  0.00    -0.281 A  
HETATM   23  C   UNL     1     -11.579  11.426  70.116  1.00  0.00    -0.280 A  
HETATM   24  O   UNL     1     -12.920  13.332  70.706  1.00  0.00    -0.162 OA 
HETATM   25  H   UNL     1     -13.472  12.780  71.248  1.00  0.00     0.000 HD 
HETATM   26  I   UNL     1     -12.705  10.176  71.369  1.00  0.00    -0.596 I  
HETATM   27  C   UNL     1     -10.513  10.855  69.399  1.00  0.00    -0.205 A  
ENDBRANCH  17  18
ENDBRANCH  13  17
ENDBRANCH   8   9
ENDBRANCH   4   8
TORSDOF 4
ENDMDL
MODEL      142
REMARK 921   NORMALIZED FREE ENERGY PREDICTED BY IDOCK:   -4.15 KCAL/MOL
REMARK 922        TOTAL FREE ENERGY PREDICTED BY IDOCK:   -5.88 KCAL/MOL
REMARK 923 INTER-LIGAND FREE ENERGY PREDICTED BY IDOCK:   -5.12 KCAL/MOL
REMARK 924 INTRA-LIGAND FREE ENERGY PREDICTED BY IDOCK:   -0.76 KCAL/MOL
REMARK 927      BINDING AFFINITY PREDICTED BY RF-SCORE:    0.00 PKD
ROOT
HETATM    1  N   UNL     1     -13.075  13.763  65.107  1.00  0.00    -0.751 NA 
HETATM    2  H1  UNL     1     -13.930  13.315  64.777  1.00  0.00     0.000 HD 
HETATM    3  H2  UNL     1     -12.828  14.547  64.503  1.00  0.00     0.000 HD 
HETATM    4  CA  UNL     1     -11.915  12.832  65.259  1.00  0.00    -0.429 C  
HETATM    5  C   UNL     1     -11.649  12.187  63.884  1.00  0.00    -0.448 C  
HETATM    6  OXT UNL     1     -10.603  11.664  63.536  1.00  0.00    -0.372 OA 
HETATM    7  O   UNL     1     -12.748  12.258  63.086  1.00  0.00    -0.625 OA 
ENDROOT
BRANCH   4   8
HETATM    8  C   UNL     1     -10.623  13.510  65.757  1.00  0.00    -0.283 C  
BRANCH   8   9
HETATM    9  C   UNL     1      -9.822  12.772  66.813  1.00  0.00    -0.242 A  
HETATM   10  C   UNL     1      -8.431  12.856  66.887  1.00  0.00    -0.093 A  
HETATM   11  C   UNL     1      -7.733  12.160  67.883  1.00  0.00    -0.134 A  
HETATM   12  I   UNL     1      -5.626  12.323  67.859  1.00  0.00    -0.113 I  
HETATM   13  C   UNL     1      -8.395  11.355  68.839  1.00  0.00    -0.039 A  
HETATM   14  C   UNL     1      -9.794  11.292  68.776  1.00  0.00    -0.184 A  
HETATM   15  C   UNL     1     -10.490  12.015  67.786  1.00  0.00    -0.223 A  
HETATM   16  I   UNL     1     -11.008  10.076  69.990  1.00  0.00    -0.402 I  
BRANCH  13  17
HETATM   17  O   UNL     1      -7.599  10.488  69.550  1.00  0.00    -0.138 OA 
BRANCH  17  18
HETATM   18  C   UNL     1      -7.409   9.164  69.243  1.00  0.00    -0.070 A  
HETATM   19  C   UNL     1      -7.507   8.324  70.364  1.00  0.00    -0.067 A  
HETATM   20  C   UNL     1      -7.327   6.945  70.247  1.00  0.00    -0.084 A  
HETATM   21  I   UNL     1      -7.488   5.778  71.971  1.00  0.00    -0.098 I  
HETATM   22  C   UNL     1      -7.031   6.389  69.002  1.00  0.00    -0.072 A  
HETATM   23  C   UNL     1      -6.937   7.224  67.880  1.00  0.00    -0.076 A  
HETATM   24  O   UNL     1      -6.841   5.035  68.871  1.00  0.00    -0.048 OA 
HETATM   25  H   UNL     1      -6.639   4.656  68.023  1.00  0.00     0.000 HD 
HETATM   26  I   UNL     1      -6.404   6.458  66.002  1.00  0.00    -0.041 I  
HETATM   27  C   UNL     1      -7.162   8.607  67.991  1.00  0.00    -0.087 A  
ENDBRANCH  17  18
ENDBRANCH  13  17
ENDBRANCH   8   9
ENDBRANCH   4   8
TORSDOF 4
ENDMDL
MODEL      143
REMARK 921   NORMALIZED FREE ENERGY PREDICTED BY IDOCK:   -4.15 KCAL/MOL
REMARK 922        TOTAL FREE ENERGY PREDICTED BY IDOCK:   -5.87 KCAL/MOL
REMARK 923 INTER-LIGAND FREE ENERGY PREDICTED BY IDOCK:   -5.39 KCAL/MOL
REMARK 924 INTRA-LIGAND FREE ENERGY PREDICTED BY IDOCK:   -0.49 KCAL/MOL
REMARK 927      BINDING AFFINITY PREDICTED BY RF-SCORE:    0.00 PKD
ROOT
HETATM    1  N   UNL     1      -8.904  15.962  69.199  1.00  0.00    -0.242 NA 
HETATM    2  H1  UNL     1      -9.701  16.561  69.413  1.00  0.00     0.000 HD 
HETATM    3  H2  UNL     1      -8.041  16.377  69.550  1.00  0.00     0.000 HD 
HETATM    4  CA  UNL     1      -8.768  15.618  67.751  1.00  0.00    -0.170 C  
HETATM    5  C   UNL     1      -8.632  16.939  66.966  1.00  0.00    -0.205 C  
HETATM    6  OXT UNL     1      -8.164  17.054  65.846  1.00  0.00    -0.505 OA 
HETATM    7  O   UNL     1      -9.121  17.987  67.681  1.00  0.00    -0.252 OA 
ENDROOT
BRANCH   4   8
HETATM    8  C   UNL     1      -7.563  14.712  67.427  1.00  0.00    -0.218 C  
BRANCH   8   9
HETATM    9  C   UNL     1      -7.688  13.245  67.790  1.00  0.00    -0.159 A  
HETATM   10  C   UNL     1      -8.585  12.391  67.146  1.00  0.00    -0.189 A  
HETATM   11  C   UNL     1      -8.662  11.040  67.512  1.00  0.00    -0.128 A  
HETATM   12  I   UNL     1     -10.096   9.861  66.502  1.00  0.00    -0.236 I  
HETATM   13  C   UNL     1      -7.850  10.493  68.532  1.00  0.00    -0.111 A  
HETATM   14  C   UNL     1      -6.934  11.348  69.159  1.00  0.00    -0.118 A  
HETATM   15  C   UNL     1      -6.845  12.699  68.769  1.00  0.00    -0.096 A  
HETATM   16  I   UNL     1      -5.704  10.823  70.785  1.00  0.00     0.060 I  
BRANCH  13  17
HETATM   17  O   UNL     1      -8.233   9.261  69.009  1.00  0.00    -0.106 OA 
BRANCH  17  18
HETATM   18  C   UNL     1      -9.183   9.055  69.978  1.00  0.00    -0.180 A  
HETATM   19  C   UNL     1      -8.926   7.918  70.761  1.00  0.00    -0.141 A  
HETATM   20  C   UNL     1      -9.794   7.540  71.787  1.00  0.00    -0.164 A  
HETATM   21  I   UNL     1      -9.329   5.832  72.895  1.00  0.00    -0.153 I  
HETATM   22  C   UNL     1     -10.943   8.292  72.032  1.00  0.00    -0.306 A  
HETATM   23  C   UNL     1     -11.201   9.429  71.255  1.00  0.00    -0.367 A  
HETATM   24  O   UNL     1     -11.814   7.928  73.030  1.00  0.00    -0.612 OA 
HETATM   25  H   UNL     1     -12.597   8.439  73.197  1.00  0.00     0.000 HD 
HETATM   26  I   UNL     1     -12.959  10.543  71.515  1.00  0.00    -0.442 I  
HETATM   27  C   UNL     1     -10.304   9.834  70.251  1.00  0.00    -0.348 A  
ENDBRANCH  17  18
ENDBRANCH  13  17
ENDBRANCH   8   9
ENDBRANCH   4   8
TORSDOF 4
ENDMDL
MODEL      144
REMARK 921   NORMALIZED FREE ENERGY PREDICTED BY IDOCK:   -4.14 KCAL/MOL
REMARK 922        TOTAL FREE ENERGY PREDICTED BY IDOCK:   -5.87 KCAL/MOL
REMARK 923 INTER-LIGAND FREE ENERGY PREDICTED BY IDOCK:   -5.55 KCAL/MOL
REMARK 924 INTRA-LIGAND FREE ENERGY PREDICTED BY IDOCK:   -0.32 KCAL/MOL
REMARK 927      BINDING AFFINITY PREDICTED BY RF-SCORE:    0.00 PKD
ROOT
HETATM    1  N   UNL     1      -6.613   6.184  73.294  1.00  0.00    -0.072 NA 
HETATM    2  H1  UNL     1      -5.603   6.324  73.268  1.00  0.00     0.000 HD 
HETATM    3  H2  UNL     1      -6.843   5.340  73.818  1.00  0.00     0.000 HD 
HETATM    4  CA  UNL     1      -7.262   6.157  71.947  1.00  0.00    -0.091 C  
HETATM    5  C   UNL     1      -6.615   5.015  71.138  1.00  0.00    -0.038 C  
HETATM    6  OXT UNL     1      -7.103   4.472  70.161  1.00  0.00    -0.046 OA 
HETATM    7  O   UNL     1      -5.396   4.683  71.643  1.00  0.00    -0.004 OA 
ENDROOT
BRANCH   4   8
HETATM    8  C   UNL     1      -8.788   5.945  71.986  1.00  0.00    -0.137 C  
BRANCH   8   9
HETATM    9  C   UNL     1      -9.652   7.063  71.435  1.00  0.00    -0.162 A  
HETATM   10  C   UNL     1     -10.927   7.336  71.933  1.00  0.00    -0.260 A  
HETATM   11  C   UNL     1     -11.688   8.383  71.395  1.00  0.00    -0.287 A  
HETATM   12  I   UNL     1     -13.623   8.663  72.197  1.00  0.00    -0.444 I  
HETATM   13  C   UNL     1     -11.207   9.194  70.342  1.00  0.00    -0.240 A  
HETATM   14  C   UNL     1      -9.917   8.933  69.860  1.00  0.00    -0.188 A  
HETATM   15  C   UNL     1      -9.148   7.894  70.423  1.00  0.00    -0.154 A  
HETATM   16  I   UNL     1      -9.015   9.901  68.223  1.00  0.00    -0.126 I  
BRANCH  13  17
HETATM   17  O   UNL     1     -12.147   9.964  69.698  1.00  0.00     0.068 OA 
BRANCH  17  18
HETATM   18  C   UNL     1     -12.238  11.331  69.786  1.00  0.00    -0.275 A  
HETATM   19  C   UNL     1     -11.806  11.983  68.620  1.00  0.00    -0.366 A  
HETATM   20  C   UNL     1     -11.812  13.376  68.530  1.00  0.00    -0.366 A  
HETATM   21  I   UNL     1     -11.146  14.255  66.757  1.00  0.00    -0.356 I  
HETATM   22  C   UNL     1     -12.239  14.136  69.619  1.00  0.00    -0.326 A  
HETATM   23  C   UNL     1     -12.676  13.489  70.782  1.00  0.00    -0.245 A  
HETATM   24  O   UNL     1     -12.242  15.508  69.552  1.00  0.00    -0.494 OA 
HETATM   25  H   UNL     1     -12.533  16.027  70.294  1.00  0.00     0.000 HD 
HETATM   26  I   UNL     1     -13.241  14.580  72.482  1.00  0.00    -0.644 I  
HETATM   27  C   UNL     1     -12.711  12.085  70.856  1.00  0.00    -0.291 A  
ENDBRANCH  17  18
ENDBRANCH  13  17
ENDBRANCH   8   9
ENDBRANCH   4   8
TORSDOF 4
ENDMDL
MODEL      145
REMARK 921   NORMALIZED FREE ENERGY PREDICTED BY IDOCK:   -4.14 KCAL/MOL
REMARK 922        TOTAL FREE ENERGY PREDICTED BY IDOCK:   -5.86 KCAL/MOL
REMARK 923 INTER-LIGAND FREE ENERGY PREDICTED BY IDOCK:   -5.37 KCAL/MOL
REMARK 924 INTRA-LIGAND FREE ENERGY PREDICTED BY IDOCK:   -0.49 KCAL/MOL
REMARK 927      BINDING AFFINITY PREDICTED BY RF-SCORE:    0.00 PKD
ROOT
HETATM    1  N   UNL     1      -6.083   8.099  66.010  1.00  0.00    -0.041 NA 
HETATM    2  H1  UNL     1      -5.085   8.071  66.218  1.00  0.00     0.000 HD 
HETATM    3  H2  UNL     1      -6.585   8.606  66.738  1.00  0.00     0.000 HD 
HETATM    4  CA  UNL     1      -6.700   6.756  65.786  1.00  0.00    -0.052 C  
HETATM    5  C   UNL     1      -6.474   5.918  67.062  1.00  0.00    -0.050 C  
HETATM    6  OXT UNL     1      -7.115   4.933  67.387  1.00  0.00    -0.063 OA 
HETATM    7  O   UNL     1      -5.440   6.410  67.796  1.00  0.00    -0.004 OA 
ENDROOT
BRANCH   4   8
HETATM    8  C   UNL     1      -8.209   6.799  65.472  1.00  0.00    -0.131 C  
BRANCH   8   9
HETATM    9  C   UNL     1      -9.004   7.943  66.070  1.00  0.00    -0.195 A  
HETATM   10  C   UNL     1      -9.343   7.988  67.423  1.00  0.00    -0.173 A  
HETATM   11  C   UNL     1     -10.075   9.070  67.932  1.00  0.00    -0.197 A  
HETATM   12  I   UNL     1     -10.573   8.999  69.985  1.00  0.00    -0.273 I  
HETATM   13  C   UNL     1     -10.497  10.142  67.113  1.00  0.00    -0.246 A  
HETATM   14  C   UNL     1     -10.134  10.104  65.759  1.00  0.00    -0.254 A  
HETATM   15  C   UNL     1      -9.377   9.026  65.260  1.00  0.00    -0.158 A  
HETATM   16  I   UNL     1     -10.738  11.499  64.303  1.00  0.00    -0.418 I  
BRANCH  13  17
HETATM   17  O   UNL     1     -11.460  10.965  67.647  1.00  0.00    -0.468 OA 
BRANCH  17  18
HETATM   18  C   UNL     1     -11.236  12.234  68.120  1.00  0.00    -0.269 A  
HETATM   19  C   UNL     1     -12.021  12.545  69.241  1.00  0.00    -0.304 A  
HETATM   20  C   UNL     1     -11.940  13.798  69.851  1.00  0.00    -0.347 A  
HETATM   21  I   UNL     1     -13.150  14.169  71.511  1.00  0.00    -0.448 I  
HETATM   22  C   UNL     1     -11.079  14.765  69.332  1.00  0.00    -0.281 A  
HETATM   23  C   UNL     1     -10.291  14.456  68.215  1.00  0.00    -0.239 A  
HETATM   24  O   UNL     1     -10.995  16.007  69.912  1.00  0.00    -0.299 OA 
HETATM   25  H   UNL     1     -10.408  16.666  69.558  1.00  0.00     0.000 HD 
HETATM   26  I   UNL     1      -9.047  15.898  67.335  1.00  0.00    -0.230 I  
HETATM   27  C   UNL     1     -10.340  13.179  67.629  1.00  0.00    -0.223 A  
ENDBRANCH  17  18
ENDBRANCH  13  17
ENDBRANCH   8   9
ENDBRANCH   4   8
TORSDOF 4
ENDMDL
MODEL      146
REMARK 921   NORMALIZED FREE ENERGY PREDICTED BY IDOCK:   -4.11 KCAL/MOL
REMARK 922        TOTAL FREE ENERGY PREDICTED BY IDOCK:   -5.83 KCAL/MOL
REMARK 923 INTER-LIGAND FREE ENERGY PREDICTED BY IDOCK:   -5.16 KCAL/MOL
REMARK 924 INTRA-LIGAND FREE ENERGY PREDICTED BY IDOCK:   -0.67 KCAL/MOL
REMARK 927      BINDING AFFINITY PREDICTED BY RF-SCORE:    0.00 PKD
ROOT
HETATM    1  N   UNL     1      -9.773   3.544  70.734  1.00  0.00    -0.175 NA 
HETATM    2  H1  UNL     1      -9.252   2.984  70.059  1.00  0.00     0.000 HD 
HETATM    3  H2  UNL     1      -9.370   4.478  70.809  1.00  0.00     0.000 HD 
HETATM    4  CA  UNL     1      -9.895   2.916  72.085  1.00  0.00    -0.169 C  
HETATM    5  C   UNL     1      -8.468   2.677  72.621  1.00  0.00    -0.070 C  
HETATM    6  OXT UNL     1      -8.167   2.516  73.792  1.00  0.00    -0.061 OA 
HETATM    7  O   UNL     1      -7.561   2.651  71.608  1.00  0.00    -0.040 OA 
ENDROOT
BRANCH   4   8
HETATM    8  C   UNL     1     -10.682   3.762  73.106  1.00  0.00    -0.267 C  
BRANCH   8   9
HETATM    9  C   UNL     1     -10.804   5.247  72.820  1.00  0.00    -0.313 A  
HETATM   10  C   UNL     1     -12.023   5.846  72.499  1.00  0.00    -0.173 A  
HETATM   11  C   UNL     1     -12.088   7.224  72.248  1.00  0.00    -0.191 A  
HETATM   12  I   UNL     1     -13.979   8.006  71.720  1.00  0.00    -0.404 I  
HETATM   13  C   UNL     1     -10.943   8.052  72.307  1.00  0.00    -0.314 A  
HETATM   14  C   UNL     1      -9.726   7.450  72.653  1.00  0.00    -0.167 A  
HETATM   15  C   UNL     1      -9.672   6.068  72.928  1.00  0.00    -0.162 A  
HETATM   16  I   UNL     1      -7.859   8.423  72.686  1.00  0.00     0.051 I  
BRANCH  13  17
HETATM   17  O   UNL     1     -11.073   9.298  71.740  1.00  0.00    -0.364 OA 
BRANCH  17  18
HETATM   18  C   UNL     1     -10.865   9.585  70.415  1.00  0.00    -0.282 A  
HETATM   19  C   UNL     1     -11.233  10.897  70.076  1.00  0.00    -0.340 A  
HETATM   20  C   UNL     1     -11.107  11.364  68.766  1.00  0.00    -0.235 A  
HETATM   21  I   UNL     1     -11.686  13.328  68.357  1.00  0.00    -0.331 I  
HETATM   22  C   UNL     1     -10.621  10.513  67.773  1.00  0.00    -0.243 A  
HETATM   23  C   UNL     1     -10.248   9.205  68.109  1.00  0.00    -0.207 A  
HETATM   24  O   UNL     1     -10.501  10.953  66.477  1.00  0.00    -0.243 OA 
HETATM   25  H   UNL     1     -10.170  10.373  65.800  1.00  0.00     0.000 HD 
HETATM   26  I   UNL     1      -9.599   7.853  66.642  1.00  0.00    -0.241 I  
HETATM   27  C   UNL     1     -10.334   8.749  69.436  1.00  0.00    -0.217 A  
ENDBRANCH  17  18
ENDBRANCH  13  17
ENDBRANCH   8   9
ENDBRANCH   4   8
TORSDOF 4
ENDMDL
MODEL      147
REMARK 921   NORMALIZED FREE ENERGY PREDICTED BY IDOCK:   -4.09 KCAL/MOL
REMARK 922        TOTAL FREE ENERGY PREDICTED BY IDOCK:   -5.81 KCAL/MOL
REMARK 923 INTER-LIGAND FREE ENERGY PREDICTED BY IDOCK:   -6.01 KCAL/MOL
REMARK 924 INTRA-LIGAND FREE ENERGY PREDICTED BY IDOCK:    0.20 KCAL/MOL
REMARK 927      BINDING AFFINITY PREDICTED BY RF-SCORE:    0.00 PKD
ROOT
HETATM    1  N   UNL     1      -9.906  10.924  65.713  1.00  0.00    -0.225 NA 
HETATM    2  H1  UNL     1      -9.814   9.917  65.855  1.00  0.00     0.000 HD 
HETATM    3  H2  UNL     1      -9.157  11.421  66.194  1.00  0.00     0.000 HD 
HETATM    4  CA  UNL     1     -11.238  11.478  66.104  1.00  0.00    -0.202 C  
HETATM    5  C   UNL     1     -11.460  11.155  67.596  1.00  0.00    -0.250 C  
HETATM    6  OXT UNL     1     -12.240  11.729  68.338  1.00  0.00    -0.467 OA 
HETATM    7  O   UNL     1     -10.676  10.119  67.997  1.00  0.00    -0.223 OA 
ENDROOT
BRANCH   4   8
HETATM    8  C   UNL     1     -11.377  12.998  65.891  1.00  0.00    -0.344 C  
BRANCH   8   9
HETATM    9  C   UNL     1     -10.331  13.882  66.542  1.00  0.00    -0.286 A  
HETATM   10  C   UNL     1      -9.039  13.430  66.818  1.00  0.00    -0.221 A  
HETATM   11  C   UNL     1      -8.103  14.285  67.415  1.00  0.00    -0.196 A  
HETATM   12  I   UNL     1      -6.199  13.469  67.833  1.00  0.00    -0.107 I  
HETATM   13  C   UNL     1      -8.421  15.619  67.761  1.00  0.00    -0.151 A  
HETATM   14  C   UNL     1      -9.711  16.077  67.461  1.00  0.00    -0.228 A  
HETATM   15  C   UNL     1     -10.639  15.218  66.837  1.00  0.00    -0.304 A  
HETATM   16  I   UNL     1     -10.479  17.966  67.981  1.00  0.00    -0.236 I  
BRANCH  13  17
HETATM   17  O   UNL     1      -7.542  16.245  68.613  1.00  0.00    -0.166 OA 
BRANCH  17  18
HETATM   18  C   UNL     1      -6.967  17.471  68.389  1.00  0.00    -0.211 A  
HETATM   19  C   UNL     1      -6.513  18.085  69.567  1.00  0.00    -0.185 A  
HETATM   20  C   UNL     1      -5.914  19.345  69.536  1.00  0.00    -0.261 A  
HETATM   21  I   UNL     1      -5.275  20.180  71.340  1.00  0.00    -0.415 I  
HETATM   22  C   UNL     1      -5.774  20.015  68.320  1.00  0.00    -0.225 A  
HETATM   23  C   UNL     1      -6.221  19.402  67.142  1.00  0.00    -0.185 A  
HETATM   24  O   UNL     1      -5.196  21.260  68.273  1.00  0.00    -0.391 OA 
HETATM   25  H   UNL     1      -5.100  21.716  67.444  1.00  0.00     0.000 HD 
HETATM   26  I   UNL     1      -6.121  20.398  65.298  1.00  0.00    -0.324 I  
HETATM   27  C   UNL     1      -6.785  18.115  67.168  1.00  0.00    -0.205 A  
ENDBRANCH  17  18
ENDBRANCH  13  17
ENDBRANCH   8   9
ENDBRANCH   4   8
TORSDOF 4
ENDMDL
MODEL      148
REMARK 921   NORMALIZED FREE ENERGY PREDICTED BY IDOCK:   -4.09 KCAL/MOL
REMARK 922        TOTAL FREE ENERGY PREDICTED BY IDOCK:   -5.80 KCAL/MOL
REMARK 923 INTER-LIGAND FREE ENERGY PREDICTED BY IDOCK:   -5.19 KCAL/MOL
REMARK 924 INTRA-LIGAND FREE ENERGY PREDICTED BY IDOCK:   -0.61 KCAL/MOL
REMARK 927      BINDING AFFINITY PREDICTED BY RF-SCORE:    0.00 PKD
ROOT
HETATM    1  N   UNL     1     -10.903  13.978  66.413  1.00  0.00    -0.297 NA 
HETATM    2  H1  UNL     1     -11.360  14.890  66.435  1.00  0.00     0.000 HD 
HETATM    3  H2  UNL     1     -10.185  13.957  65.689  1.00  0.00     0.000 HD 
HETATM    4  CA  UNL     1     -11.842  12.826  66.253  1.00  0.00    -0.423 C  
HETATM    5  C   UNL     1     -12.619  13.033  64.937  1.00  0.00    -0.428 C  
HETATM    6  OXT UNL     1     -13.197  12.161  64.309  1.00  0.00    -0.768 OA 
HETATM    7  O   UNL     1     -12.598  14.337  64.554  1.00  0.00    -0.649 OA 
ENDROOT
BRANCH   4   8
HETATM    8  C   UNL     1     -11.151  11.448  66.220  1.00  0.00    -0.281 C  
BRANCH   8   9
HETATM    9  C   UNL     1     -10.393  11.029  67.465  1.00  0.00    -0.233 A  
HETATM   10  C   UNL     1      -9.071  11.414  67.698  1.00  0.00    -0.155 A  
HETATM   11  C   UNL     1      -8.412  11.006  68.866  1.00  0.00    -0.122 A  
HETATM   12  I   UNL     1      -6.398  11.608  69.081  1.00  0.00    -0.112 I  
HETATM   13  C   UNL     1      -9.044  10.200  69.841  1.00  0.00    -0.073 A  
HETATM   14  C   UNL     1     -10.378   9.835  69.614  1.00  0.00    -0.238 A  
HETATM   15  C   UNL     1     -11.042  10.270  68.449  1.00  0.00    -0.302 A  
HETATM   16  I   UNL     1     -11.506   8.544  70.835  1.00  0.00    -0.229 I  
BRANCH  13  17
HETATM   17  O   UNL     1      -8.214   9.612  70.766  1.00  0.00    -0.273 OA 
BRANCH  17  18
HETATM   18  C   UNL     1      -7.763   8.317  70.708  1.00  0.00    -0.079 A  
HETATM   19  C   UNL     1      -7.417   7.803  71.968  1.00  0.00    -0.082 A  
HETATM   20  C   UNL     1      -6.924   6.504  72.103  1.00  0.00    -0.073 A  
HETATM   21  I   UNL     1      -6.431   5.829  74.017  1.00  0.00    -0.077 I  
HETATM   22  C   UNL     1      -6.757   5.706  70.971  1.00  0.00    -0.052 A  
HETATM   23  C   UNL     1      -7.106   6.215  69.713  1.00  0.00    -0.072 A  
HETATM   24  O   UNL     1      -6.263   4.430  71.085  1.00  0.00    -0.017 OA 
HETATM   25  H   UNL     1      -6.149   3.886  70.314  1.00  0.00     0.000 HD 
HETATM   26  I   UNL     1      -6.791   5.096  67.967  1.00  0.00    -0.063 I  
HETATM   27  C   UNL     1      -7.644   7.507  69.582  1.00  0.00    -0.094 A  
ENDBRANCH  17  18
ENDBRANCH  13  17
ENDBRANCH   8   9
ENDBRANCH   4   8
TORSDOF 4
ENDMDL
MODEL      149
REMARK 921   NORMALIZED FREE ENERGY PREDICTED BY IDOCK:   -4.09 KCAL/MOL
REMARK 922        TOTAL FREE ENERGY PREDICTED BY IDOCK:   -5.80 KCAL/MOL
REMARK 923 INTER-LIGAND FREE ENERGY PREDICTED BY IDOCK:   -5.52 KCAL/MOL
REMARK 924 INTRA-LIGAND FREE ENERGY PREDICTED BY IDOCK:   -0.28 KCAL/MOL
REMARK 927      BINDING AFFINITY PREDICTED BY RF-SCORE:    0.00 PKD
ROOT
HETATM    1  N   UNL     1     -10.114  15.032  69.622  1.00  0.00    -0.401 NA 
HETATM    2  H1  UNL     1      -9.427  15.718  69.934  1.00  0.00     0.000 HD 
HETATM    3  H2  UNL     1      -9.664  14.137  69.432  1.00  0.00     0.000 HD 
HETATM    4  CA  UNL     1     -10.925  15.471  68.445  1.00  0.00    -0.297 C  
HETATM    5  C   UNL     1      -9.948  15.770  67.289  1.00  0.00    -0.238 C  
HETATM    6  OXT UNL     1     -10.240  15.809  66.105  1.00  0.00    -0.279 OA 
HETATM    7  O   UNL     1      -8.693  16.007  67.755  1.00  0.00    -0.166 OA 
ENDROOT
BRANCH   4   8
HETATM    8  C   UNL     1     -11.963  14.434  67.972  1.00  0.00    -0.326 C  
BRANCH   8   9
HETATM    9  C   UNL     1     -11.644  12.974  68.228  1.00  0.00    -0.375 A  
HETATM   10  C   UNL     1     -12.027  12.322  69.402  1.00  0.00    -0.318 A  
HETATM   11  C   UNL     1     -11.714  10.969  69.592  1.00  0.00    -0.329 A  
HETATM   12  I   UNL     1     -12.299  10.107  71.431  1.00  0.00    -0.467 I  
HETATM   13  C   UNL     1     -11.008  10.219  68.624  1.00  0.00    -0.244 A  
HETATM   14  C   UNL     1     -10.646  10.871  67.437  1.00  0.00    -0.243 A  
HETATM   15  C   UNL     1     -10.986  12.225  67.242  1.00  0.00    -0.301 A  
HETATM   16  I   UNL     1      -9.487  10.028  65.896  1.00  0.00    -0.328 I  
BRANCH  13  17
HETATM   17  O   UNL     1     -10.492   9.018  69.051  1.00  0.00    -0.219 OA 
BRANCH  17  18
HETATM   18  C   UNL     1      -9.285   8.863  69.686  1.00  0.00    -0.152 A  
HETATM   19  C   UNL     1      -8.407   9.935  69.460  1.00  0.00    -0.174 A  
HETATM   20  C   UNL     1      -7.126   9.944  70.014  1.00  0.00    -0.127 A  
HETATM   21  I   UNL     1      -5.890  11.580  69.618  1.00  0.00    -0.131 I  
HETATM   22  C   UNL     1      -6.701   8.867  70.793  1.00  0.00    -0.059 A  
HETATM   23  C   UNL     1      -7.577   7.797  71.024  1.00  0.00    -0.082 A  
HETATM   24  O   UNL     1      -5.440   8.854  71.337  1.00  0.00    -0.035 OA 
HETATM   25  H   UNL     1      -5.151   8.121  71.867  1.00  0.00     0.000 HD 
HETATM   26  I   UNL     1      -6.963   6.110  72.108  1.00  0.00    -0.081 I  
HETATM   27  C   UNL     1      -8.882   7.809  70.502  1.00  0.00    -0.145 A  
ENDBRANCH  17  18
ENDBRANCH  13  17
ENDBRANCH   8   9
ENDBRANCH   4   8
TORSDOF 4
ENDMDL
MODEL      150
REMARK 921   NORMALIZED FREE ENERGY PREDICTED BY IDOCK:   -4.08 KCAL/MOL
REMARK 922        TOTAL FREE ENERGY PREDICTED BY IDOCK:   -5.79 KCAL/MOL
REMARK 923 INTER-LIGAND FREE ENERGY PREDICTED BY IDOCK:   -5.60 KCAL/MOL
REMARK 924 INTRA-LIGAND FREE ENERGY PREDICTED BY IDOCK:   -0.19 KCAL/MOL
REMARK 927      BINDING AFFINITY PREDICTED BY RF-SCORE:    0.00 PKD
ROOT
HETATM    1  N   UNL     1     -14.399  13.787  72.313  1.00  0.00    -0.622 NA 
HETATM    2  H1  UNL     1     -14.990  14.564  72.016  1.00  0.00     0.000 HD 
HETATM    3  H2  UNL     1     -13.983  13.983  73.223  1.00  0.00     0.000 HD 
HETATM    4  CA  UNL     1     -13.343  13.409  71.324  1.00  0.00    -0.109 C  
HETATM    5  C   UNL     1     -12.461  14.650  71.083  1.00  0.00    -0.332 C  
HETATM    6  OXT UNL     1     -11.328  14.639  70.632  1.00  0.00    -0.238 OA 
HETATM    7  O   UNL     1     -13.114  15.792  71.428  1.00  0.00    -0.493 OA 
ENDROOT
BRANCH   4   8
HETATM    8  C   UNL     1     -12.451  12.235  71.772  1.00  0.00     0.062 C  
BRANCH   8   9
HETATM    9  C   UNL     1     -11.915  11.324  70.684  1.00  0.00    -0.435 A  
HETATM   10  C   UNL     1     -11.589  11.795  69.411  1.00  0.00    -0.386 A  
HETATM   11  C   UNL     1     -11.091  10.916  68.439  1.00  0.00    -0.262 A  
HETATM   12  I   UNL     1     -10.685  11.736  66.534  1.00  0.00    -0.348 I  
HETATM   13  C   UNL     1     -10.903   9.539  68.699  1.00  0.00    -0.139 A  
HETATM   14  C   UNL     1     -11.209   9.075  69.986  1.00  0.00    -0.128 A  
HETATM   15  C   UNL     1     -11.686   9.969  70.966  1.00  0.00    -0.479 A  
HETATM   16  I   UNL     1     -11.142   7.061  70.596  1.00  0.00    -0.365 I  
BRANCH  13  17
HETATM   17  O   UNL     1     -10.718   8.738  67.597  1.00  0.00    -0.234 OA 
BRANCH  17  18
HETATM   18  C   UNL     1      -9.678   7.860  67.429  1.00  0.00    -0.161 A  
HETATM   19  C   UNL     1     -10.027   6.741  66.656  1.00  0.00    -0.207 A  
HETATM   20  C   UNL     1      -9.100   5.731  66.392  1.00  0.00    -0.146 A  
HETATM   21  I   UNL     1      -9.714   4.103  65.237  1.00  0.00    -0.176 I  
HETATM   22  C   UNL     1      -7.810   5.824  66.914  1.00  0.00    -0.101 A  
HETATM   23  C   UNL     1      -7.456   6.941  67.681  1.00  0.00    -0.098 A  
HETATM   24  O   UNL     1      -6.888   4.834  66.673  1.00  0.00    -0.056 OA 
HETATM   25  H   UNL     1      -6.009   4.897  67.028  1.00  0.00     0.000 HD 
HETATM   26  I   UNL     1      -5.561   7.090  68.568  1.00  0.00    -0.019 I  
HETATM   27  C   UNL     1      -8.377   7.979  67.910  1.00  0.00    -0.129 A  
ENDBRANCH  17  18
ENDBRANCH  13  17
ENDBRANCH   8   9
ENDBRANCH   4   8
TORSDOF 4
ENDMDL
MODEL      151
REMARK 921   NORMALIZED FREE ENERGY PREDICTED BY IDOCK:   -4.07 KCAL/MOL
REMARK 922        TOTAL FREE ENERGY PREDICTED BY IDOCK:   -5.78 KCAL/MOL
REMARK 923 INTER-LIGAND FREE ENERGY PREDICTED BY IDOCK:   -6.24 KCAL/MOL
REMARK 924 INTRA-LIGAND FREE ENERGY PREDICTED BY IDOCK:    0.46 KCAL/MOL
REMARK 927      BINDING AFFINITY PREDICTED BY RF-SCORE:    0.00 PKD
ROOT
HETATM    1  N   UNL     1     -13.578  13.231  72.303  1.00  0.00    -0.581 NA 
HETATM    2  H1  UNL     1     -14.350  13.510  72.909  1.00  0.00     0.000 HD 
HETATM    3  H2  UNL     1     -12.787  12.908  72.860  1.00  0.00     0.000 HD 
HETATM    4  CA  UNL     1     -13.144  14.287  71.339  1.00  0.00    -0.351 C  
HETATM    5  C   UNL     1     -12.721  15.524  72.158  1.00  0.00    -0.403 C  
HETATM    6  OXT UNL     1     -12.000  16.425  71.762  1.00  0.00    -0.446 OA 
HETATM    7  O   UNL     1     -13.270  15.502  73.401  1.00  0.00    -0.504 OA 
ENDROOT
BRANCH   4   8
HETATM    8  C   UNL     1     -11.977  13.865  70.424  1.00  0.00    -0.393 C  
BRANCH   8   9
HETATM    9  C   UNL     1     -11.760  12.377  70.228  1.00  0.00    -0.207 A  
HETATM   10  C   UNL     1     -12.444  11.419  70.978  1.00  0.00    -0.486 A  
HETATM   11  C   UNL     1     -12.214  10.054  70.759  1.00  0.00    -0.315 A  
HETATM   12  I   UNL     1     -13.270   8.701  71.992  1.00  0.00    -0.465 I  
HETATM   13  C   UNL     1     -11.294   9.595  69.788  1.00  0.00    -0.120 A  
HETATM   14  C   UNL     1     -10.627  10.559  69.021  1.00  0.00    -0.222 A  
HETATM   15  C   UNL     1     -10.882  11.930  69.230  1.00  0.00    -0.157 A  
HETATM   16  I   UNL     1      -9.122  10.154  67.606  1.00  0.00    -0.154 I  
BRANCH  13  17
HETATM   17  O   UNL     1     -10.927   8.273  69.885  1.00  0.00    -0.239 OA 
BRANCH  17  18
HETATM   18  C   UNL     1      -9.793   7.816  70.509  1.00  0.00    -0.182 A  
HETATM   19  C   UNL     1      -9.128   6.823  69.773  1.00  0.00    -0.143 A  
HETATM   20  C   UNL     1      -7.962   6.228  70.259  1.00  0.00    -0.112 A  
HETATM   21  I   UNL     1      -7.046   4.756  69.095  1.00  0.00    -0.053 I  
HETATM   22  C   UNL     1      -7.455   6.612  71.500  1.00  0.00    -0.088 A  
HETATM   23  C   UNL     1      -8.114   7.607  72.235  1.00  0.00    -0.107 A  
HETATM   24  O   UNL     1      -6.315   6.029  71.998  1.00  0.00    -0.046 OA 
HETATM   25  H   UNL     1      -5.970   6.291  72.844  1.00  0.00     0.000 HD 
HETATM   26  I   UNL     1      -7.452   8.160  74.147  1.00  0.00    -0.207 I  
HETATM   27  C   UNL     1      -9.263   8.237  71.726  1.00  0.00    -0.261 A  
ENDBRANCH  17  18
ENDBRANCH  13  17
ENDBRANCH   8   9
ENDBRANCH   4   8
TORSDOF 4
ENDMDL
MODEL      152
REMARK 921   NORMALIZED FREE ENERGY PREDICTED BY IDOCK:   -4.01 KCAL/MOL
REMARK 922        TOTAL FREE ENERGY PREDICTED BY IDOCK:   -5.71 KCAL/MOL
REMARK 923 INTER-LIGAND FREE ENERGY PREDICTED BY IDOCK:   -5.34 KCAL/MOL
REMARK 924 INTRA-LIGAND FREE ENERGY PREDICTED BY IDOCK:   -0.37 KCAL/MOL
REMARK 927      BINDING AFFINITY PREDICTED BY RF-SCORE:    0.00 PKD
ROOT
HETATM    1  N   UNL     1      -7.239   9.878  68.708  1.00  0.00    -0.074 NA 
HETATM    2  H1  UNL     1      -6.308   9.941  69.119  1.00  0.00     0.000 HD 
HETATM    3  H2  UNL     1      -7.724  10.773  68.785  1.00  0.00     0.000 HD 
HETATM    4  CA  UNL     1      -8.082   8.777  69.268  1.00  0.00    -0.110 C  
HETATM    5  C   UNL     1      -8.214   9.014  70.786  1.00  0.00    -0.181 C  
HETATM    6  OXT UNL     1      -9.082   8.548  71.505  1.00  0.00    -0.174 OA 
HETATM    7  O   UNL     1      -7.214   9.811  71.248  1.00  0.00    -0.309 OA 
ENDROOT
BRANCH   4   8
HETATM    8  C   UNL     1      -9.490   8.683  68.648  1.00  0.00    -0.144 C  
BRANCH   8   9
HETATM    9  C   UNL     1     -10.085   9.963  68.094  1.00  0.00    -0.193 A  
HETATM   10  C   UNL     1     -10.182  10.208  66.723  1.00  0.00    -0.289 A  
HETATM   11  C   UNL     1     -10.745  11.404  66.257  1.00  0.00    -0.270 A  
HETATM   12  I   UNL     1     -10.788  11.683  64.163  1.00  0.00    -0.467 I  
HETATM   13  C   UNL     1     -11.229  12.398  67.139  1.00  0.00    -0.298 A  
HETATM   14  C   UNL     1     -11.151  12.139  68.514  1.00  0.00    -0.252 A  
HETATM   15  C   UNL     1     -10.607  10.923  68.974  1.00  0.00    -0.248 A  
HETATM   16  I   UNL     1     -11.678  13.494  70.036  1.00  0.00    -0.102 I  
BRANCH  13  17
HETATM   17  O   UNL     1     -11.459  13.635  66.583  1.00  0.00    -0.319 OA 
BRANCH  17  18
HETATM   18  C   UNL     1     -10.586  14.693  66.631  1.00  0.00    -0.289 A  
HETATM   19  C   UNL     1      -9.316  14.332  67.110  1.00  0.00    -0.233 A  
HETATM   20  C   UNL     1      -8.301  15.281  67.243  1.00  0.00    -0.200 A  
HETATM   21  I   UNL     1      -6.447  14.650  67.967  1.00  0.00    -0.177 I  
HETATM   22  C   UNL     1      -8.552  16.613  66.910  1.00  0.00    -0.211 A  
HETATM   23  C   UNL     1      -9.816  16.976  66.428  1.00  0.00    -0.299 A  
HETATM   24  O   UNL     1      -7.568  17.562  67.045  1.00  0.00    -0.190 OA 
HETATM   25  H   UNL     1      -7.738  18.469  66.818  1.00  0.00     0.000 HD 
HETATM   26  I   UNL     1     -10.279  18.976  66.000  1.00  0.00    -0.151 I  
HETATM   27  C   UNL     1     -10.825  16.012  66.252  1.00  0.00    -0.166 A  
ENDBRANCH  17  18
ENDBRANCH  13  17
ENDBRANCH   8   9
ENDBRANCH   4   8
TORSDOF 4
ENDMDL
MODEL      153
REMARK 921   NORMALIZED FREE ENERGY PREDICTED BY IDOCK:   -4.01 KCAL/MOL
REMARK 922        TOTAL FREE ENERGY PREDICTED BY IDOCK:   -5.70 KCAL/MOL
REMARK 923 INTER-LIGAND FREE ENERGY PREDICTED BY IDOCK:   -5.89 KCAL/MOL
REMARK 924 INTRA-LIGAND FREE ENERGY PREDICTED BY IDOCK:    0.19 KCAL/MOL
REMARK 927      BINDING AFFINITY PREDICTED BY RF-SCORE:    0.00 PKD
ROOT
HETATM    1  N   UNL     1     -14.350   8.974  70.239  1.00  0.00     0.566 NA 
HETATM    2  H1  UNL     1     -14.800   8.073  70.073  1.00  0.00     0.000 HD 
HETATM    3  H2  UNL     1     -13.616   9.138  69.550  1.00  0.00     0.000 HD 
HETATM    4  CA  UNL     1     -13.816   9.146  71.624  1.00  0.00    -0.336 C  
HETATM    5  C   UNL     1     -12.795   8.017  71.876  1.00  0.00    -0.320 C  
HETATM    6  OXT UNL     1     -11.920   8.028  72.726  1.00  0.00    -0.337 OA 
HETATM    7  O   UNL     1     -12.997   6.973  71.028  1.00  0.00    -0.326 OA 
ENDROOT
BRANCH   4   8
HETATM    8  C   UNL     1     -13.136  10.506  71.874  1.00  0.00    -0.567 C  
BRANCH   8   9
HETATM    9  C   UNL     1     -12.079  10.941  70.877  1.00  0.00    -0.455 A  
HETATM   10  C   UNL     1     -12.036  12.234  70.353  1.00  0.00    -0.385 A  
HETATM   11  C   UNL     1     -11.037  12.592  69.437  1.00  0.00    -0.065 A  
HETATM   12  I   UNL     1     -11.108  14.562  68.673  1.00  0.00    -0.330 I  
HETATM   13  C   UNL     1     -10.049  11.676  69.010  1.00  0.00    -0.012 A  
HETATM   14  C   UNL     1     -10.081  10.386  69.556  1.00  0.00    -0.219 A  
HETATM   15  C   UNL     1     -11.074  10.041  70.496  1.00  0.00    -0.400 A  
HETATM   16  I   UNL     1      -8.812   8.802  69.000  1.00  0.00    -0.137 I  
BRANCH  13  17
HETATM   17  O   UNL     1      -9.333  12.041  67.893  1.00  0.00    -0.177 OA 
BRANCH  17  18
HETATM   18  C   UNL     1      -9.675  11.724  66.603  1.00  0.00    -0.202 A  
HETATM   19  C   UNL     1      -8.674  10.998  65.936  1.00  0.00    -0.182 A  
HETATM   20  C   UNL     1      -8.839  10.601  64.608  1.00  0.00    -0.177 A  
HETATM   21  I   UNL     1      -7.294   9.529  63.699  1.00  0.00    -0.125 I  
HETATM   22  C   UNL     1     -10.006  10.940  63.924  1.00  0.00    -0.343 A  
HETATM   23  C   UNL     1     -11.008  11.660  64.588  1.00  0.00    -0.301 A  
HETATM   24  O   UNL     1     -10.180  10.566  62.614  1.00  0.00    -0.736 OA 
HETATM   25  H   UNL     1     -10.975  10.797  62.147  1.00  0.00     0.000 HD 
HETATM   26  I   UNL     1     -12.744  12.277  63.585  1.00  0.00     0.007 I  
HETATM   27  C   UNL     1     -10.861  12.022  65.938  1.00  0.00    -0.329 A  
ENDBRANCH  17  18
ENDBRANCH  13  17
ENDBRANCH   8   9
ENDBRANCH   4   8
TORSDOF 4
ENDMDL
MODEL      154
REMARK 921   NORMALIZED FREE ENERGY PREDICTED BY IDOCK:   -4.00 KCAL/MOL
REMARK 922        TOTAL FREE ENERGY PREDICTED BY IDOCK:   -5.69 KCAL/MOL
REMARK 923 INTER-LIGAND FREE ENERGY PREDICTED BY IDOCK:   -5.80 KCAL/MOL
REMARK 924 INTRA-LIGAND FREE ENERGY PREDICTED BY IDOCK:    0.12 KCAL/MOL
REMARK 927      BINDING AFFINITY PREDICTED BY RF-SCORE:    0.00 PKD
ROOT
HETATM    1  N   UNL     1     -11.530   4.488  64.718  1.00  0.00    -0.996 NA 
HETATM    2  H1  UNL     1     -12.364   3.914  64.594  1.00  0.00     0.000 HD 
HETATM    3  H2  UNL     1     -11.463   5.186  63.978  1.00  0.00     0.000 HD 
HETATM    4  CA  UNL     1     -10.259   3.707  64.818  1.00  0.00    -0.101 C  
HETATM    5  C   UNL     1     -10.114   2.881  63.524  1.00  0.00    -0.159 C  
HETATM    6  OXT UNL     1      -9.074   2.410  63.095  1.00  0.00    -0.091 OA 
HETATM    7  O   UNL     1     -11.315   2.719  62.907  1.00  0.00    -0.181 OA 
ENDROOT
BRANCH   4   8
HETATM    8  C   UNL     1      -8.999   4.575  65.006  1.00  0.00    -0.149 C  
BRANCH   8   9
HETATM    9  C   UNL     1      -9.089   5.712  66.006  1.00  0.00    -0.164 A  
HETATM   10  C   UNL     1      -8.744   7.024  65.676  1.00  0.00    -0.082 A  
HETATM   11  C   UNL     1      -8.849   8.044  66.631  1.00  0.00    -0.145 A  
HETATM   12  I   UNL     1      -8.247   9.978  66.028  1.00  0.00    -0.149 I  
HETATM   13  C   UNL     1      -9.299   7.794  67.948  1.00  0.00    -0.140 A  
HETATM   14  C   UNL     1      -9.667   6.480  68.269  1.00  0.00    -0.131 A  
HETATM   15  C   UNL     1      -9.582   5.464  67.295  1.00  0.00    -0.140 A  
HETATM   16  I   UNL     1     -10.245   5.815  70.180  1.00  0.00    -0.375 I  
BRANCH  13  17
HETATM   17  O   UNL     1      -9.059   8.790  68.865  1.00  0.00    -0.140 OA 
BRANCH  17  18
HETATM   18  C   UNL     1      -9.997   9.684  69.318  1.00  0.00    -0.191 A  
HETATM   19  C   UNL     1     -10.885   9.120  70.247  1.00  0.00    -0.282 A  
HETATM   20  C   UNL     1     -11.917   9.876  70.806  1.00  0.00    -0.323 A  
HETATM   21  I   UNL     1     -13.191   8.948  72.176  1.00  0.00    -0.510 I  
HETATM   22  C   UNL     1     -12.082  11.208  70.427  1.00  0.00    -0.385 A  
HETATM   23  C   UNL     1     -11.194  11.776  69.503  1.00  0.00    -0.195 A  
HETATM   24  O   UNL     1     -13.099  11.963  70.958  1.00  0.00    -0.163 OA 
HETATM   25  H   UNL     1     -13.211  12.871  70.700  1.00  0.00     0.000 HD 
HETATM   26  I   UNL     1     -11.448  13.745  68.826  1.00  0.00    -0.413 I  
HETATM   27  C   UNL     1     -10.128  11.027  68.974  1.00  0.00    -0.197 A  
ENDBRANCH  17  18
ENDBRANCH  13  17
ENDBRANCH   8   9
ENDBRANCH   4   8
TORSDOF 4
ENDMDL
MODEL      155
REMARK 921   NORMALIZED FREE ENERGY PREDICTED BY IDOCK:   -4.00 KCAL/MOL
REMARK 922        TOTAL FREE ENERGY PREDICTED BY IDOCK:   -5.69 KCAL/MOL
REMARK 923 INTER-LIGAND FREE ENERGY PREDICTED BY IDOCK:   -6.85 KCAL/MOL
REMARK 924 INTRA-LIGAND FREE ENERGY PREDICTED BY IDOCK:    1.16 KCAL/MOL
REMARK 927      BINDING AFFINITY PREDICTED BY RF-SCORE:    0.00 PKD
ROOT
HETATM    1  N   UNL     1     -12.200  14.953  73.859  1.00  0.00    -0.483 NA 
HETATM    2  H1  UNL     1     -11.737  15.834  74.080  1.00  0.00     0.000 HD 
HETATM    3  H2  UNL     1     -11.518  14.258  73.553  1.00  0.00     0.000 HD 
HETATM    4  CA  UNL     1     -13.305  15.075  72.860  1.00  0.00    -0.485 C  
HETATM    5  C   UNL     1     -12.705  15.669  71.568  1.00  0.00    -0.457 C  
HETATM    6  OXT UNL     1     -13.198  15.590  70.455  1.00  0.00    -0.381 OA 
HETATM    7  O   UNL     1     -11.540  16.321  71.822  1.00  0.00    -0.459 OA 
ENDROOT
BRANCH   4   8
HETATM    8  C   UNL     1     -14.004  13.743  72.525  1.00  0.00    -0.572 C  
BRANCH   8   9
HETATM    9  C   UNL     1     -13.200  12.721  71.745  1.00  0.00    -0.471 A  
HETATM   10  C   UNL     1     -12.360  13.080  70.690  1.00  0.00    -0.391 A  
HETATM   11  C   UNL     1     -11.631  12.101  70.001  1.00  0.00    -0.171 A  
HETATM   12  I   UNL     1     -10.436  12.762  68.389  1.00  0.00    -0.207 I  
HETATM   13  C   UNL     1     -11.715  10.730  70.338  1.00  0.00    -0.351 A  
HETATM   14  C   UNL     1     -12.541  10.376  71.413  1.00  0.00    -0.434 A  
HETATM   15  C   UNL     1     -13.251  11.369  72.117  1.00  0.00    -0.293 A  
HETATM   16  I   UNL     1     -12.941   8.405  72.036  1.00  0.00    -0.367 I  
BRANCH  13  17
HETATM   17  O   UNL     1     -11.214   9.850  69.407  1.00  0.00    -0.221 OA 
BRANCH  17  18
HETATM   18  C   UNL     1      -9.916   9.406  69.363  1.00  0.00    -0.183 A  
HETATM   19  C   UNL     1      -9.547   8.922  68.098  1.00  0.00    -0.161 A  
HETATM   20  C   UNL     1      -8.267   8.414  67.868  1.00  0.00    -0.127 A  
HETATM   21  I   UNL     1      -7.812   7.713  65.954  1.00  0.00    -0.122 I  
HETATM   22  C   UNL     1      -7.343   8.370  68.911  1.00  0.00    -0.090 A  
HETATM   23  C   UNL     1      -7.707   8.856  70.174  1.00  0.00    -0.084 A  
HETATM   24  O   UNL     1      -6.083   7.863  68.705  1.00  0.00    -0.037 OA 
HETATM   25  H   UNL     1      -5.453   7.832  69.416  1.00  0.00     0.000 HD 
HETATM   26  I   UNL     1      -6.391   8.730  71.803  1.00  0.00    -0.006 I  
HETATM   27  C   UNL     1      -8.980   9.408  70.394  1.00  0.00    -0.294 A  
ENDBRANCH  17  18
ENDBRANCH  13  17
ENDBRANCH   8   9
ENDBRANCH   4   8
TORSDOF 4
ENDMDL
MODEL      156
REMARK 921   NORMALIZED FREE ENERGY PREDICTED BY IDOCK:   -3.97 KCAL/MOL
REMARK 922        TOTAL FREE ENERGY PREDICTED BY IDOCK:   -5.65 KCAL/MOL
REMARK 923 INTER-LIGAND FREE ENERGY PREDICTED BY IDOCK:   -5.12 KCAL/MOL
REMARK 924 INTRA-LIGAND FREE ENERGY PREDICTED BY IDOCK:   -0.53 KCAL/MOL
REMARK 927      BINDING AFFINITY PREDICTED BY RF-SCORE:    0.00 PKD
ROOT
HETATM    1  N   UNL     1      -7.927   4.301  66.936  1.00  0.00    -0.097 NA 
HETATM    2  H1  UNL     1      -7.277   3.989  66.214  1.00  0.00     0.000 HD 
HETATM    3  H2  UNL     1      -8.265   3.506  67.479  1.00  0.00     0.000 HD 
HETATM    4  CA  UNL     1      -9.075   5.108  66.419  1.00  0.00    -0.131 C  
HETATM    5  C   UNL     1      -9.835   4.240  65.396  1.00  0.00    -0.211 C  
HETATM    6  OXT UNL     1     -10.988   4.411  65.038  1.00  0.00    -0.247 OA 
HETATM    7  O   UNL     1      -9.046   3.242  64.915  1.00  0.00    -0.129 OA 
ENDROOT
BRANCH   4   8
HETATM    8  C   UNL     1     -10.057   5.578  67.510  1.00  0.00    -0.217 C  
BRANCH   8   9
HETATM    9  C   UNL     1     -10.252   7.075  67.661  1.00  0.00    -0.245 A  
HETATM   10  C   UNL     1     -10.660   7.656  68.863  1.00  0.00    -0.176 A  
HETATM   11  C   UNL     1     -10.822   9.045  68.958  1.00  0.00    -0.067 A  
HETATM   12  I   UNL     1     -11.495   9.801  70.813  1.00  0.00    -0.472 I  
HETATM   13  C   UNL     1     -10.586   9.903  67.859  1.00  0.00    -0.254 A  
HETATM   14  C   UNL     1     -10.153   9.318  66.661  1.00  0.00    -0.271 A  
HETATM   15  C   UNL     1      -9.969   7.923  66.581  1.00  0.00    -0.316 A  
HETATM   16  I   UNL     1      -9.854  10.346  64.849  1.00  0.00    -0.313 I  
BRANCH  13  17
HETATM   17  O   UNL     1     -11.076  11.182  67.979  1.00  0.00    -0.232 OA 
BRANCH  17  18
HETATM   18  C   UNL     1     -10.306  12.311  68.112  1.00  0.00    -0.216 A  
HETATM   19  C   UNL     1      -8.935  12.027  68.208  1.00  0.00    -0.186 A  
HETATM   20  C   UNL     1      -7.998  13.050  68.364  1.00  0.00    -0.135 A  
HETATM   21  I   UNL     1      -5.980  12.530  68.502  1.00  0.00    -0.077 I  
HETATM   22  C   UNL     1      -8.428  14.375  68.441  1.00  0.00    -0.165 A  
HETATM   23  C   UNL     1      -9.796  14.662  68.341  1.00  0.00    -0.220 A  
HETATM   24  O   UNL     1      -7.521  15.394  68.606  1.00  0.00    -0.119 OA 
HETATM   25  H   UNL     1      -7.814  16.296  68.659  1.00  0.00     0.000 HD 
HETATM   26  I   UNL     1     -10.509  16.624  68.543  1.00  0.00    -0.367 I  
HETATM   27  C   UNL     1     -10.735  13.635  68.140  1.00  0.00    -0.260 A  
ENDBRANCH  17  18
ENDBRANCH  13  17
ENDBRANCH   8   9
ENDBRANCH   4   8
TORSDOF 4
ENDMDL
MODEL      157
REMARK 921   NORMALIZED FREE ENERGY PREDICTED BY IDOCK:   -3.96 KCAL/MOL
REMARK 922        TOTAL FREE ENERGY PREDICTED BY IDOCK:   -5.64 KCAL/MOL
REMARK 923 INTER-LIGAND FREE ENERGY PREDICTED BY IDOCK:   -5.87 KCAL/MOL
REMARK 924 INTRA-LIGAND FREE ENERGY PREDICTED BY IDOCK:    0.24 KCAL/MOL
REMARK 927      BINDING AFFINITY PREDICTED BY RF-SCORE:    0.00 PKD
ROOT
HETATM    1  N   UNL     1     -14.357  13.862  72.266  1.00  0.00    -0.633 NA 
HETATM    2  H1  UNL     1     -14.942  14.678  72.089  1.00  0.00     0.000 HD 
HETATM    3  H2  UNL     1     -13.883  13.951  73.165  1.00  0.00     0.000 HD 
HETATM    4  CA  UNL     1     -13.371  13.566  71.182  1.00  0.00    -0.071 C  
HETATM    5  C   UNL     1     -12.469  14.807  71.018  1.00  0.00    -0.330 C  
HETATM    6  OXT UNL     1     -11.365  14.819  70.500  1.00  0.00    -0.248 OA 
HETATM    7  O   UNL     1     -13.069  15.920  71.518  1.00  0.00    -0.464 OA 
ENDROOT
BRANCH   4   8
HETATM    8  C   UNL     1     -12.488  12.332  71.451  1.00  0.00    -0.212 C  
BRANCH   8   9
HETATM    9  C   UNL     1     -11.916  11.619  70.241  1.00  0.00    -0.445 A  
HETATM   10  C   UNL     1     -11.881  12.208  68.976  1.00  0.00    -0.361 A  
HETATM   11  C   UNL     1     -11.338  11.512  67.887  1.00  0.00    -0.303 A  
HETATM   12  I   UNL     1     -11.390  12.486  66.013  1.00  0.00    -0.453 I  
HETATM   13  C   UNL     1     -10.812  10.206  68.019  1.00  0.00    -0.270 A  
HETATM   14  C   UNL     1     -10.828   9.627  69.296  1.00  0.00    -0.205 A  
HETATM   15  C   UNL     1     -11.353  10.343  70.391  1.00  0.00    -0.417 A  
HETATM   16  I   UNL     1     -10.228   7.659  69.742  1.00  0.00    -0.223 I  
BRANCH  13  17
HETATM   17  O   UNL     1     -10.606   9.518  66.846  1.00  0.00    -0.231 OA 
BRANCH  17  18
HETATM   18  C   UNL     1      -9.440   9.530  66.123  1.00  0.00    -0.221 A  
HETATM   19  C   UNL     1      -8.437  10.314  66.716  1.00  0.00    -0.123 A  
HETATM   20  C   UNL     1      -7.186  10.458  66.114  1.00  0.00    -0.131 A  
HETATM   21  I   UNL     1      -5.761  11.648  67.069  1.00  0.00    -0.079 I  
HETATM   22  C   UNL     1      -6.927   9.826  64.897  1.00  0.00    -0.124 A  
HETATM   23  C   UNL     1      -7.924   9.039  64.305  1.00  0.00    -0.142 A  
HETATM   24  O   UNL     1      -5.705   9.965  64.286  1.00  0.00    -0.086 OA 
HETATM   25  H   UNL     1      -5.529   9.535  63.457  1.00  0.00     0.000 HD 
HETATM   26  I   UNL     1      -7.625   8.141  62.433  1.00  0.00    -0.131 I  
HETATM   27  C   UNL     1      -9.169   8.859  64.933  1.00  0.00     0.031 A  
ENDBRANCH  17  18
ENDBRANCH  13  17
ENDBRANCH   8   9
ENDBRANCH   4   8
TORSDOF 4
ENDMDL
MODEL      158
REMARK 921   NORMALIZED FREE ENERGY PREDICTED BY IDOCK:   -3.95 KCAL/MOL
REMARK 922        TOTAL FREE ENERGY PREDICTED BY IDOCK:   -5.63 KCAL/MOL
REMARK 923 INTER-LIGAND FREE ENERGY PREDICTED BY IDOCK:   -5.19 KCAL/MOL
REMARK 924 INTRA-LIGAND FREE ENERGY PREDICTED BY IDOCK:   -0.44 KCAL/MOL
REMARK 927      BINDING AFFINITY PREDICTED BY RF-SCORE:    0.00 PKD
ROOT
HETATM    1  N   UNL     1      -6.327   9.310  72.783  1.00  0.00    -0.297 NA 
HETATM    2  H1  UNL     1      -5.313   9.213  72.849  1.00  0.00     0.000 HD 
HETATM    3  H2  UNL     1      -6.679   9.891  73.543  1.00  0.00     0.000 HD 
HETATM    4  CA  UNL     1      -7.064   8.011  72.731  1.00  0.00    -0.094 C  
HETATM    5  C   UNL     1      -6.715   7.223  74.010  1.00  0.00    -0.080 C  
HETATM    6  OXT UNL     1      -7.371   6.308  74.482  1.00  0.00    -0.096 OA 
HETATM    7  O   UNL     1      -5.553   7.666  74.559  1.00  0.00    -0.071 OA 
ENDROOT
BRANCH   4   8
HETATM    8  C   UNL     1      -8.595   8.158  72.631  1.00  0.00    -0.262 C  
BRANCH   8   9
HETATM    9  C   UNL     1      -9.198   8.153  71.239  1.00  0.00    -0.193 A  
HETATM   10  C   UNL     1      -9.140   7.035  70.406  1.00  0.00    -0.156 A  
HETATM   11  C   UNL     1      -9.716   7.075  69.129  1.00  0.00    -0.156 A  
HETATM   12  I   UNL     1      -9.517   5.339  67.940  1.00  0.00    -0.186 I  
HETATM   13  C   UNL     1     -10.367   8.230  68.636  1.00  0.00    -0.200 A  
HETATM   14  C   UNL     1     -10.444   9.342  69.485  1.00  0.00    -0.218 A  
HETATM   15  C   UNL     1      -9.884   9.286  70.778  1.00  0.00    -0.350 A  
HETATM   16  I   UNL     1     -11.241  11.218  68.957  1.00  0.00    -0.420 I  
BRANCH  13  17
HETATM   17  O   UNL     1     -10.605   8.255  67.282  1.00  0.00    -0.301 OA 
BRANCH  17  18
HETATM   18  C   UNL     1      -9.788   8.845  66.351  1.00  0.00    -0.283 A  
HETATM   19  C   UNL     1     -10.403   9.917  65.686  1.00  0.00    -0.115 A  
HETATM   20  C   UNL     1      -9.729  10.630  64.692  1.00  0.00    -0.302 A  
HETATM   21  I   UNL     1     -10.729  12.206  63.756  1.00  0.00    -0.548 I  
HETATM   22  C   UNL     1      -8.429  10.266  64.342  1.00  0.00    -0.179 A  
HETATM   23  C   UNL     1      -7.810   9.199  65.007  1.00  0.00    -0.112 A  
HETATM   24  O   UNL     1      -7.755  10.949  63.360  1.00  0.00    -0.355 OA 
HETATM   25  H   UNL     1      -6.869  10.701  63.121  1.00  0.00     0.000 HD 
HETATM   26  I   UNL     1      -5.893   8.548  64.460  1.00  0.00    -0.066 I  
HETATM   27  C   UNL     1      -8.473   8.510  66.038  1.00  0.00    -0.150 A  
ENDBRANCH  17  18
ENDBRANCH  13  17
ENDBRANCH   8   9
ENDBRANCH   4   8
TORSDOF 4
ENDMDL
MODEL      159
REMARK 921   NORMALIZED FREE ENERGY PREDICTED BY IDOCK:   -3.95 KCAL/MOL
REMARK 922        TOTAL FREE ENERGY PREDICTED BY IDOCK:   -5.63 KCAL/MOL
REMARK 923 INTER-LIGAND FREE ENERGY PREDICTED BY IDOCK:   -4.98 KCAL/MOL
REMARK 924 INTRA-LIGAND FREE ENERGY PREDICTED BY IDOCK:   -0.65 KCAL/MOL
REMARK 927      BINDING AFFINITY PREDICTED BY RF-SCORE:    0.00 PKD
ROOT
HETATM    1  N   UNL     1      -9.139   5.979  66.941  1.00  0.00    -0.122 NA 
HETATM    2  H1  UNL     1      -8.675   5.078  66.824  1.00  0.00     0.000 HD 
HETATM    3  H2  UNL     1      -8.500   6.657  67.357  1.00  0.00     0.000 HD 
HETATM    4  CA  UNL     1     -10.414   5.915  67.719  1.00  0.00    -0.238 C  
HETATM    5  C   UNL     1     -10.087   5.332  69.108  1.00  0.00    -0.219 C  
HETATM    6  OXT UNL     1     -10.774   5.452  70.109  1.00  0.00    -0.298 OA 
HETATM    7  O   UNL     1      -8.919   4.636  69.087  1.00  0.00    -0.090 OA 
ENDROOT
BRANCH   4   8
HETATM    8  C   UNL     1     -11.114   7.277  67.896  1.00  0.00    -0.001 C  
BRANCH   8   9
HETATM    9  C   UNL     1     -10.283   8.518  67.632  1.00  0.00    -0.297 A  
HETATM   10  C   UNL     1      -9.269   8.934  68.497  1.00  0.00    -0.137 A  
HETATM   11  C   UNL     1      -8.523  10.085  68.209  1.00  0.00    -0.111 A  
HETATM   12  I   UNL     1      -7.053  10.643  69.621  1.00  0.00    -0.040 I  
HETATM   13  C   UNL     1      -8.760  10.862  67.052  1.00  0.00    -0.141 A  
HETATM   14  C   UNL     1      -9.763  10.428  66.174  1.00  0.00    -0.209 A  
HETATM   15  C   UNL     1     -10.493   9.256  66.458  1.00  0.00    -0.204 A  
HETATM   16  I   UNL     1     -10.402  11.463  64.457  1.00  0.00    -0.428 I  
BRANCH  13  17
HETATM   17  O   UNL     1      -8.195  12.116  67.043  1.00  0.00    -0.173 OA 
BRANCH  17  18
HETATM   18  C   UNL     1      -8.813  13.261  67.479  1.00  0.00    -0.206 A  
HETATM   19  C   UNL     1      -8.189  14.429  67.013  1.00  0.00    -0.138 A  
HETATM   20  C   UNL     1      -8.670  15.691  67.366  1.00  0.00    -0.179 A  
HETATM   21  I   UNL     1      -7.673  17.371  66.628  1.00  0.00    -0.366 I  
HETATM   22  C   UNL     1      -9.778  15.798  68.207  1.00  0.00    -0.201 A  
HETATM   23  C   UNL     1     -10.406  14.634  68.670  1.00  0.00    -0.246 A  
HETATM   24  O   UNL     1     -10.257  17.032  68.574  1.00  0.00    -0.282 OA 
HETATM   25  H   UNL     1     -11.012  17.105  69.147  1.00  0.00     0.000 HD 
HETATM   26  I   UNL     1     -12.017  14.732  70.010  1.00  0.00    -0.412 I  
HETATM   27  C   UNL     1      -9.948  13.364  68.278  1.00  0.00    -0.240 A  
ENDBRANCH  17  18
ENDBRANCH  13  17
ENDBRANCH   8   9
ENDBRANCH   4   8
TORSDOF 4
ENDMDL
MODEL      160
REMARK 921   NORMALIZED FREE ENERGY PREDICTED BY IDOCK:   -3.94 KCAL/MOL
REMARK 922        TOTAL FREE ENERGY PREDICTED BY IDOCK:   -5.62 KCAL/MOL
REMARK 923 INTER-LIGAND FREE ENERGY PREDICTED BY IDOCK:   -5.05 KCAL/MOL
REMARK 924 INTRA-LIGAND FREE ENERGY PREDICTED BY IDOCK:   -0.58 KCAL/MOL
REMARK 927      BINDING AFFINITY PREDICTED BY RF-SCORE:    0.00 PKD
ROOT
HETATM    1  N   UNL     1     -10.305  15.282  69.442  1.00  0.00    -0.241 NA 
HETATM    2  H1  UNL     1      -9.584  15.883  69.842  1.00  0.00     0.000 HD 
HETATM    3  H2  UNL     1      -9.881  14.494  68.953  1.00  0.00     0.000 HD 
HETATM    4  CA  UNL     1     -11.270  15.995  68.550  1.00  0.00    -0.374 C  
HETATM    5  C   UNL     1     -10.461  16.642  67.408  1.00  0.00    -0.314 C  
HETATM    6  OXT UNL     1     -10.911  16.995  66.330  1.00  0.00    -0.132 OA 
HETATM    7  O   UNL     1      -9.154  16.793  67.754  1.00  0.00    -0.217 OA 
ENDROOT
BRANCH   4   8
HETATM    8  C   UNL     1     -12.359  15.087  67.946  1.00  0.00     0.346 C  
BRANCH   8   9
HETATM    9  C   UNL     1     -11.934  13.698  67.510  1.00  0.00    -0.393 A  
HETATM   10  C   UNL     1     -11.654  12.683  68.426  1.00  0.00    -0.370 A  
HETATM   11  C   UNL     1     -11.269  11.412  67.977  1.00  0.00    -0.281 A  
HETATM   12  I   UNL     1     -10.821   9.974  69.459  1.00  0.00    -0.323 I  
HETATM   13  C   UNL     1     -11.148  11.109  66.601  1.00  0.00    -0.189 A  
HETATM   14  C   UNL     1     -11.453  12.124  65.684  1.00  0.00    -0.355 A  
HETATM   15  C   UNL     1     -11.863  13.392  66.143  1.00  0.00    -0.427 A  
HETATM   16  I   UNL     1     -11.233  11.978  63.596  1.00  0.00    -0.501 I  
BRANCH  13  17
HETATM   17  O   UNL     1     -10.469   9.952  66.297  1.00  0.00    -0.193 OA 
BRANCH  17  18
HETATM   18  C   UNL     1      -9.159   9.891  65.895  1.00  0.00    -0.162 A  
HETATM   19  C   UNL     1      -8.955   8.999  64.831  1.00  0.00    -0.170 A  
HETATM   20  C   UNL     1      -7.681   8.794  64.298  1.00  0.00    -0.125 A  
HETATM   21  I   UNL     1      -7.477   7.443  62.719  1.00  0.00    -0.122 I  
HETATM   22  C   UNL     1      -6.589   9.473  64.837  1.00  0.00    -0.086 A  
HETATM   23  C   UNL     1      -6.789  10.368  65.897  1.00  0.00    -0.131 A  
HETATM   24  O   UNL     1      -5.327   9.275  64.332  1.00  0.00    -0.053 OA 
HETATM   25  H   UNL     1      -4.582   9.738  64.700  1.00  0.00     0.000 HD 
HETATM   26  I   UNL     1      -5.174  11.347  66.808  1.00  0.00    -0.083 I  
HETATM   27  C   UNL     1      -8.078  10.607  66.404  1.00  0.00    -0.148 A  
ENDBRANCH  17  18
ENDBRANCH  13  17
ENDBRANCH   8   9
ENDBRANCH   4   8
TORSDOF 4
ENDMDL
MODEL      161
REMARK 921   NORMALIZED FREE ENERGY PREDICTED BY IDOCK:   -3.92 KCAL/MOL
REMARK 922        TOTAL FREE ENERGY PREDICTED BY IDOCK:   -5.59 KCAL/MOL
REMARK 923 INTER-LIGAND FREE ENERGY PREDICTED BY IDOCK:   -5.63 KCAL/MOL
REMARK 924 INTRA-LIGAND FREE ENERGY PREDICTED BY IDOCK:    0.04 KCAL/MOL
REMARK 927      BINDING AFFINITY PREDICTED BY RF-SCORE:    0.00 PKD
ROOT
HETATM    1  N   UNL     1     -13.700  14.753  71.236  1.00  0.00    -0.448 NA 
HETATM    2  H1  UNL     1     -13.896  15.264  72.096  1.00  0.00     0.000 HD 
HETATM    3  H2  UNL     1     -13.484  13.777  71.442  1.00  0.00     0.000 HD 
HETATM    4  CA  UNL     1     -12.624  15.360  70.395  1.00  0.00    -0.389 C  
HETATM    5  C   UNL     1     -11.341  15.423  71.248  1.00  0.00    -0.387 C  
HETATM    6  OXT UNL     1     -10.204  15.522  70.816  1.00  0.00    -0.010 OA 
HETATM    7  O   UNL     1     -11.630  15.368  72.576  1.00  0.00    -0.446 OA 
ENDROOT
BRANCH   4   8
HETATM    8  C   UNL     1     -12.327  14.587  69.094  1.00  0.00    -0.152 C  
BRANCH   8   9
HETATM    9  C   UNL     1     -11.773  13.183  69.240  1.00  0.00    -0.376 A  
HETATM   10  C   UNL     1     -10.691  12.726  68.485  1.00  0.00    -0.275 A  
HETATM   11  C   UNL     1     -10.211  11.420  68.658  1.00  0.00    -0.208 A  
HETATM   12  I   UNL     1      -8.604  10.827  67.420  1.00  0.00    -0.129 I  
HETATM   13  C   UNL     1     -10.790  10.525  69.586  1.00  0.00    -0.274 A  
HETATM   14  C   UNL     1     -11.861  10.995  70.358  1.00  0.00    -0.367 A  
HETATM   15  C   UNL     1     -12.323  12.317  70.196  1.00  0.00    -0.212 A  
HETATM   16  I   UNL     1     -12.980   9.836  71.713  1.00  0.00    -0.548 I  
BRANCH  13  17
HETATM   17  O   UNL     1     -10.447   9.201  69.440  1.00  0.00    -0.211 OA 
BRANCH  17  18
HETATM   18  C   UNL     1      -9.806   8.446  70.390  1.00  0.00    -0.181 A  
HETATM   19  C   UNL     1      -8.536   8.944  70.718  1.00  0.00    -0.216 A  
HETATM   20  C   UNL     1      -7.730   8.296  71.656  1.00  0.00    -0.101 A  
HETATM   21  I   UNL     1      -5.853   9.110  72.076  1.00  0.00     0.089 I  
HETATM   22  C   UNL     1      -8.184   7.128  72.269  1.00  0.00    -0.101 A  
HETATM   23  C   UNL     1      -9.453   6.630  71.946  1.00  0.00    -0.150 A  
HETATM   24  O   UNL     1      -7.399   6.472  73.186  1.00  0.00    -0.085 OA 
HETATM   25  H   UNL     1      -7.708   5.676  73.603  1.00  0.00     0.000 HD 
HETATM   26  I   UNL     1     -10.150   4.829  72.764  1.00  0.00    -0.255 I  
HETATM   27  C   UNL     1     -10.282   7.307  71.035  1.00  0.00    -0.198 A  
ENDBRANCH  17  18
ENDBRANCH  13  17
ENDBRANCH   8   9
ENDBRANCH   4   8
TORSDOF 4
ENDMDL
MODEL      162
REMARK 921   NORMALIZED FREE ENERGY PREDICTED BY IDOCK:   -3.91 KCAL/MOL
REMARK 922        TOTAL FREE ENERGY PREDICTED BY IDOCK:   -5.58 KCAL/MOL
REMARK 923 INTER-LIGAND FREE ENERGY PREDICTED BY IDOCK:   -5.02 KCAL/MOL
REMARK 924 INTRA-LIGAND FREE ENERGY PREDICTED BY IDOCK:   -0.55 KCAL/MOL
REMARK 927      BINDING AFFINITY PREDICTED BY RF-SCORE:    0.00 PKD
ROOT
HETATM    1  N   UNL     1     -11.675   9.706  71.595  1.00  0.00    -0.395 NA 
HETATM    2  H1  UNL     1     -12.611  10.111  71.627  1.00  0.00     0.000 HD 
HETATM    3  H2  UNL     1     -11.388   9.546  70.630  1.00  0.00     0.000 HD 
HETATM    4  CA  UNL     1     -11.522   8.456  72.401  1.00  0.00    -0.380 C  
HETATM    5  C   UNL     1     -12.536   7.426  71.865  1.00  0.00    -0.291 C  
HETATM    6  OXT UNL     1     -12.473   6.218  72.024  1.00  0.00    -0.306 OA 
HETATM    7  O   UNL     1     -13.547   8.036  71.190  1.00  0.00    -0.173 OA 
ENDROOT
BRANCH   4   8
HETATM    8  C   UNL     1     -10.108   7.844  72.353  1.00  0.00    -0.310 C  
BRANCH   8   9
HETATM    9  C   UNL     1      -9.273   8.136  71.121  1.00  0.00    -0.185 A  
HETATM   10  C   UNL     1      -8.180   9.004  71.149  1.00  0.00    -0.198 A  
HETATM   11  C   UNL     1      -7.434   9.239  69.986  1.00  0.00    -0.094 A  
HETATM   12  I   UNL     1      -5.836  10.613  70.142  1.00  0.00    -0.125 I  
HETATM   13  C   UNL     1      -7.751   8.621  68.754  1.00  0.00    -0.097 A  
HETATM   14  C   UNL     1      -8.835   7.733  68.735  1.00  0.00    -0.134 A  
HETATM   15  C   UNL     1      -9.565   7.482  69.915  1.00  0.00    -0.160 A  
HETATM   16  I   UNL     1      -9.594   6.783  67.017  1.00  0.00    -0.229 I  
BRANCH  13  17
HETATM   17  O   UNL     1      -7.159   9.165  67.639  1.00  0.00    -0.081 OA 
BRANCH  17  18
HETATM   18  C   UNL     1      -7.813   9.895  66.678  1.00  0.00    -0.110 A  
HETATM   19  C   UNL     1      -8.575  10.945  67.214  1.00  0.00    -0.128 A  
HETATM   20  C   UNL     1      -9.322  11.786  66.388  1.00  0.00    -0.220 A  
HETATM   21  I   UNL     1     -10.427  13.318  67.279  1.00  0.00    -0.262 I  
HETATM   22  C   UNL     1      -9.327  11.575  65.009  1.00  0.00    -0.089 A  
HETATM   23  C   UNL     1      -8.564  10.531  64.470  1.00  0.00    -0.159 A  
HETATM   24  O   UNL     1     -10.065  12.387  64.183  1.00  0.00    -0.439 OA 
HETATM   25  H   UNL     1     -10.069  12.243  63.243  1.00  0.00     0.000 HD 
HETATM   26  I   UNL     1      -8.606  10.108  62.416  1.00  0.00    -0.344 I  
HETATM   27  C   UNL     1      -7.777   9.711  65.298  1.00  0.00    -0.115 A  
ENDBRANCH  17  18
ENDBRANCH  13  17
ENDBRANCH   8   9
ENDBRANCH   4   8
TORSDOF 4
ENDMDL
MODEL      163
REMARK 921   NORMALIZED FREE ENERGY PREDICTED BY IDOCK:   -3.91 KCAL/MOL
REMARK 922        TOTAL FREE ENERGY PREDICTED BY IDOCK:   -5.57 KCAL/MOL
REMARK 923 INTER-LIGAND FREE ENERGY PREDICTED BY IDOCK:   -5.39 KCAL/MOL
REMARK 924 INTRA-LIGAND FREE ENERGY PREDICTED BY IDOCK:   -0.18 KCAL/MOL
REMARK 927      BINDING AFFINITY PREDICTED BY RF-SCORE:    0.00 PKD
ROOT
HETATM    1  N   UNL     1      -7.032  14.397  67.197  1.00  0.00    -0.376 NA 
HETATM    2  H1  UNL     1      -6.060  14.537  67.472  1.00  0.00     0.000 HD 
HETATM    3  H2  UNL     1      -7.091  14.152  66.209  1.00  0.00     0.000 HD 
HETATM    4  CA  UNL     1      -7.929  15.553  67.505  1.00  0.00    -0.168 C  
HETATM    5  C   UNL     1      -7.370  16.788  66.770  1.00  0.00    -0.240 C  
HETATM    6  OXT UNL     1      -7.998  17.797  66.498  1.00  0.00    -0.233 OA 
HETATM    7  O   UNL     1      -6.055  16.624  66.464  1.00  0.00    -0.303 OA 
ENDROOT
BRANCH   4   8
HETATM    8  C   UNL     1      -9.398  15.340  67.089  1.00  0.00    -0.227 C  
BRANCH   8   9
HETATM    9  C   UNL     1      -9.932  13.922  67.150  1.00  0.00    -0.239 A  
HETATM   10  C   UNL     1     -10.575  13.415  68.280  1.00  0.00    -0.264 A  
HETATM   11  C   UNL     1     -11.058  12.099  68.289  1.00  0.00    -0.243 A  
HETATM   12  I   UNL     1     -11.965  11.430  70.076  1.00  0.00    -0.380 I  
HETATM   13  C   UNL     1     -10.915  11.242  67.174  1.00  0.00    -0.291 A  
HETATM   14  C   UNL     1     -10.289  11.762  66.032  1.00  0.00    -0.239 A  
HETATM   15  C   UNL     1      -9.829  13.094  66.023  1.00  0.00    -0.266 A  
HETATM   16  I   UNL     1      -9.838  10.667  64.292  1.00  0.00    -0.345 I  
BRANCH  13  17
HETATM   17  O   UNL     1     -11.136   9.905  67.410  1.00  0.00    -0.234 OA 
BRANCH  17  18
HETATM   18  C   UNL     1     -10.249   9.059  68.027  1.00  0.00    -0.212 A  
HETATM   19  C   UNL     1      -8.932   9.544  68.014  1.00  0.00    -0.123 A  
HETATM   20  C   UNL     1      -7.890   8.809  68.582  1.00  0.00    -0.103 A  
HETATM   21  I   UNL     1      -5.963   9.611  68.510  1.00  0.00    -0.042 I  
HETATM   22  C   UNL     1      -8.154   7.567  69.160  1.00  0.00    -0.123 A  
HETATM   23  C   UNL     1      -9.468   7.082  69.179  1.00  0.00    -0.143 A  
HETATM   24  O   UNL     1      -7.138   6.827  69.714  1.00  0.00    -0.064 OA 
HETATM   25  H   UNL     1      -7.318   5.981  70.108  1.00  0.00     0.000 HD 
HETATM   26  I   UNL     1      -9.911   5.183  69.951  1.00  0.00    -0.340 I  
HETATM   27  C   UNL     1     -10.524   7.842  68.646  1.00  0.00    -0.199 A  
ENDBRANCH  17  18
ENDBRANCH  13  17
ENDBRANCH   8   9
ENDBRANCH   4   8
TORSDOF 4
ENDMDL
MODEL      164
REMARK 921   NORMALIZED FREE ENERGY PREDICTED BY IDOCK:   -3.90 KCAL/MOL
REMARK 922        TOTAL FREE ENERGY PREDICTED BY IDOCK:   -5.57 KCAL/MOL
REMARK 923 INTER-LIGAND FREE ENERGY PREDICTED BY IDOCK:   -5.05 KCAL/MOL
REMARK 924 INTRA-LIGAND FREE ENERGY PREDICTED BY IDOCK:   -0.52 KCAL/MOL
REMARK 927      BINDING AFFINITY PREDICTED BY RF-SCORE:    0.00 PKD
ROOT
HETATM    1  N   UNL     1     -11.085  11.977  67.710  1.00  0.00    -0.234 NA 
HETATM    2  H1  UNL     1     -12.006  12.369  67.904  1.00  0.00     0.000 HD 
HETATM    3  H2  UNL     1     -10.358  12.673  67.880  1.00  0.00     0.000 HD 
HETATM    4  CA  UNL     1     -10.943  11.395  66.341  1.00  0.00    -0.260 C  
HETATM    5  C   UNL     1     -11.240  12.515  65.323  1.00  0.00    -0.304 C  
HETATM    6  OXT UNL     1     -10.893  12.523  64.153  1.00  0.00    -0.326 OA 
HETATM    7  O   UNL     1     -11.966  13.516  65.890  1.00  0.00    -0.363 OA 
ENDROOT
BRANCH   4   8
HETATM    8  C   UNL     1      -9.550  10.804  66.047  1.00  0.00    -0.244 C  
BRANCH   8   9
HETATM    9  C   UNL     1      -9.171   9.536  66.789  1.00  0.00    -0.184 A  
HETATM   10  C   UNL     1      -9.724   8.294  66.472  1.00  0.00    -0.323 A  
HETATM   11  C   UNL     1      -9.339   7.148  67.181  1.00  0.00    -0.140 A  
HETATM   12  I   UNL     1     -10.284   5.335  66.647  1.00  0.00    -0.308 I  
HETATM   13  C   UNL     1      -8.392   7.199  68.231  1.00  0.00    -0.124 A  
HETATM   14  C   UNL     1      -7.822   8.444  68.530  1.00  0.00    -0.120 A  
HETATM   15  C   UNL     1      -8.196   9.587  67.795  1.00  0.00    -0.114 A  
HETATM   16  I   UNL     1      -6.493   8.818  70.118  1.00  0.00    -0.047 I  
BRANCH  13  17
HETATM   17  O   UNL     1      -8.336   6.091  69.045  1.00  0.00    -0.109 OA 
BRANCH  17  18
HETATM   18  C   UNL     1      -8.863   6.018  70.310  1.00  0.00    -0.144 A  
HETATM   19  C   UNL     1     -10.164   6.540  70.391  1.00  0.00    -0.227 A  
HETATM   20  C   UNL     1     -10.854   6.564  71.604  1.00  0.00    -0.240 A  
HETATM   21  I   UNL     1     -12.783   7.364  71.627  1.00  0.00    -0.315 I  
HETATM   22  C   UNL     1     -10.241   6.077  72.759  1.00  0.00    -0.188 A  
HETATM   23  C   UNL     1      -8.945   5.552  72.680  1.00  0.00    -0.129 A  
HETATM   24  O   UNL     1     -10.902   6.104  73.963  1.00  0.00    -0.397 OA 
HETATM   25  H   UNL     1     -10.485   5.772  74.749  1.00  0.00     0.000 HD 
HETATM   26  I   UNL     1      -7.938   4.891  74.398  1.00  0.00    -0.094 I  
HETATM   27  C   UNL     1      -8.266   5.487  71.451  1.00  0.00    -0.118 A  
ENDBRANCH  17  18
ENDBRANCH  13  17
ENDBRANCH   8   9
ENDBRANCH   4   8
TORSDOF 4
ENDMDL
MODEL      165
REMARK 921   NORMALIZED FREE ENERGY PREDICTED BY IDOCK:   -3.90 KCAL/MOL
REMARK 922        TOTAL FREE ENERGY PREDICTED BY IDOCK:   -5.57 KCAL/MOL
REMARK 923 INTER-LIGAND FREE ENERGY PREDICTED BY IDOCK:   -4.93 KCAL/MOL
REMARK 924 INTRA-LIGAND FREE ENERGY PREDICTED BY IDOCK:   -0.64 KCAL/MOL
REMARK 927      BINDING AFFINITY PREDICTED BY RF-SCORE:    0.00 PKD
ROOT
HETATM    1  N   UNL     1     -11.174  14.193  66.660  1.00  0.00    -0.316 NA 
HETATM    2  H1  UNL     1     -10.805  15.139  66.754  1.00  0.00     0.000 HD 
HETATM    3  H2  UNL     1     -12.145  14.219  66.348  1.00  0.00     0.000 HD 
HETATM    4  CA  UNL     1     -11.042  13.358  67.892  1.00  0.00    -0.265 C  
HETATM    5  C   UNL     1     -11.791  14.081  69.031  1.00  0.00    -0.354 C  
HETATM    6  OXT UNL     1     -12.194  13.561  70.058  1.00  0.00    -0.328 OA 
HETATM    7  O   UNL     1     -11.940  15.405  68.758  1.00  0.00    -0.331 OA 
ENDROOT
BRANCH   4   8
HETATM    8  C   UNL     1     -11.601  11.928  67.750  1.00  0.00    -0.393 C  
BRANCH   8   9
HETATM    9  C   UNL     1     -10.617  10.786  67.910  1.00  0.00    -0.258 A  
HETATM   10  C   UNL     1     -10.908   9.486  67.491  1.00  0.00    -0.239 A  
HETATM   11  C   UNL     1      -9.965   8.463  67.655  1.00  0.00    -0.190 A  
HETATM   12  I   UNL     1     -10.542   6.528  67.030  1.00  0.00    -0.369 I  
HETATM   13  C   UNL     1      -8.700   8.696  68.242  1.00  0.00    -0.142 A  
HETATM   14  C   UNL     1      -8.402  10.007  68.640  1.00  0.00    -0.116 A  
HETATM   15  C   UNL     1      -9.347  11.036  68.450  1.00  0.00    -0.179 A  
HETATM   16  I   UNL     1      -6.654  10.599  69.651  1.00  0.00    -0.139 I  
BRANCH  13  17
HETATM   17  O   UNL     1      -8.002   7.577  68.633  1.00  0.00    -0.119 OA 
BRANCH  17  18
HETATM   18  C   UNL     1      -8.265   6.840  69.760  1.00  0.00    -0.127 A  
HETATM   19  C   UNL     1      -7.722   5.546  69.705  1.00  0.00    -0.078 A  
HETATM   20  C   UNL     1      -7.901   4.646  70.756  1.00  0.00    -0.072 A  
HETATM   21  I   UNL     1      -7.058   2.743  70.582  1.00  0.00    -0.033 I  
HETATM   22  C   UNL     1      -8.643   5.027  71.874  1.00  0.00    -0.129 A  
HETATM   23  C   UNL     1      -9.183   6.319  71.934  1.00  0.00    -0.146 A  
HETATM   24  O   UNL     1      -8.838   4.150  72.913  1.00  0.00    -0.102 OA 
HETATM   25  H   UNL     1      -9.344   4.409  73.675  1.00  0.00     0.000 HD 
HETATM   26  I   UNL     1     -10.384   6.917  73.546  1.00  0.00    -0.355 I  
HETATM   27  C   UNL     1      -8.965   7.240  70.895  1.00  0.00    -0.150 A  
ENDBRANCH  17  18
ENDBRANCH  13  17
ENDBRANCH   8   9
ENDBRANCH   4   8
TORSDOF 4
ENDMDL
MODEL      166
REMARK 921   NORMALIZED FREE ENERGY PREDICTED BY IDOCK:   -3.90 KCAL/MOL
REMARK 922        TOTAL FREE ENERGY PREDICTED BY IDOCK:   -5.57 KCAL/MOL
REMARK 923 INTER-LIGAND FREE ENERGY PREDICTED BY IDOCK:   -5.07 KCAL/MOL
REMARK 924 INTRA-LIGAND FREE ENERGY PREDICTED BY IDOCK:   -0.50 KCAL/MOL
REMARK 927      BINDING AFFINITY PREDICTED BY RF-SCORE:    0.00 PKD
ROOT
HETATM    1  N   UNL     1     -10.441   8.715  72.002  1.00  0.00    -0.335 NA 
HETATM    2  H1  UNL     1      -9.870   8.030  72.498  1.00  0.00     0.000 HD 
HETATM    3  H2  UNL     1     -11.422   8.620  72.267  1.00  0.00     0.000 HD 
HETATM    4  CA  UNL     1     -10.294   8.672  70.515  1.00  0.00    -0.202 C  
HETATM    5  C   UNL     1     -10.683   7.256  70.046  1.00  0.00    -0.245 C  
HETATM    6  OXT UNL     1     -11.019   6.950  68.914  1.00  0.00    -0.219 OA 
HETATM    7  O   UNL     1     -10.592   6.358  71.063  1.00  0.00    -0.220 OA 
ENDROOT
BRANCH   4   8
HETATM    8  C   UNL     1     -11.156   9.707  69.766  1.00  0.00    -0.247 C  
BRANCH   8   9
HETATM    9  C   UNL     1     -10.421  10.767  68.967  1.00  0.00    -0.239 A  
HETATM   10  C   UNL     1      -9.196  10.516  68.347  1.00  0.00    -0.154 A  
HETATM   11  C   UNL     1      -8.555  11.525  67.614  1.00  0.00    -0.135 A  
HETATM   12  I   UNL     1      -6.681  11.042  66.767  1.00  0.00    -0.123 I  
HETATM   13  C   UNL     1      -9.110  12.818  67.476  1.00  0.00    -0.193 A  
HETATM   14  C   UNL     1     -10.352  13.058  68.080  1.00  0.00    -0.240 A  
HETATM   15  C   UNL     1     -11.002  12.031  68.794  1.00  0.00    -0.282 A  
HETATM   16  I   UNL     1     -11.333  14.920  68.135  1.00  0.00    -0.352 I  
BRANCH  13  17
HETATM   17  O   UNL     1      -8.257  13.793  67.015  1.00  0.00    -0.144 OA 
BRANCH  17  18
HETATM   18  C   UNL     1      -7.629  14.724  67.804  1.00  0.00    -0.160 A  
HETATM   19  C   UNL     1      -6.980  14.154  68.910  1.00  0.00    -0.109 A  
HETATM   20  C   UNL     1      -6.299  14.949  69.834  1.00  0.00    -0.157 A  
HETATM   21  I   UNL     1      -5.368  14.010  71.450  1.00  0.00    -0.220 I  
HETATM   22  C   UNL     1      -6.273  16.334  69.667  1.00  0.00    -0.195 A  
HETATM   23  C   UNL     1      -6.915  16.906  68.561  1.00  0.00    -0.186 A  
HETATM   24  O   UNL     1      -5.617  17.132  70.572  1.00  0.00    -0.220 OA 
HETATM   25  H   UNL     1      -5.599  18.076  70.458  1.00  0.00     0.000 HD 
HETATM   26  I   UNL     1      -6.988  18.987  68.308  1.00  0.00    -0.322 I  
HETATM   27  C   UNL     1      -7.563  16.101  67.608  1.00  0.00    -0.165 A  
ENDBRANCH  17  18
ENDBRANCH  13  17
ENDBRANCH   8   9
ENDBRANCH   4   8
TORSDOF 4
ENDMDL
MODEL      167
REMARK 921   NORMALIZED FREE ENERGY PREDICTED BY IDOCK:   -3.88 KCAL/MOL
REMARK 922        TOTAL FREE ENERGY PREDICTED BY IDOCK:   -5.55 KCAL/MOL
REMARK 923 INTER-LIGAND FREE ENERGY PREDICTED BY IDOCK:   -5.38 KCAL/MOL
REMARK 924 INTRA-LIGAND FREE ENERGY PREDICTED BY IDOCK:   -0.17 KCAL/MOL
REMARK 927      BINDING AFFINITY PREDICTED BY RF-SCORE:    0.00 PKD
ROOT
HETATM    1  N   UNL     1      -9.816   4.098  70.010  1.00  0.00    -0.216 NA 
HETATM    2  H1  UNL     1      -9.447   3.539  69.241  1.00  0.00     0.000 HD 
HETATM    3  H2  UNL     1      -9.331   4.993  70.065  1.00  0.00     0.000 HD 
HETATM    4  CA  UNL     1      -9.793   3.407  71.336  1.00  0.00    -0.134 C  
HETATM    5  C   UNL     1      -8.329   3.031  71.642  1.00  0.00    -0.064 C  
HETATM    6  OXT UNL     1      -7.876   2.783  72.747  1.00  0.00    -0.055 OA 
HETATM    7  O   UNL     1      -7.583   2.992  70.505  1.00  0.00    -0.043 OA 
ENDROOT
BRANCH   4   8
HETATM    8  C   UNL     1     -10.350   4.252  72.498  1.00  0.00    -0.239 C  
BRANCH   8   9
HETATM    9  C   UNL     1     -10.456   5.749  72.272  1.00  0.00    -0.253 A  
HETATM   10  C   UNL     1     -11.684   6.410  72.227  1.00  0.00    -0.333 A  
HETATM   11  C   UNL     1     -11.733   7.796  72.021  1.00  0.00    -0.304 A  
HETATM   12  I   UNL     1     -13.652   8.676  71.919  1.00  0.00    -0.492 I  
HETATM   13  C   UNL     1     -10.562   8.570  71.850  1.00  0.00    -0.322 A  
HETATM   14  C   UNL     1      -9.330   7.905  71.919  1.00  0.00    -0.154 A  
HETATM   15  C   UNL     1      -9.288   6.516  72.151  1.00  0.00    -0.142 A  
HETATM   16  I   UNL     1      -7.453   8.793  71.573  1.00  0.00     0.032 I  
BRANCH  13  17
HETATM   17  O   UNL     1     -10.746   9.836  71.346  1.00  0.00    -0.267 OA 
BRANCH  17  18
HETATM   18  C   UNL     1     -10.788  10.154  70.012  1.00  0.00    -0.307 A  
HETATM   19  C   UNL     1     -10.271   9.138  69.193  1.00  0.00    -0.215 A  
HETATM   20  C   UNL     1     -10.217   9.290  67.806  1.00  0.00    -0.218 A  
HETATM   21  I   UNL     1      -9.426   7.726  66.671  1.00  0.00    -0.233 I  
HETATM   22  C   UNL     1     -10.670  10.473  67.222  1.00  0.00    -0.277 A  
HETATM   23  C   UNL     1     -11.192  11.487  68.036  1.00  0.00    -0.269 A  
HETATM   24  O   UNL     1     -10.615  10.643  65.860  1.00  0.00    -0.199 OA 
HETATM   25  H   UNL     1     -10.924  11.449  65.462  1.00  0.00     0.000 HD 
HETATM   26  I   UNL     1     -11.802  13.322  67.224  1.00  0.00    -0.311 I  
HETATM   27  C   UNL     1     -11.286  11.316  69.428  1.00  0.00    -0.360 A  
ENDBRANCH  17  18
ENDBRANCH  13  17
ENDBRANCH   8   9
ENDBRANCH   4   8
TORSDOF 4
ENDMDL
MODEL      168
REMARK 921   NORMALIZED FREE ENERGY PREDICTED BY IDOCK:   -3.88 KCAL/MOL
REMARK 922        TOTAL FREE ENERGY PREDICTED BY IDOCK:   -5.54 KCAL/MOL
REMARK 923 INTER-LIGAND FREE ENERGY PREDICTED BY IDOCK:   -4.99 KCAL/MOL
REMARK 924 INTRA-LIGAND FREE ENERGY PREDICTED BY IDOCK:   -0.55 KCAL/MOL
REMARK 927      BINDING AFFINITY PREDICTED BY RF-SCORE:    0.00 PKD
ROOT
HETATM    1  N   UNL     1     -10.128  15.048  69.615  1.00  0.00    -0.401 NA 
HETATM    2  H1  UNL     1      -9.443  15.728  69.945  1.00  0.00     0.000 HD 
HETATM    3  H2  UNL     1      -9.685  14.141  69.466  1.00  0.00     0.000 HD 
HETATM    4  CA  UNL     1     -10.874  15.473  68.392  1.00  0.00    -0.273 C  
HETATM    5  C   UNL     1      -9.840  15.729  67.277  1.00  0.00    -0.230 C  
HETATM    6  OXT UNL     1     -10.076  15.746  66.080  1.00  0.00    -0.277 OA 
HETATM    7  O   UNL     1      -8.604  15.955  67.796  1.00  0.00    -0.158 OA 
ENDROOT
BRANCH   4   8
HETATM    8  C   UNL     1     -11.909  14.444  67.894  1.00  0.00    -0.384 C  
BRANCH   8   9
HETATM    9  C   UNL     1     -11.663  12.991  68.256  1.00  0.00    -0.390 A  
HETATM   10  C   UNL     1     -12.202  12.408  69.405  1.00  0.00    -0.121 A  
HETATM   11  C   UNL     1     -11.952  11.060  69.695  1.00  0.00    -0.353 A  
HETATM   12  I   UNL     1     -12.776  10.305  71.489  1.00  0.00    -0.537 I  
HETATM   13  C   UNL     1     -11.157  10.246  68.855  1.00  0.00    -0.231 A  
HETATM   14  C   UNL     1     -10.639  10.830  67.691  1.00  0.00    -0.231 A  
HETATM   15  C   UNL     1     -10.915  12.179  67.392  1.00  0.00    -0.308 A  
HETATM   16  I   UNL     1      -9.328   9.884  66.342  1.00  0.00    -0.263 I  
BRANCH  13  17
HETATM   17  O   UNL     1     -10.730   9.058  69.398  1.00  0.00    -0.229 OA 
BRANCH  17  18
HETATM   18  C   UNL     1      -9.430   8.767  69.731  1.00  0.00    -0.167 A  
HETATM   19  C   UNL     1      -9.143   7.395  69.663  1.00  0.00    -0.140 A  
HETATM   20  C   UNL     1      -7.874   6.909  69.982  1.00  0.00    -0.110 A  
HETATM   21  I   UNL     1      -7.543   4.851  69.856  1.00  0.00    -0.056 I  
HETATM   22  C   UNL     1      -6.877   7.796  70.389  1.00  0.00    -0.046 A  
HETATM   23  C   UNL     1      -7.159   9.167  70.454  1.00  0.00    -0.079 A  
HETATM   24  O   UNL     1      -5.625   7.334  70.717  1.00  0.00    -0.027 OA 
HETATM   25  H   UNL     1      -4.946   7.937  70.995  1.00  0.00     0.000 HD 
HETATM   26  I   UNL     1      -5.728  10.535  71.147  1.00  0.00     0.251 I  
HETATM   27  C   UNL     1      -8.424   9.660  70.090  1.00  0.00    -0.231 A  
ENDBRANCH  17  18
ENDBRANCH  13  17
ENDBRANCH   8   9
ENDBRANCH   4   8
TORSDOF 4
ENDMDL
MODEL      169
REMARK 921   NORMALIZED FREE ENERGY PREDICTED BY IDOCK:   -3.87 KCAL/MOL
REMARK 922        TOTAL FREE ENERGY PREDICTED BY IDOCK:   -5.53 KCAL/MOL
REMARK 923 INTER-LIGAND FREE ENERGY PREDICTED BY IDOCK:   -4.91 KCAL/MOL
REMARK 924 INTRA-LIGAND FREE ENERGY PREDICTED BY IDOCK:   -0.62 KCAL/MOL
REMARK 927      BINDING AFFINITY PREDICTED BY RF-SCORE:    0.00 PKD
ROOT
HETATM    1  N   UNL     1     -10.375   6.275  69.496  1.00  0.00    -0.195 NA 
HETATM    2  H1  UNL     1      -9.920   5.773  70.259  1.00  0.00     0.000 HD 
HETATM    3  H2  UNL     1     -11.160   5.735  69.133  1.00  0.00     0.000 HD 
HETATM    4  CA  UNL     1      -9.453   6.670  68.388  1.00  0.00    -0.125 C  
HETATM    5  C   UNL     1      -8.810   5.384  67.832  1.00  0.00    -0.105 C  
HETATM    6  OXT UNL     1      -8.294   5.265  66.733  1.00  0.00    -0.108 OA 
HETATM    7  O   UNL     1      -8.871   4.372  68.738  1.00  0.00    -0.092 OA 
ENDROOT
BRANCH   4   8
HETATM    8  C   UNL     1     -10.141   7.429  67.235  1.00  0.00    -0.296 C  
BRANCH   8   9
HETATM    9  C   UNL     1      -9.818   8.904  67.093  1.00  0.00    -0.267 A  
HETATM   10  C   UNL     1     -10.480   9.727  66.180  1.00  0.00    -0.128 A  
HETATM   11  C   UNL     1     -10.151  11.086  66.087  1.00  0.00    -0.237 A  
HETATM   12  I   UNL     1     -11.183  12.217  64.630  1.00  0.00    -0.426 I  
HETATM   13  C   UNL     1      -9.153  11.673  66.898  1.00  0.00    -0.188 A  
HETATM   14  C   UNL     1      -8.508  10.849  67.830  1.00  0.00    -0.129 A  
HETATM   15  C   UNL     1      -8.861   9.488  67.935  1.00  0.00    -0.119 A  
HETATM   16  I   UNL     1      -6.906  11.435  69.063  1.00  0.00    -0.099 I  
BRANCH  13  17
HETATM   17  O   UNL     1      -8.706  12.912  66.502  1.00  0.00    -0.101 OA 
BRANCH  17  18
HETATM   18  C   UNL     1      -8.964  14.088  67.160  1.00  0.00    -0.232 A  
HETATM   19  C   UNL     1     -10.048  13.991  68.047  1.00  0.00    -0.239 A  
HETATM   20  C   UNL     1     -10.467  15.094  68.794  1.00  0.00    -0.234 A  
HETATM   21  I   UNL     1     -12.091  14.854  70.084  1.00  0.00    -0.411 I  
HETATM   22  C   UNL     1      -9.811  16.316  68.649  1.00  0.00    -0.230 A  
HETATM   23  C   UNL     1      -8.726  16.415  67.768  1.00  0.00    -0.180 A  
HETATM   24  O   UNL     1     -10.216  17.414  69.368  1.00  0.00    -0.256 OA 
HETATM   25  H   UNL     1      -9.770  18.247  69.270  1.00  0.00     0.000 HD 
HETATM   26  I   UNL     1      -7.760  18.248  67.440  1.00  0.00    -0.247 I  
HETATM   27  C   UNL     1      -8.277  15.294  67.049  1.00  0.00    -0.267 A  
ENDBRANCH  17  18
ENDBRANCH  13  17
ENDBRANCH   8   9
ENDBRANCH   4   8
TORSDOF 4
ENDMDL
MODEL      170
REMARK 921   NORMALIZED FREE ENERGY PREDICTED BY IDOCK:   -3.87 KCAL/MOL
REMARK 922        TOTAL FREE ENERGY PREDICTED BY IDOCK:   -5.53 KCAL/MOL
REMARK 923 INTER-LIGAND FREE ENERGY PREDICTED BY IDOCK:   -5.14 KCAL/MOL
REMARK 924 INTRA-LIGAND FREE ENERGY PREDICTED BY IDOCK:   -0.39 KCAL/MOL
REMARK 927      BINDING AFFINITY PREDICTED BY RF-SCORE:    0.00 PKD
ROOT
HETATM    1  N   UNL     1     -12.872   7.410  70.714  1.00  0.00    -0.589 NA 
HETATM    2  H1  UNL     1     -13.294   6.495  70.872  1.00  0.00     0.000 HD 
HETATM    3  H2  UNL     1     -12.096   7.336  70.056  1.00  0.00     0.000 HD 
HETATM    4  CA  UNL     1     -12.437   8.108  71.961  1.00  0.00    -0.336 C  
HETATM    5  C   UNL     1     -11.416   7.199  72.675  1.00  0.00    -0.235 C  
HETATM    6  OXT UNL     1     -10.601   7.562  73.507  1.00  0.00    -0.373 OA 
HETATM    7  O   UNL     1     -11.541   5.907  72.271  1.00  0.00    -0.303 OA 
ENDROOT
BRANCH   4   8
HETATM    8  C   UNL     1     -11.799   9.491  71.721  1.00  0.00    -0.430 C  
BRANCH   8   9
HETATM    9  C   UNL     1     -10.785   9.596  70.598  1.00  0.00    -0.388 A  
HETATM   10  C   UNL     1      -9.530   8.988  70.668  1.00  0.00    -0.286 A  
HETATM   11  C   UNL     1      -8.627   9.107  69.603  1.00  0.00    -0.143 A  
HETATM   12  I   UNL     1      -6.740   8.189  69.849  1.00  0.00    -0.044 I  
HETATM   13  C   UNL     1      -8.940   9.837  68.433  1.00  0.00    -0.123 A  
HETATM   14  C   UNL     1     -10.210  10.425  68.357  1.00  0.00    -0.165 A  
HETATM   15  C   UNL     1     -11.122  10.280  69.422  1.00  0.00    -0.299 A  
HETATM   16  I   UNL     1     -10.880  11.664  66.792  1.00  0.00    -0.354 I  
BRANCH  13  17
HETATM   17  O   UNL     1      -7.880  10.144  67.614  1.00  0.00    -0.098 OA 
BRANCH  17  18
HETATM   18  C   UNL     1      -7.656   9.594  66.377  1.00  0.00    -0.101 A  
HETATM   19  C   UNL     1      -7.988   8.231  66.318  1.00  0.00    -0.100 A  
HETATM   20  C   UNL     1      -7.812   7.498  65.143  1.00  0.00    -0.122 A  
HETATM   21  I   UNL     1      -8.330   5.475  65.153  1.00  0.00    -0.107 I  
HETATM   22  C   UNL     1      -7.286   8.122  64.011  1.00  0.00    -0.100 A  
HETATM   23  C   UNL     1      -6.959   9.483  64.065  1.00  0.00    -0.105 A  
HETATM   24  O   UNL     1      -7.097   7.413  62.850  1.00  0.00    -0.067 OA 
HETATM   25  H   UNL     1      -6.739   7.838  62.079  1.00  0.00     0.000 HD 
HETATM   26  I   UNL     1      -6.079  10.451  62.425  1.00  0.00    -0.134 I  
HETATM   27  C   UNL     1      -7.177  10.231  65.235  1.00  0.00    -0.134 A  
ENDBRANCH  17  18
ENDBRANCH  13  17
ENDBRANCH   8   9
ENDBRANCH   4   8
TORSDOF 4
ENDMDL
MODEL      171
REMARK 921   NORMALIZED FREE ENERGY PREDICTED BY IDOCK:   -3.86 KCAL/MOL
REMARK 922        TOTAL FREE ENERGY PREDICTED BY IDOCK:   -5.52 KCAL/MOL
REMARK 923 INTER-LIGAND FREE ENERGY PREDICTED BY IDOCK:   -5.37 KCAL/MOL
REMARK 924 INTRA-LIGAND FREE ENERGY PREDICTED BY IDOCK:   -0.15 KCAL/MOL
REMARK 927      BINDING AFFINITY PREDICTED BY RF-SCORE:    0.00 PKD
ROOT
HETATM    1  N   UNL     1     -10.419  17.624  66.703  1.00  0.00    -0.319 NA 
HETATM    2  H1  UNL     1     -10.971  18.424  67.014  1.00  0.00     0.000 HD 
HETATM    3  H2  UNL     1     -10.636  16.801  67.266  1.00  0.00     0.000 HD 
HETATM    4  CA  UNL     1      -8.945  17.869  66.679  1.00  0.00    -0.268 C  
HETATM    5  C   UNL     1      -8.511  18.256  68.108  1.00  0.00    -0.278 C  
HETATM    6  OXT UNL     1      -7.376  18.188  68.549  1.00  0.00    -0.259 OA 
HETATM    7  O   UNL     1      -9.567  18.710  68.836  1.00  0.00    -0.340 OA 
ENDROOT
BRANCH   4   8
HETATM    8  C   UNL     1      -8.112  16.660  66.210  1.00  0.00    -0.361 C  
BRANCH   8   9
HETATM    9  C   UNL     1      -8.346  15.343  66.925  1.00  0.00    -0.290 A  
HETATM   10  C   UNL     1      -7.411  14.796  67.805  1.00  0.00    -0.178 A  
HETATM   11  C   UNL     1      -7.674  13.578  68.448  1.00  0.00    -0.135 A  
HETATM   12  I   UNL     1      -6.160  12.825  69.715  1.00  0.00    -0.019 I  
HETATM   13  C   UNL     1      -8.875  12.862  68.235  1.00  0.00    -0.168 A  
HETATM   14  C   UNL     1      -9.821  13.427  67.369  1.00  0.00    -0.227 A  
HETATM   15  C   UNL     1      -9.560  14.664  66.745  1.00  0.00    -0.266 A  
HETATM   16  I   UNL     1     -11.625  12.514  66.782  1.00  0.00    -0.353 I  
BRANCH  13  17
HETATM   17  O   UNL     1      -8.880  11.555  68.662  1.00  0.00    -0.163 OA 
BRANCH  17  18
HETATM   18  C   UNL     1      -8.893  10.458  67.838  1.00  0.00    -0.125 A  
HETATM   19  C   UNL     1      -8.097  10.627  66.693  1.00  0.00    -0.136 A  
HETATM   20  C   UNL     1      -8.000   9.620  65.731  1.00  0.00    -0.109 A  
HETATM   21  I   UNL     1      -6.795   9.964  64.060  1.00  0.00    -0.082 I  
HETATM   22  C   UNL     1      -8.713   8.433  65.897  1.00  0.00    -0.169 A  
HETATM   23  C   UNL     1      -9.505   8.260  67.040  1.00  0.00    -0.176 A  
HETATM   24  O   UNL     1      -8.637   7.437  64.954  1.00  0.00    -0.347 OA 
HETATM   25  H   UNL     1      -9.124   6.628  65.067  1.00  0.00     0.000 HD 
HETATM   26  I   UNL     1     -10.672   6.537  67.299  1.00  0.00    -0.446 I  
HETATM   27  C   UNL     1      -9.568   9.256  68.031  1.00  0.00    -0.161 A  
ENDBRANCH  17  18
ENDBRANCH  13  17
ENDBRANCH   8   9
ENDBRANCH   4   8
TORSDOF 4
ENDMDL
MODEL      172
REMARK 921   NORMALIZED FREE ENERGY PREDICTED BY IDOCK:   -3.86 KCAL/MOL
REMARK 922        TOTAL FREE ENERGY PREDICTED BY IDOCK:   -5.52 KCAL/MOL
REMARK 923 INTER-LIGAND FREE ENERGY PREDICTED BY IDOCK:   -5.97 KCAL/MOL
REMARK 924 INTRA-LIGAND FREE ENERGY PREDICTED BY IDOCK:    0.45 KCAL/MOL
REMARK 927      BINDING AFFINITY PREDICTED BY RF-SCORE:    0.00 PKD
ROOT
HETATM    1  N   UNL     1     -12.239   6.766  71.465  1.00  0.00    -0.356 NA 
HETATM    2  H1  UNL     1     -12.582   5.905  71.891  1.00  0.00     0.000 HD 
HETATM    3  H2  UNL     1     -11.496   6.561  70.797  1.00  0.00     0.000 HD 
HETATM    4  CA  UNL     1     -11.792   7.799  72.447  1.00  0.00    -0.321 C  
HETATM    5  C   UNL     1     -10.669   7.178  73.302  1.00  0.00    -0.361 C  
HETATM    6  OXT UNL     1      -9.841   7.799  73.947  1.00  0.00    -0.188 OA 
HETATM    7  O   UNL     1     -10.718   5.819  73.267  1.00  0.00    -0.236 OA 
ENDROOT
BRANCH   4   8
HETATM    8  C   UNL     1     -11.273   9.100  71.802  1.00  0.00    -0.451 C  
BRANCH   8   9
HETATM    9  C   UNL     1     -10.575   8.973  70.462  1.00  0.00    -0.274 A  
HETATM   10  C   UNL     1     -10.838   7.922  69.581  1.00  0.00    -0.177 A  
HETATM   11  C   UNL     1     -10.171   7.849  68.350  1.00  0.00    -0.202 A  
HETATM   12  I   UNL     1     -10.614   6.184  67.126  1.00  0.00    -0.419 I  
HETATM   13  C   UNL     1      -9.219   8.816  67.954  1.00  0.00    -0.139 A  
HETATM   14  C   UNL     1      -8.975   9.882  68.831  1.00  0.00    -0.153 A  
HETATM   15  C   UNL     1      -9.668   9.963  70.056  1.00  0.00    -0.274 A  
HETATM   16  I   UNL     1      -7.524  11.380  68.545  1.00  0.00    -0.122 I  
BRANCH  13  17
HETATM   17  O   UNL     1      -8.416   8.471  66.892  1.00  0.00    -0.111 OA 
BRANCH  17  18
HETATM   18  C   UNL     1      -8.259   9.217  65.751  1.00  0.00    -0.117 A  
HETATM   19  C   UNL     1      -9.387   9.995  65.447  1.00  0.00    -0.284 A  
HETATM   20  C   UNL     1      -9.416  10.808  64.313  1.00  0.00    -0.264 A  
HETATM   21  I   UNL     1     -11.140  11.926  63.942  1.00  0.00    -0.550 I  
HETATM   22  C   UNL     1      -8.315  10.840  63.457  1.00  0.00     0.020 A  
HETATM   23  C   UNL     1      -7.186  10.067  63.759  1.00  0.00    -0.128 A  
HETATM   24  O   UNL     1      -8.331  11.625  62.330  1.00  0.00    -0.636 OA 
HETATM   25  H   UNL     1      -7.581  11.647  61.747  1.00  0.00     0.000 HD 
HETATM   26  I   UNL     1      -5.538  10.003  62.462  1.00  0.00    -0.124 I  
HETATM   27  C   UNL     1      -7.140   9.283  64.925  1.00  0.00    -0.101 A  
ENDBRANCH  17  18
ENDBRANCH  13  17
ENDBRANCH   8   9
ENDBRANCH   4   8
TORSDOF 4
ENDMDL
MODEL      173
REMARK 921   NORMALIZED FREE ENERGY PREDICTED BY IDOCK:   -3.80 KCAL/MOL
REMARK 922        TOTAL FREE ENERGY PREDICTED BY IDOCK:   -5.44 KCAL/MOL
REMARK 923 INTER-LIGAND FREE ENERGY PREDICTED BY IDOCK:   -4.73 KCAL/MOL
REMARK 924 INTRA-LIGAND FREE ENERGY PREDICTED BY IDOCK:   -0.71 KCAL/MOL
REMARK 927      BINDING AFFINITY PREDICTED BY RF-SCORE:    0.00 PKD
ROOT
HETATM    1  N   UNL     1     -11.724   9.406  71.570  1.00  0.00    -0.369 NA 
HETATM    2  H1  UNL     1     -12.729   9.571  71.515  1.00  0.00     0.000 HD 
HETATM    3  H2  UNL     1     -11.329   9.296  70.636  1.00  0.00     0.000 HD 
HETATM    4  CA  UNL     1     -11.341   8.252  72.440  1.00  0.00    -0.388 C  
HETATM    5  C   UNL     1     -12.029   6.992  71.878  1.00  0.00    -0.320 C  
HETATM    6  OXT UNL     1     -11.689   5.841  72.094  1.00  0.00    -0.263 OA 
HETATM    7  O   UNL     1     -13.098   7.320  71.103  1.00  0.00    -0.341 OA 
ENDROOT
BRANCH   4   8
HETATM    8  C   UNL     1      -9.822   8.002  72.524  1.00  0.00    -0.330 C  
BRANCH   8   9
HETATM    9  C   UNL     1      -9.018   8.218  71.256  1.00  0.00    -0.200 A  
HETATM   10  C   UNL     1      -8.104   9.264  71.121  1.00  0.00    -0.046 A  
HETATM   11  C   UNL     1      -7.379   9.420  69.932  1.00  0.00    -0.088 A  
HETATM   12  I   UNL     1      -6.065  11.072  69.829  1.00  0.00    -0.139 I  
HETATM   13  C   UNL     1      -7.541   8.543  68.835  1.00  0.00    -0.096 A  
HETATM   14  C   UNL     1      -8.442   7.480  68.982  1.00  0.00    -0.133 A  
HETATM   15  C   UNL     1      -9.149   7.315  70.191  1.00  0.00    -0.148 A  
HETATM   16  I   UNL     1      -8.963   6.113  67.469  1.00  0.00    -0.108 I  
BRANCH  13  17
HETATM   17  O   UNL     1      -7.025   8.977  67.636  1.00  0.00    -0.073 OA 
BRANCH  17  18
HETATM   18  C   UNL     1      -7.740   9.624  66.660  1.00  0.00    -0.098 A  
HETATM   19  C   UNL     1      -7.240   9.389  65.370  1.00  0.00    -0.092 A  
HETATM   20  C   UNL     1      -7.831   9.978  64.251  1.00  0.00    -0.144 A  
HETATM   21  I   UNL     1      -7.013   9.573  62.373  1.00  0.00    -0.113 I  
HETATM   22  C   UNL     1      -8.928  10.825  64.413  1.00  0.00    -0.161 A  
HETATM   23  C   UNL     1      -9.433  11.058  65.700  1.00  0.00    -0.217 A  
HETATM   24  O   UNL     1      -9.515  11.421  63.324  1.00  0.00    -0.345 OA 
HETATM   25  H   UNL     1     -10.262  11.998  63.435  1.00  0.00     0.000 HD 
HETATM   26  I   UNL     1     -11.019  12.393  66.015  1.00  0.00    -0.382 I  
HETATM   27  C   UNL     1      -8.864  10.430  66.822  1.00  0.00    -0.139 A  
ENDBRANCH  17  18
ENDBRANCH  13  17
ENDBRANCH   8   9
ENDBRANCH   4   8
TORSDOF 4
ENDMDL
MODEL      174
REMARK 921   NORMALIZED FREE ENERGY PREDICTED BY IDOCK:   -3.79 KCAL/MOL
REMARK 922        TOTAL FREE ENERGY PREDICTED BY IDOCK:   -5.43 KCAL/MOL
REMARK 923 INTER-LIGAND FREE ENERGY PREDICTED BY IDOCK:   -5.54 KCAL/MOL
REMARK 924 INTRA-LIGAND FREE ENERGY PREDICTED BY IDOCK:    0.10 KCAL/MOL
REMARK 927      BINDING AFFINITY PREDICTED BY RF-SCORE:    0.00 PKD
ROOT
HETATM    1  N   UNL     1     -12.080  14.685  67.314  1.00  0.00    -0.529 NA 
HETATM    2  H1  UNL     1     -11.818  15.629  67.596  1.00  0.00     0.000 HD 
HETATM    3  H2  UNL     1     -13.095  14.599  67.255  1.00  0.00     0.000 HD 
HETATM    4  CA  UNL     1     -11.513  13.607  68.181  1.00  0.00    -0.313 C  
HETATM    5  C   UNL     1     -12.003  13.858  69.621  1.00  0.00    -0.342 C  
HETATM    6  OXT UNL     1     -12.042  13.027  70.513  1.00  0.00    -0.355 OA 
HETATM    7  O   UNL     1     -12.383  15.152  69.793  1.00  0.00    -0.300 OA 
ENDROOT
BRANCH   4   8
HETATM    8  C   UNL     1     -11.909  12.180  67.754  1.00  0.00    -0.327 C  
BRANCH   8   9
HETATM    9  C   UNL     1     -10.794  11.157  67.653  1.00  0.00    -0.295 A  
HETATM   10  C   UNL     1     -10.218  10.801  66.432  1.00  0.00    -0.294 A  
HETATM   11  C   UNL     1      -9.185   9.855  66.388  1.00  0.00    -0.158 A  
HETATM   12  I   UNL     1      -8.430   9.359  64.478  1.00  0.00    -0.213 I  
HETATM   13  C   UNL     1      -8.692   9.228  67.556  1.00  0.00    -0.115 A  
HETATM   14  C   UNL     1      -9.257   9.605  68.782  1.00  0.00    -0.141 A  
HETATM   15  C   UNL     1     -10.278  10.577  68.821  1.00  0.00    -0.205 A  
HETATM   16  I   UNL     1      -8.799   8.741  70.645  1.00  0.00    -0.288 I  
BRANCH  13  17
HETATM   17  O   UNL     1      -7.918   8.109  67.357  1.00  0.00    -0.114 OA 
BRANCH  17  18
HETATM   18  C   UNL     1      -8.341   6.817  67.545  1.00  0.00    -0.122 A  
HETATM   19  C   UNL     1      -8.626   6.155  66.341  1.00  0.00    -0.131 A  
HETATM   20  C   UNL     1      -9.084   4.836  66.336  1.00  0.00    -0.119 A  
HETATM   21  I   UNL     1      -9.485   3.937  64.494  1.00  0.00    -0.185 I  
HETATM   22  C   UNL     1      -9.278   4.167  67.544  1.00  0.00    -0.157 A  
HETATM   23  C   UNL     1      -8.990   4.823  68.748  1.00  0.00    -0.106 A  
HETATM   24  O   UNL     1      -9.738   2.873  67.558  1.00  0.00    -0.355 OA 
HETATM   25  H   UNL     1      -9.871   2.417  68.381  1.00  0.00     0.000 HD 
HETATM   26  I   UNL     1      -9.349   3.901  70.598  1.00  0.00    -0.254 I  
HETATM   27  C   UNL     1      -8.487   6.136  68.751  1.00  0.00    -0.118 A  
ENDBRANCH  17  18
ENDBRANCH  13  17
ENDBRANCH   8   9
ENDBRANCH   4   8
TORSDOF 4
ENDMDL
MODEL      175
REMARK 921   NORMALIZED FREE ENERGY PREDICTED BY IDOCK:   -3.78 KCAL/MOL
REMARK 922        TOTAL FREE ENERGY PREDICTED BY IDOCK:   -5.42 KCAL/MOL
REMARK 923 INTER-LIGAND FREE ENERGY PREDICTED BY IDOCK:   -4.87 KCAL/MOL
REMARK 924 INTRA-LIGAND FREE ENERGY PREDICTED BY IDOCK:   -0.54 KCAL/MOL
REMARK 927      BINDING AFFINITY PREDICTED BY RF-SCORE:    0.00 PKD
ROOT
HETATM    1  N   UNL     1     -10.446   5.563  69.416  1.00  0.00    -0.284 NA 
HETATM    2  H1  UNL     1      -9.928   4.796  69.845  1.00  0.00     0.000 HD 
HETATM    3  H2  UNL     1     -11.437   5.332  69.351  1.00  0.00     0.000 HD 
HETATM    4  CA  UNL     1      -9.919   5.989  68.084  1.00  0.00    -0.147 C  
HETATM    5  C   UNL     1      -9.965   4.763  67.148  1.00  0.00    -0.190 C  
HETATM    6  OXT UNL     1      -9.953   4.800  65.929  1.00  0.00    -0.191 OA 
HETATM    7  O   UNL     1     -10.009   3.604  67.858  1.00  0.00    -0.010 OA 
ENDROOT
BRANCH   4   8
HETATM    8  C   UNL     1     -10.701   7.148  67.436  1.00  0.00    -0.368 C  
BRANCH   8   9
HETATM    9  C   UNL     1     -10.109   8.538  67.569  1.00  0.00    -0.282 A  
HETATM   10  C   UNL     1      -8.815   8.841  67.141  1.00  0.00    -0.137 A  
HETATM   11  C   UNL     1      -8.312  10.142  67.280  1.00  0.00    -0.121 A  
HETATM   12  I   UNL     1      -6.322  10.464  66.645  1.00  0.00    -0.103 I  
HETATM   13  C   UNL     1      -9.077  11.185  67.851  1.00  0.00    -0.150 A  
HETATM   14  C   UNL     1     -10.383  10.882  68.258  1.00  0.00    -0.173 A  
HETATM   15  C   UNL     1     -10.892   9.577  68.092  1.00  0.00    -0.208 A  
HETATM   16  I   UNL     1     -11.683  12.209  69.248  1.00  0.00    -0.311 I  
BRANCH  13  17
HETATM   17  O   UNL     1      -8.379  12.311  68.219  1.00  0.00    -0.167 OA 
BRANCH  17  18
HETATM   18  C   UNL     1      -8.423  13.514  67.560  1.00  0.00    -0.192 A  
HETATM   19  C   UNL     1      -7.251  14.269  67.723  1.00  0.00    -0.188 A  
HETATM   20  C   UNL     1      -7.119  15.529  67.137  1.00  0.00    -0.136 A  
HETATM   21  I   UNL     1      -5.340  16.580  67.441  1.00  0.00    -0.080 I  
HETATM   22  C   UNL     1      -8.172  16.056  66.388  1.00  0.00    -0.274 A  
HETATM   23  C   UNL     1      -9.341  15.303  66.219  1.00  0.00    -0.310 A  
HETATM   24  O   UNL     1      -8.064  17.299  65.813  1.00  0.00    -0.527 OA 
HETATM   25  H   UNL     1      -8.780  17.658  65.303  1.00  0.00     0.000 HD 
HETATM   26  I   UNL     1     -10.990  16.081  65.182  1.00  0.00    -0.027 I  
HETATM   27  C   UNL     1      -9.456  14.016  66.773  1.00  0.00    -0.292 A  
ENDBRANCH  17  18
ENDBRANCH  13  17
ENDBRANCH   8   9
ENDBRANCH   4   8
TORSDOF 4
ENDMDL
MODEL      176
REMARK 921   NORMALIZED FREE ENERGY PREDICTED BY IDOCK:   -3.69 KCAL/MOL
REMARK 922        TOTAL FREE ENERGY PREDICTED BY IDOCK:   -5.31 KCAL/MOL
REMARK 923 INTER-LIGAND FREE ENERGY PREDICTED BY IDOCK:   -5.13 KCAL/MOL
REMARK 924 INTRA-LIGAND FREE ENERGY PREDICTED BY IDOCK:   -0.18 KCAL/MOL
REMARK 927      BINDING AFFINITY PREDICTED BY RF-SCORE:    0.00 PKD
ROOT
HETATM    1  N   UNL     1     -10.986  11.695  67.525  1.00  0.00    -0.242 NA 
HETATM    2  H1  UNL     1     -11.232  10.789  67.125  1.00  0.00     0.000 HD 
HETATM    3  H2  UNL     1     -10.005  11.706  67.807  1.00  0.00     0.000 HD 
HETATM    4  CA  UNL     1     -11.861  12.122  68.658  1.00  0.00    -0.306 C  
HETATM    5  C   UNL     1     -11.767  11.043  69.756  1.00  0.00    -0.335 C  
HETATM    6  OXT UNL     1     -12.047  11.201  70.932  1.00  0.00    -0.346 OA 
HETATM    7  O   UNL     1     -11.336   9.858  69.245  1.00  0.00    -0.177 OA 
ENDROOT
BRANCH   4   8
HETATM    8  C   UNL     1     -11.490  13.491  69.262  1.00  0.00    -0.345 C  
BRANCH   8   9
HETATM    9  C   UNL     1     -10.439  14.303  68.529  1.00  0.00    -0.253 A  
HETATM   10  C   UNL     1     -10.766  15.414  67.749  1.00  0.00    -0.289 A  
HETATM   11  C   UNL     1      -9.760  16.138  67.095  1.00  0.00    -0.233 A  
HETATM   12  I   UNL     1     -10.384  17.766  65.900  1.00  0.00     0.198 I  
HETATM   13  C   UNL     1      -8.395  15.782  67.192  1.00  0.00    -0.202 A  
HETATM   14  C   UNL     1      -8.069  14.680  67.995  1.00  0.00    -0.135 A  
HETATM   15  C   UNL     1      -9.084  13.972  68.670  1.00  0.00    -0.107 A  
HETATM   16  I   UNL     1      -6.140  13.865  68.209  1.00  0.00    -0.156 I  
BRANCH  13  17
HETATM   17  O   UNL     1      -7.555  16.359  66.269  1.00  0.00    -0.234 OA 
BRANCH  17  18
HETATM   18  C   UNL     1      -6.937  17.575  66.421  1.00  0.00    -0.280 A  
HETATM   19  C   UNL     1      -6.797  17.952  67.767  1.00  0.00    -0.194 A  
HETATM   20  C   UNL     1      -6.205  19.167  68.115  1.00  0.00    -0.218 A  
HETATM   21  I   UNL     1      -6.044  19.642  70.142  1.00  0.00    -0.206 I  
HETATM   22  C   UNL     1      -5.757  20.030  67.115  1.00  0.00    -0.167 A  
HETATM   23  C   UNL     1      -5.892  19.656  65.772  1.00  0.00    -0.167 A  
HETATM   24  O   UNL     1      -5.182  21.235  67.440  1.00  0.00    -0.240 OA 
HETATM   25  H   UNL     1      -4.878  21.823  66.759  1.00  0.00     0.000 HD 
HETATM   26  I   UNL     1      -5.323  20.951  64.223  1.00  0.00    -0.245 I  
HETATM   27  C   UNL     1      -6.448  18.413  65.422  1.00  0.00    -0.249 A  
ENDBRANCH  17  18
ENDBRANCH  13  17
ENDBRANCH   8   9
ENDBRANCH   4   8
TORSDOF 4
ENDMDL
MODEL      177
REMARK 921   NORMALIZED FREE ENERGY PREDICTED BY IDOCK:   -3.69 KCAL/MOL
REMARK 922        TOTAL FREE ENERGY PREDICTED BY IDOCK:   -5.30 KCAL/MOL
REMARK 923 INTER-LIGAND FREE ENERGY PREDICTED BY IDOCK:   -4.78 KCAL/MOL
REMARK 924 INTRA-LIGAND FREE ENERGY PREDICTED BY IDOCK:   -0.53 KCAL/MOL
REMARK 927      BINDING AFFINITY PREDICTED BY RF-SCORE:    0.00 PKD
ROOT
HETATM    1  N   UNL     1     -10.225  17.503  68.473  1.00  0.00    -0.357 NA 
HETATM    2  H1  UNL     1     -10.681  18.205  67.890  1.00  0.00     0.000 HD 
HETATM    3  H2  UNL     1     -10.158  17.830  69.437  1.00  0.00     0.000 HD 
HETATM    4  CA  UNL     1      -8.886  17.067  67.974  1.00  0.00    -0.223 C  
HETATM    5  C   UNL     1      -7.986  18.317  67.893  1.00  0.00    -0.254 C  
HETATM    6  OXT UNL     1      -6.766  18.314  67.870  1.00  0.00    -0.202 OA 
HETATM    7  O   UNL     1      -8.729  19.455  67.834  1.00  0.00    -0.301 OA 
ENDROOT
BRANCH   4   8
HETATM    8  C   UNL     1      -8.198  16.007  68.856  1.00  0.00    -0.223 C  
BRANCH   8   9
HETATM    9  C   UNL     1      -8.350  14.557  68.435  1.00  0.00    -0.153 A  
HETATM   10  C   UNL     1      -7.289  13.651  68.486  1.00  0.00    -0.114 A  
HETATM   11  C   UNL     1      -7.479  12.319  68.091  1.00  0.00    -0.112 A  
HETATM   12  I   UNL     1      -5.786  11.057  68.162  1.00  0.00    -0.045 I  
HETATM   13  C   UNL     1      -8.728  11.844  67.631  1.00  0.00    -0.162 A  
HETATM   14  C   UNL     1      -9.796  12.752  67.604  1.00  0.00    -0.214 A  
HETATM   15  C   UNL     1      -9.605  14.083  68.026  1.00  0.00    -0.217 A  
HETATM   16  I   UNL     1     -11.717  12.340  66.847  1.00  0.00    -0.091 I  
BRANCH  13  17
HETATM   17  O   UNL     1      -8.709  10.631  66.984  1.00  0.00    -0.127 OA 
BRANCH  17  18
HETATM   18  C   UNL     1      -9.196   9.457  67.502  1.00  0.00    -0.123 A  
HETATM   19  C   UNL     1      -9.532   9.557  68.861  1.00  0.00    -0.155 A  
HETATM   20  C   UNL     1     -10.030   8.457  69.562  1.00  0.00    -0.190 A  
HETATM   21  I   UNL     1     -10.498   8.702  71.582  1.00  0.00    -0.428 I  
HETATM   22  C   UNL     1     -10.182   7.233  68.910  1.00  0.00    -0.193 A  
HETATM   23  C   UNL     1      -9.852   7.131  67.552  1.00  0.00    -0.151 A  
HETATM   24  O   UNL     1     -10.660   6.138  69.587  1.00  0.00    -0.224 OA 
HETATM   25  H   UNL     1     -10.764   5.304  69.143  1.00  0.00     0.000 HD 
HETATM   26  I   UNL     1      -9.972   5.296  66.543  1.00  0.00    -0.295 I  
HETATM   27  C   UNL     1      -9.393   8.250  66.836  1.00  0.00    -0.222 A  
ENDBRANCH  17  18
ENDBRANCH  13  17
ENDBRANCH   8   9
ENDBRANCH   4   8
TORSDOF 4
ENDMDL
MODEL      178
REMARK 921   NORMALIZED FREE ENERGY PREDICTED BY IDOCK:   -3.67 KCAL/MOL
REMARK 922        TOTAL FREE ENERGY PREDICTED BY IDOCK:   -5.29 KCAL/MOL
REMARK 923 INTER-LIGAND FREE ENERGY PREDICTED BY IDOCK:   -4.88 KCAL/MOL
REMARK 924 INTRA-LIGAND FREE ENERGY PREDICTED BY IDOCK:   -0.41 KCAL/MOL
REMARK 927      BINDING AFFINITY PREDICTED BY RF-SCORE:    0.00 PKD
ROOT
HETATM    1  N   UNL     1     -13.204   7.806  70.851  1.00  0.00    -0.536 NA 
HETATM    2  H1  UNL     1     -13.755   6.972  71.057  1.00  0.00     0.000 HD 
HETATM    3  H2  UNL     1     -12.508   7.605  70.133  1.00  0.00     0.000 HD 
HETATM    4  CA  UNL     1     -12.557   8.424  72.049  1.00  0.00    -0.356 C  
HETATM    5  C   UNL     1     -11.643   7.360  72.689  1.00  0.00    -0.250 C  
HETATM    6  OXT UNL     1     -10.713   7.585  73.446  1.00  0.00    -0.387 OA 
HETATM    7  O   UNL     1     -12.011   6.105  72.315  1.00  0.00    -0.318 OA 
ENDROOT
BRANCH   4   8
HETATM    8  C   UNL     1     -11.725   9.683  71.737  1.00  0.00    -0.356 C  
BRANCH   8   9
HETATM    9  C   UNL     1     -10.780   9.608  70.553  1.00  0.00    -0.374 A  
HETATM   10  C   UNL     1      -9.594   8.873  70.591  1.00  0.00    -0.262 A  
HETATM   11  C   UNL     1      -8.755   8.828  69.469  1.00  0.00    -0.138 A  
HETATM   12  I   UNL     1      -6.962   7.726  69.666  1.00  0.00    -0.048 I  
HETATM   13  C   UNL     1      -9.065   9.514  68.272  1.00  0.00    -0.127 A  
HETATM   14  C   UNL     1     -10.269  10.231  68.230  1.00  0.00    -0.159 A  
HETATM   15  C   UNL     1     -11.120  10.252  69.354  1.00  0.00    -0.299 A  
HETATM   16  I   UNL     1     -10.906  11.437  66.627  1.00  0.00    -0.275 I  
BRANCH  13  17
HETATM   17  O   UNL     1      -8.034   9.653  67.374  1.00  0.00    -0.105 OA 
BRANCH  17  18
HETATM   18  C   UNL     1      -7.865   8.891  66.245  1.00  0.00    -0.102 A  
HETATM   19  C   UNL     1      -7.271   9.601  65.190  1.00  0.00    -0.115 A  
HETATM   20  C   UNL     1      -7.035   8.993  63.956  1.00  0.00    -0.087 A  
HETATM   21  I   UNL     1      -6.150  10.131  62.446  1.00  0.00    -0.149 I  
HETATM   22  C   UNL     1      -7.407   7.663  63.759  1.00  0.00    -0.093 A  
HETATM   23  C   UNL     1      -7.997   6.950  64.811  1.00  0.00    -0.119 A  
HETATM   24  O   UNL     1      -7.192   7.052  62.548  1.00  0.00    -0.058 OA 
HETATM   25  H   UNL     1      -7.446   6.146  62.413  1.00  0.00     0.000 HD 
HETATM   26  I   UNL     1      -8.661   4.978  64.545  1.00  0.00    -0.031 I  
HETATM   27  C   UNL     1      -8.194   7.550  66.067  1.00  0.00    -0.130 A  
ENDBRANCH  17  18
ENDBRANCH  13  17
ENDBRANCH   8   9
ENDBRANCH   4   8
TORSDOF 4
ENDMDL
MODEL      179
REMARK 921   NORMALIZED FREE ENERGY PREDICTED BY IDOCK:   -3.66 KCAL/MOL
REMARK 922        TOTAL FREE ENERGY PREDICTED BY IDOCK:   -5.27 KCAL/MOL
REMARK 923 INTER-LIGAND FREE ENERGY PREDICTED BY IDOCK:   -4.52 KCAL/MOL
REMARK 924 INTRA-LIGAND FREE ENERGY PREDICTED BY IDOCK:   -0.74 KCAL/MOL
REMARK 927      BINDING AFFINITY PREDICTED BY RF-SCORE:    0.00 PKD
ROOT
HETATM    1  N   UNL     1      -7.374   3.312  65.840  1.00  0.00    -0.071 NA 
HETATM    2  H1  UNL     1      -7.291   2.860  64.929  1.00  0.00     0.000 HD 
HETATM    3  H2  UNL     1      -7.684   2.642  66.544  1.00  0.00     0.000 HD 
HETATM    4  CA  UNL     1      -8.253   4.521  65.845  1.00  0.00    -0.110 C  
HETATM    5  C   UNL     1      -9.653   4.084  65.369  1.00  0.00    -0.188 C  
HETATM    6  OXT UNL     1     -10.693   4.690  65.572  1.00  0.00    -0.275 OA 
HETATM    7  O   UNL     1      -9.593   2.922  64.666  1.00  0.00    -0.153 OA 
ENDROOT
BRANCH   4   8
HETATM    8  C   UNL     1      -8.378   5.204  67.222  1.00  0.00    -0.106 C  
BRANCH   8   9
HETATM    9  C   UNL     1      -8.169   6.706  67.266  1.00  0.00    -0.121 A  
HETATM   10  C   UNL     1      -7.614   7.349  68.374  1.00  0.00    -0.114 A  
HETATM   11  C   UNL     1      -7.435   8.739  68.367  1.00  0.00    -0.091 A  
HETATM   12  I   UNL     1      -6.635   9.603  70.122  1.00  0.00    -0.125 I  
HETATM   13  C   UNL     1      -7.804   9.537  67.260  1.00  0.00    -0.098 A  
HETATM   14  C   UNL     1      -8.339   8.885  66.141  1.00  0.00    -0.122 A  
HETATM   15  C   UNL     1      -8.493   7.484  66.145  1.00  0.00    -0.147 A  
HETATM   16  I   UNL     1      -9.084   9.843  64.421  1.00  0.00    -0.252 I  
BRANCH  13  17
HETATM   17  O   UNL     1      -7.876  10.891  67.491  1.00  0.00    -0.110 OA 
BRANCH  17  18
HETATM   18  C   UNL     1      -9.025  11.576  67.799  1.00  0.00    -0.160 A  
HETATM   19  C   UNL     1      -9.151  12.778  67.084  1.00  0.00    -0.219 A  
HETATM   20  C   UNL     1     -10.250  13.617  67.277  1.00  0.00    -0.246 A  
HETATM   21  I   UNL     1     -10.348  15.385  66.171  1.00  0.00    -0.401 I  
HETATM   22  C   UNL     1     -11.232  13.268  68.204  1.00  0.00    -0.270 A  
HETATM   23  C   UNL     1     -11.111  12.067  68.916  1.00  0.00    -0.247 A  
HETATM   24  O   UNL     1     -12.314  14.087  68.415  1.00  0.00    -0.533 OA 
HETATM   25  H   UNL     1     -12.983  13.850  69.046  1.00  0.00     0.000 HD 
HETATM   26  I   UNL     1     -12.507  11.535  70.388  1.00  0.00    -0.151 I  
HETATM   27  C   UNL     1     -10.027  11.201  68.689  1.00  0.00    -0.210 A  
ENDBRANCH  17  18
ENDBRANCH  13  17
ENDBRANCH   8   9
ENDBRANCH   4   8
TORSDOF 4
ENDMDL
MODEL      180
REMARK 921   NORMALIZED FREE ENERGY PREDICTED BY IDOCK:   -3.65 KCAL/MOL
REMARK 922        TOTAL FREE ENERGY PREDICTED BY IDOCK:   -5.26 KCAL/MOL
REMARK 923 INTER-LIGAND FREE ENERGY PREDICTED BY IDOCK:   -5.15 KCAL/MOL
REMARK 924 INTRA-LIGAND FREE ENERGY PREDICTED BY IDOCK:   -0.11 KCAL/MOL
REMARK 927      BINDING AFFINITY PREDICTED BY RF-SCORE:    0.00 PKD
ROOT
HETATM    1  N   UNL     1      -8.561   5.669  66.997  1.00  0.00    -0.110 NA 
HETATM    2  H1  UNL     1      -7.950   4.872  67.176  1.00  0.00     0.000 HD 
HETATM    3  H2  UNL     1      -8.151   6.524  67.372  1.00  0.00     0.000 HD 
HETATM    4  CA  UNL     1      -9.958   5.494  67.498  1.00  0.00    -0.160 C  
HETATM    5  C   UNL     1      -9.882   5.248  69.019  1.00  0.00    -0.167 C  
HETATM    6  OXT UNL     1     -10.797   5.407  69.811  1.00  0.00    -0.297 OA 
HETATM    7  O   UNL     1      -8.649   4.806  69.385  1.00  0.00    -0.082 OA 
ENDROOT
BRANCH   4   8
HETATM    8  C   UNL     1     -10.881   6.698  67.228  1.00  0.00    -0.456 C  
BRANCH   8   9
HETATM    9  C   UNL     1     -10.252   8.076  67.295  1.00  0.00    -0.345 A  
HETATM   10  C   UNL     1     -10.513   9.062  66.342  1.00  0.00    -0.110 A  
HETATM   11  C   UNL     1      -9.913  10.324  66.448  1.00  0.00    -0.229 A  
HETATM   12  I   UNL     1     -10.343  11.715  64.916  1.00  0.00    -0.383 I  
HETATM   13  C   UNL     1      -9.030  10.648  67.504  1.00  0.00    -0.135 A  
HETATM   14  C   UNL     1      -8.789   9.663  68.472  1.00  0.00    -0.124 A  
HETATM   15  C   UNL     1      -9.417   8.405  68.372  1.00  0.00    -0.145 A  
HETATM   16  I   UNL     1      -7.428   9.840  70.068  1.00  0.00    -0.162 I  
BRANCH  13  17
HETATM   17  O   UNL     1      -8.272  11.782  67.329  1.00  0.00    -0.148 OA 
BRANCH  17  18
HETATM   18  C   UNL     1      -8.638  13.042  67.729  1.00  0.00    -0.189 A  
HETATM   19  C   UNL     1      -7.681  14.017  67.405  1.00  0.00    -0.177 A  
HETATM   20  C   UNL     1      -7.874  15.357  67.747  1.00  0.00    -0.143 A  
HETATM   21  I   UNL     1      -6.392  16.733  67.228  1.00  0.00    -0.249 I  
HETATM   22  C   UNL     1      -9.027  15.735  68.435  1.00  0.00    -0.187 A  
HETATM   23  C   UNL     1      -9.987  14.765  68.756  1.00  0.00    -0.234 A  
HETATM   24  O   UNL     1      -9.228  17.047  68.789  1.00  0.00    -0.261 OA 
HETATM   25  H   UNL     1     -10.014  17.305  69.258  1.00  0.00     0.000 HD 
HETATM   26  I   UNL     1     -11.695  15.258  69.868  1.00  0.00    -0.446 I  
HETATM   27  C   UNL     1      -9.812  13.424  68.372  1.00  0.00    -0.216 A  
ENDBRANCH  17  18
ENDBRANCH  13  17
ENDBRANCH   8   9
ENDBRANCH   4   8
TORSDOF 4
ENDMDL
MODEL      181
REMARK 921   NORMALIZED FREE ENERGY PREDICTED BY IDOCK:   -3.64 KCAL/MOL
REMARK 922        TOTAL FREE ENERGY PREDICTED BY IDOCK:   -5.25 KCAL/MOL
REMARK 923 INTER-LIGAND FREE ENERGY PREDICTED BY IDOCK:   -4.93 KCAL/MOL
REMARK 924 INTRA-LIGAND FREE ENERGY PREDICTED BY IDOCK:   -0.32 KCAL/MOL
REMARK 927      BINDING AFFINITY PREDICTED BY RF-SCORE:    0.00 PKD
ROOT
HETATM    1  N   UNL     1     -10.581  10.968  68.157  1.00  0.00    -0.180 NA 
HETATM    2  H1  UNL     1     -10.529   9.972  67.946  1.00  0.00     0.000 HD 
HETATM    3  H2  UNL     1      -9.766  11.263  68.695  1.00  0.00     0.000 HD 
HETATM    4  CA  UNL     1     -11.841  11.382  68.848  1.00  0.00    -0.347 C  
HETATM    5  C   UNL     1     -11.939  10.582  70.163  1.00  0.00    -0.316 C  
HETATM    6  OXT UNL     1     -12.615  10.887  71.131  1.00  0.00    -0.368 OA 
HETATM    7  O   UNL     1     -11.175   9.458  70.112  1.00  0.00    -0.242 OA 
ENDROOT
BRANCH   4   8
HETATM    8  C   UNL     1     -11.920  12.888  69.167  1.00  0.00    -0.308 C  
BRANCH   8   9
HETATM    9  C   UNL     1     -10.888  13.786  68.511  1.00  0.00    -0.280 A  
HETATM   10  C   UNL     1     -11.206  14.632  67.448  1.00  0.00    -0.351 A  
HETATM   11  C   UNL     1     -10.220  15.449  66.876  1.00  0.00    -0.273 A  
HETATM   12  I   UNL     1     -10.809  16.646  65.238  1.00  0.00     0.298 I  
HETATM   13  C   UNL     1      -8.885  15.449  67.341  1.00  0.00    -0.183 A  
HETATM   14  C   UNL     1      -8.576  14.615  68.425  1.00  0.00    -0.169 A  
HETATM   15  C   UNL     1      -9.578  13.816  69.010  1.00  0.00     0.174 A  
HETATM   16  I   UNL     1      -6.650  14.332  69.225  1.00  0.00    -0.111 I  
BRANCH  13  17
HETATM   17  O   UNL     1      -7.959  16.039  66.513  1.00  0.00    -0.266 OA 
BRANCH  17  18
HETATM   18  C   UNL     1      -7.330  17.234  66.761  1.00  0.00    -0.213 A  
HETATM   19  C   UNL     1      -6.807  17.826  65.601  1.00  0.00    -0.109 A  
HETATM   20  C   UNL     1      -6.119  19.039  65.660  1.00  0.00    -0.216 A  
HETATM   21  I   UNL     1      -5.373  19.841  63.882  1.00  0.00    -0.336 I  
HETATM   22  C   UNL     1      -5.933  19.669  66.891  1.00  0.00    -0.172 A  
HETATM   23  C   UNL     1      -6.457  19.082  68.051  1.00  0.00    -0.224 A  
HETATM   24  O   UNL     1      -5.248  20.857  66.970  1.00  0.00    -0.172 OA 
HETATM   25  H   UNL     1      -5.121  21.286  67.808  1.00  0.00     0.000 HD 
HETATM   26  I   UNL     1      -6.129  19.933  69.939  1.00  0.00    -0.343 I  
HETATM   27  C   UNL     1      -7.188  17.883  67.984  1.00  0.00    -0.220 A  
ENDBRANCH  17  18
ENDBRANCH  13  17
ENDBRANCH   8   9
ENDBRANCH   4   8
TORSDOF 4
ENDMDL
MODEL      182
REMARK 921   NORMALIZED FREE ENERGY PREDICTED BY IDOCK:   -3.64 KCAL/MOL
REMARK 922        TOTAL FREE ENERGY PREDICTED BY IDOCK:   -5.25 KCAL/MOL
REMARK 923 INTER-LIGAND FREE ENERGY PREDICTED BY IDOCK:   -5.38 KCAL/MOL
REMARK 924 INTRA-LIGAND FREE ENERGY PREDICTED BY IDOCK:    0.14 KCAL/MOL
REMARK 927      BINDING AFFINITY PREDICTED BY RF-SCORE:    0.00 PKD
ROOT
HETATM    1  N   UNL     1     -10.294  10.154  66.458  1.00  0.00    -0.223 NA 
HETATM    2  H1  UNL     1      -9.810   9.436  65.920  1.00  0.00     0.000 HD 
HETATM    3  H2  UNL     1      -9.740  11.010  66.490  1.00  0.00     0.000 HD 
HETATM    4  CA  UNL     1     -10.680   9.729  67.838  1.00  0.00    -0.258 C  
HETATM    5  C   UNL     1      -9.391   9.324  68.582  1.00  0.00    -0.139 C  
HETATM    6  OXT UNL     1      -9.259   9.262  69.793  1.00  0.00    -0.158 OA 
HETATM    7  O   UNL     1      -8.394   9.020  67.708  1.00  0.00    -0.116 OA 
ENDROOT
BRANCH   4   8
HETATM    8  C   UNL     1     -11.412  10.814  68.652  1.00  0.00    -0.365 C  
BRANCH   8   9
HETATM    9  C   UNL     1     -10.702  12.144  68.819  1.00  0.00    -0.252 A  
HETATM   10  C   UNL     1      -9.418  12.372  68.320  1.00  0.00    -0.203 A  
HETATM   11  C   UNL     1      -8.804  13.620  68.494  1.00  0.00    -0.099 A  
HETATM   12  I   UNL     1      -6.840  13.826  67.743  1.00  0.00    -0.105 I  
HETATM   13  C   UNL     1      -9.444  14.683  69.172  1.00  0.00    -0.066 A  
HETATM   14  C   UNL     1     -10.742  14.457  69.651  1.00  0.00    -0.055 A  
HETATM   15  C   UNL     1     -11.363  13.208  69.450  1.00  0.00    -0.276 A  
HETATM   16  I   UNL     1     -11.865  15.819  70.798  1.00  0.00    -0.401 I  
BRANCH  13  17
HETATM   17  O   UNL     1      -8.636  15.728  69.552  1.00  0.00    -0.249 OA 
BRANCH  17  18
HETATM   18  C   UNL     1      -8.558  16.937  68.906  1.00  0.00    -0.206 A  
HETATM   19  C   UNL     1      -7.428  17.682  69.277  1.00  0.00     0.014 A  
HETATM   20  C   UNL     1      -7.190  18.946  68.734  1.00  0.00    -0.318 A  
HETATM   21  I   UNL     1      -5.485  19.981  69.352  1.00  0.00    -0.335 I  
HETATM   22  C   UNL     1      -8.093  19.487  67.819  1.00  0.00    -0.296 A  
HETATM   23  C   UNL     1      -9.220  18.743  67.442  1.00  0.00    -0.282 A  
HETATM   24  O   UNL     1      -7.880  20.733  67.283  1.00  0.00    -0.421 OA 
HETATM   25  H   UNL     1      -8.495  21.102  66.659  1.00  0.00     0.000 HD 
HETATM   26  I   UNL     1     -10.659  19.541  66.142  1.00  0.00    -0.294 I  
HETATM   27  C   UNL     1      -9.436  17.452  67.956  1.00  0.00    -0.281 A  
ENDBRANCH  17  18
ENDBRANCH  13  17
ENDBRANCH   8   9
ENDBRANCH   4   8
TORSDOF 4
ENDMDL
MODEL      183
REMARK 921   NORMALIZED FREE ENERGY PREDICTED BY IDOCK:   -3.64 KCAL/MOL
REMARK 922        TOTAL FREE ENERGY PREDICTED BY IDOCK:   -5.25 KCAL/MOL
REMARK 923 INTER-LIGAND FREE ENERGY PREDICTED BY IDOCK:   -5.07 KCAL/MOL
REMARK 924 INTRA-LIGAND FREE ENERGY PREDICTED BY IDOCK:   -0.17 KCAL/MOL
REMARK 927      BINDING AFFINITY PREDICTED BY RF-SCORE:    0.00 PKD
ROOT
HETATM    1  N   UNL     1     -10.476  12.513  63.092  1.00  0.00    -0.560 NA 
HETATM    2  H1  UNL     1     -10.239  13.369  62.589  1.00  0.00     0.000 HD 
HETATM    3  H2  UNL     1     -11.102  11.933  62.533  1.00  0.00     0.000 HD 
HETATM    4  CA  UNL     1     -11.049  12.742  64.453  1.00  0.00    -0.349 C  
HETATM    5  C   UNL     1     -12.321  13.598  64.289  1.00  0.00    -0.335 C  
HETATM    6  OXT UNL     1     -13.225  13.690  65.102  1.00  0.00    -0.739 OA 
HETATM    7  O   UNL     1     -12.312  14.270  63.106  1.00  0.00    -0.531 OA 
ENDROOT
BRANCH   4   8
HETATM    8  C   UNL     1     -11.406  11.449  65.212  1.00  0.00    -0.069 C  
BRANCH   8   9
HETATM    9  C   UNL     1     -10.293  10.437  65.410  1.00  0.00    -0.270 A  
HETATM   10  C   UNL     1      -9.412  10.088  64.385  1.00  0.00    -0.349 A  
HETATM   11  C   UNL     1      -8.395   9.151  64.616  1.00  0.00    -0.172 A  
HETATM   12  I   UNL     1      -7.159   8.664  62.973  1.00  0.00    -0.093 I  
HETATM   13  C   UNL     1      -8.221   8.529  65.874  1.00  0.00    -0.125 A  
HETATM   14  C   UNL     1      -9.092   8.901  66.907  1.00  0.00    -0.133 A  
HETATM   15  C   UNL     1     -10.097   9.861  66.674  1.00  0.00    -0.297 A  
HETATM   16  I   UNL     1      -9.132   8.040  68.828  1.00  0.00    -0.141 I  
BRANCH  13  17
HETATM   17  O   UNL     1      -7.411   7.418  65.888  1.00  0.00    -0.071 OA 
BRANCH  17  18
HETATM   18  C   UNL     1      -7.853   6.122  65.802  1.00  0.00    -0.105 A  
HETATM   19  C   UNL     1      -7.222   5.267  66.720  1.00  0.00    -0.078 A  
HETATM   20  C   UNL     1      -7.533   3.907  66.767  1.00  0.00    -0.076 A  
HETATM   21  I   UNL     1      -6.539   2.715  68.164  1.00  0.00    -0.036 I  
HETATM   22  C   UNL     1      -8.474   3.382  65.881  1.00  0.00    -0.110 A  
HETATM   23  C   UNL     1      -9.109   4.233  64.967  1.00  0.00    -0.146 A  
HETATM   24  O   UNL     1      -8.784   2.044  65.907  1.00  0.00    -0.108 OA 
HETATM   25  H   UNL     1      -9.425   1.686  65.303  1.00  0.00     0.000 HD 
HETATM   26  I   UNL     1     -10.462   3.484  63.550  1.00  0.00    -0.201 I  
HETATM   27  C   UNL     1      -8.827   5.610  64.949  1.00  0.00     0.023 A  
ENDBRANCH  17  18
ENDBRANCH  13  17
ENDBRANCH   8   9
ENDBRANCH   4   8
TORSDOF 4
ENDMDL
MODEL      184
REMARK 921   NORMALIZED FREE ENERGY PREDICTED BY IDOCK:   -3.62 KCAL/MOL
REMARK 922        TOTAL FREE ENERGY PREDICTED BY IDOCK:   -5.22 KCAL/MOL
REMARK 923 INTER-LIGAND FREE ENERGY PREDICTED BY IDOCK:   -4.47 KCAL/MOL
REMARK 924 INTRA-LIGAND FREE ENERGY PREDICTED BY IDOCK:   -0.75 KCAL/MOL
REMARK 927      BINDING AFFINITY PREDICTED BY RF-SCORE:    0.00 PKD
ROOT
HETATM    1  N   UNL     1      -6.262   2.938  72.146  1.00  0.00    -0.013 NA 
HETATM    2  H1  UNL     1      -6.398   1.928  72.119  1.00  0.00     0.000 HD 
HETATM    3  H2  UNL     1      -6.040   3.243  73.094  1.00  0.00     0.000 HD 
HETATM    4  CA  UNL     1      -7.407   3.726  71.597  1.00  0.00    -0.051 C  
HETATM    5  C   UNL     1      -8.661   3.363  72.419  1.00  0.00    -0.084 C  
HETATM    6  OXT UNL     1      -9.675   4.036  72.502  1.00  0.00    -0.137 OA 
HETATM    7  O   UNL     1      -8.508   2.166  73.047  1.00  0.00    -0.061 OA 
ENDROOT
BRANCH   4   8
HETATM    8  C   UNL     1      -7.201   5.253  71.639  1.00  0.00    -0.076 C  
BRANCH   8   9
HETATM    9  C   UNL     1      -7.414   6.011  70.343  1.00  0.00    -0.090 A  
HETATM   10  C   UNL     1      -6.647   7.125  69.996  1.00  0.00    -0.050 A  
HETATM   11  C   UNL     1      -6.875   7.791  68.784  1.00  0.00    -0.059 A  
HETATM   12  I   UNL     1      -5.687   9.495  68.396  1.00  0.00    -0.039 I  
HETATM   13  C   UNL     1      -7.876   7.374  67.877  1.00  0.00    -0.118 A  
HETATM   14  C   UNL     1      -8.628   6.241  68.218  1.00  0.00    -0.117 A  
HETATM   15  C   UNL     1      -8.376   5.561  69.426  1.00  0.00    -0.101 A  
HETATM   16  I   UNL     1     -10.254   5.488  67.113  1.00  0.00    -0.319 I  
BRANCH  13  17
HETATM   17  O   UNL     1      -8.213   8.276  66.896  1.00  0.00    -0.102 OA 
BRANCH  17  18
HETATM   18  C   UNL     1      -9.191   9.233  67.009  1.00  0.00    -0.138 A  
HETATM   19  C   UNL     1      -9.438   9.906  65.802  1.00  0.00    -0.280 A  
HETATM   20  C   UNL     1     -10.390  10.925  65.729  1.00  0.00    -0.241 A  
HETATM   21  I   UNL     1     -10.685  11.871  63.891  1.00  0.00    -0.598 I  
HETATM   22  C   UNL     1     -11.099  11.292  66.873  1.00  0.00    -0.275 A  
HETATM   23  C   UNL     1     -10.857  10.619  68.078  1.00  0.00    -0.261 A  
HETATM   24  O   UNL     1     -12.031  12.299  66.822  1.00  0.00    -0.586 OA 
HETATM   25  H   UNL     1     -12.514  12.550  67.601  1.00  0.00     0.000 HD 
HETATM   26  I   UNL     1     -11.825  11.189  69.850  1.00  0.00    -0.482 I  
HETATM   27  C   UNL     1      -9.930   9.564  68.141  1.00  0.00    -0.191 A  
ENDBRANCH  17  18
ENDBRANCH  13  17
ENDBRANCH   8   9
ENDBRANCH   4   8
TORSDOF 4
ENDMDL
MODEL      185
REMARK 921   NORMALIZED FREE ENERGY PREDICTED BY IDOCK:   -3.61 KCAL/MOL
REMARK 922        TOTAL FREE ENERGY PREDICTED BY IDOCK:   -5.20 KCAL/MOL
REMARK 923 INTER-LIGAND FREE ENERGY PREDICTED BY IDOCK:   -4.88 KCAL/MOL
REMARK 924 INTRA-LIGAND FREE ENERGY PREDICTED BY IDOCK:   -0.33 KCAL/MOL
REMARK 927      BINDING AFFINITY PREDICTED BY RF-SCORE:    0.00 PKD
ROOT
HETATM    1  N   UNL     1     -10.014   4.281  71.866  1.00  0.00    -0.182 NA 
HETATM    2  H1  UNL     1      -9.263   3.747  72.303  1.00  0.00     0.000 HD 
HETATM    3  H2  UNL     1      -9.644   4.874  71.123  1.00  0.00     0.000 HD 
HETATM    4  CA  UNL     1     -10.828   5.089  72.824  1.00  0.00    -0.244 C  
HETATM    5  C   UNL     1      -9.873   6.060  73.547  1.00  0.00    -0.171 C  
HETATM    6  OXT UNL     1     -10.202   7.085  74.121  1.00  0.00    -0.345 OA 
HETATM    7  O   UNL     1      -8.586   5.624  73.483  1.00  0.00    -0.115 OA 
ENDROOT
BRANCH   4   8
HETATM    8  C   UNL     1     -11.963   5.897  72.163  1.00  0.00    -0.191 C  
BRANCH   8   9
HETATM    9  C   UNL     1     -11.598   6.727  70.947  1.00  0.00    -0.403 A  
HETATM   10  C   UNL     1     -11.628   8.123  70.962  1.00  0.00    -0.301 A  
HETATM   11  C   UNL     1     -11.278   8.849  69.815  1.00  0.00    -0.006 A  
HETATM   12  I   UNL     1     -11.414  10.954  69.944  1.00  0.00    -0.406 I  
HETATM   13  C   UNL     1     -10.888   8.212  68.615  1.00  0.00     0.083 A  
HETATM   14  C   UNL     1     -10.836   6.811  68.612  1.00  0.00    -0.224 A  
HETATM   15  C   UNL     1     -11.166   6.089  69.776  1.00  0.00    -0.440 A  
HETATM   16  I   UNL     1     -10.413   5.618  66.931  1.00  0.00    -0.283 I  
BRANCH  13  17
HETATM   17  O   UNL     1     -10.878   9.003  67.490  1.00  0.00    -0.232 OA 
BRANCH  17  18
HETATM   18  C   UNL     1      -9.774   9.251  66.713  1.00  0.00    -0.200 A  
HETATM   19  C   UNL     1      -8.574   9.205  67.440  1.00  0.00    -0.115 A  
HETATM   20  C   UNL     1      -7.348   9.449  66.819  1.00  0.00    -0.086 A  
HETATM   21  I   UNL     1      -5.616   9.363  67.983  1.00  0.00    -0.036 I  
HETATM   22  C   UNL     1      -7.311   9.757  65.458  1.00  0.00    -0.112 A  
HETATM   23  C   UNL     1      -8.507   9.800  64.729  1.00  0.00    -0.164 A  
HETATM   24  O   UNL     1      -6.114  10.011  64.834  1.00  0.00    -0.098 OA 
HETATM   25  H   UNL     1      -6.088  10.221  63.907  1.00  0.00     0.000 HD 
HETATM   26  I   UNL     1      -8.522  10.348  62.705  1.00  0.00    -0.290 I  
HETATM   27  C   UNL     1      -9.737   9.511  65.346  1.00  0.00    -0.314 A  
ENDBRANCH  17  18
ENDBRANCH  13  17
ENDBRANCH   8   9
ENDBRANCH   4   8
TORSDOF 4
ENDMDL
MODEL      186
REMARK 921   NORMALIZED FREE ENERGY PREDICTED BY IDOCK:   -3.60 KCAL/MOL
REMARK 922        TOTAL FREE ENERGY PREDICTED BY IDOCK:   -5.20 KCAL/MOL
REMARK 923 INTER-LIGAND FREE ENERGY PREDICTED BY IDOCK:   -4.85 KCAL/MOL
REMARK 924 INTRA-LIGAND FREE ENERGY PREDICTED BY IDOCK:   -0.35 KCAL/MOL
REMARK 927      BINDING AFFINITY PREDICTED BY RF-SCORE:    0.00 PKD
ROOT
HETATM    1  N   UNL     1     -11.103  16.491  68.022  1.00  0.00    -0.319 NA 
HETATM    2  H1  UNL     1     -11.191  17.408  68.460  1.00  0.00     0.000 HD 
HETATM    3  H2  UNL     1     -10.528  15.875  68.597  1.00  0.00     0.000 HD 
HETATM    4  CA  UNL     1     -10.588  16.529  66.619  1.00  0.00    -0.216 C  
HETATM    5  C   UNL     1      -9.205  17.210  66.646  1.00  0.00    -0.260 C  
HETATM    6  OXT UNL     1      -8.348  17.110  65.784  1.00  0.00    -0.519 OA 
HETATM    7  O   UNL     1      -9.051  17.968  67.765  1.00  0.00    -0.256 OA 
ENDROOT
BRANCH   4   8
HETATM    8  C   UNL     1     -10.456  15.143  65.958  1.00  0.00    -0.330 C  
BRANCH   8   9
HETATM    9  C   UNL     1     -10.031  13.992  66.851  1.00  0.00    -0.263 A  
HETATM   10  C   UNL     1     -10.942  13.283  67.635  1.00  0.00    -0.281 A  
HETATM   11  C   UNL     1     -10.504  12.223  68.441  1.00  0.00    -0.233 A  
HETATM   12  I   UNL     1     -11.966  11.260  69.624  1.00  0.00    -0.384 I  
HETATM   13  C   UNL     1      -9.145  11.834  68.495  1.00  0.00    -0.144 A  
HETATM   14  C   UNL     1      -8.238  12.534  67.688  1.00  0.00    -0.172 A  
HETATM   15  C   UNL     1      -8.690  13.582  66.862  1.00  0.00    -0.158 A  
HETATM   16  I   UNL     1      -6.153  12.244  67.675  1.00  0.00    -0.152 I  
BRANCH  13  17
HETATM   17  O   UNL     1      -8.796  11.010  69.540  1.00  0.00     0.105 OA 
BRANCH  17  18
HETATM   18  C   UNL     1      -8.410   9.699  69.413  1.00  0.00    -0.145 A  
HETATM   19  C   UNL     1      -9.332   8.926  68.689  1.00  0.00    -0.140 A  
HETATM   20  C   UNL     1      -9.115   7.565  68.471  1.00  0.00    -0.134 A  
HETATM   21  I   UNL     1     -10.546   6.497  67.388  1.00  0.00    -0.493 I  
HETATM   22  C   UNL     1      -7.973   6.955  68.991  1.00  0.00    -0.116 A  
HETATM   23  C   UNL     1      -7.049   7.724  69.710  1.00  0.00    -0.066 A  
HETATM   24  O   UNL     1      -7.749   5.614  68.795  1.00  0.00    -0.086 OA 
HETATM   25  H   UNL     1      -6.971   5.198  69.150  1.00  0.00     0.000 HD 
HETATM   26  I   UNL     1      -5.362   6.845  70.593  1.00  0.00    -0.024 I  
HETATM   27  C   UNL     1      -7.246   9.105  69.891  1.00  0.00    -0.062 A  
ENDBRANCH  17  18
ENDBRANCH  13  17
ENDBRANCH   8   9
ENDBRANCH   4   8
TORSDOF 4
ENDMDL
MODEL      187
REMARK 921   NORMALIZED FREE ENERGY PREDICTED BY IDOCK:   -3.59 KCAL/MOL
REMARK 922        TOTAL FREE ENERGY PREDICTED BY IDOCK:   -5.18 KCAL/MOL
REMARK 923 INTER-LIGAND FREE ENERGY PREDICTED BY IDOCK:   -4.81 KCAL/MOL
REMARK 924 INTRA-LIGAND FREE ENERGY PREDICTED BY IDOCK:   -0.37 KCAL/MOL
REMARK 927      BINDING AFFINITY PREDICTED BY RF-SCORE:    0.00 PKD
ROOT
HETATM    1  N   UNL     1      -8.720   3.072  72.778  1.00  0.00    -0.083 NA 
HETATM    2  H1  UNL     1      -9.255   2.210  72.668  1.00  0.00     0.000 HD 
HETATM    3  H2  UNL     1      -8.402   3.174  73.741  1.00  0.00     0.000 HD 
HETATM    4  CA  UNL     1      -9.443   4.302  72.332  1.00  0.00    -0.129 C  
HETATM    5  C   UNL     1     -10.743   4.406  73.156  1.00  0.00    -0.220 C  
HETATM    6  OXT UNL     1     -11.397   5.422  73.326  1.00  0.00    -0.289 OA 
HETATM    7  O   UNL     1     -11.094   3.199  73.675  1.00  0.00    -0.218 OA 
ENDROOT
BRANCH   4   8
HETATM    8  C   UNL     1      -8.635   5.604  72.497  1.00  0.00    -0.124 C  
BRANCH   8   9
HETATM    9  C   UNL     1      -8.519   6.501  71.280  1.00  0.00    -0.126 A  
HETATM   10  C   UNL     1      -7.603   7.552  71.213  1.00  0.00    -0.081 A  
HETATM   11  C   UNL     1      -7.527   8.352  70.064  1.00  0.00    -0.063 A  
HETATM   12  I   UNL     1      -6.140   9.945  70.104  1.00  0.00    -0.100 I  
HETATM   13  C   UNL     1      -8.361   8.134  68.943  1.00  0.00    -0.125 A  
HETATM   14  C   UNL     1      -9.263   7.063  69.005  1.00  0.00    -0.137 A  
HETATM   15  C   UNL     1      -9.316   6.248  70.154  1.00  0.00    -0.165 A  
HETATM   16  I   UNL     1     -10.697   6.600  67.536  1.00  0.00    -0.424 I  
BRANCH  13  17
HETATM   17  O   UNL     1      -8.416   9.157  68.026  1.00  0.00    -0.120 OA 
BRANCH  17  18
HETATM   18  C   UNL     1      -9.251  10.243  68.109  1.00  0.00    -0.136 A  
HETATM   19  C   UNL     1     -10.223  10.110  69.113  1.00  0.00    -0.229 A  
HETATM   20  C   UNL     1     -11.171  11.110  69.334  1.00  0.00    -0.270 A  
HETATM   21  I   UNL     1     -12.580  10.819  70.847  1.00  0.00    -0.469 I  
HETATM   22  C   UNL     1     -11.166  12.256  68.537  1.00  0.00    -0.271 A  
HETATM   23  C   UNL     1     -10.194  12.394  67.537  1.00  0.00    -0.209 A  
HETATM   24  O   UNL     1     -12.098  13.245  68.734  1.00  0.00    -0.326 OA 
HETATM   25  H   UNL     1     -12.095  14.025  68.191  1.00  0.00     0.000 HD 
HETATM   26  I   UNL     1     -10.194  14.050  66.250  1.00  0.00    -0.334 I  
HETATM   27  C   UNL     1      -9.212  11.406  67.344  1.00  0.00    -0.164 A  
ENDBRANCH  17  18
ENDBRANCH  13  17
ENDBRANCH   8   9
ENDBRANCH   4   8
TORSDOF 4
ENDMDL
MODEL      188
REMARK 921   NORMALIZED FREE ENERGY PREDICTED BY IDOCK:   -3.58 KCAL/MOL
REMARK 922        TOTAL FREE ENERGY PREDICTED BY IDOCK:   -5.17 KCAL/MOL
REMARK 923 INTER-LIGAND FREE ENERGY PREDICTED BY IDOCK:   -5.80 KCAL/MOL
REMARK 924 INTRA-LIGAND FREE ENERGY PREDICTED BY IDOCK:    0.63 KCAL/MOL
REMARK 927      BINDING AFFINITY PREDICTED BY RF-SCORE:    0.00 PKD
ROOT
HETATM    1  N   UNL     1     -14.357   8.430  70.913  1.00  0.00    -0.565 NA 
HETATM    2  H1  UNL     1     -14.706   7.471  70.915  1.00  0.00     0.000 HD 
HETATM    3  H2  UNL     1     -13.718   8.575  70.132  1.00  0.00     0.000 HD 
HETATM    4  CA  UNL     1     -13.719   8.852  72.197  1.00  0.00    -0.474 C  
HETATM    5  C   UNL     1     -12.547   7.889  72.477  1.00  0.00    -0.035 C  
HETATM    6  OXT UNL     1     -11.603   8.115  73.216  1.00  0.00    -0.168 OA 
HETATM    7  O   UNL     1     -12.698   6.721  71.797  1.00  0.00    -0.362 OA 
ENDROOT
BRANCH   4   8
HETATM    8  C   UNL     1     -13.192  10.300  72.194  1.00  0.00    -0.443 C  
BRANCH   8   9
HETATM    9  C   UNL     1     -12.312  10.710  71.028  1.00  0.00    -0.507 A  
HETATM   10  C   UNL     1     -11.649   9.775  70.230  1.00  0.00    -0.283 A  
HETATM   11  C   UNL     1     -10.850  10.200  69.160  1.00  0.00    -0.226 A  
HETATM   12  I   UNL     1      -9.855   8.695  68.059  1.00  0.00    -0.248 I  
HETATM   13  C   UNL     1     -10.682  11.569  68.847  1.00  0.00    -0.207 A  
HETATM   14  C   UNL     1     -11.368  12.503  69.636  1.00  0.00    -0.112 A  
HETATM   15  C   UNL     1     -12.189  12.066  70.695  1.00  0.00    -0.409 A  
HETATM   16  I   UNL     1     -11.192  14.593  69.467  1.00  0.00    -0.285 I  
BRANCH  13  17
HETATM   17  O   UNL     1      -9.644  11.868  67.996  1.00  0.00    -0.180 OA 
BRANCH  17  18
HETATM   18  C   UNL     1      -9.724  11.861  66.626  1.00  0.00    -0.205 A  
HETATM   19  C   UNL     1     -10.706  12.733  66.131  1.00  0.00    -0.297 A  
HETATM   20  C   UNL     1     -10.943  12.848  64.760  1.00  0.00    -0.318 A  
HETATM   21  I   UNL     1     -12.428  14.169  64.120  1.00  0.00     0.402 I  
HETATM   22  C   UNL     1     -10.204  12.075  63.864  1.00  0.00    -0.398 A  
HETATM   23  C   UNL     1      -9.219  11.206  64.354  1.00  0.00    -0.107 A  
HETATM   24  O   UNL     1     -10.430  12.167  62.513  1.00  0.00     0.022 OA 
HETATM   25  H   UNL     1      -9.927  11.640  61.902  1.00  0.00     0.000 HD 
HETATM   26  I   UNL     1      -8.142   9.952  63.064  1.00  0.00    -0.192 I  
HETATM   27  C   UNL     1      -8.952  11.123  65.732  1.00  0.00    -0.207 A  
ENDBRANCH  17  18
ENDBRANCH  13  17
ENDBRANCH   8   9
ENDBRANCH   4   8
TORSDOF 4
ENDMDL
MODEL      189
REMARK 921   NORMALIZED FREE ENERGY PREDICTED BY IDOCK:   -3.58 KCAL/MOL
REMARK 922        TOTAL FREE ENERGY PREDICTED BY IDOCK:   -5.17 KCAL/MOL
REMARK 923 INTER-LIGAND FREE ENERGY PREDICTED BY IDOCK:   -5.10 KCAL/MOL
REMARK 924 INTRA-LIGAND FREE ENERGY PREDICTED BY IDOCK:   -0.07 KCAL/MOL
REMARK 927      BINDING AFFINITY PREDICTED BY RF-SCORE:    0.00 PKD
ROOT
HETATM    1  N   UNL     1     -10.860   6.657  73.743  1.00  0.00    -0.488 NA 
HETATM    2  H1  UNL     1     -10.892   5.640  73.826  1.00  0.00     0.000 HD 
HETATM    3  H2  UNL     1     -11.523   7.088  74.387  1.00  0.00     0.000 HD 
HETATM    4  CA  UNL     1     -11.072   7.164  72.354  1.00  0.00    -0.266 C  
HETATM    5  C   UNL     1     -12.450   6.662  71.877  1.00  0.00    -0.287 C  
HETATM    6  OXT UNL     1     -13.106   7.143  70.968  1.00  0.00    -0.305 OA 
HETATM    7  O   UNL     1     -12.855   5.581  72.596  1.00  0.00     0.190 OA 
ENDROOT
BRANCH   4   8
HETATM    8  C   UNL     1     -11.024   8.700  72.228  1.00  0.00    -0.392 C  
BRANCH   8   9
HETATM    9  C   UNL     1     -10.218   9.272  71.078  1.00  0.00    -0.384 A  
HETATM   10  C   UNL     1      -8.826   9.174  71.022  1.00  0.00    -0.267 A  
HETATM   11  C   UNL     1      -8.124   9.713  69.935  1.00  0.00    -0.171 A  
HETATM   12  I   UNL     1      -6.017   9.550  69.990  1.00  0.00    -0.057 I  
HETATM   13  C   UNL     1      -8.780  10.369  68.869  1.00  0.00    -0.157 A  
HETATM   14  C   UNL     1     -10.179  10.444  68.917  1.00  0.00    -0.205 A  
HETATM   15  C   UNL     1     -10.881   9.878  70.001  1.00  0.00    -0.339 A  
HETATM   16  I   UNL     1     -11.387  11.470  67.532  1.00  0.00    -0.262 I  
BRANCH  13  17
HETATM   17  O   UNL     1      -7.980  11.119  68.040  1.00  0.00    -0.108 OA 
BRANCH  17  18
HETATM   18  C   UNL     1      -7.917  12.490  68.038  1.00  0.00    -0.153 A  
HETATM   19  C   UNL     1      -6.956  12.994  68.928  1.00  0.00    -0.088 A  
HETATM   20  C   UNL     1      -6.760  14.369  69.073  1.00  0.00    -0.107 A  
HETATM   21  I   UNL     1      -5.311  15.024  70.426  1.00  0.00    -0.139 I  
HETATM   22  C   UNL     1      -7.540  15.260  68.335  1.00  0.00    -0.116 A  
HETATM   23  C   UNL     1      -8.497  14.760  67.442  1.00  0.00    -0.201 A  
HETATM   24  O   UNL     1      -7.368  16.616  68.473  1.00  0.00    -0.180 OA 
HETATM   25  H   UNL     1      -7.899  17.223  67.970  1.00  0.00     0.000 HD 
HETATM   26  I   UNL     1      -9.760  16.050  66.374  1.00  0.00    -0.398 I  
HETATM   27  C   UNL     1      -8.663  13.375  67.264  1.00  0.00    -0.219 A  
ENDBRANCH  17  18
ENDBRANCH  13  17
ENDBRANCH   8   9
ENDBRANCH   4   8
TORSDOF 4
ENDMDL
MODEL      190
REMARK 921   NORMALIZED FREE ENERGY PREDICTED BY IDOCK:   -3.58 KCAL/MOL
REMARK 922        TOTAL FREE ENERGY PREDICTED BY IDOCK:   -5.17 KCAL/MOL
REMARK 923 INTER-LIGAND FREE ENERGY PREDICTED BY IDOCK:   -5.46 KCAL/MOL
REMARK 924 INTRA-LIGAND FREE ENERGY PREDICTED BY IDOCK:    0.29 KCAL/MOL
REMARK 927      BINDING AFFINITY PREDICTED BY RF-SCORE:    0.00 PKD
ROOT
HETATM    1  N   UNL     1      -6.705  11.593  70.315  1.00  0.00    -0.468 NA 
HETATM    2  H1  UNL     1      -5.857  11.287  70.792  1.00  0.00     0.000 HD 
HETATM    3  H2  UNL     1      -7.357  12.008  70.980  1.00  0.00     0.000 HD 
HETATM    4  CA  UNL     1      -7.380  10.522  69.519  1.00  0.00    -0.148 C  
HETATM    5  C   UNL     1      -7.730   9.371  70.484  1.00  0.00    -0.161 C  
HETATM    6  OXT UNL     1      -8.571   8.510  70.286  1.00  0.00    -0.126 OA 
HETATM    7  O   UNL     1      -6.963   9.419  71.605  1.00  0.00    -0.316 OA 
ENDROOT
BRANCH   4   8
HETATM    8  C   UNL     1      -8.662  10.985  68.799  1.00  0.00    -0.146 C  
BRANCH   8   9
HETATM    9  C   UNL     1      -8.621  12.343  68.124  1.00  0.00    -0.185 A  
HETATM   10  C   UNL     1      -9.639  12.786  67.278  1.00  0.00    -0.208 A  
HETATM   11  C   UNL     1      -9.560  14.051  66.681  1.00  0.00    -0.289 A  
HETATM   12  I   UNL     1     -11.135  14.588  65.378  1.00  0.00    -0.420 I  
HETATM   13  C   UNL     1      -8.466  14.918  66.903  1.00  0.00    -0.223 A  
HETATM   14  C   UNL     1      -7.457  14.479  67.772  1.00  0.00    -0.169 A  
HETATM   15  C   UNL     1      -7.556  13.216  68.389  1.00  0.00    -0.133 A  
HETATM   16  I   UNL     1      -5.668  15.513  68.174  1.00  0.00    -0.157 I  
BRANCH  13  17
HETATM   17  O   UNL     1      -8.348  15.975  66.031  1.00  0.00    -0.254 OA 
BRANCH  17  18
HETATM   18  C   UNL     1      -8.313  17.297  66.397  1.00  0.00    -0.280 A  
HETATM   19  C   UNL     1      -7.367  18.039  65.672  1.00  0.00    -0.030 A  
HETATM   20  C   UNL     1      -7.178  19.400  65.919  1.00  0.00    -0.290 A  
HETATM   21  I   UNL     1      -5.745  20.419  64.793  1.00  0.00    -0.325 I  
HETATM   22  C   UNL     1      -7.929  20.034  66.910  1.00  0.00    -0.309 A  
HETATM   23  C   UNL     1      -8.877  19.297  67.632  1.00  0.00    -0.299 A  
HETATM   24  O   UNL     1      -7.749  21.370  67.174  1.00  0.00    -0.767 OA 
HETATM   25  H   UNL     1      -8.259  21.801  67.849  1.00  0.00     0.000 HD 
HETATM   26  I   UNL     1      -9.967  20.172  69.196  1.00  0.00     0.485 I  
HETATM   27  C   UNL     1      -9.097  17.937  67.353  1.00  0.00    -0.245 A  
ENDBRANCH  17  18
ENDBRANCH  13  17
ENDBRANCH   8   9
ENDBRANCH   4   8
TORSDOF 4
ENDMDL
MODEL      191
REMARK 921   NORMALIZED FREE ENERGY PREDICTED BY IDOCK:   -3.52 KCAL/MOL
REMARK 922        TOTAL FREE ENERGY PREDICTED BY IDOCK:   -5.09 KCAL/MOL
REMARK 923 INTER-LIGAND FREE ENERGY PREDICTED BY IDOCK:   -4.79 KCAL/MOL
REMARK 924 INTRA-LIGAND FREE ENERGY PREDICTED BY IDOCK:   -0.31 KCAL/MOL
REMARK 927      BINDING AFFINITY PREDICTED BY RF-SCORE:    0.00 PKD
ROOT
HETATM    1  N   UNL     1      -6.707  13.826  67.411  1.00  0.00    -0.386 NA 
HETATM    2  H1  UNL     1      -5.740  13.954  67.707  1.00  0.00     0.000 HD 
HETATM    3  H2  UNL     1      -6.752  13.648  66.407  1.00  0.00     0.000 HD 
HETATM    4  CA  UNL     1      -7.617  14.952  67.784  1.00  0.00    -0.156 C  
HETATM    5  C   UNL     1      -7.058  16.238  67.141  1.00  0.00    -0.209 C  
HETATM    6  OXT UNL     1      -7.692  17.259  66.930  1.00  0.00    -0.185 OA 
HETATM    7  O   UNL     1      -5.739  16.105  66.841  1.00  0.00    -0.341 OA 
ENDROOT
BRANCH   4   8
HETATM    8  C   UNL     1      -9.079  14.758  67.336  1.00  0.00    -0.202 C  
BRANCH   8   9
HETATM    9  C   UNL     1      -9.582  13.331  67.231  1.00  0.00    -0.234 A  
HETATM   10  C   UNL     1     -10.127  12.651  68.322  1.00  0.00    -0.233 A  
HETATM   11  C   UNL     1     -10.585  11.334  68.176  1.00  0.00    -0.192 A  
HETATM   12  I   UNL     1     -11.339  10.391  69.911  1.00  0.00    -0.405 I  
HETATM   13  C   UNL     1     -10.515  10.648  66.942  1.00  0.00    -0.249 A  
HETATM   14  C   UNL     1      -9.989  11.343  65.844  1.00  0.00    -0.234 A  
HETATM   15  C   UNL     1      -9.554  12.675  65.992  1.00  0.00    -0.190 A  
HETATM   16  I   UNL     1      -9.657  10.520  63.935  1.00  0.00    -0.310 I  
BRANCH  13  17
HETATM   17  O   UNL     1     -10.694   9.286  66.999  1.00  0.00    -0.232 OA 
BRANCH  17  18
HETATM   18  C   UNL     1      -9.700   8.371  67.241  1.00  0.00    -0.184 A  
HETATM   19  C   UNL     1      -9.576   7.417  66.219  1.00  0.00    -0.119 A  
HETATM   20  C   UNL     1      -8.627   6.396  66.300  1.00  0.00    -0.140 A  
HETATM   21  I   UNL     1      -8.520   5.020  64.733  1.00  0.00    -0.117 I  
HETATM   22  C   UNL     1      -7.797   6.311  67.418  1.00  0.00    -0.101 A  
HETATM   23  C   UNL     1      -7.915   7.265  68.437  1.00  0.00    -0.124 A  
HETATM   24  O   UNL     1      -6.865   5.307  67.519  1.00  0.00    -0.057 OA 
HETATM   25  H   UNL     1      -6.299   5.249  68.280  1.00  0.00     0.000 HD 
HETATM   26  I   UNL     1      -6.759   7.135  70.182  1.00  0.00    -0.054 I  
HETATM   27  C   UNL     1      -8.841   8.318  68.335  1.00  0.00    -0.137 A  
ENDBRANCH  17  18
ENDBRANCH  13  17
ENDBRANCH   8   9
ENDBRANCH   4   8
TORSDOF 4
ENDMDL
MODEL      192
REMARK 921   NORMALIZED FREE ENERGY PREDICTED BY IDOCK:   -3.49 KCAL/MOL
REMARK 922        TOTAL FREE ENERGY PREDICTED BY IDOCK:   -5.06 KCAL/MOL
REMARK 923 INTER-LIGAND FREE ENERGY PREDICTED BY IDOCK:   -5.46 KCAL/MOL
REMARK 924 INTRA-LIGAND FREE ENERGY PREDICTED BY IDOCK:    0.40 KCAL/MOL
REMARK 927      BINDING AFFINITY PREDICTED BY RF-SCORE:    0.00 PKD
ROOT
HETATM    1  N   UNL     1     -10.033   5.106  68.689  1.00  0.00    -0.163 NA 
HETATM    2  H1  UNL     1      -9.761   4.246  68.212  1.00  0.00     0.000 HD 
HETATM    3  H2  UNL     1      -9.397   5.865  68.446  1.00  0.00     0.000 HD 
HETATM    4  CA  UNL     1     -10.147   4.973  70.173  1.00  0.00    -0.268 C  
HETATM    5  C   UNL     1      -8.776   4.511  70.708  1.00  0.00    -0.093 C  
HETATM    6  OXT UNL     1      -8.386   4.629  71.858  1.00  0.00    -0.105 OA 
HETATM    7  O   UNL     1      -8.037   3.926  69.728  1.00  0.00    -0.054 OA 
ENDROOT
BRANCH   4   8
HETATM    8  C   UNL     1     -10.558   6.272  70.894  1.00  0.00    -0.293 C  
BRANCH   8   9
HETATM    9  C   UNL     1     -10.112   7.578  70.265  1.00  0.00    -0.194 A  
HETATM   10  C   UNL     1     -10.934   8.706  70.227  1.00  0.00    -0.251 A  
HETATM   11  C   UNL     1     -10.477   9.894  69.640  1.00  0.00    -0.249 A  
HETATM   12  I   UNL     1     -11.831  11.515  69.595  1.00  0.00    -0.395 I  
HETATM   13  C   UNL     1      -9.188  10.000  69.070  1.00  0.00    -0.178 A  
HETATM   14  C   UNL     1      -8.357   8.873  69.131  1.00  0.00    -0.124 A  
HETATM   15  C   UNL     1      -8.815   7.689  69.745  1.00  0.00    -0.140 A  
HETATM   16  I   UNL     1      -6.451   8.722  68.251  1.00  0.00    -0.061 I  
BRANCH  13  17
HETATM   17  O   UNL     1      -8.977  11.090  68.258  1.00  0.00    -0.141 OA 
BRANCH  17  18
HETATM   18  C   UNL     1      -9.310  11.157  66.929  1.00  0.00    -0.175 A  
HETATM   19  C   UNL     1     -10.352  12.061  66.672  1.00  0.00    -0.237 A  
HETATM   20  C   UNL     1     -10.837  12.251  65.376  1.00  0.00    -0.286 A  
HETATM   21  I   UNL     1     -12.393  13.615  65.094  1.00  0.00    -0.491 I  
HETATM   22  C   UNL     1     -10.291  11.522  64.320  1.00  0.00    -0.323 A  
HETATM   23  C   UNL     1      -9.247  10.622  64.572  1.00  0.00    -0.231 A  
HETATM   24  O   UNL     1     -10.763  11.688  63.041  1.00  0.00    -0.647 OA 
HETATM   25  H   UNL     1     -10.391  11.192  62.321  1.00  0.00     0.000 HD 
HETATM   26  I   UNL     1      -8.449   9.432  63.040  1.00  0.00    -0.194 I  
HETATM   27  C   UNL     1      -8.729  10.464  65.870  1.00  0.00    -0.170 A  
ENDBRANCH  17  18
ENDBRANCH  13  17
ENDBRANCH   8   9
ENDBRANCH   4   8
TORSDOF 4
ENDMDL
MODEL      193
REMARK 921   NORMALIZED FREE ENERGY PREDICTED BY IDOCK:   -3.48 KCAL/MOL
REMARK 922        TOTAL FREE ENERGY PREDICTED BY IDOCK:   -5.05 KCAL/MOL
REMARK 923 INTER-LIGAND FREE ENERGY PREDICTED BY IDOCK:   -4.79 KCAL/MOL
REMARK 924 INTRA-LIGAND FREE ENERGY PREDICTED BY IDOCK:   -0.25 KCAL/MOL
REMARK 927      BINDING AFFINITY PREDICTED BY RF-SCORE:    0.00 PKD
ROOT
HETATM    1  N   UNL     1      -6.662  14.457  70.222  1.00  0.00    -0.384 NA 
HETATM    2  H1  UNL     1      -6.910  15.277  70.777  1.00  0.00     0.000 HD 
HETATM    3  H2  UNL     1      -5.648  14.377  70.139  1.00  0.00     0.000 HD 
HETATM    4  CA  UNL     1      -7.303  14.414  68.873  1.00  0.00    -0.127 C  
HETATM    5  C   UNL     1      -6.879  15.686  68.111  1.00  0.00    -0.122 C  
HETATM    6  OXT UNL     1      -6.909  15.832  66.901  1.00  0.00    -0.248 OA 
HETATM    7  O   UNL     1      -6.470  16.659  68.969  1.00  0.00    -0.166 OA 
ENDROOT
BRANCH   4   8
HETATM    8  C   UNL     1      -6.928  13.175  68.035  1.00  0.00    -0.116 C  
BRANCH   8   9
HETATM    9  C   UNL     1      -8.023  12.157  67.783  1.00  0.00    -0.151 A  
HETATM   10  C   UNL     1      -9.132  12.032  68.621  1.00  0.00    -0.030 A  
HETATM   11  C   UNL     1     -10.123  11.080  68.345  1.00  0.00    -0.184 A  
HETATM   12  I   UNL     1     -11.726  10.950  69.717  1.00  0.00    -0.481 I  
HETATM   13  C   UNL     1     -10.043  10.218  67.228  1.00  0.00    -0.203 A  
HETATM   14  C   UNL     1      -8.940  10.362  66.375  1.00  0.00    -0.149 A  
HETATM   15  C   UNL     1      -7.960  11.339  66.646  1.00  0.00    -0.159 A  
HETATM   16  I   UNL     1      -8.515   9.130  64.723  1.00  0.00    -0.178 I  
BRANCH  13  17
HETATM   17  O   UNL     1     -10.892   9.135  67.241  1.00  0.00    -0.233 OA 
BRANCH  17  18
HETATM   18  C   UNL     1     -10.575   7.894  67.732  1.00  0.00    -0.175 A  
HETATM   19  C   UNL     1     -10.337   6.951  66.719  1.00  0.00    -0.287 A  
HETATM   20  C   UNL     1     -10.016   5.628  67.030  1.00  0.00    -0.169 A  
HETATM   21  I   UNL     1      -9.684   4.297  65.456  1.00  0.00    -0.203 I  
HETATM   22  C   UNL     1      -9.943   5.229  68.365  1.00  0.00    -0.159 A  
HETATM   23  C   UNL     1     -10.175   6.169  69.378  1.00  0.00    -0.197 A  
HETATM   24  O   UNL     1      -9.639   3.929  68.687  1.00  0.00    -0.159 OA 
HETATM   25  H   UNL     1      -9.589   3.657  69.597  1.00  0.00     0.000 HD 
HETATM   26  I   UNL     1     -10.170   5.607  71.398  1.00  0.00    -0.298 I  
HETATM   27  C   UNL     1     -10.455   7.511  69.065  1.00  0.00    -0.216 A  
ENDBRANCH  17  18
ENDBRANCH  13  17
ENDBRANCH   8   9
ENDBRANCH   4   8
TORSDOF 4
ENDMDL
MODEL      194
REMARK 921   NORMALIZED FREE ENERGY PREDICTED BY IDOCK:   -3.47 KCAL/MOL
REMARK 922        TOTAL FREE ENERGY PREDICTED BY IDOCK:   -5.04 KCAL/MOL
REMARK 923 INTER-LIGAND FREE ENERGY PREDICTED BY IDOCK:   -4.59 KCAL/MOL
REMARK 924 INTRA-LIGAND FREE ENERGY PREDICTED BY IDOCK:   -0.44 KCAL/MOL
REMARK 927      BINDING AFFINITY PREDICTED BY RF-SCORE:    0.00 PKD
ROOT
HETATM    1  N   UNL     1     -11.171   5.624  66.405  1.00  0.00    -0.727 NA 
HETATM    2  H1  UNL     1     -12.077   5.298  66.069  1.00  0.00     0.000 HD 
HETATM    3  H2  UNL     1     -10.829   6.388  65.823  1.00  0.00     0.000 HD 
HETATM    4  CA  UNL     1     -10.137   4.550  66.519  1.00  0.00    -0.228 C  
HETATM    5  C   UNL     1      -9.961   3.919  65.122  1.00  0.00    -0.170 C  
HETATM    6  OXT UNL     1      -8.992   3.279  64.749  1.00  0.00    -0.121 OA 
HETATM    7  O   UNL     1     -11.046   4.153  64.337  1.00  0.00    -0.288 OA 
ENDROOT
BRANCH   4   8
HETATM    8  C   UNL     1      -8.768   5.043  67.026  1.00  0.00    -0.103 C  
BRANCH   8   9
HETATM    9  C   UNL     1      -8.484   6.528  66.909  1.00  0.00    -0.114 A  
HETATM   10  C   UNL     1      -8.481   7.192  65.680  1.00  0.00    -0.141 A  
HETATM   11  C   UNL     1      -8.220   8.567  65.621  1.00  0.00    -0.130 A  
HETATM   12  I   UNL     1      -8.190   9.448  63.701  1.00  0.00    -0.207 I  
HETATM   13  C   UNL     1      -7.950   9.330  66.781  1.00  0.00    -0.108 A  
HETATM   14  C   UNL     1      -7.977   8.664  68.015  1.00  0.00    -0.107 A  
HETATM   15  C   UNL     1      -8.266   7.286  68.069  1.00  0.00    -0.120 A  
HETATM   16  I   UNL     1      -7.489   9.530  69.870  1.00  0.00    -0.172 I  
BRANCH  13  17
HETATM   17  O   UNL     1      -7.404  10.574  66.570  1.00  0.00    -0.111 OA 
BRANCH  17  18
HETATM   18  C   UNL     1      -7.920  11.751  67.053  1.00  0.00    -0.164 A  
HETATM   19  C   UNL     1      -6.932  12.716  67.307  1.00  0.00    -0.104 A  
HETATM   20  C   UNL     1      -7.268  13.971  67.817  1.00  0.00    -0.165 A  
HETATM   21  I   UNL     1      -5.729  15.339  68.168  1.00  0.00    -0.149 I  
HETATM   22  C   UNL     1      -8.602  14.271  68.094  1.00  0.00    -0.172 A  
HETATM   23  C   UNL     1      -9.591  13.312  67.837  1.00  0.00    -0.217 A  
HETATM   24  O   UNL     1      -8.949  15.497  68.606  1.00  0.00    -0.175 OA 
HETATM   25  H   UNL     1      -9.857  15.702  68.795  1.00  0.00     0.000 HD 
HETATM   26  I   UNL     1     -11.600  13.671  68.319  1.00  0.00    -0.418 I  
HETATM   27  C   UNL     1      -9.257  12.064  67.282  1.00  0.00    -0.182 A  
ENDBRANCH  17  18
ENDBRANCH  13  17
ENDBRANCH   8   9
ENDBRANCH   4   8
TORSDOF 4
ENDMDL
MODEL      195
REMARK 921   NORMALIZED FREE ENERGY PREDICTED BY IDOCK:   -3.44 KCAL/MOL
REMARK 922        TOTAL FREE ENERGY PREDICTED BY IDOCK:   -5.00 KCAL/MOL
REMARK 923 INTER-LIGAND FREE ENERGY PREDICTED BY IDOCK:   -5.67 KCAL/MOL
REMARK 924 INTRA-LIGAND FREE ENERGY PREDICTED BY IDOCK:    0.67 KCAL/MOL
REMARK 927      BINDING AFFINITY PREDICTED BY RF-SCORE:    0.00 PKD
ROOT
HETATM    1  N   UNL     1     -10.359  11.488  64.715  1.00  0.00    -0.272 NA 
HETATM    2  H1  UNL     1     -10.262  10.473  64.707  1.00  0.00     0.000 HD 
HETATM    3  H2  UNL     1      -9.511  11.924  65.077  1.00  0.00     0.000 HD 
HETATM    4  CA  UNL     1     -11.559  11.983  65.457  1.00  0.00    -0.293 C  
HETATM    5  C   UNL     1     -11.456  11.475  66.909  1.00  0.00    -0.184 C  
HETATM    6  OXT UNL     1     -12.039  11.947  67.870  1.00  0.00    -0.558 OA 
HETATM    7  O   UNL     1     -10.628  10.399  66.995  1.00  0.00    -0.243 OA 
ENDROOT
BRANCH   4   8
HETATM    8  C   UNL     1     -11.705  13.518  65.469  1.00  0.00    -0.361 C  
BRANCH   8   9
HETATM    9  C   UNL     1     -10.641  14.304  66.210  1.00  0.00    -0.291 A  
HETATM   10  C   UNL     1      -9.428  13.733  66.602  1.00  0.00    -0.289 A  
HETATM   11  C   UNL     1      -8.472  14.500  67.281  1.00  0.00    -0.215 A  
HETATM   12  I   UNL     1      -6.700  13.510  67.868  1.00  0.00    -0.175 I  
HETATM   13  C   UNL     1      -8.690  15.862  67.595  1.00  0.00    -0.167 A  
HETATM   14  C   UNL     1      -9.898  16.438  67.180  1.00  0.00    -0.249 A  
HETATM   15  C   UNL     1     -10.844  15.666  66.476  1.00  0.00    -0.260 A  
HETATM   16  I   UNL     1     -10.524  18.397  67.628  1.00  0.00    -0.335 I  
BRANCH  13  17
HETATM   17  O   UNL     1      -7.835  16.409  68.523  1.00  0.00    -0.177 OA 
BRANCH  17  18
HETATM   18  C   UNL     1      -7.179  17.605  68.378  1.00  0.00    -0.236 A  
HETATM   19  C   UNL     1      -6.950  17.944  67.035  1.00  0.00    -0.209 A  
HETATM   20  C   UNL     1      -6.281  19.120  66.693  1.00  0.00    -0.177 A  
HETATM   21  I   UNL     1      -5.984  19.536  64.669  1.00  0.00    -0.207 I  
HETATM   22  C   UNL     1      -5.817  19.969  67.699  1.00  0.00    -0.191 A  
HETATM   23  C   UNL     1      -6.047  19.636  69.041  1.00  0.00    -0.266 A  
HETATM   24  O   UNL     1      -5.147  21.125  67.381  1.00  0.00    -0.209 OA 
HETATM   25  H   UNL     1      -4.831  21.703  68.066  1.00  0.00     0.000 HD 
HETATM   26  I   UNL     1      -5.294  20.825  70.596  1.00  0.00     0.095 I  
HETATM   27  C   UNL     1      -6.760  18.474  69.383  1.00  0.00    -0.206 A  
ENDBRANCH  17  18
ENDBRANCH  13  17
ENDBRANCH   8   9
ENDBRANCH   4   8
TORSDOF 4
ENDMDL
MODEL      196
REMARK 921   NORMALIZED FREE ENERGY PREDICTED BY IDOCK:   -3.44 KCAL/MOL
REMARK 922        TOTAL FREE ENERGY PREDICTED BY IDOCK:   -5.00 KCAL/MOL
REMARK 923 INTER-LIGAND FREE ENERGY PREDICTED BY IDOCK:   -4.52 KCAL/MOL
REMARK 924 INTRA-LIGAND FREE ENERGY PREDICTED BY IDOCK:   -0.47 KCAL/MOL
REMARK 927      BINDING AFFINITY PREDICTED BY RF-SCORE:    0.00 PKD
ROOT
HETATM    1  N   UNL     1      -9.319   2.649  66.610  1.00  0.00    -0.369 NA 
HETATM    2  H1  UNL     1      -8.616   1.913  66.544  1.00  0.00     0.000 HD 
HETATM    3  H2  UNL     1     -10.130   2.421  66.034  1.00  0.00     0.000 HD 
HETATM    4  CA  UNL     1      -8.809   4.015  66.279  1.00  0.00    -0.121 C  
HETATM    5  C   UNL     1      -8.257   3.972  64.839  1.00  0.00    -0.097 C  
HETATM    6  OXT UNL     1      -8.087   4.939  64.115  1.00  0.00    -0.102 OA 
HETATM    7  O   UNL     1      -7.959   2.699  64.464  1.00  0.00    -0.077 OA 
ENDROOT
BRANCH   4   8
HETATM    8  C   UNL     1      -9.872   5.127  66.379  1.00  0.00    -0.211 C  
BRANCH   8   9
HETATM    9  C   UNL     1      -9.411   6.473  66.905  1.00  0.00    -0.178 A  
HETATM   10  C   UNL     1      -8.812   6.618  68.158  1.00  0.00    -0.119 A  
HETATM   11  C   UNL     1      -8.397   7.882  68.600  1.00  0.00    -0.128 A  
HETATM   12  I   UNL     1      -7.552   7.982  70.535  1.00  0.00    -0.085 I  
HETATM   13  C   UNL     1      -8.567   9.044  67.813  1.00  0.00    -0.121 A  
HETATM   14  C   UNL     1      -9.147   8.891  66.547  1.00  0.00    -0.166 A  
HETATM   15  C   UNL     1      -9.539   7.613  66.099  1.00  0.00    -0.077 A  
HETATM   16  I   UNL     1      -9.628  10.464  65.235  1.00  0.00    -0.398 I  
BRANCH  13  17
HETATM   17  O   UNL     1      -8.417  10.243  68.471  1.00  0.00    -0.112 OA 
BRANCH  17  18
HETATM   18  C   UNL     1      -9.449  11.060  68.861  1.00  0.00    -0.155 A  
HETATM   19  C   UNL     1     -10.360  10.418  69.714  1.00  0.00    -0.252 A  
HETATM   20  C   UNL     1     -11.484  11.089  70.201  1.00  0.00    -0.296 A  
HETATM   21  I   UNL     1     -12.785  10.050  71.461  1.00  0.00    -0.578 I  
HETATM   22  C   UNL     1     -11.716  12.412  69.825  1.00  0.00    -0.291 A  
HETATM   23  C   UNL     1     -10.806  13.056  68.976  1.00  0.00    -0.155 A  
HETATM   24  O   UNL     1     -12.823  13.083  70.286  1.00  0.00     0.026 OA 
HETATM   25  H   UNL     1     -12.981  13.985  70.029  1.00  0.00     0.000 HD 
HETATM   26  I   UNL     1     -11.151  15.013  68.303  1.00  0.00    -0.343 I  
HETATM   27  C   UNL     1      -9.652  12.395  68.522  1.00  0.00    -0.121 A  
ENDBRANCH  17  18
ENDBRANCH  13  17
ENDBRANCH   8   9
ENDBRANCH   4   8
TORSDOF 4
ENDMDL
MODEL      197
REMARK 921   NORMALIZED FREE ENERGY PREDICTED BY IDOCK:   -3.39 KCAL/MOL
REMARK 922        TOTAL FREE ENERGY PREDICTED BY IDOCK:   -4.94 KCAL/MOL
REMARK 923 INTER-LIGAND FREE ENERGY PREDICTED BY IDOCK:   -5.15 KCAL/MOL
REMARK 924 INTRA-LIGAND FREE ENERGY PREDICTED BY IDOCK:    0.22 KCAL/MOL
REMARK 927      BINDING AFFINITY PREDICTED BY RF-SCORE:    0.00 PKD
ROOT
HETATM    1  N   UNL     1     -10.864   6.656  73.746  1.00  0.00    -0.488 NA 
HETATM    2  H1  UNL     1     -10.887   5.639  73.826  1.00  0.00     0.000 HD 
HETATM    3  H2  UNL     1     -11.522   7.081  74.399  1.00  0.00     0.000 HD 
HETATM    4  CA  UNL     1     -11.098   7.166  72.360  1.00  0.00    -0.266 C  
HETATM    5  C   UNL     1     -12.479   6.654  71.900  1.00  0.00    -0.287 C  
HETATM    6  OXT UNL     1     -13.150   7.133  71.002  1.00  0.00    -0.305 OA 
HETATM    7  O   UNL     1     -12.866   5.568  72.621  1.00  0.00     0.190 OA 
ENDROOT
BRANCH   4   8
HETATM    8  C   UNL     1     -11.064   8.702  72.239  1.00  0.00    -0.395 C  
BRANCH   8   9
HETATM    9  C   UNL     1     -10.280   9.283  71.077  1.00  0.00    -0.384 A  
HETATM   10  C   UNL     1      -8.889   9.200  71.001  1.00  0.00    -0.267 A  
HETATM   11  C   UNL     1      -8.207   9.747  69.905  1.00  0.00    -0.183 A  
HETATM   12  I   UNL     1      -6.099   9.606  69.929  1.00  0.00    -0.061 I  
HETATM   13  C   UNL     1      -8.886  10.397  68.849  1.00  0.00    -0.161 A  
HETATM   14  C   UNL     1     -10.285  10.457  68.918  1.00  0.00    -0.205 A  
HETATM   15  C   UNL     1     -10.965   9.883  70.011  1.00  0.00    -0.338 A  
HETATM   16  I   UNL     1     -11.523  11.472  67.551  1.00  0.00    -0.159 I  
BRANCH  13  17
HETATM   17  O   UNL     1      -8.105  11.156  68.009  1.00  0.00    -0.114 OA 
BRANCH  17  18
HETATM   18  C   UNL     1      -8.053  12.528  68.011  1.00  0.00    -0.164 A  
HETATM   19  C   UNL     1      -8.943  13.109  67.093  1.00  0.00    -0.228 A  
HETATM   20  C   UNL     1      -9.018  14.495  66.944  1.00  0.00    -0.246 A  
HETATM   21  I   UNL     1     -10.369  15.266  65.551  1.00  0.00    -0.432 I  
HETATM   22  C   UNL     1      -8.188  15.318  67.705  1.00  0.00    -0.161 A  
HETATM   23  C   UNL     1      -7.302  14.742  68.624  1.00  0.00    -0.123 A  
HETATM   24  O   UNL     1      -8.241  16.683  67.562  1.00  0.00    -0.161 OA 
HETATM   25  H   UNL     1      -7.675  17.245  68.080  1.00  0.00     0.000 HD 
HETATM   26  I   UNL     1      -5.966  15.923  69.728  1.00  0.00    -0.126 I  
HETATM   27  C   UNL     1      -7.258  13.348  68.806  1.00  0.00    -0.092 A  
ENDBRANCH  17  18
ENDBRANCH  13  17
ENDBRANCH   8   9
ENDBRANCH   4   8
TORSDOF 4
ENDMDL
MODEL      198
REMARK 921   NORMALIZED FREE ENERGY PREDICTED BY IDOCK:   -3.38 KCAL/MOL
REMARK 922        TOTAL FREE ENERGY PREDICTED BY IDOCK:   -4.93 KCAL/MOL
REMARK 923 INTER-LIGAND FREE ENERGY PREDICTED BY IDOCK:   -4.81 KCAL/MOL
REMARK 924 INTRA-LIGAND FREE ENERGY PREDICTED BY IDOCK:   -0.12 KCAL/MOL
REMARK 927      BINDING AFFINITY PREDICTED BY RF-SCORE:    0.00 PKD
ROOT
HETATM    1  N   UNL     1      -6.570   9.117  72.639  1.00  0.00    -0.303 NA 
HETATM    2  H1  UNL     1      -5.705   8.824  73.094  1.00  0.00     0.000 HD 
HETATM    3  H2  UNL     1      -7.280   9.344  73.335  1.00  0.00     0.000 HD 
HETATM    4  CA  UNL     1      -7.104   8.133  71.648  1.00  0.00    -0.075 C  
HETATM    5  C   UNL     1      -7.350   6.805  72.393  1.00  0.00    -0.087 C  
HETATM    6  OXT UNL     1      -8.086   5.908  72.019  1.00  0.00    -0.107 OA 
HETATM    7  O   UNL     1      -6.620   6.741  73.539  1.00  0.00    -0.067 OA 
ENDROOT
BRANCH   4   8
HETATM    8  C   UNL     1      -8.410   8.576  70.961  1.00  0.00    -0.173 C  
BRANCH   8   9
HETATM    9  C   UNL     1      -8.324   9.759  70.016  1.00  0.00    -0.211 A  
HETATM   10  C   UNL     1      -7.184  10.560  69.926  1.00  0.00    -0.136 A  
HETATM   11  C   UNL     1      -7.148  11.641  69.034  1.00  0.00    -0.108 A  
HETATM   12  I   UNL     1      -5.389  12.811  69.028  1.00  0.00    -0.075 I  
HETATM   13  C   UNL     1      -8.246  11.963  68.203  1.00  0.00    -0.158 A  
HETATM   14  C   UNL     1      -9.379  11.142  68.279  1.00  0.00    -0.176 A  
HETATM   15  C   UNL     1      -9.399  10.042  69.160  1.00  0.00    -0.200 A  
HETATM   16  I   UNL     1     -11.186  11.472  67.250  1.00  0.00    -0.267 I  
BRANCH  13  17
HETATM   17  O   UNL     1      -8.212  13.207  67.617  1.00  0.00    -0.149 OA 
BRANCH  17  18
HETATM   18  C   UNL     1      -8.871  14.315  68.087  1.00  0.00    -0.183 A  
HETATM   19  C   UNL     1      -8.498  15.494  67.422  1.00  0.00    -0.199 A  
HETATM   20  C   UNL     1      -9.054  16.725  67.776  1.00  0.00    -0.221 A  
HETATM   21  I   UNL     1      -8.434  18.425  66.733  1.00  0.00    -0.288 I  
HETATM   22  C   UNL     1      -9.982  16.792  68.815  1.00  0.00    -0.269 A  
HETATM   23  C   UNL     1     -10.360  15.616  69.477  1.00  0.00    -0.277 A  
HETATM   24  O   UNL     1     -10.531  17.996  69.183  1.00  0.00    -0.442 OA 
HETATM   25  H   UNL     1     -11.163  18.042  69.891  1.00  0.00     0.000 HD 
HETATM   26  I   UNL     1     -11.680  15.667  71.106  1.00  0.00    -0.600 I  
HETATM   27  C   UNL     1      -9.833  14.371  69.092  1.00  0.00    -0.040 A  
ENDBRANCH  17  18
ENDBRANCH  13  17
ENDBRANCH   8   9
ENDBRANCH   4   8
TORSDOF 4
ENDMDL
MODEL      199
REMARK 921   NORMALIZED FREE ENERGY PREDICTED BY IDOCK:   -3.37 KCAL/MOL
REMARK 922        TOTAL FREE ENERGY PREDICTED BY IDOCK:   -4.92 KCAL/MOL
REMARK 923 INTER-LIGAND FREE ENERGY PREDICTED BY IDOCK:   -4.45 KCAL/MOL
REMARK 924 INTRA-LIGAND FREE ENERGY PREDICTED BY IDOCK:   -0.47 KCAL/MOL
REMARK 927      BINDING AFFINITY PREDICTED BY RF-SCORE:    0.00 PKD
ROOT
HETATM    1  N   UNL     1      -8.427   2.178  64.323  1.00  0.00    -0.082 NA 
HETATM    2  H1  UNL     1      -8.258   2.073  63.322  1.00  0.00     0.000 HD 
HETATM    3  H2  UNL     1      -8.938   1.373  64.684  1.00  0.00     0.000 HD 
HETATM    4  CA  UNL     1      -9.118   3.449  64.697  1.00  0.00    -0.133 C  
HETATM    5  C   UNL     1     -10.468   3.485  63.952  1.00  0.00    -0.264 C  
HETATM    6  OXT UNL     1     -11.433   4.164  64.262  1.00  0.00    -0.169 OA 
HETATM    7  O   UNL     1     -10.454   2.661  62.870  1.00  0.00    -0.131 OA 
ENDROOT
BRANCH   4   8
HETATM    8  C   UNL     1      -9.373   3.607  66.210  1.00  0.00    -0.187 C  
BRANCH   8   9
HETATM    9  C   UNL     1      -8.947   4.916  66.846  1.00  0.00    -0.109 A  
HETATM   10  C   UNL     1      -8.647   5.021  68.206  1.00  0.00    -0.103 A  
HETATM   11  C   UNL     1      -8.252   6.251  68.749  1.00  0.00    -0.120 A  
HETATM   12  I   UNL     1      -7.877   6.297  70.828  1.00  0.00    -0.110 I  
HETATM   13  C   UNL     1      -8.143   7.419  67.959  1.00  0.00    -0.124 A  
HETATM   14  C   UNL     1      -8.422   7.304  66.590  1.00  0.00    -0.124 A  
HETATM   15  C   UNL     1      -8.795   6.058  66.047  1.00  0.00    -0.159 A  
HETATM   16  I   UNL     1      -8.461   8.903  65.222  1.00  0.00    -0.195 I  
BRANCH  13  17
HETATM   17  O   UNL     1      -8.061   8.606  68.648  1.00  0.00    -0.113 OA 
BRANCH  17  18
HETATM   18  C   UNL     1      -9.124   9.425  68.934  1.00  0.00    -0.140 A  
HETATM   19  C   UNL     1      -9.056  10.660  68.268  1.00  0.00    -0.153 A  
HETATM   20  C   UNL     1     -10.044  11.629  68.448  1.00  0.00    -0.206 A  
HETATM   21  I   UNL     1      -9.855  13.436  67.418  1.00  0.00    -0.247 I  
HETATM   22  C   UNL     1     -11.109  11.379  69.314  1.00  0.00    -0.254 A  
HETATM   23  C   UNL     1     -11.182  10.146  69.977  1.00  0.00    -0.299 A  
HETATM   24  O   UNL     1     -12.084  12.326  69.511  1.00  0.00    -0.273 OA 
HETATM   25  H   UNL     1     -12.809  12.155  70.101  1.00  0.00     0.000 HD 
HETATM   26  I   UNL     1     -12.708   9.749  71.359  1.00  0.00    -0.538 I  
HETATM   27  C   UNL     1     -10.210   9.153  69.761  1.00  0.00    -0.219 A  
ENDBRANCH  17  18
ENDBRANCH  13  17
ENDBRANCH   8   9
ENDBRANCH   4   8
TORSDOF 4
ENDMDL
MODEL      200
REMARK 921   NORMALIZED FREE ENERGY PREDICTED BY IDOCK:   -3.37 KCAL/MOL
REMARK 922        TOTAL FREE ENERGY PREDICTED BY IDOCK:   -4.91 KCAL/MOL
REMARK 923 INTER-LIGAND FREE ENERGY PREDICTED BY IDOCK:   -5.76 KCAL/MOL
REMARK 924 INTRA-LIGAND FREE ENERGY PREDICTED BY IDOCK:    0.86 KCAL/MOL
REMARK 927      BINDING AFFINITY PREDICTED BY RF-SCORE:    0.00 PKD
ROOT
HETATM    1  N   UNL     1      -7.957   6.447  68.224  1.00  0.00    -0.105 NA 
HETATM    2  H1  UNL     1      -6.952   6.434  68.046  1.00  0.00     0.000 HD 
HETATM    3  H2  UNL     1      -8.352   7.352  67.967  1.00  0.00     0.000 HD 
HETATM    4  CA  UNL     1      -8.336   6.089  69.624  1.00  0.00    -0.119 C  
HETATM    5  C   UNL     1      -7.643   7.093  70.569  1.00  0.00    -0.089 C  
HETATM    6  OXT UNL     1      -7.978   7.337  71.716  1.00  0.00    -0.094 OA 
HETATM    7  O   UNL     1      -6.576   7.680  69.964  1.00  0.00    -0.037 OA 
ENDROOT
BRANCH   4   8
HETATM    8  C   UNL     1      -9.853   6.109  69.893  1.00  0.00    -0.205 C  
BRANCH   8   9
HETATM    9  C   UNL     1     -10.533   7.466  69.899  1.00  0.00    -0.238 A  
HETATM   10  C   UNL     1     -11.406   7.857  70.915  1.00  0.00    -0.290 A  
HETATM   11  C   UNL     1     -12.007   9.123  70.882  1.00  0.00    -0.242 A  
HETATM   12  I   UNL     1     -13.351   9.580  72.448  1.00  0.00    -0.070 I  
HETATM   13  C   UNL     1     -11.761  10.042  69.836  1.00  0.00    -0.125 A  
HETATM   14  C   UNL     1     -10.865   9.654  68.830  1.00  0.00    -0.168 A  
HETATM   15  C   UNL     1     -10.246   8.389  68.883  1.00  0.00    -0.223 A  
HETATM   16  I   UNL     1     -10.424  10.773  67.103  1.00  0.00    -0.312 I  
BRANCH  13  17
HETATM   17  O   UNL     1     -12.635  11.100  69.747  1.00  0.00    -0.210 OA 
BRANCH  17  18
HETATM   18  C   UNL     1     -12.268  12.422  69.720  1.00  0.00    -0.131 A  
HETATM   19  C   UNL     1     -12.511  13.081  70.935  1.00  0.00    -0.396 A  
HETATM   20  C   UNL     1     -12.215  14.437  71.090  1.00  0.00    -0.350 A  
HETATM   21  I   UNL     1     -12.615  15.331  72.934  1.00  0.00    -0.710 I  
HETATM   22  C   UNL     1     -11.684  15.155  70.019  1.00  0.00    -0.307 A  
HETATM   23  C   UNL     1     -11.436  14.500  68.805  1.00  0.00    -0.294 A  
HETATM   24  O   UNL     1     -11.397  16.492  70.150  1.00  0.00    -0.439 OA 
HETATM   25  H   UNL     1     -11.035  16.982  69.420  1.00  0.00     0.000 HD 
HETATM   26  I   UNL     1     -10.726  15.548  67.133  1.00  0.00    -0.248 I  
HETATM   27  C   UNL     1     -11.693  13.125  68.664  1.00  0.00    -0.362 A  
ENDBRANCH  17  18
ENDBRANCH  13  17
ENDBRANCH   8   9
ENDBRANCH   4   8
TORSDOF 4
ENDMDL
MODEL      201
REMARK 921   NORMALIZED FREE ENERGY PREDICTED BY IDOCK:   -3.36 KCAL/MOL
REMARK 922        TOTAL FREE ENERGY PREDICTED BY IDOCK:   -4.91 KCAL/MOL
REMARK 923 INTER-LIGAND FREE ENERGY PREDICTED BY IDOCK:   -5.21 KCAL/MOL
REMARK 924 INTRA-LIGAND FREE ENERGY PREDICTED BY IDOCK:    0.30 KCAL/MOL
REMARK 927      BINDING AFFINITY PREDICTED BY RF-SCORE:    0.00 PKD
ROOT
HETATM    1  N   UNL     1      -8.709   4.713  65.316  1.00  0.00    -0.132 NA 
HETATM    2  H1  UNL     1      -7.892   4.144  65.093  1.00  0.00     0.000 HD 
HETATM    3  H2  UNL     1      -8.434   5.683  65.475  1.00  0.00     0.000 HD 
HETATM    4  CA  UNL     1      -9.516   4.203  66.465  1.00  0.00    -0.189 C  
HETATM    5  C   UNL     1      -8.591   4.143  67.698  1.00  0.00    -0.100 C  
HETATM    6  OXT UNL     1      -8.958   4.117  68.861  1.00  0.00    -0.096 OA 
HETATM    7  O   UNL     1      -7.283   4.106  67.329  1.00  0.00    -0.066 OA 
ENDROOT
BRANCH   4   8
HETATM    8  C   UNL     1     -10.750   5.064  66.802  1.00  0.00    -0.117 C  
BRANCH   8   9
HETATM    9  C   UNL     1     -10.494   6.501  67.214  1.00  0.00    -0.337 A  
HETATM   10  C   UNL     1      -9.951   7.442  66.338  1.00  0.00    -0.107 A  
HETATM   11  C   UNL     1      -9.738   8.761  66.762  1.00  0.00    -0.221 A  
HETATM   12  I   UNL     1      -8.861  10.080  65.363  1.00  0.00    -0.273 I  
HETATM   13  C   UNL     1     -10.055   9.188  68.072  1.00  0.00    -0.196 A  
HETATM   14  C   UNL     1     -10.622   8.246  68.942  1.00  0.00    -0.139 A  
HETATM   15  C   UNL     1     -10.856   6.928  68.500  1.00  0.00    -0.234 A  
HETATM   16  I   UNL     1     -11.067   8.582  70.971  1.00  0.00    -0.366 I  
BRANCH  13  17
HETATM   17  O   UNL     1      -9.516  10.392  68.460  1.00  0.00    -0.147 OA 
BRANCH  17  18
HETATM   18  C   UNL     1     -10.165  11.599  68.403  1.00  0.00    -0.207 A  
HETATM   19  C   UNL     1     -11.004  11.821  69.507  1.00  0.00    -0.126 A  
HETATM   20  C   UNL     1     -11.758  12.990  69.614  1.00  0.00    -0.297 A  
HETATM   21  I   UNL     1     -12.980  13.228  71.291  1.00  0.00    -0.086 I  
HETATM   22  C   UNL     1     -11.692  13.950  68.604  1.00  0.00    -0.361 A  
HETATM   23  C   UNL     1     -10.853  13.735  67.503  1.00  0.00    -0.265 A  
HETATM   24  O   UNL     1     -12.436  15.102  68.688  1.00  0.00    -0.560 OA 
HETATM   25  H   UNL     1     -12.392  15.756  68.000  1.00  0.00     0.000 HD 
HETATM   26  I   UNL     1     -10.783  15.098  65.911  1.00  0.00    -0.379 I  
HETATM   27  C   UNL     1     -10.060  12.577  67.417  1.00  0.00    -0.211 A  
ENDBRANCH  17  18
ENDBRANCH  13  17
ENDBRANCH   8   9
ENDBRANCH   4   8
TORSDOF 4
ENDMDL
MODEL      202
REMARK 921   NORMALIZED FREE ENERGY PREDICTED BY IDOCK:   -3.35 KCAL/MOL
REMARK 922        TOTAL FREE ENERGY PREDICTED BY IDOCK:   -4.88 KCAL/MOL
REMARK 923 INTER-LIGAND FREE ENERGY PREDICTED BY IDOCK:   -4.59 KCAL/MOL
REMARK 924 INTRA-LIGAND FREE ENERGY PREDICTED BY IDOCK:   -0.29 KCAL/MOL
REMARK 927      BINDING AFFINITY PREDICTED BY RF-SCORE:    0.00 PKD
ROOT
HETATM    1  N   UNL     1     -10.390   4.892  68.585  1.00  0.00    -0.042 NA 
HETATM    2  H1  UNL     1     -11.236   4.426  68.259  1.00  0.00     0.000 HD 
HETATM    3  H2  UNL     1     -10.570   5.882  68.752  1.00  0.00     0.000 HD 
HETATM    4  CA  UNL     1      -9.209   4.718  67.685  1.00  0.00    -0.128 C  
HETATM    5  C   UNL     1      -9.591   5.277  66.299  1.00  0.00    -0.161 C  
HETATM    6  OXT UNL     1      -8.806   5.625  65.432  1.00  0.00    -0.154 OA 
HETATM    7  O   UNL     1     -10.941   5.326  66.143  1.00  0.00    -0.213 OA 
ENDROOT
BRANCH   4   8
HETATM    8  C   UNL     1      -7.930   5.423  68.178  1.00  0.00    -0.095 C  
BRANCH   8   9
HETATM    9  C   UNL     1      -8.022   6.916  68.434  1.00  0.00    -0.122 A  
HETATM   10  C   UNL     1      -9.096   7.490  69.116  1.00  0.00    -0.138 A  
HETATM   11  C   UNL     1      -9.135   8.874  69.334  1.00  0.00    -0.145 A  
HETATM   12  I   UNL     1     -10.837   9.632  70.332  1.00  0.00    -0.418 I  
HETATM   13  C   UNL     1      -8.109   9.734  68.879  1.00  0.00    -0.101 A  
HETATM   14  C   UNL     1      -7.021   9.150  68.215  1.00  0.00    -0.076 A  
HETATM   15  C   UNL     1      -6.977   7.755  68.022  1.00  0.00    -0.080 A  
HETATM   16  I   UNL     1      -5.432  10.208  67.330  1.00  0.00    -0.041 I  
BRANCH  13  17
HETATM   17  O   UNL     1      -8.408  11.076  68.871  1.00  0.00    -0.150 OA 
BRANCH  17  18
HETATM   18  C   UNL     1      -9.040  11.734  67.846  1.00  0.00    -0.181 A  
HETATM   19  C   UNL     1      -9.560  12.979  68.235  1.00  0.00    -0.213 A  
HETATM   20  C   UNL     1     -10.251  13.785  67.329  1.00  0.00    -0.253 A  
HETATM   21  I   UNL     1     -10.992  15.618  68.002  1.00  0.00    -0.298 I  
HETATM   22  C   UNL     1     -10.443  13.345  66.019  1.00  0.00    -0.294 A  
HETATM   23  C   UNL     1      -9.922  12.105  65.626  1.00  0.00    -0.249 A  
HETATM   24  O   UNL     1     -11.130  14.121  65.117  1.00  0.00    -0.317 OA 
HETATM   25  H   UNL     1     -11.261  13.821  64.225  1.00  0.00     0.000 HD 
HETATM   26  I   UNL     1     -10.258  11.351  63.698  1.00  0.00    -0.523 I  
HETATM   27  C   UNL     1      -9.188  11.314  66.527  1.00  0.00    -0.200 A  
ENDBRANCH  17  18
ENDBRANCH  13  17
ENDBRANCH   8   9
ENDBRANCH   4   8
TORSDOF 4
ENDMDL
MODEL      203
REMARK 921   NORMALIZED FREE ENERGY PREDICTED BY IDOCK:   -3.32 KCAL/MOL
REMARK 922        TOTAL FREE ENERGY PREDICTED BY IDOCK:   -4.85 KCAL/MOL
REMARK 923 INTER-LIGAND FREE ENERGY PREDICTED BY IDOCK:   -4.34 KCAL/MOL
REMARK 924 INTRA-LIGAND FREE ENERGY PREDICTED BY IDOCK:   -0.51 KCAL/MOL
REMARK 927      BINDING AFFINITY PREDICTED BY RF-SCORE:    0.00 PKD
ROOT
HETATM    1  N   UNL     1      -6.062   7.514  67.721  1.00  0.00    -0.042 NA 
HETATM    2  H1  UNL     1      -5.153   7.478  68.183  1.00  0.00     0.000 HD 
HETATM    3  H2  UNL     1      -6.631   8.266  68.111  1.00  0.00     0.000 HD 
HETATM    4  CA  UNL     1      -6.813   6.222  67.746  1.00  0.00    -0.066 C  
HETATM    5  C   UNL     1      -7.013   5.825  69.223  1.00  0.00    -0.064 C  
HETATM    6  OXT UNL     1      -7.855   5.048  69.642  1.00  0.00    -0.066 OA 
HETATM    7  O   UNL     1      -6.107   6.445  70.026  1.00  0.00    -0.028 OA 
ENDROOT
BRANCH   4   8
HETATM    8  C   UNL     1      -8.187   6.277  67.049  1.00  0.00    -0.109 C  
BRANCH   8   9
HETATM    9  C   UNL     1      -8.942   7.590  67.118  1.00  0.00    -0.136 A  
HETATM   10  C   UNL     1      -9.079   8.431  66.012  1.00  0.00    -0.235 A  
HETATM   11  C   UNL     1      -9.791   9.633  66.122  1.00  0.00    -0.265 A  
HETATM   12  I   UNL     1      -9.884  10.846  64.394  1.00  0.00    -0.437 I  
HETATM   13  C   UNL     1     -10.389  10.041  67.336  1.00  0.00    -0.238 A  
HETATM   14  C   UNL     1     -10.269   9.184  68.438  1.00  0.00    -0.200 A  
HETATM   15  C   UNL     1      -9.573   7.964  68.313  1.00  0.00    -0.164 A  
HETATM   16  I   UNL     1     -10.952   9.607  70.384  1.00  0.00    -0.426 I  
BRANCH  13  17
HETATM   17  O   UNL     1     -10.776  11.359  67.403  1.00  0.00    -0.207 OA 
BRANCH  17  18
HETATM   18  C   UNL     1      -9.922  12.423  67.554  1.00  0.00    -0.196 A  
HETATM   19  C   UNL     1     -10.362  13.575  66.882  1.00  0.00    -0.265 A  
HETATM   20  C   UNL     1      -9.613  14.753  66.909  1.00  0.00    -0.241 A  
HETATM   21  I   UNL     1     -10.345  16.413  65.876  1.00  0.00    -0.226 I  
HETATM   22  C   UNL     1      -8.402  14.787  67.602  1.00  0.00    -0.170 A  
HETATM   23  C   UNL     1      -7.963  13.640  68.277  1.00  0.00    -0.150 A  
HETATM   24  O   UNL     1      -7.648  15.934  67.630  1.00  0.00    -0.131 OA 
HETATM   25  H   UNL     1      -6.823  15.957  68.101  1.00  0.00     0.000 HD 
HETATM   26  I   UNL     1      -6.109  13.603  69.257  1.00  0.00    -0.109 I  
HETATM   27  C   UNL     1      -8.739  12.468  68.286  1.00  0.00    -0.171 A  
ENDBRANCH  17  18
ENDBRANCH  13  17
ENDBRANCH   8   9
ENDBRANCH   4   8
TORSDOF 4
ENDMDL
MODEL      204
REMARK 921   NORMALIZED FREE ENERGY PREDICTED BY IDOCK:   -3.32 KCAL/MOL
REMARK 922        TOTAL FREE ENERGY PREDICTED BY IDOCK:   -4.85 KCAL/MOL
REMARK 923 INTER-LIGAND FREE ENERGY PREDICTED BY IDOCK:   -5.02 KCAL/MOL
REMARK 924 INTRA-LIGAND FREE ENERGY PREDICTED BY IDOCK:    0.18 KCAL/MOL
REMARK 927      BINDING AFFINITY PREDICTED BY RF-SCORE:    0.00 PKD
ROOT
HETATM    1  N   UNL     1     -10.735   9.779  66.883  1.00  0.00    -0.171 NA 
HETATM    2  H1  UNL     1     -10.145   9.115  66.381  1.00  0.00     0.000 HD 
HETATM    3  H2  UNL     1     -10.252  10.670  66.997  1.00  0.00     0.000 HD 
HETATM    4  CA  UNL     1     -11.233   9.281  68.201  1.00  0.00     0.280 C  
HETATM    5  C   UNL     1     -10.004   8.942  69.068  1.00  0.00    -0.190 C  
HETATM    6  OXT UNL     1      -9.997   8.848  70.284  1.00  0.00    -0.172 OA 
HETATM    7  O   UNL     1      -8.900   8.739  68.300  1.00  0.00    -0.140 OA 
ENDROOT
BRANCH   4   8
HETATM    8  C   UNL     1     -12.124  10.284  68.959  1.00  0.00     0.263 C  
BRANCH   8   9
HETATM    9  C   UNL     1     -11.769  11.753  68.832  1.00  0.00    -0.384 A  
HETATM   10  C   UNL     1     -11.959  12.660  69.877  1.00  0.00    -0.365 A  
HETATM   11  C   UNL     1     -11.610  14.008  69.714  1.00  0.00    -0.281 A  
HETATM   12  I   UNL     1     -11.994  15.292  71.348  1.00  0.00    -0.601 I  
HETATM   13  C   UNL     1     -11.064  14.500  68.507  1.00  0.00    -0.256 A  
HETATM   14  C   UNL     1     -10.853  13.583  67.469  1.00  0.00    -0.264 A  
HETATM   15  C   UNL     1     -11.182  12.224  67.648  1.00  0.00    -0.346 A  
HETATM   16  I   UNL     1     -10.175  14.072  65.537  1.00  0.00    -0.306 I  
BRANCH  13  17
HETATM   17  O   UNL     1     -11.062  15.868  68.362  1.00  0.00    -0.310 OA 
BRANCH  17  18
HETATM   18  C   UNL     1      -9.948  16.666  68.440  1.00  0.00    -0.255 A  
HETATM   19  C   UNL     1     -10.202  17.996  68.071  1.00  0.00    -0.390 A  
HETATM   20  C   UNL     1      -9.184  18.951  68.074  1.00  0.00    -0.307 A  
HETATM   21  I   UNL     1      -9.657  20.903  67.504  1.00  0.00     0.444 I  
HETATM   22  C   UNL     1      -7.889  18.578  68.435  1.00  0.00    -0.310 A  
HETATM   23  C   UNL     1      -7.632  17.252  68.809  1.00  0.00    -0.256 A  
HETATM   24  O   UNL     1      -6.872  19.502  68.434  1.00  0.00    -0.267 OA 
HETATM   25  H   UNL     1      -5.990  19.249  68.680  1.00  0.00     0.000 HD 
HETATM   26  I   UNL     1      -5.689  16.614  69.272  1.00  0.00    -0.186 I  
HETATM   27  C   UNL     1      -8.667  16.302  68.848  1.00  0.00    -0.253 A  
ENDBRANCH  17  18
ENDBRANCH  13  17
ENDBRANCH   8   9
ENDBRANCH   4   8
TORSDOF 4
ENDMDL
MODEL      205
REMARK 921   NORMALIZED FREE ENERGY PREDICTED BY IDOCK:   -3.31 KCAL/MOL
REMARK 922        TOTAL FREE ENERGY PREDICTED BY IDOCK:   -4.84 KCAL/MOL
REMARK 923 INTER-LIGAND FREE ENERGY PREDICTED BY IDOCK:   -4.49 KCAL/MOL
REMARK 924 INTRA-LIGAND FREE ENERGY PREDICTED BY IDOCK:   -0.35 KCAL/MOL
REMARK 927      BINDING AFFINITY PREDICTED BY RF-SCORE:    0.00 PKD
ROOT
HETATM    1  N   UNL     1      -9.627   3.364  70.199  1.00  0.00    -0.173 NA 
HETATM    2  H1  UNL     1     -10.444   2.862  69.851  1.00  0.00     0.000 HD 
HETATM    3  H2  UNL     1      -9.564   4.286  69.766  1.00  0.00     0.000 HD 
HETATM    4  CA  UNL     1      -8.339   2.622  70.041  1.00  0.00    -0.041 C  
HETATM    5  C   UNL     1      -8.149   2.328  68.538  1.00  0.00    -0.056 C  
HETATM    6  OXT UNL     1      -7.090   2.064  67.995  1.00  0.00    -0.045 OA 
HETATM    7  O   UNL     1      -9.334   2.384  67.873  1.00  0.00    -0.193 OA 
ENDROOT
BRANCH   4   8
HETATM    8  C   UNL     1      -7.105   3.381  70.566  1.00  0.00    -0.034 C  
BRANCH   8   9
HETATM    9  C   UNL     1      -7.214   4.891  70.658  1.00  0.00    -0.053 A  
HETATM   10  C   UNL     1      -7.417   5.551  71.872  1.00  0.00    -0.094 A  
HETATM   11  C   UNL     1      -7.505   6.950  71.909  1.00  0.00    -0.088 A  
HETATM   12  I   UNL     1      -7.867   7.830  73.796  1.00  0.00    -0.275 I  
HETATM   13  C   UNL     1      -7.398   7.739  70.741  1.00  0.00    -0.065 A  
HETATM   14  C   UNL     1      -7.170   7.074  69.528  1.00  0.00    -0.080 A  
HETATM   15  C   UNL     1      -7.057   5.670  69.502  1.00  0.00    -0.064 A  
HETATM   16  I   UNL     1      -7.098   7.995  67.637  1.00  0.00    -0.087 I  
BRANCH  13  17
HETATM   17  O   UNL     1      -7.812   9.045  70.858  1.00  0.00    -0.122 OA 
BRANCH  17  18
HETATM   18  C   UNL     1      -9.006   9.536  70.391  1.00  0.00    -0.243 A  
HETATM   19  C   UNL     1     -10.109   9.084  71.132  1.00  0.00    -0.365 A  
HETATM   20  C   UNL     1     -11.408   9.467  70.794  1.00  0.00    -0.321 A  
HETATM   21  I   UNL     1     -12.986   8.741  71.952  1.00  0.00    -0.520 I  
HETATM   22  C   UNL     1     -11.619  10.300  69.694  1.00  0.00    -0.201 A  
HETATM   23  C   UNL     1     -10.520  10.756  68.955  1.00  0.00    -0.215 A  
HETATM   24  O   UNL     1     -12.892  10.678  69.341  1.00  0.00    -0.629 OA 
HETATM   25  H   UNL     1     -13.036  11.245  68.592  1.00  0.00     0.000 HD 
HETATM   26  I   UNL     1     -10.782  11.934  67.239  1.00  0.00    -0.332 I  
HETATM   27  C   UNL     1      -9.209  10.406  69.323  1.00  0.00    -0.198 A  
ENDBRANCH  17  18
ENDBRANCH  13  17
ENDBRANCH   8   9
ENDBRANCH   4   8
TORSDOF 4
ENDMDL
MODEL      206
REMARK 921   NORMALIZED FREE ENERGY PREDICTED BY IDOCK:   -3.31 KCAL/MOL
REMARK 922        TOTAL FREE ENERGY PREDICTED BY IDOCK:   -4.84 KCAL/MOL
REMARK 923 INTER-LIGAND FREE ENERGY PREDICTED BY IDOCK:   -5.16 KCAL/MOL
REMARK 924 INTRA-LIGAND FREE ENERGY PREDICTED BY IDOCK:    0.32 KCAL/MOL
REMARK 927      BINDING AFFINITY PREDICTED BY RF-SCORE:    0.00 PKD
ROOT
HETATM    1  N   UNL     1      -9.892   9.616  67.001  1.00  0.00    -0.183 NA 
HETATM    2  H1  UNL     1      -9.425   8.710  66.962  1.00  0.00     0.000 HD 
HETATM    3  H2  UNL     1      -9.206  10.369  67.057  1.00  0.00     0.000 HD 
HETATM    4  CA  UNL     1     -10.896   9.739  68.101  1.00  0.00    -0.214 C  
HETATM    5  C   UNL     1     -10.163   9.492  69.435  1.00  0.00    -0.206 C  
HETATM    6  OXT UNL     1     -10.554   9.844  70.536  1.00  0.00    -0.285 OA 
HETATM    7  O   UNL     1      -9.006   8.804  69.240  1.00  0.00    -0.141 OA 
ENDROOT
BRANCH   4   8
HETATM    8  C   UNL     1     -11.602  11.108  68.160  1.00  0.00    -0.350 C  
BRANCH   8   9
HETATM    9  C   UNL     1     -10.736  12.317  68.459  1.00  0.00    -0.261 A  
HETATM   10  C   UNL     1      -9.383  12.367  68.119  1.00  0.00    -0.209 A  
HETATM   11  C   UNL     1      -8.623  13.508  68.411  1.00  0.00    -0.142 A  
HETATM   12  I   UNL     1      -6.574  13.443  67.896  1.00  0.00    -0.170 I  
HETATM   13  C   UNL     1      -9.182  14.637  69.052  1.00  0.00    -0.108 A  
HETATM   14  C   UNL     1     -10.546  14.592  69.370  1.00  0.00    -0.196 A  
HETATM   15  C   UNL     1     -11.310  13.451  69.051  1.00  0.00    -0.335 A  
HETATM   16  I   UNL     1     -11.592  16.077  70.435  1.00  0.00    -0.134 I  
BRANCH  13  17
HETATM   17  O   UNL     1      -8.284  15.546  69.562  1.00  0.00    -0.250 OA 
BRANCH  17  18
HETATM   18  C   UNL     1      -8.086  16.813  69.075  1.00  0.00    -0.179 A  
HETATM   19  C   UNL     1      -9.014  17.168  68.083  1.00  0.00    -0.240 A  
HETATM   20  C   UNL     1      -8.959  18.417  67.460  1.00  0.00    -0.264 A  
HETATM   21  I   UNL     1     -10.379  18.852  65.993  1.00  0.00    -0.096 I  
HETATM   22  C   UNL     1      -7.959  19.323  67.816  1.00  0.00    -0.277 A  
HETATM   23  C   UNL     1      -7.034  18.973  68.808  1.00  0.00    -0.310 A  
HETATM   24  O   UNL     1      -7.884  20.551  67.205  1.00  0.00    -0.320 OA 
HETATM   25  H   UNL     1      -7.203  21.168  67.447  1.00  0.00     0.000 HD 
HETATM   26  I   UNL     1      -5.455  20.257  69.318  1.00  0.00    -0.373 I  
HETATM   27  C   UNL     1      -7.117  17.734  69.466  1.00  0.00     0.089 A  
ENDBRANCH  17  18
ENDBRANCH  13  17
ENDBRANCH   8   9
ENDBRANCH   4   8
TORSDOF 4
ENDMDL
MODEL      207
REMARK 921   NORMALIZED FREE ENERGY PREDICTED BY IDOCK:   -3.28 KCAL/MOL
REMARK 922        TOTAL FREE ENERGY PREDICTED BY IDOCK:   -4.81 KCAL/MOL
REMARK 923 INTER-LIGAND FREE ENERGY PREDICTED BY IDOCK:   -5.15 KCAL/MOL
REMARK 924 INTRA-LIGAND FREE ENERGY PREDICTED BY IDOCK:    0.34 KCAL/MOL
REMARK 927      BINDING AFFINITY PREDICTED BY RF-SCORE:    0.00 PKD
ROOT
HETATM    1  N   UNL     1      -8.713  17.491  68.406  1.00  0.00    -0.270 NA 
HETATM    2  H1  UNL     1      -8.260  18.366  68.139  1.00  0.00     0.000 HD 
HETATM    3  H2  UNL     1      -8.056  16.714  68.336  1.00  0.00     0.000 HD 
HETATM    4  CA  UNL     1      -9.962  17.192  67.642  1.00  0.00    -0.283 C  
HETATM    5  C   UNL     1      -9.595  17.134  66.146  1.00  0.00    -0.218 C  
HETATM    6  OXT UNL     1     -10.248  16.584  65.275  1.00  0.00    -0.588 OA 
HETATM    7  O   UNL     1      -8.433  17.796  65.899  1.00  0.00    -0.522 OA 
ENDROOT
BRANCH   4   8
HETATM    8  C   UNL     1     -10.647  15.870  68.045  1.00  0.00    -0.287 C  
BRANCH   8   9
HETATM    9  C   UNL     1      -9.884  14.589  67.770  1.00  0.00    -0.220 A  
HETATM   10  C   UNL     1     -10.315  13.652  66.829  1.00  0.00    -0.268 A  
HETATM   11  C   UNL     1      -9.574  12.484  66.604  1.00  0.00    -0.239 A  
HETATM   12  I   UNL     1     -10.356  11.118  65.194  1.00  0.00    -0.314 I  
HETATM   13  C   UNL     1      -8.380  12.206  67.310  1.00  0.00    -0.179 A  
HETATM   14  C   UNL     1      -7.938  13.160  68.237  1.00  0.00    -0.148 A  
HETATM   15  C   UNL     1      -8.676  14.344  68.439  1.00  0.00    -0.180 A  
HETATM   16  I   UNL     1      -6.273  12.938  69.504  1.00  0.00    -0.030 I  
BRANCH  13  17
HETATM   17  O   UNL     1      -7.925  10.910  67.236  1.00  0.00    -0.117 OA 
BRANCH  17  18
HETATM   18  C   UNL     1      -8.330   9.887  68.055  1.00  0.00    -0.113 A  
HETATM   19  C   UNL     1      -9.086   8.914  67.382  1.00  0.00    -0.147 A  
HETATM   20  C   UNL     1      -9.598   7.805  68.058  1.00  0.00    -0.150 A  
HETATM   21  I   UNL     1     -10.715   6.415  66.972  1.00  0.00    -0.315 I  
HETATM   22  C   UNL     1      -9.369   7.664  69.427  1.00  0.00    -0.152 A  
HETATM   23  C   UNL     1      -8.611   8.631  70.101  1.00  0.00    -0.138 A  
HETATM   24  O   UNL     1      -9.874   6.585  70.110  1.00  0.00    -0.166 OA 
HETATM   25  H   UNL     1      -9.718   6.489  71.043  1.00  0.00     0.000 HD 
HETATM   26  I   UNL     1      -8.313   8.520  72.175  1.00  0.00     0.022 I  
HETATM   27  C   UNL     1      -8.059   9.724  69.411  1.00  0.00    -0.129 A  
ENDBRANCH  17  18
ENDBRANCH  13  17
ENDBRANCH   8   9
ENDBRANCH   4   8
TORSDOF 4
ENDMDL
MODEL      208
REMARK 921   NORMALIZED FREE ENERGY PREDICTED BY IDOCK:   -3.28 KCAL/MOL
REMARK 922        TOTAL FREE ENERGY PREDICTED BY IDOCK:   -4.80 KCAL/MOL
REMARK 923 INTER-LIGAND FREE ENERGY PREDICTED BY IDOCK:   -4.70 KCAL/MOL
REMARK 924 INTRA-LIGAND FREE ENERGY PREDICTED BY IDOCK:   -0.10 KCAL/MOL
REMARK 927      BINDING AFFINITY PREDICTED BY RF-SCORE:    0.00 PKD
ROOT
HETATM    1  N   UNL     1      -5.659  10.143  71.751  1.00  0.00    -0.283 NA 
HETATM    2  H1  UNL     1      -4.717   9.835  71.994  1.00  0.00     0.000 HD 
HETATM    3  H2  UNL     1      -6.231  10.236  72.590  1.00  0.00     0.000 HD 
HETATM    4  CA  UNL     1      -6.345   9.279  70.743  1.00  0.00    -0.074 C  
HETATM    5  C   UNL     1      -6.414   7.851  71.320  1.00  0.00    -0.038 C  
HETATM    6  OXT UNL     1      -7.186   6.976  70.960  1.00  0.00    -0.072 OA 
HETATM    7  O   UNL     1      -5.482   7.667  72.292  1.00  0.00    -0.036 OA 
ENDROOT
BRANCH   4   8
HETATM    8  C   UNL     1      -7.767   9.745  70.375  1.00  0.00    -0.159 C  
BRANCH   8   9
HETATM    9  C   UNL     1      -7.885  10.841  69.334  1.00  0.00    -0.093 A  
HETATM   10  C   UNL     1      -6.911  11.829  69.178  1.00  0.00    -0.106 A  
HETATM   11  C   UNL     1      -7.060  12.819  68.197  1.00  0.00    -0.105 A  
HETATM   12  I   UNL     1      -5.546  14.290  68.093  1.00  0.00    -0.078 I  
HETATM   13  C   UNL     1      -8.184  12.863  67.341  1.00  0.00    -0.187 A  
HETATM   14  C   UNL     1      -9.149  11.857  67.485  1.00  0.00    -0.178 A  
HETATM   15  C   UNL     1      -8.979  10.849  68.457  1.00  0.00    -0.157 A  
HETATM   16  I   UNL     1     -10.968  11.761  66.432  1.00  0.00    -0.316 I  
BRANCH  13  17
HETATM   17  O   UNL     1      -8.371  14.039  66.652  1.00  0.00    -0.005 OA 
BRANCH  17  18
HETATM   18  C   UNL     1      -8.832  15.208  67.203  1.00  0.00    -0.216 A  
HETATM   19  C   UNL     1      -9.643  14.998  68.329  1.00  0.00    -0.210 A  
HETATM   20  C   UNL     1     -10.216  16.072  69.013  1.00  0.00    -0.236 A  
HETATM   21  I   UNL     1     -11.413  15.660  70.675  1.00  0.00    -0.512 I  
HETATM   22  C   UNL     1      -9.994  17.374  68.566  1.00  0.00    -0.331 A  
HETATM   23  C   UNL     1      -9.180  17.588  67.445  1.00  0.00    -0.238 A  
HETATM   24  O   UNL     1     -10.558  18.442  69.221  1.00  0.00    -0.346 OA 
HETATM   25  H   UNL     1     -10.407  19.329  68.917  1.00  0.00     0.000 HD 
HETATM   26  I   UNL     1      -8.885  19.515  66.673  1.00  0.00    -0.462 I  
HETATM   27  C   UNL     1      -8.568  16.509  66.783  1.00  0.00    -0.263 A  
ENDBRANCH  17  18
ENDBRANCH  13  17
ENDBRANCH   8   9
ENDBRANCH   4   8
TORSDOF 4
ENDMDL
MODEL      209
REMARK 921   NORMALIZED FREE ENERGY PREDICTED BY IDOCK:   -3.26 KCAL/MOL
REMARK 922        TOTAL FREE ENERGY PREDICTED BY IDOCK:   -4.77 KCAL/MOL
REMARK 923 INTER-LIGAND FREE ENERGY PREDICTED BY IDOCK:   -4.36 KCAL/MOL
REMARK 924 INTRA-LIGAND FREE ENERGY PREDICTED BY IDOCK:   -0.41 KCAL/MOL
REMARK 927      BINDING AFFINITY PREDICTED BY RF-SCORE:    0.00 PKD
ROOT
HETATM    1  N   UNL     1     -11.349   4.172  64.747  1.00  0.00    -0.962 NA 
HETATM    2  H1  UNL     1     -12.046   3.539  65.140  1.00  0.00     0.000 HD 
HETATM    3  H2  UNL     1     -11.703   4.608  63.896  1.00  0.00     0.000 HD 
HETATM    4  CA  UNL     1     -10.018   3.538  64.497  1.00  0.00    -0.171 C  
HETATM    5  C   UNL     1     -10.236   2.360  63.525  1.00  0.00    -0.157 C  
HETATM    6  OXT UNL     1      -9.375   1.842  62.833  1.00  0.00    -0.090 OA 
HETATM    7  O   UNL     1     -11.530   1.944  63.539  1.00  0.00    -0.231 OA 
ENDROOT
BRANCH   4   8
HETATM    8  C   UNL     1      -8.965   4.494  63.903  1.00  0.00    -0.136 C  
BRANCH   8   9
HETATM    9  C   UNL     1      -8.599   5.713  64.728  1.00  0.00    -0.061 A  
HETATM   10  C   UNL     1      -8.087   6.877  64.152  1.00  0.00    -0.026 A  
HETATM   11  C   UNL     1      -7.768   7.981  64.955  1.00  0.00    -0.118 A  
HETATM   12  I   UNL     1      -6.951   9.665  63.975  1.00  0.00    -0.123 I  
HETATM   13  C   UNL     1      -7.944   7.964  66.358  1.00  0.00    -0.102 A  
HETATM   14  C   UNL     1      -8.480   6.802  66.929  1.00  0.00    -0.115 A  
HETATM   15  C   UNL     1      -8.822   5.705  66.113  1.00  0.00    -0.142 A  
HETATM   16  I   UNL     1      -8.725   6.467  68.993  1.00  0.00    -0.125 I  
BRANCH  13  17
HETATM   17  O   UNL     1      -7.310   8.964  67.056  1.00  0.00    -0.082 OA 
BRANCH  17  18
HETATM   18  C   UNL     1      -7.911  10.114  67.502  1.00  0.00    -0.102 A  
HETATM   19  C   UNL     1      -7.024  11.200  67.575  1.00  0.00    -0.088 A  
HETATM   20  C   UNL     1      -7.454  12.451  68.023  1.00  0.00    -0.114 A  
HETATM   21  I   UNL     1      -6.061  14.005  68.101  1.00  0.00    -0.148 I  
HETATM   22  C   UNL     1      -8.780  12.625  68.420  1.00  0.00    -0.118 A  
HETATM   23  C   UNL     1      -9.669  11.544  68.344  1.00  0.00    -0.202 A  
HETATM   24  O   UNL     1      -9.217  13.846  68.873  1.00  0.00    -0.384 OA 
HETATM   25  H   UNL     1     -10.121  13.964  69.144  1.00  0.00     0.000 HD 
HETATM   26  I   UNL     1     -11.649  11.721  69.012  1.00  0.00    -0.421 I  
HETATM   27  C   UNL     1      -9.246  10.297  67.851  1.00  0.00    -0.143 A  
ENDBRANCH  17  18
ENDBRANCH  13  17
ENDBRANCH   8   9
ENDBRANCH   4   8
TORSDOF 4
ENDMDL
MODEL      210
REMARK 921   NORMALIZED FREE ENERGY PREDICTED BY IDOCK:   -3.24 KCAL/MOL
REMARK 922        TOTAL FREE ENERGY PREDICTED BY IDOCK:   -4.76 KCAL/MOL
REMARK 923 INTER-LIGAND FREE ENERGY PREDICTED BY IDOCK:   -4.07 KCAL/MOL
REMARK 924 INTRA-LIGAND FREE ENERGY PREDICTED BY IDOCK:   -0.68 KCAL/MOL
REMARK 927      BINDING AFFINITY PREDICTED BY RF-SCORE:    0.00 PKD
ROOT
HETATM    1  N   UNL     1      -6.363   3.019  71.253  1.00  0.00    -0.018 NA 
HETATM    2  H1  UNL     1      -6.718   2.186  71.722  1.00  0.00     0.000 HD 
HETATM    3  H2  UNL     1      -5.386   3.178  71.500  1.00  0.00     0.000 HD 
HETATM    4  CA  UNL     1      -7.173   4.251  71.498  1.00  0.00    -0.051 C  
HETATM    5  C   UNL     1      -7.197   4.501  73.020  1.00  0.00    -0.079 C  
HETATM    6  OXT UNL     1      -7.447   5.565  73.561  1.00  0.00    -0.093 OA 
HETATM    7  O   UNL     1      -6.914   3.364  73.709  1.00  0.00    -0.042 OA 
ENDROOT
BRANCH   4   8
HETATM    8  C   UNL     1      -6.636   5.510  70.789  1.00  0.00    -0.043 C  
BRANCH   8   9
HETATM    9  C   UNL     1      -7.588   6.231  69.853  1.00  0.00    -0.092 A  
HETATM   10  C   UNL     1      -7.502   6.111  68.465  1.00  0.00    -0.087 A  
HETATM   11  C   UNL     1      -8.408   6.793  67.640  1.00  0.00    -0.123 A  
HETATM   12  I   UNL     1      -8.144   6.575  65.555  1.00  0.00    -0.118 I  
HETATM   13  C   UNL     1      -9.427   7.618  68.167  1.00  0.00    -0.145 A  
HETATM   14  C   UNL     1      -9.524   7.717  69.562  1.00  0.00    -0.160 A  
HETATM   15  C   UNL     1      -8.626   7.009  70.386  1.00  0.00    -0.142 A  
HETATM   16  I   UNL     1     -10.862   8.970  70.598  1.00  0.00    -0.373 I  
BRANCH  13  17
HETATM   17  O   UNL     1     -10.036   8.467  67.273  1.00  0.00    -0.204 OA 
BRANCH  17  18
HETATM   18  C   UNL     1      -9.713   9.790  67.099  1.00  0.00    -0.176 A  
HETATM   19  C   UNL     1     -10.611  10.465  66.258  1.00  0.00    -0.180 A  
HETATM   20  C   UNL     1     -10.433  11.816  65.952  1.00  0.00    -0.255 A  
HETATM   21  I   UNL     1     -11.818  12.733  64.687  1.00  0.00    -0.539 I  
HETATM   22  C   UNL     1      -9.340  12.505  66.478  1.00  0.00    -0.233 A  
HETATM   23  C   UNL     1      -8.445  11.835  67.322  1.00  0.00    -0.160 A  
HETATM   24  O   UNL     1      -9.144  13.832  66.179  1.00  0.00    -0.484 OA 
HETATM   25  H   UNL     1      -8.400  14.302  66.537  1.00  0.00     0.000 HD 
HETATM   26  I   UNL     1      -6.734  12.794  68.066  1.00  0.00    -0.159 I  
HETATM   27  C   UNL     1      -8.648  10.487  67.664  1.00  0.00    -0.118 A  
ENDBRANCH  17  18
ENDBRANCH  13  17
ENDBRANCH   8   9
ENDBRANCH   4   8
TORSDOF 4
ENDMDL
MODEL      211
REMARK 921   NORMALIZED FREE ENERGY PREDICTED BY IDOCK:   -3.24 KCAL/MOL
REMARK 922        TOTAL FREE ENERGY PREDICTED BY IDOCK:   -4.75 KCAL/MOL
REMARK 923 INTER-LIGAND FREE ENERGY PREDICTED BY IDOCK:   -4.86 KCAL/MOL
REMARK 924 INTRA-LIGAND FREE ENERGY PREDICTED BY IDOCK:    0.10 KCAL/MOL
REMARK 927      BINDING AFFINITY PREDICTED BY RF-SCORE:    0.00 PKD
ROOT
HETATM    1  N   UNL     1      -9.050   2.024  64.607  1.00  0.00    -0.122 NA 
HETATM    2  H1  UNL     1      -8.978   2.224  63.609  1.00  0.00     0.000 HD 
HETATM    3  H2  UNL     1      -9.808   1.365  64.784  1.00  0.00     0.000 HD 
HETATM    4  CA  UNL     1      -9.200   3.237  65.467  1.00  0.00    -0.151 C  
HETATM    5  C   UNL     1     -10.470   3.982  65.008  1.00  0.00    -0.136 C  
HETATM    6  OXT UNL     1     -11.097   4.792  65.671  1.00  0.00    -0.190 OA 
HETATM    7  O   UNL     1     -10.814   3.634  63.739  1.00  0.00    -0.271 OA 
ENDROOT
BRANCH   4   8
HETATM    8  C   UNL     1      -9.310   2.934  66.974  1.00  0.00    -0.132 C  
BRANCH   8   9
HETATM    9  C   UNL     1      -9.023   4.077  67.929  1.00  0.00    -0.152 A  
HETATM   10  C   UNL     1      -9.549   4.118  69.221  1.00  0.00    -0.256 A  
HETATM   11  C   UNL     1      -9.252   5.193  70.070  1.00  0.00    -0.134 A  
HETATM   12  I   UNL     1     -10.150   5.170  71.983  1.00  0.00    -0.270 I  
HETATM   13  C   UNL     1      -8.423   6.264  69.663  1.00  0.00    -0.129 A  
HETATM   14  C   UNL     1      -7.878   6.207  68.373  1.00  0.00    -0.104 A  
HETATM   15  C   UNL     1      -8.161   5.110  67.533  1.00  0.00    -0.103 A  
HETATM   16  I   UNL     1      -6.724   7.721  67.476  1.00  0.00    -0.072 I  
BRANCH  13  17
HETATM   17  O   UNL     1      -8.464   7.390  70.451  1.00  0.00    -0.138 OA 
BRANCH  17  18
HETATM   18  C   UNL     1      -9.267   8.480  70.223  1.00  0.00    -0.158 A  
HETATM   19  C   UNL     1     -10.491   8.409  70.907  1.00  0.00    -0.235 A  
HETATM   20  C   UNL     1     -11.443   9.422  70.784  1.00  0.00    -0.300 A  
HETATM   21  I   UNL     1     -13.236   9.226  71.836  1.00  0.00    -0.590 I  
HETATM   22  C   UNL     1     -11.185  10.517  69.959  1.00  0.00    -0.315 A  
HETATM   23  C   UNL     1      -9.962  10.593  69.279  1.00  0.00    -0.193 A  
HETATM   24  O   UNL     1     -12.115  11.518  69.818  1.00  0.00    -0.309 OA 
HETATM   25  H   UNL     1     -11.940  12.264  69.256  1.00  0.00     0.000 HD 
HETATM   26  I   UNL     1      -9.556  12.168  67.954  1.00  0.00    -0.209 I  
HETATM   27  C   UNL     1      -8.986   9.595  69.437  1.00  0.00    -0.186 A  
ENDBRANCH  17  18
ENDBRANCH  13  17
ENDBRANCH   8   9
ENDBRANCH   4   8
TORSDOF 4
ENDMDL
MODEL      212
REMARK 921   NORMALIZED FREE ENERGY PREDICTED BY IDOCK:   -3.23 KCAL/MOL
REMARK 922        TOTAL FREE ENERGY PREDICTED BY IDOCK:   -4.74 KCAL/MOL
REMARK 923 INTER-LIGAND FREE ENERGY PREDICTED BY IDOCK:   -5.24 KCAL/MOL
REMARK 924 INTRA-LIGAND FREE ENERGY PREDICTED BY IDOCK:    0.49 KCAL/MOL
REMARK 927      BINDING AFFINITY PREDICTED BY RF-SCORE:    0.00 PKD
ROOT
HETATM    1  N   UNL     1     -10.739   9.788  66.872  1.00  0.00    -0.171 NA 
HETATM    2  H1  UNL     1     -10.160   9.139  66.338  1.00  0.00     0.000 HD 
HETATM    3  H2  UNL     1     -10.278  10.694  66.952  1.00  0.00     0.000 HD 
HETATM    4  CA  UNL     1     -11.139   9.283  68.221  1.00  0.00     0.115 C  
HETATM    5  C   UNL     1      -9.849   8.989  69.013  1.00  0.00    -0.175 C  
HETATM    6  OXT UNL     1      -9.764   8.904  70.227  1.00  0.00    -0.168 OA 
HETATM    7  O   UNL     1      -8.789   8.816  68.179  1.00  0.00    -0.140 OA 
ENDROOT
BRANCH   4   8
HETATM    8  C   UNL     1     -12.013  10.264  69.028  1.00  0.00     0.119 C  
BRANCH   8   9
HETATM    9  C   UNL     1     -11.773  11.744  68.804  1.00  0.00    -0.389 A  
HETATM   10  C   UNL     1     -11.862  12.679  69.837  1.00  0.00    -0.364 A  
HETATM   11  C   UNL     1     -11.626  14.037  69.583  1.00  0.00    -0.289 A  
HETATM   12  I   UNL     1     -11.843  15.362  71.216  1.00  0.00    -0.612 I  
HETATM   13  C   UNL     1     -11.296  14.512  68.293  1.00  0.00    -0.297 A  
HETATM   14  C   UNL     1     -11.185  13.568  67.263  1.00  0.00    -0.298 A  
HETATM   15  C   UNL     1     -11.399  12.201  67.531  1.00  0.00    -0.392 A  
HETATM   16  I   UNL     1     -10.833  14.019  65.238  1.00  0.00    -0.437 I  
BRANCH  13  17
HETATM   17  O   UNL     1     -11.401  15.871  68.107  1.00  0.00    -0.345 OA 
BRANCH  17  18
HETATM   18  C   UNL     1     -10.340  16.729  67.961  1.00  0.00    -0.317 A  
HETATM   19  C   UNL     1      -9.106  16.063  67.887  1.00  0.00    -0.187 A  
HETATM   20  C   UNL     1      -7.912  16.775  67.753  1.00  0.00    -0.178 A  
HETATM   21  I   UNL     1      -6.126  15.697  67.656  1.00  0.00    -0.022 I  
HETATM   22  C   UNL     1      -7.940  18.169  67.706  1.00  0.00    -0.237 A  
HETATM   23  C   UNL     1      -9.170  18.836  67.775  1.00  0.00    -0.289 A  
HETATM   24  O   UNL     1      -6.773  18.884  67.586  1.00  0.00    -0.206 OA 
HETATM   25  H   UNL     1      -6.792  19.834  67.554  1.00  0.00     0.000 HD 
HETATM   26  I   UNL     1      -9.266  20.931  67.803  1.00  0.00     0.450 I  
HETATM   27  C   UNL     1     -10.375  18.118  67.866  1.00  0.00    -0.410 A  
ENDBRANCH  17  18
ENDBRANCH  13  17
ENDBRANCH   8   9
ENDBRANCH   4   8
TORSDOF 4
ENDMDL
MODEL      213
REMARK 921   NORMALIZED FREE ENERGY PREDICTED BY IDOCK:   -3.22 KCAL/MOL
REMARK 922        TOTAL FREE ENERGY PREDICTED BY IDOCK:   -4.73 KCAL/MOL
REMARK 923 INTER-LIGAND FREE ENERGY PREDICTED BY IDOCK:   -4.43 KCAL/MOL
REMARK 924 INTRA-LIGAND FREE ENERGY PREDICTED BY IDOCK:   -0.30 KCAL/MOL
REMARK 927      BINDING AFFINITY PREDICTED BY RF-SCORE:    0.00 PKD
ROOT
HETATM    1  N   UNL     1     -11.655  15.392  66.030  1.00  0.00    -0.006 NA 
HETATM    2  H1  UNL     1     -11.406  16.356  66.254  1.00  0.00     0.000 HD 
HETATM    3  H2  UNL     1     -12.656  15.243  66.157  1.00  0.00     0.000 HD 
HETATM    4  CA  UNL     1     -10.873  14.367  66.786  1.00  0.00    -0.301 C  
HETATM    5  C   UNL     1     -11.109  14.613  68.290  1.00  0.00    -0.271 C  
HETATM    6  OXT UNL     1     -10.933  13.797  69.180  1.00  0.00    -0.248 OA 
HETATM    7  O   UNL     1     -11.533  15.885  68.520  1.00  0.00    -0.367 OA 
ENDROOT
BRANCH   4   8
HETATM    8  C   UNL     1     -11.249  12.911  66.449  1.00  0.00    -0.337 C  
BRANCH   8   9
HETATM    9  C   UNL     1     -10.121  11.990  66.024  1.00  0.00    -0.257 A  
HETATM   10  C   UNL     1     -10.003  11.508  64.719  1.00  0.00    -0.304 A  
HETATM   11  C   UNL     1      -8.940  10.663  64.371  1.00  0.00    -0.195 A  
HETATM   12  I   UNL     1      -8.899   9.956  62.380  1.00  0.00    -0.341 I  
HETATM   13  C   UNL     1      -7.960  10.267  65.310  1.00  0.00    -0.148 A  
HETATM   14  C   UNL     1      -8.068  10.771  66.613  1.00  0.00    -0.142 A  
HETATM   15  C   UNL     1      -9.126  11.641  66.949  1.00  0.00    -0.188 A  
HETATM   16  I   UNL     1      -6.823  10.242  68.225  1.00  0.00    -0.067 I  
BRANCH  13  17
HETATM   17  O   UNL     1      -7.168   9.205  64.940  1.00  0.00    -0.093 OA 
BRANCH  17  18
HETATM   18  C   UNL     1      -7.448   7.887  65.201  1.00  0.00    -0.082 A  
HETATM   19  C   UNL     1      -8.600   7.718  65.984  1.00  0.00    -0.166 A  
HETATM   20  C   UNL     1      -9.032   6.446  66.363  1.00  0.00    -0.153 A  
HETATM   21  I   UNL     1     -10.755   6.296  67.533  1.00  0.00    -0.409 I  
HETATM   22  C   UNL     1      -8.303   5.323  65.972  1.00  0.00    -0.118 A  
HETATM   23  C   UNL     1      -7.155   5.488  65.186  1.00  0.00    -0.065 A  
HETATM   24  O   UNL     1      -8.708   4.065  66.345  1.00  0.00    -0.112 OA 
HETATM   25  H   UNL     1      -8.211   3.299  66.078  1.00  0.00     0.000 HD 
HETATM   26  I   UNL     1      -5.968   3.845  64.645  1.00  0.00    -0.024 I  
HETATM   27  C   UNL     1      -6.745   6.766  64.768  1.00  0.00    -0.042 A  
ENDBRANCH  17  18
ENDBRANCH  13  17
ENDBRANCH   8   9
ENDBRANCH   4   8
TORSDOF 4
ENDMDL
MODEL      214
REMARK 921   NORMALIZED FREE ENERGY PREDICTED BY IDOCK:   -3.19 KCAL/MOL
REMARK 922        TOTAL FREE ENERGY PREDICTED BY IDOCK:   -4.70 KCAL/MOL
REMARK 923 INTER-LIGAND FREE ENERGY PREDICTED BY IDOCK:   -5.42 KCAL/MOL
REMARK 924 INTRA-LIGAND FREE ENERGY PREDICTED BY IDOCK:    0.73 KCAL/MOL
REMARK 927      BINDING AFFINITY PREDICTED BY RF-SCORE:    0.00 PKD
ROOT
HETATM    1  N   UNL     1      -9.271   4.441  71.426  1.00  0.00    -0.127 NA 
HETATM    2  H1  UNL     1      -8.886   4.070  72.295  1.00  0.00     0.000 HD 
HETATM    3  H2  UNL     1      -8.615   5.093  70.996  1.00  0.00     0.000 HD 
HETATM    4  CA  UNL     1     -10.618   5.072  71.571  1.00  0.00    -0.105 C  
HETATM    5  C   UNL     1     -10.491   6.218  72.595  1.00  0.00    -0.211 C  
HETATM    6  OXT UNL     1     -11.261   7.157  72.709  1.00  0.00    -0.281 OA 
HETATM    7  O   UNL     1      -9.399   6.049  73.388  1.00  0.00    -0.135 OA 
ENDROOT
BRANCH   4   8
HETATM    8  C   UNL     1     -11.198   5.631  70.257  1.00  0.00    -0.074 C  
BRANCH   8   9
HETATM    9  C   UNL     1     -10.468   6.801  69.626  1.00  0.00    -0.243 A  
HETATM   10  C   UNL     1     -11.005   8.089  69.600  1.00  0.00    -0.106 A  
HETATM   11  C   UNL     1     -10.291   9.141  69.010  1.00  0.00    -0.215 A  
HETATM   12  I   UNL     1     -11.232  11.033  68.984  1.00  0.00    -0.426 I  
HETATM   13  C   UNL     1      -9.019   8.947  68.424  1.00  0.00    -0.134 A  
HETATM   14  C   UNL     1      -8.472   7.658  68.473  1.00  0.00    -0.129 A  
HETATM   15  C   UNL     1      -9.186   6.610  69.090  1.00  0.00    -0.136 A  
HETATM   16  I   UNL     1      -6.663   7.072  67.570  1.00  0.00    -0.074 I  
BRANCH  13  17
HETATM   17  O   UNL     1      -8.569   9.962  67.612  1.00  0.00    -0.121 OA 
BRANCH  17  18
HETATM   18  C   UNL     1      -9.053  10.239  66.358  1.00  0.00    -0.152 A  
HETATM   19  C   UNL     1      -8.435   9.476  65.354  1.00  0.00    -0.157 A  
HETATM   20  C   UNL     1      -8.788   9.633  64.012  1.00  0.00    -0.227 A  
HETATM   21  I   UNL     1      -7.810   8.457  62.590  1.00  0.00    -0.147 I  
HETATM   22  C   UNL     1      -9.758  10.570  63.657  1.00  0.00    -0.318 A  
HETATM   23  C   UNL     1     -10.380  11.329  64.657  1.00  0.00    -0.315 A  
HETATM   24  O   UNL     1     -10.110  10.744  62.341  1.00  0.00    -0.691 OA 
HETATM   25  H   UNL     1     -10.771  11.383  62.099  1.00  0.00     0.000 HD 
HETATM   26  I   UNL     1     -11.779  12.817  64.176  1.00  0.00    -0.607 I  
HETATM   27  C   UNL     1     -10.056  11.140  66.012  1.00  0.00    -0.292 A  
ENDBRANCH  17  18
ENDBRANCH  13  17
ENDBRANCH   8   9
ENDBRANCH   4   8
TORSDOF 4
ENDMDL
MODEL      215
REMARK 921   NORMALIZED FREE ENERGY PREDICTED BY IDOCK:   -3.19 KCAL/MOL
REMARK 922        TOTAL FREE ENERGY PREDICTED BY IDOCK:   -4.69 KCAL/MOL
REMARK 923 INTER-LIGAND FREE ENERGY PREDICTED BY IDOCK:   -4.60 KCAL/MOL
REMARK 924 INTRA-LIGAND FREE ENERGY PREDICTED BY IDOCK:   -0.09 KCAL/MOL
REMARK 927      BINDING AFFINITY PREDICTED BY RF-SCORE:    0.00 PKD
ROOT
HETATM    1  N   UNL     1      -8.587   3.482  71.350  1.00  0.00    -0.074 NA 
HETATM    2  H1  UNL     1      -7.659   3.129  71.585  1.00  0.00     0.000 HD 
HETATM    3  H2  UNL     1      -8.518   4.244  70.676  1.00  0.00     0.000 HD 
HETATM    4  CA  UNL     1      -9.400   3.900  72.533  1.00  0.00    -0.116 C  
HETATM    5  C   UNL     1      -8.614   5.000  73.276  1.00  0.00    -0.112 C  
HETATM    6  OXT UNL     1      -9.090   5.809  74.055  1.00  0.00    -0.125 OA 
HETATM    7  O   UNL     1      -7.291   4.954  72.965  1.00  0.00    -0.082 OA 
ENDROOT
BRANCH   4   8
HETATM    8  C   UNL     1     -10.802   4.434  72.178  1.00  0.00     0.077 C  
BRANCH   8   9
HETATM    9  C   UNL     1     -10.866   5.727  71.389  1.00  0.00    -0.316 A  
HETATM   10  C   UNL     1     -11.595   6.834  71.829  1.00  0.00    -0.336 A  
HETATM   11  C   UNL     1     -11.621   8.011  71.068  1.00  0.00    -0.283 A  
HETATM   12  I   UNL     1     -12.802   9.598  71.812  1.00  0.00    -0.544 I  
HETATM   13  C   UNL     1     -10.925   8.127  69.843  1.00  0.00    -0.168 A  
HETATM   14  C   UNL     1     -10.176   7.022  69.416  1.00  0.00    -0.189 A  
HETATM   15  C   UNL     1     -10.134   5.850  70.199  1.00  0.00    -0.261 A  
HETATM   16  I   UNL     1      -9.157   6.885  67.579  1.00  0.00    -0.134 I  
BRANCH  13  17
HETATM   17  O   UNL     1     -11.279   9.192  69.049  1.00  0.00     0.016 OA 
BRANCH  17  18
HETATM   18  C   UNL     1     -10.463  10.253  68.747  1.00  0.00    -0.203 A  
HETATM   19  C   UNL     1     -11.166  11.353  68.231  1.00  0.00    -0.326 A  
HETATM   20  C   UNL     1     -10.499  12.520  67.852  1.00  0.00    -0.217 A  
HETATM   21  I   UNL     1     -11.629  14.101  67.090  1.00  0.00    -0.454 I  
HETATM   22  C   UNL     1      -9.111  12.593  67.974  1.00  0.00    -0.207 A  
HETATM   23  C   UNL     1      -8.407  11.499  68.494  1.00  0.00    -0.146 A  
HETATM   24  O   UNL     1      -8.438  13.729  67.597  1.00  0.00    -0.157 OA 
HETATM   25  H   UNL     1      -7.492  13.780  67.679  1.00  0.00     0.000 HD 
HETATM   26  I   UNL     1      -6.313  11.516  68.614  1.00  0.00    -0.069 I  
HETATM   27  C   UNL     1      -9.083  10.341  68.916  1.00  0.00    -0.168 A  
ENDBRANCH  17  18
ENDBRANCH  13  17
ENDBRANCH   8   9
ENDBRANCH   4   8
TORSDOF 4
ENDMDL
MODEL      216
REMARK 921   NORMALIZED FREE ENERGY PREDICTED BY IDOCK:   -3.15 KCAL/MOL
REMARK 922        TOTAL FREE ENERGY PREDICTED BY IDOCK:   -4.64 KCAL/MOL
REMARK 923 INTER-LIGAND FREE ENERGY PREDICTED BY IDOCK:   -4.33 KCAL/MOL
REMARK 924 INTRA-LIGAND FREE ENERGY PREDICTED BY IDOCK:   -0.32 KCAL/MOL
REMARK 927      BINDING AFFINITY PREDICTED BY RF-SCORE:    0.00 PKD
ROOT
HETATM    1  N   UNL     1      -6.071   7.508  67.716  1.00  0.00    -0.042 NA 
HETATM    2  H1  UNL     1      -5.163   7.452  68.179  1.00  0.00     0.000 HD 
HETATM    3  H2  UNL     1      -6.620   8.276  68.102  1.00  0.00     0.000 HD 
HETATM    4  CA  UNL     1      -6.854   6.235  67.748  1.00  0.00    -0.066 C  
HETATM    5  C   UNL     1      -7.064   5.851  69.227  1.00  0.00    -0.066 C  
HETATM    6  OXT UNL     1      -7.926   5.098  69.650  1.00  0.00    -0.077 OA 
HETATM    7  O   UNL     1      -6.144   6.454  70.027  1.00  0.00    -0.028 OA 
ENDROOT
BRANCH   4   8
HETATM    8  C   UNL     1      -8.225   6.321  67.050  1.00  0.00    -0.109 C  
BRANCH   8   9
HETATM    9  C   UNL     1      -8.934   7.661  67.086  1.00  0.00    -0.137 A  
HETATM   10  C   UNL     1      -9.046   8.476  65.958  1.00  0.00    -0.246 A  
HETATM   11  C   UNL     1      -9.715   9.705  66.038  1.00  0.00    -0.264 A  
HETATM   12  I   UNL     1      -9.772  10.874  64.278  1.00  0.00    -0.416 I  
HETATM   13  C   UNL     1     -10.294  10.167  67.243  1.00  0.00    -0.237 A  
HETATM   14  C   UNL     1     -10.200   9.335  68.367  1.00  0.00    -0.202 A  
HETATM   15  C   UNL     1      -9.547   8.089  68.273  1.00  0.00    -0.156 A  
HETATM   16  I   UNL     1     -10.859   9.834  70.303  1.00  0.00    -0.412 I  
BRANCH  13  17
HETATM   17  O   UNL     1     -10.634  11.499  67.276  1.00  0.00    -0.210 OA 
BRANCH  17  18
HETATM   18  C   UNL     1      -9.744  12.535  67.407  1.00  0.00    -0.194 A  
HETATM   19  C   UNL     1      -8.631  12.201  68.196  1.00  0.00    -0.177 A  
HETATM   20  C   UNL     1      -7.627  13.136  68.454  1.00  0.00    -0.133 A  
HETATM   21  I   UNL     1      -6.013  12.549  69.641  1.00  0.00    -0.110 I  
HETATM   22  C   UNL     1      -7.733  14.426  67.934  1.00  0.00    -0.146 A  
HETATM   23  C   UNL     1      -8.841  14.761  67.143  1.00  0.00    -0.216 A  
HETATM   24  O   UNL     1      -6.760  15.362  68.187  1.00  0.00    -0.112 OA 
HETATM   25  H   UNL     1      -6.832  16.241  67.833  1.00  0.00     0.000 HD 
HETATM   26  I   UNL     1      -9.101  16.710  66.413  1.00  0.00    -0.307 I  
HETATM   27  C   UNL     1      -9.830  13.807  66.847  1.00  0.00    -0.264 A  
ENDBRANCH  17  18
ENDBRANCH  13  17
ENDBRANCH   8   9
ENDBRANCH   4   8
TORSDOF 4
ENDMDL
MODEL      217
REMARK 921   NORMALIZED FREE ENERGY PREDICTED BY IDOCK:   -3.15 KCAL/MOL
REMARK 922        TOTAL FREE ENERGY PREDICTED BY IDOCK:   -4.64 KCAL/MOL
REMARK 923 INTER-LIGAND FREE ENERGY PREDICTED BY IDOCK:   -4.15 KCAL/MOL
REMARK 924 INTRA-LIGAND FREE ENERGY PREDICTED BY IDOCK:   -0.49 KCAL/MOL
REMARK 927      BINDING AFFINITY PREDICTED BY RF-SCORE:    0.00 PKD
ROOT
HETATM    1  N   UNL     1     -11.834  16.476  69.516  1.00  0.00    -0.120 NA 
HETATM    2  H1  UNL     1     -12.586  17.090  69.201  1.00  0.00     0.000 HD 
HETATM    3  H2  UNL     1     -11.215  16.972  70.158  1.00  0.00     0.000 HD 
HETATM    4  CA  UNL     1     -11.049  15.851  68.409  1.00  0.00    -0.345 C  
HETATM    5  C   UNL     1     -10.448  16.990  67.559  1.00  0.00    -0.334 C  
HETATM    6  OXT UNL     1      -9.493  16.888  66.808  1.00  0.00    -0.237 OA 
HETATM    7  O   UNL     1     -11.134  18.151  67.738  1.00  0.00    -0.210 OA 
ENDROOT
BRANCH   4   8
HETATM    8  C   UNL     1      -9.913  14.924  68.885  1.00  0.00    -0.233 C  
BRANCH   8   9
HETATM    9  C   UNL     1     -10.051  13.448  68.568  1.00  0.00    -0.208 A  
HETATM   10  C   UNL     1      -9.303  12.828  67.566  1.00  0.00    -0.189 A  
HETATM   11  C   UNL     1      -9.460  11.458  67.311  1.00  0.00    -0.167 A  
HETATM   12  I   UNL     1      -8.312  10.645  65.735  1.00  0.00    -0.090 I  
HETATM   13  C   UNL     1     -10.369  10.659  68.044  1.00  0.00    -0.178 A  
HETATM   14  C   UNL     1     -11.101  11.281  69.064  1.00  0.00    -0.244 A  
HETATM   15  C   UNL     1     -10.919  12.653  69.331  1.00  0.00    -0.042 A  
HETATM   16  I   UNL     1     -12.603  10.357  70.214  1.00  0.00     0.060 I  
BRANCH  13  17
HETATM   17  O   UNL     1     -10.661   9.430  67.501  1.00  0.00    -0.280 OA 
BRANCH  17  18
HETATM   18  C   UNL     1     -10.036   8.255  67.834  1.00  0.00    -0.183 A  
HETATM   19  C   UNL     1      -9.249   8.364  68.992  1.00  0.00    -0.147 A  
HETATM   20  C   UNL     1      -8.524   7.273  69.474  1.00  0.00    -0.133 A  
HETATM   21  I   UNL     1      -7.378   7.533  71.201  1.00  0.00    -0.075 I  
HETATM   22  C   UNL     1      -8.568   6.057  68.791  1.00  0.00    -0.112 A  
HETATM   23  C   UNL     1      -9.356   5.944  67.638  1.00  0.00    -0.107 A  
HETATM   24  O   UNL     1      -7.853   4.976  69.246  1.00  0.00    -0.074 OA 
HETATM   25  H   UNL     1      -7.882   4.148  68.781  1.00  0.00     0.000 HD 
HETATM   26  I   UNL     1      -9.388   4.170  66.519  1.00  0.00    -0.220 I  
HETATM   27  C   UNL     1     -10.120   7.030  67.177  1.00  0.00    -0.283 A  
ENDBRANCH  17  18
ENDBRANCH  13  17
ENDBRANCH   8   9
ENDBRANCH   4   8
TORSDOF 4
ENDMDL
MODEL      218
REMARK 921   NORMALIZED FREE ENERGY PREDICTED BY IDOCK:   -3.13 KCAL/MOL
REMARK 922        TOTAL FREE ENERGY PREDICTED BY IDOCK:   -4.62 KCAL/MOL
REMARK 923 INTER-LIGAND FREE ENERGY PREDICTED BY IDOCK:   -4.12 KCAL/MOL
REMARK 924 INTRA-LIGAND FREE ENERGY PREDICTED BY IDOCK:   -0.50 KCAL/MOL
REMARK 927      BINDING AFFINITY PREDICTED BY RF-SCORE:    0.00 PKD
ROOT
HETATM    1  N   UNL     1      -9.611   3.221  70.148  1.00  0.00    -0.161 NA 
HETATM    2  H1  UNL     1     -10.380   2.645  69.803  1.00  0.00     0.000 HD 
HETATM    3  H2  UNL     1      -9.611   4.130  69.686  1.00  0.00     0.000 HD 
HETATM    4  CA  UNL     1      -8.266   2.577  70.036  1.00  0.00    -0.041 C  
HETATM    5  C   UNL     1      -8.025   2.251  68.548  1.00  0.00    -0.053 C  
HETATM    6  OXT UNL     1      -6.938   2.053  68.032  1.00  0.00    -0.039 OA 
HETATM    7  O   UNL     1      -9.198   2.192  67.861  1.00  0.00    -0.162 OA 
ENDROOT
BRANCH   4   8
HETATM    8  C   UNL     1      -7.105   3.447  70.556  1.00  0.00    -0.034 C  
BRANCH   8   9
HETATM    9  C   UNL     1      -7.370   4.933  70.703  1.00  0.00    -0.061 A  
HETATM   10  C   UNL     1      -7.616   5.527  71.942  1.00  0.00    -0.099 A  
HETATM   11  C   UNL     1      -7.851   6.906  72.030  1.00  0.00    -0.095 A  
HETATM   12  I   UNL     1      -8.264   7.681  73.952  1.00  0.00    -0.304 I  
HETATM   13  C   UNL     1      -7.852   7.741  70.888  1.00  0.00    -0.089 A  
HETATM   14  C   UNL     1      -7.581   7.144  69.649  1.00  0.00    -0.104 A  
HETATM   15  C   UNL     1      -7.321   5.760  69.572  1.00  0.00    -0.071 A  
HETATM   16  I   UNL     1      -7.646   8.128  67.790  1.00  0.00    -0.100 I  
BRANCH  13  17
HETATM   17  O   UNL     1      -8.399   8.991  71.057  1.00  0.00    -0.174 OA 
BRANCH  17  18
HETATM   18  C   UNL     1      -9.716   9.309  70.838  1.00  0.00    -0.276 A  
HETATM   19  C   UNL     1      -9.883  10.294  69.852  1.00  0.00    -0.153 A  
HETATM   20  C   UNL     1     -11.154  10.757  69.506  1.00  0.00    -0.278 A  
HETATM   21  I   UNL     1     -11.302  12.227  68.031  1.00  0.00    -0.421 I  
HETATM   22  C   UNL     1     -12.277  10.245  70.157  1.00  0.00    -0.176 A  
HETATM   23  C   UNL     1     -12.114   9.258  71.138  1.00  0.00    -0.316 A  
HETATM   24  O   UNL     1     -13.534  10.696  69.836  1.00  0.00    -0.237 OA 
HETATM   25  H   UNL     1     -14.299  10.348  70.279  1.00  0.00     0.000 HD 
HETATM   26  I   UNL     1     -13.755   8.519  72.214  1.00  0.00    -0.303 I  
HETATM   27  C   UNL     1     -10.838   8.762  71.455  1.00  0.00    -0.374 A  
ENDBRANCH  17  18
ENDBRANCH  13  17
ENDBRANCH   8   9
ENDBRANCH   4   8
TORSDOF 4
ENDMDL
MODEL      219
REMARK 921   NORMALIZED FREE ENERGY PREDICTED BY IDOCK:   -3.11 KCAL/MOL
REMARK 922        TOTAL FREE ENERGY PREDICTED BY IDOCK:   -4.59 KCAL/MOL
REMARK 923 INTER-LIGAND FREE ENERGY PREDICTED BY IDOCK:   -4.02 KCAL/MOL
REMARK 924 INTRA-LIGAND FREE ENERGY PREDICTED BY IDOCK:   -0.57 KCAL/MOL
REMARK 927      BINDING AFFINITY PREDICTED BY RF-SCORE:    0.00 PKD
ROOT
HETATM    1  N   UNL     1      -9.496  15.105  68.662  1.00  0.00    -0.199 NA 
HETATM    2  H1  UNL     1      -9.819  15.966  69.103  1.00  0.00     0.000 HD 
HETATM    3  H2  UNL     1      -8.522  15.196  68.374  1.00  0.00     0.000 HD 
HETATM    4  CA  UNL     1     -10.341  14.650  67.516  1.00  0.00    -0.234 C  
HETATM    5  C   UNL     1     -10.355  15.780  66.466  1.00  0.00    -0.294 C  
HETATM    6  OXT UNL     1     -10.632  15.649  65.286  1.00  0.00    -0.377 OA 
HETATM    7  O   UNL     1     -10.029  16.975  67.026  1.00  0.00    -0.270 OA 
ENDROOT
BRANCH   4   8
HETATM    8  C   UNL     1      -9.852  13.349  66.849  1.00  0.00    -0.256 C  
BRANCH   8   9
HETATM    9  C   UNL     1      -9.389  12.236  67.770  1.00  0.00    -0.194 A  
HETATM   10  C   UNL     1      -8.072  11.774  67.777  1.00  0.00    -0.143 A  
HETATM   11  C   UNL     1      -7.688  10.746  68.649  1.00  0.00    -0.114 A  
HETATM   12  I   UNL     1      -5.681  10.096  68.529  1.00  0.00    -0.035 I  
HETATM   13  C   UNL     1      -8.601  10.142  69.544  1.00  0.00    -0.164 A  
HETATM   14  C   UNL     1      -9.917  10.625  69.550  1.00  0.00    -0.106 A  
HETATM   15  C   UNL     1     -10.289  11.675  68.687  1.00  0.00    -0.229 A  
HETATM   16  I   UNL     1     -11.497   9.822  70.685  1.00  0.00    -0.439 I  
BRANCH  13  17
HETATM   17  O   UNL     1      -8.195   8.956  70.108  1.00  0.00    -0.104 OA 
BRANCH  17  18
HETATM   18  C   UNL     1      -8.296   7.725  69.510  1.00  0.00    -0.129 A  
HETATM   19  C   UNL     1      -7.318   6.821  69.953  1.00  0.00    -0.089 A  
HETATM   20  C   UNL     1      -7.254   5.523  69.443  1.00  0.00    -0.065 A  
HETATM   21  I   UNL     1      -5.762   4.251  70.161  1.00  0.00    -0.015 I  
HETATM   22  C   UNL     1      -8.165   5.118  68.467  1.00  0.00    -0.089 A  
HETATM   23  C   UNL     1      -9.145   6.017  68.026  1.00  0.00    -0.117 A  
HETATM   24  O   UNL     1      -8.110   3.848  67.947  1.00  0.00    -0.087 OA 
HETATM   25  H   UNL     1      -8.731   3.572  67.282  1.00  0.00     0.000 HD 
HETATM   26  I   UNL     1     -10.482   5.496  66.495  1.00  0.00    -0.128 I  
HETATM   27  C   UNL     1      -9.237   7.309  68.571  1.00  0.00    -0.138 A  
ENDBRANCH  17  18
ENDBRANCH  13  17
ENDBRANCH   8   9
ENDBRANCH   4   8
TORSDOF 4
ENDMDL
MODEL      220
REMARK 921   NORMALIZED FREE ENERGY PREDICTED BY IDOCK:   -3.10 KCAL/MOL
REMARK 922        TOTAL FREE ENERGY PREDICTED BY IDOCK:   -4.59 KCAL/MOL
REMARK 923 INTER-LIGAND FREE ENERGY PREDICTED BY IDOCK:   -6.66 KCAL/MOL
REMARK 924 INTRA-LIGAND FREE ENERGY PREDICTED BY IDOCK:    2.08 KCAL/MOL
REMARK 927      BINDING AFFINITY PREDICTED BY RF-SCORE:    0.00 PKD
ROOT
HETATM    1  N   UNL     1     -14.407  15.147  72.125  1.00  0.00    -0.548 NA 
HETATM    2  H1  UNL     1     -14.659  15.234  73.109  1.00  0.00     0.000 HD 
HETATM    3  H2  UNL     1     -14.372  14.165  71.852  1.00  0.00     0.000 HD 
HETATM    4  CA  UNL     1     -13.136  15.840  71.754  1.00  0.00    -0.416 C  
HETATM    5  C   UNL     1     -12.007  15.242  72.620  1.00  0.00    -0.431 C  
HETATM    6  OXT UNL     1     -10.815  15.296  72.368  1.00  0.00     0.018 OA 
HETATM    7  O   UNL     1     -12.507  14.645  73.735  1.00  0.00    -0.426 OA 
ENDROOT
BRANCH   4   8
HETATM    8  C   UNL     1     -12.755  15.707  70.267  1.00  0.00    -0.248 C  
BRANCH   8   9
HETATM    9  C   UNL     1     -12.081  14.416  69.842  1.00  0.00    -0.398 A  
HETATM   10  C   UNL     1     -11.071  14.385  68.878  1.00  0.00    -0.277 A  
HETATM   11  C   UNL     1     -10.473  13.169  68.520  1.00  0.00    -0.251 A  
HETATM   12  I   UNL     1      -8.995  13.243  67.011  1.00  0.00    -0.134 I  
HETATM   13  C   UNL     1     -10.860  11.942  69.108  1.00  0.00    -0.147 A  
HETATM   14  C   UNL     1     -11.857  11.981  70.092  1.00  0.00    -0.301 A  
HETATM   15  C   UNL     1     -12.436  13.211  70.464  1.00  0.00    -0.322 A  
HETATM   16  I   UNL     1     -12.701  10.296  71.029  1.00  0.00    -0.489 I  
BRANCH  13  17
HETATM   17  O   UNL     1     -10.436  10.805  68.461  1.00  0.00    -0.169 OA 
BRANCH  17  18
HETATM   18  C   UNL     1     -10.210   9.594  69.066  1.00  0.00    -0.199 A  
HETATM   19  C   UNL     1     -10.323   8.512  68.179  1.00  0.00    -0.258 A  
HETATM   20  C   UNL     1     -10.141   7.200  68.620  1.00  0.00    -0.173 A  
HETATM   21  I   UNL     1     -10.334   5.655  67.228  1.00  0.00    -0.323 I  
HETATM   22  C   UNL     1      -9.857   6.954  69.963  1.00  0.00    -0.173 A  
HETATM   23  C   UNL     1      -9.739   8.033  70.850  1.00  0.00    -0.164 A  
HETATM   24  O   UNL     1      -9.686   5.669  70.416  1.00  0.00    -0.166 OA 
HETATM   25  H   UNL     1      -9.492   5.501  71.331  1.00  0.00     0.000 HD 
HETATM   26  I   UNL     1      -9.405   7.721  72.897  1.00  0.00    -0.357 I  
HETATM   27  C   UNL     1      -9.878   9.357  70.397  1.00  0.00    -0.313 A  
ENDBRANCH  17  18
ENDBRANCH  13  17
ENDBRANCH   8   9
ENDBRANCH   4   8
TORSDOF 4
ENDMDL
MODEL      221
REMARK 921   NORMALIZED FREE ENERGY PREDICTED BY IDOCK:   -3.10 KCAL/MOL
REMARK 922        TOTAL FREE ENERGY PREDICTED BY IDOCK:   -4.58 KCAL/MOL
REMARK 923 INTER-LIGAND FREE ENERGY PREDICTED BY IDOCK:   -4.69 KCAL/MOL
REMARK 924 INTRA-LIGAND FREE ENERGY PREDICTED BY IDOCK:    0.10 KCAL/MOL
REMARK 927      BINDING AFFINITY PREDICTED BY RF-SCORE:    0.00 PKD
ROOT
HETATM    1  N   UNL     1      -6.209   9.193  73.137  1.00  0.00    -0.309 NA 
HETATM    2  H1  UNL     1      -5.201   9.099  73.014  1.00  0.00     0.000 HD 
HETATM    3  H2  UNL     1      -6.428   9.453  74.099  1.00  0.00     0.000 HD 
HETATM    4  CA  UNL     1      -6.991   7.985  72.731  1.00  0.00    -0.092 C  
HETATM    5  C   UNL     1      -6.489   6.796  73.574  1.00  0.00    -0.064 C  
HETATM    6  OXT UNL     1      -7.100   5.760  73.777  1.00  0.00    -0.084 OA 
HETATM    7  O   UNL     1      -5.244   7.035  74.069  1.00  0.00    -0.045 OA 
ENDROOT
BRANCH   4   8
HETATM    8  C   UNL     1      -8.514   8.128  72.917  1.00  0.00    -0.259 C  
BRANCH   8   9
HETATM    9  C   UNL     1      -9.342   8.358  71.667  1.00  0.00    -0.280 A  
HETATM   10  C   UNL     1      -9.056   7.725  70.456  1.00  0.00    -0.154 A  
HETATM   11  C   UNL     1      -9.852   7.964  69.328  1.00  0.00    -0.177 A  
HETATM   12  I   UNL     1      -9.287   6.989  67.540  1.00  0.00    -0.164 I  
HETATM   13  C   UNL     1     -10.959   8.843  69.365  1.00  0.00    -0.048 A  
HETATM   14  C   UNL     1     -11.257   9.459  70.588  1.00  0.00    -0.284 A  
HETATM   15  C   UNL     1     -10.467   9.194  71.724  1.00  0.00    -0.361 A  
HETATM   16  I   UNL     1     -12.762  10.900  70.884  1.00  0.00    -0.341 I  
BRANCH  13  17
HETATM   17  O   UNL     1     -11.457   9.235  68.144  1.00  0.00     0.310 OA 
BRANCH  17  18
HETATM   18  C   UNL     1     -10.916  10.216  67.352  1.00  0.00    -0.229 A  
HETATM   19  C   UNL     1     -11.153  11.509  67.846  1.00  0.00    -0.317 A  
HETATM   20  C   UNL     1     -10.691  12.636  67.164  1.00  0.00    -0.241 A  
HETATM   21  I   UNL     1     -11.097  14.517  67.974  1.00  0.00    -0.342 I  
HETATM   22  C   UNL     1      -9.993  12.481  65.966  1.00  0.00    -0.257 A  
HETATM   23  C   UNL     1      -9.750  11.192  65.472  1.00  0.00    -0.228 A  
HETATM   24  O   UNL     1      -9.541  13.579  65.276  1.00  0.00    -0.522 OA 
HETATM   25  H   UNL     1      -9.066  13.473  64.459  1.00  0.00     0.000 HD 
HETATM   26  I   UNL     1      -8.790  10.900  63.631  1.00  0.00     0.086 I  
HETATM   27  C   UNL     1     -10.178  10.056  66.182  1.00  0.00    -0.283 A  
ENDBRANCH  17  18
ENDBRANCH  13  17
ENDBRANCH   8   9
ENDBRANCH   4   8
TORSDOF 4
ENDMDL
MODEL      222
REMARK 921   NORMALIZED FREE ENERGY PREDICTED BY IDOCK:   -3.07 KCAL/MOL
REMARK 922        TOTAL FREE ENERGY PREDICTED BY IDOCK:   -4.55 KCAL/MOL
REMARK 923 INTER-LIGAND FREE ENERGY PREDICTED BY IDOCK:   -4.05 KCAL/MOL
REMARK 924 INTRA-LIGAND FREE ENERGY PREDICTED BY IDOCK:   -0.50 KCAL/MOL
REMARK 927      BINDING AFFINITY PREDICTED BY RF-SCORE:    0.00 PKD
ROOT
HETATM    1  N   UNL     1      -8.948   4.350  65.935  1.00  0.00    -0.120 NA 
HETATM    2  H1  UNL     1      -8.562   3.413  65.826  1.00  0.00     0.000 HD 
HETATM    3  H2  UNL     1      -8.203   5.026  66.105  1.00  0.00     0.000 HD 
HETATM    4  CA  UNL     1     -10.004   4.459  66.988  1.00  0.00    -0.157 C  
HETATM    5  C   UNL     1      -9.379   4.012  68.325  1.00  0.00    -0.160 C  
HETATM    6  OXT UNL     1      -9.804   4.288  69.435  1.00  0.00    -0.202 OA 
HETATM    7  O   UNL     1      -8.278   3.241  68.120  1.00  0.00    -0.076 OA 
ENDROOT
BRANCH   4   8
HETATM    8  C   UNL     1     -10.587   5.877  67.152  1.00  0.00    -0.373 C  
BRANCH   8   9
HETATM    9  C   UNL     1      -9.600   7.028  67.179  1.00  0.00    -0.187 A  
HETATM   10  C   UNL     1      -9.070   7.528  68.370  1.00  0.00    -0.133 A  
HETATM   11  C   UNL     1      -8.156   8.590  68.346  1.00  0.00    -0.122 A  
HETATM   12  I   UNL     1      -7.465   9.294  70.215  1.00  0.00    -0.168 I  
HETATM   13  C   UNL     1      -7.741   9.194  67.137  1.00  0.00    -0.098 A  
HETATM   14  C   UNL     1      -8.257   8.674  65.942  1.00  0.00    -0.123 A  
HETATM   15  C   UNL     1      -9.157   7.589  65.973  1.00  0.00    -0.139 A  
HETATM   16  I   UNL     1      -7.904   9.464  64.023  1.00  0.00    -0.163 I  
BRANCH  13  17
HETATM   17  O   UNL     1      -7.105  10.407  67.257  1.00  0.00    -0.085 OA 
BRANCH  17  18
HETATM   18  C   UNL     1      -7.737  11.613  67.425  1.00  0.00    -0.147 A  
HETATM   19  C   UNL     1      -6.848  12.660  67.718  1.00  0.00    -0.128 A  
HETATM   20  C   UNL     1      -7.312  13.958  67.937  1.00  0.00    -0.154 A  
HETATM   21  I   UNL     1      -5.914  15.447  68.370  1.00  0.00    -0.142 I  
HETATM   22  C   UNL     1      -8.681  14.221  67.880  1.00  0.00    -0.178 A  
HETATM   23  C   UNL     1      -9.571  13.180  67.584  1.00  0.00    -0.210 A  
HETATM   24  O   UNL     1      -9.156  15.491  68.103  1.00  0.00    -0.181 OA 
HETATM   25  H   UNL     1     -10.088  15.670  68.065  1.00  0.00     0.000 HD 
HETATM   26  I   UNL     1     -11.644  13.497  67.575  1.00  0.00    -0.425 I  
HETATM   27  C   UNL     1      -9.099  11.882  67.320  1.00  0.00    -0.178 A  
ENDBRANCH  17  18
ENDBRANCH  13  17
ENDBRANCH   8   9
ENDBRANCH   4   8
TORSDOF 4
ENDMDL
MODEL      223
REMARK 921   NORMALIZED FREE ENERGY PREDICTED BY IDOCK:   -3.06 KCAL/MOL
REMARK 922        TOTAL FREE ENERGY PREDICTED BY IDOCK:   -4.53 KCAL/MOL
REMARK 923 INTER-LIGAND FREE ENERGY PREDICTED BY IDOCK:   -4.78 KCAL/MOL
REMARK 924 INTRA-LIGAND FREE ENERGY PREDICTED BY IDOCK:    0.25 KCAL/MOL
REMARK 927      BINDING AFFINITY PREDICTED BY RF-SCORE:    0.00 PKD
ROOT
HETATM    1  N   UNL     1     -10.846   6.030  68.371  1.00  0.00    -0.285 NA 
HETATM    2  H1  UNL     1     -10.352   5.165  68.151  1.00  0.00     0.000 HD 
HETATM    3  H2  UNL     1     -10.268   6.839  68.143  1.00  0.00     0.000 HD 
HETATM    4  CA  UNL     1     -11.333   6.116  69.781  1.00  0.00    -0.382 C  
HETATM    5  C   UNL     1     -10.108   5.985  70.709  1.00  0.00    -0.197 C  
HETATM    6  OXT UNL     1     -10.056   6.348  71.872  1.00  0.00    -0.183 OA 
HETATM    7  O   UNL     1      -9.068   5.387  70.068  1.00  0.00    -0.125 OA 
ENDROOT
BRANCH   4   8
HETATM    8  C   UNL     1     -12.080   7.423  70.113  1.00  0.00     0.216 C  
BRANCH   8   9
HETATM    9  C   UNL     1     -11.390   8.722  69.743  1.00  0.00     0.095 A  
HETATM   10  C   UNL     1     -11.888   9.967  70.130  1.00  0.00    -0.245 A  
HETATM   11  C   UNL     1     -11.213  11.141  69.769  1.00  0.00    -0.245 A  
HETATM   12  I   UNL     1     -12.093  12.967  70.367  1.00  0.00     0.009 I  
HETATM   13  C   UNL     1     -10.021  11.117  69.009  1.00  0.00    -0.137 A  
HETATM   14  C   UNL     1      -9.512   9.864  68.642  1.00  0.00    -0.153 A  
HETATM   15  C   UNL     1     -10.183   8.687  69.030  1.00  0.00    -0.218 A  
HETATM   16  I   UNL     1      -7.834   9.551  67.410  1.00  0.00    -0.101 I  
BRANCH  13  17
HETATM   17  O   UNL     1      -9.636  12.316  68.456  1.00  0.00    -0.197 OA 
BRANCH  17  18
HETATM   18  C   UNL     1     -10.167  12.864  67.316  1.00  0.00    -0.234 A  
HETATM   19  C   UNL     1      -9.977  14.253  67.237  1.00  0.00    -0.252 A  
HETATM   20  C   UNL     1     -10.464  14.985  66.153  1.00  0.00    -0.305 A  
HETATM   21  I   UNL     1     -10.136  17.047  66.126  1.00  0.00    -0.188 I  
HETATM   22  C   UNL     1     -11.165  14.334  65.138  1.00  0.00    -0.345 A  
HETATM   23  C   UNL     1     -11.353  12.947  65.211  1.00  0.00    -0.300 A  
HETATM   24  O   UNL     1     -11.661  15.040  64.069  1.00  0.00    -0.652 OA 
HETATM   25  H   UNL     1     -12.138  14.597  63.377  1.00  0.00     0.000 HD 
HETATM   26  I   UNL     1     -12.476  11.928  63.762  1.00  0.00    -0.047 I  
HETATM   27  C   UNL     1     -10.823  12.204  66.280  1.00  0.00    -0.317 A  
ENDBRANCH  17  18
ENDBRANCH  13  17
ENDBRANCH   8   9
ENDBRANCH   4   8
TORSDOF 4
ENDMDL
MODEL      224
REMARK 921   NORMALIZED FREE ENERGY PREDICTED BY IDOCK:   -3.05 KCAL/MOL
REMARK 922        TOTAL FREE ENERGY PREDICTED BY IDOCK:   -4.52 KCAL/MOL
REMARK 923 INTER-LIGAND FREE ENERGY PREDICTED BY IDOCK:   -5.36 KCAL/MOL
REMARK 924 INTRA-LIGAND FREE ENERGY PREDICTED BY IDOCK:    0.84 KCAL/MOL
REMARK 927      BINDING AFFINITY PREDICTED BY RF-SCORE:    0.00 PKD
ROOT
HETATM    1  N   UNL     1      -8.897  17.426  68.567  1.00  0.00    -0.273 NA 
HETATM    2  H1  UNL     1      -8.513  18.252  69.027  1.00  0.00     0.000 HD 
HETATM    3  H2  UNL     1      -8.212  17.023  67.927  1.00  0.00     0.000 HD 
HETATM    4  CA  UNL     1     -10.193  17.666  67.863  1.00  0.00    -0.357 C  
HETATM    5  C   UNL     1      -9.958  18.767  66.809  1.00  0.00    -0.358 C  
HETATM    6  OXT UNL     1     -10.659  18.978  65.834  1.00  0.00    -0.476 OA 
HETATM    7  O   UNL     1      -8.857  19.507  67.109  1.00  0.00    -0.288 OA 
ENDROOT
BRANCH   4   8
HETATM    8  C   UNL     1     -10.774  16.418  67.167  1.00  0.00    -0.233 C  
BRANCH   8   9
HETATM    9  C   UNL     1      -9.953  15.145  67.241  1.00  0.00    -0.230 A  
HETATM   10  C   UNL     1     -10.296  13.995  66.528  1.00  0.00    -0.285 A  
HETATM   11  C   UNL     1      -9.503  12.842  66.623  1.00  0.00    -0.255 A  
HETATM   12  I   UNL     1     -10.154  11.149  65.540  1.00  0.00    -0.345 I  
HETATM   13  C   UNL     1      -8.344  12.794  67.431  1.00  0.00    -0.189 A  
HETATM   14  C   UNL     1      -7.990  13.959  68.126  1.00  0.00    -0.148 A  
HETATM   15  C   UNL     1      -8.778  15.121  68.006  1.00  0.00    -0.165 A  
HETATM   16  I   UNL     1      -6.395  14.118  69.490  1.00  0.00    -0.104 I  
BRANCH  13  17
HETATM   17  O   UNL     1      -7.842  11.540  67.688  1.00  0.00    -0.114 OA 
BRANCH  17  18
HETATM   18  C   UNL     1      -8.170  10.769  68.775  1.00  0.00    -0.145 A  
HETATM   19  C   UNL     1      -7.045  10.276  69.454  1.00  0.00    -0.094 A  
HETATM   20  C   UNL     1      -7.185   9.458  70.577  1.00  0.00    -0.123 A  
HETATM   21  I   UNL     1      -5.453   8.770  71.519  1.00  0.00    -0.058 I  
HETATM   22  C   UNL     1      -8.459   9.111  71.026  1.00  0.00    -0.165 A  
HETATM   23  C   UNL     1      -9.584   9.605  70.352  1.00  0.00    -0.234 A  
HETATM   24  O   UNL     1      -8.615   8.299  72.122  1.00  0.00    -0.154 OA 
HETATM   25  H   UNL     1      -9.483   8.062  72.428  1.00  0.00     0.000 HD 
HETATM   26  I   UNL     1     -11.522   9.043  70.924  1.00  0.00    -0.351 I  
HETATM   27  C   UNL     1      -9.444  10.464  69.248  1.00  0.00    -0.214 A  
ENDBRANCH  17  18
ENDBRANCH  13  17
ENDBRANCH   8   9
ENDBRANCH   4   8
TORSDOF 4
ENDMDL
MODEL      225
REMARK 921   NORMALIZED FREE ENERGY PREDICTED BY IDOCK:   -3.05 KCAL/MOL
REMARK 922        TOTAL FREE ENERGY PREDICTED BY IDOCK:   -4.51 KCAL/MOL
REMARK 923 INTER-LIGAND FREE ENERGY PREDICTED BY IDOCK:   -4.95 KCAL/MOL
REMARK 924 INTRA-LIGAND FREE ENERGY PREDICTED BY IDOCK:    0.44 KCAL/MOL
REMARK 927      BINDING AFFINITY PREDICTED BY RF-SCORE:    0.00 PKD
ROOT
HETATM    1  N   UNL     1     -11.573   9.182  71.251  1.00  0.00    -0.304 NA 
HETATM    2  H1  UNL     1     -12.559   9.320  71.477  1.00  0.00     0.000 HD 
HETATM    3  H2  UNL     1     -11.466   8.897  70.278  1.00  0.00     0.000 HD 
HETATM    4  CA  UNL     1     -10.866   8.227  72.158  1.00  0.00    -0.320 C  
HETATM    5  C   UNL     1     -11.597   6.872  72.073  1.00  0.00    -0.285 C  
HETATM    6  OXT UNL     1     -11.125   5.790  72.382  1.00  0.00    -0.253 OA 
HETATM    7  O   UNL     1     -12.868   7.027  71.616  1.00  0.00    -0.366 OA 
ENDROOT
BRANCH   4   8
HETATM    8  C   UNL     1      -9.377   8.019  71.817  1.00  0.00    -0.218 C  
BRANCH   8   9
HETATM    9  C   UNL     1      -8.809   8.848  70.680  1.00  0.00    -0.234 A  
HETATM   10  C   UNL     1      -7.726   9.711  70.856  1.00  0.00     0.093 A  
HETATM   11  C   UNL     1      -7.231  10.452  69.774  1.00  0.00    -0.154 A  
HETATM   12  I   UNL     1      -5.624  11.764  70.175  1.00  0.00    -0.162 I  
HETATM   13  C   UNL     1      -7.798  10.362  68.482  1.00  0.00    -0.107 A  
HETATM   14  C   UNL     1      -8.870   9.477  68.305  1.00  0.00    -0.124 A  
HETATM   15  C   UNL     1      -9.346   8.716  69.392  1.00  0.00    -0.150 A  
HETATM   16  I   UNL     1      -9.971   9.247  66.526  1.00  0.00    -0.279 I  
BRANCH  13  17
HETATM   17  O   UNL     1      -7.442  11.354  67.598  1.00  0.00    -0.095 OA 
BRANCH  17  18
HETATM   18  C   UNL     1      -8.198  12.463  67.314  1.00  0.00    -0.184 A  
HETATM   19  C   UNL     1      -7.805  13.594  68.047  1.00  0.00    -0.150 A  
HETATM   20  C   UNL     1      -8.471  14.812  67.901  1.00  0.00    -0.155 A  
HETATM   21  I   UNL     1      -7.817  16.438  69.038  1.00  0.00    -0.073 I  
HETATM   22  C   UNL     1      -9.553  14.909  67.026  1.00  0.00    -0.238 A  
HETATM   23  C   UNL     1      -9.945  13.783  66.289  1.00  0.00    -0.305 A  
HETATM   24  O   UNL     1     -10.226  16.097  66.879  1.00  0.00    -0.270 OA 
HETATM   25  H   UNL     1     -10.964  16.163  66.283  1.00  0.00     0.000 HD 
HETATM   26  I   UNL     1     -11.620  13.843  65.029  1.00  0.00    -0.441 I  
HETATM   27  C   UNL     1      -9.247  12.568  66.404  1.00  0.00    -0.177 A  
ENDBRANCH  17  18
ENDBRANCH  13  17
ENDBRANCH   8   9
ENDBRANCH   4   8
TORSDOF 4
ENDMDL
MODEL      226
REMARK 921   NORMALIZED FREE ENERGY PREDICTED BY IDOCK:   -3.04 KCAL/MOL
REMARK 922        TOTAL FREE ENERGY PREDICTED BY IDOCK:   -4.51 KCAL/MOL
REMARK 923 INTER-LIGAND FREE ENERGY PREDICTED BY IDOCK:   -4.77 KCAL/MOL
REMARK 924 INTRA-LIGAND FREE ENERGY PREDICTED BY IDOCK:    0.26 KCAL/MOL
REMARK 927      BINDING AFFINITY PREDICTED BY RF-SCORE:    0.00 PKD
ROOT
HETATM    1  N   UNL     1     -10.270   4.926  68.556  1.00  0.00    -0.088 NA 
HETATM    2  H1  UNL     1     -11.092   4.391  68.277  1.00  0.00     0.000 HD 
HETATM    3  H2  UNL     1     -10.487   5.921  68.593  1.00  0.00     0.000 HD 
HETATM    4  CA  UNL     1      -9.065   4.684  67.705  1.00  0.00    -0.118 C  
HETATM    5  C   UNL     1      -9.436   5.050  66.253  1.00  0.00    -0.157 C  
HETATM    6  OXT UNL     1      -8.645   5.314  65.363  1.00  0.00    -0.138 OA 
HETATM    7  O   UNL     1     -10.783   5.028  66.070  1.00  0.00    -0.298 OA 
ENDROOT
BRANCH   4   8
HETATM    8  C   UNL     1      -7.822   5.492  68.127  1.00  0.00    -0.092 C  
BRANCH   8   9
HETATM    9  C   UNL     1      -7.938   7.004  68.087  1.00  0.00    -0.119 A  
HETATM   10  C   UNL     1      -8.939   7.693  68.774  1.00  0.00    -0.133 A  
HETATM   11  C   UNL     1      -9.004   9.091  68.713  1.00  0.00    -0.137 A  
HETATM   12  I   UNL     1     -10.595  10.017  69.751  1.00  0.00    -0.350 I  
HETATM   13  C   UNL     1      -8.076   9.853  67.965  1.00  0.00    -0.108 A  
HETATM   14  C   UNL     1      -7.059   9.159  67.296  1.00  0.00    -0.079 A  
HETATM   15  C   UNL     1      -6.985   7.754  67.383  1.00  0.00    -0.078 A  
HETATM   16  I   UNL     1      -5.634  10.033  66.017  1.00  0.00    -0.084 I  
BRANCH  13  17
HETATM   17  O   UNL     1      -8.425  11.161  67.726  1.00  0.00    -0.120 OA 
BRANCH  17  18
HETATM   18  C   UNL     1      -9.199  11.589  66.677  1.00  0.00    -0.186 A  
HETATM   19  C   UNL     1      -8.779  11.071  65.442  1.00  0.00    -0.122 A  
HETATM   20  C   UNL     1      -9.438  11.409  64.258  1.00  0.00    -0.133 A  
HETATM   21  I   UNL     1      -8.738  10.591  62.469  1.00  0.00    -0.381 I  
HETATM   22  C   UNL     1     -10.521  12.287  64.297  1.00  0.00    -0.346 A  
HETATM   23  C   UNL     1     -10.946  12.803  65.528  1.00  0.00    -0.280 A  
HETATM   24  O   UNL     1     -11.174  12.639  63.141  1.00  0.00    -0.727 OA 
HETATM   25  H   UNL     1     -11.912  13.238  63.166  1.00  0.00     0.000 HD 
HETATM   26  I   UNL     1     -12.508  14.198  65.638  1.00  0.00    -0.254 I  
HETATM   27  C   UNL     1     -10.310  12.428  66.725  1.00  0.00    -0.239 A  
ENDBRANCH  17  18
ENDBRANCH  13  17
ENDBRANCH   8   9
ENDBRANCH   4   8
TORSDOF 4
ENDMDL
MODEL      227
REMARK 921   NORMALIZED FREE ENERGY PREDICTED BY IDOCK:   -3.00 KCAL/MOL
REMARK 922        TOTAL FREE ENERGY PREDICTED BY IDOCK:   -4.46 KCAL/MOL
REMARK 923 INTER-LIGAND FREE ENERGY PREDICTED BY IDOCK:   -4.06 KCAL/MOL
REMARK 924 INTRA-LIGAND FREE ENERGY PREDICTED BY IDOCK:   -0.40 KCAL/MOL
REMARK 927      BINDING AFFINITY PREDICTED BY RF-SCORE:    0.00 PKD
ROOT
HETATM    1  N   UNL     1      -8.716  14.391  69.438  1.00  0.00    -0.363 NA 
HETATM    2  H1  UNL     1      -8.988  15.032  70.184  1.00  0.00     0.000 HD 
HETATM    3  H2  UNL     1      -8.478  13.477  69.822  1.00  0.00     0.000 HD 
HETATM    4  CA  UNL     1      -7.611  14.897  68.568  1.00  0.00    -0.121 C  
HETATM    5  C   UNL     1      -6.390  15.168  69.471  1.00  0.00    -0.139 C  
HETATM    6  OXT UNL     1      -5.233  15.247  69.095  1.00  0.00    -0.095 OA 
HETATM    7  O   UNL     1      -6.764  15.326  70.769  1.00  0.00     0.255 OA 
ENDROOT
BRANCH   4   8
HETATM    8  C   UNL     1      -7.201  13.929  67.441  1.00  0.00    -0.113 C  
BRANCH   8   9
HETATM    9  C   UNL     1      -7.421  12.449  67.691  1.00  0.00    -0.138 A  
HETATM   10  C   UNL     1      -8.253  11.673  66.882  1.00  0.00    -0.169 A  
HETATM   11  C   UNL     1      -8.422  10.307  67.148  1.00  0.00    -0.125 A  
HETATM   12  I   UNL     1      -9.747   9.249  65.887  1.00  0.00    -0.094 I  
HETATM   13  C   UNL     1      -7.772   9.668  68.229  1.00  0.00    -0.082 A  
HETATM   14  C   UNL     1      -6.920  10.446  69.025  1.00  0.00    -0.071 A  
HETATM   15  C   UNL     1      -6.735  11.813  68.735  1.00  0.00    -0.083 A  
HETATM   16  I   UNL     1      -5.936   9.777  70.761  1.00  0.00    -0.062 I  
BRANCH  13  17
HETATM   17  O   UNL     1      -8.256   8.428  68.574  1.00  0.00    -0.121 OA 
BRANCH  17  18
HETATM   18  C   UNL     1      -9.113   8.180  69.617  1.00  0.00    -0.151 A  
HETATM   19  C   UNL     1     -10.052   9.206  69.807  1.00  0.00    -0.211 A  
HETATM   20  C   UNL     1     -10.997   9.135  70.832  1.00  0.00    -0.282 A  
HETATM   21  I   UNL     1     -12.351  10.711  71.039  1.00  0.00    -0.498 I  
HETATM   22  C   UNL     1     -11.002   8.037  71.693  1.00  0.00    -0.239 A  
HETATM   23  C   UNL     1     -10.069   7.009  71.503  1.00  0.00    -0.187 A  
HETATM   24  O   UNL     1     -11.917   7.956  72.714  1.00  0.00    -0.581 OA 
HETATM   25  H   UNL     1     -11.921   7.209  73.300  1.00  0.00     0.000 HD 
HETATM   26  I   UNL     1      -9.968   5.380  72.821  1.00  0.00    -0.232 I  
HETATM   27  C   UNL     1      -9.146   7.060  70.443  1.00  0.00    -0.156 A  
ENDBRANCH  17  18
ENDBRANCH  13  17
ENDBRANCH   8   9
ENDBRANCH   4   8
TORSDOF 4
ENDMDL
MODEL      228
REMARK 921   NORMALIZED FREE ENERGY PREDICTED BY IDOCK:   -3.00 KCAL/MOL
REMARK 922        TOTAL FREE ENERGY PREDICTED BY IDOCK:   -4.45 KCAL/MOL
REMARK 923 INTER-LIGAND FREE ENERGY PREDICTED BY IDOCK:   -4.00 KCAL/MOL
REMARK 924 INTRA-LIGAND FREE ENERGY PREDICTED BY IDOCK:   -0.46 KCAL/MOL
REMARK 927      BINDING AFFINITY PREDICTED BY RF-SCORE:    0.00 PKD
ROOT
HETATM    1  N   UNL     1     -10.057   3.731  71.318  1.00  0.00    -0.081 NA 
HETATM    2  H1  UNL     1      -9.809   2.922  70.747  1.00  0.00     0.000 HD 
HETATM    3  H2  UNL     1      -9.322   4.437  71.275  1.00  0.00     0.000 HD 
HETATM    4  CA  UNL     1     -10.383   3.400  72.739  1.00  0.00    -0.159 C  
HETATM    5  C   UNL     1      -9.149   2.707  73.353  1.00  0.00    -0.084 C  
HETATM    6  OXT UNL     1      -8.908   2.612  74.545  1.00  0.00    -0.070 OA 
HETATM    7  O   UNL     1      -8.346   2.187  72.388  1.00  0.00    -0.053 OA 
ENDROOT
BRANCH   4   8
HETATM    8  C   UNL     1     -10.757   4.621  73.602  1.00  0.00    -0.346 C  
BRANCH   8   9
HETATM    9  C   UNL     1     -10.462   5.991  73.020  1.00  0.00    -0.246 A  
HETATM   10  C   UNL     1     -11.474   6.852  72.590  1.00  0.00    -0.235 A  
HETATM   11  C   UNL     1     -11.153   8.111  72.065  1.00  0.00    -0.306 A  
HETATM   12  I   UNL     1     -12.767   9.302  71.398  1.00  0.00    -0.369 I  
HETATM   13  C   UNL     1      -9.816   8.556  71.946  1.00  0.00    -0.288 A  
HETATM   14  C   UNL     1      -8.805   7.698  72.401  1.00  0.00    -0.134 A  
HETATM   15  C   UNL     1      -9.137   6.443  72.952  1.00  0.00    -0.132 A  
HETATM   16  I   UNL     1      -6.739   8.059  72.225  1.00  0.00    -0.097 I  
BRANCH  13  17
HETATM   17  O   UNL     1      -9.616   9.651  71.139  1.00  0.00    -0.151 OA 
BRANCH  17  18
HETATM   18  C   UNL     1      -9.018   9.618  69.904  1.00  0.00    -0.221 A  
HETATM   19  C   UNL     1      -9.412   8.510  69.136  1.00  0.00    -0.154 A  
HETATM   20  C   UNL     1      -8.895   8.301  67.856  1.00  0.00    -0.138 A  
HETATM   21  I   UNL     1      -9.537   6.623  66.793  1.00  0.00    -0.178 I  
HETATM   22  C   UNL     1      -7.962   9.197  67.333  1.00  0.00    -0.103 A  
HETATM   23  C   UNL     1      -7.570  10.306  68.095  1.00  0.00    -0.087 A  
HETATM   24  O   UNL     1      -7.435   9.001  66.080  1.00  0.00    -0.089 OA 
HETATM   25  H   UNL     1      -6.799   9.611  65.724  1.00  0.00     0.000 HD 
HETATM   26  I   UNL     1      -6.103  11.634  67.399  1.00  0.00    -0.140 I  
HETATM   27  C   UNL     1      -8.124  10.539  69.366  1.00  0.00    -0.136 A  
ENDBRANCH  17  18
ENDBRANCH  13  17
ENDBRANCH   8   9
ENDBRANCH   4   8
TORSDOF 4
ENDMDL
MODEL      229
REMARK 921   NORMALIZED FREE ENERGY PREDICTED BY IDOCK:   -2.98 KCAL/MOL
REMARK 922        TOTAL FREE ENERGY PREDICTED BY IDOCK:   -4.43 KCAL/MOL
REMARK 923 INTER-LIGAND FREE ENERGY PREDICTED BY IDOCK:   -4.03 KCAL/MOL
REMARK 924 INTRA-LIGAND FREE ENERGY PREDICTED BY IDOCK:   -0.40 KCAL/MOL
REMARK 927      BINDING AFFINITY PREDICTED BY RF-SCORE:    0.00 PKD
ROOT
HETATM    1  N   UNL     1     -12.318   6.883  71.902  1.00  0.00    -0.408 NA 
HETATM    2  H1  UNL     1     -12.762   6.171  72.483  1.00  0.00     0.000 HD 
HETATM    3  H2  UNL     1     -11.721   6.447  71.198  1.00  0.00     0.000 HD 
HETATM    4  CA  UNL     1     -11.555   7.913  72.671  1.00  0.00    -0.377 C  
HETATM    5  C   UNL     1     -10.471   7.180  73.488  1.00  0.00    -0.380 C  
HETATM    6  OXT UNL     1      -9.462   7.689  73.946  1.00  0.00    -0.275 OA 
HETATM    7  O   UNL     1     -10.786   5.867  73.656  1.00  0.00    -0.262 OA 
ENDROOT
BRANCH   4   8
HETATM    8  C   UNL     1     -10.884   8.987  71.793  1.00  0.00    -0.437 C  
BRANCH   8   9
HETATM    9  C   UNL     1      -9.935   8.501  70.714  1.00  0.00    -0.230 A  
HETATM   10  C   UNL     1      -8.568   8.780  70.743  1.00  0.00    -0.218 A  
HETATM   11  C   UNL     1      -7.728   8.305  69.727  1.00  0.00    -0.098 A  
HETATM   12  I   UNL     1      -5.687   8.837  69.852  1.00  0.00    -0.028 I  
HETATM   13  C   UNL     1      -8.220   7.538  68.646  1.00  0.00    -0.129 A  
HETATM   14  C   UNL     1      -9.590   7.240  68.633  1.00  0.00    -0.141 A  
HETATM   15  C   UNL     1     -10.423   7.700  69.672  1.00  0.00    -0.235 A  
HETATM   16  I   UNL     1     -10.596   6.230  67.084  1.00  0.00    -0.442 I  
BRANCH  13  17
HETATM   17  O   UNL     1      -7.375   7.404  67.569  1.00  0.00    -0.096 OA 
BRANCH  17  18
HETATM   18  C   UNL     1      -6.853   6.217  67.121  1.00  0.00    -0.063 A  
HETATM   19  C   UNL     1      -6.393   6.288  65.796  1.00  0.00    -0.038 A  
HETATM   20  C   UNL     1      -5.843   5.170  65.165  1.00  0.00    -0.017 A  
HETATM   21  I   UNL     1      -5.191   5.371  63.192  1.00  0.00    -0.014 I  
HETATM   22  C   UNL     1      -5.760   3.959  65.853  1.00  0.00    -0.018 A  
HETATM   23  C   UNL     1      -6.214   3.886  67.176  1.00  0.00    -0.036 A  
HETATM   24  O   UNL     1      -5.232   2.847  65.243  1.00  0.00    -0.008 OA 
HETATM   25  H   UNL     1      -5.176   2.022  65.711  1.00  0.00     0.000 HD 
HETATM   26  I   UNL     1      -6.200   2.071  68.228  1.00  0.00    -0.025 I  
HETATM   27  C   UNL     1      -6.727   5.023  67.826  1.00  0.00    -0.055 A  
ENDBRANCH  17  18
ENDBRANCH  13  17
ENDBRANCH   8   9
ENDBRANCH   4   8
TORSDOF 4
ENDMDL
MODEL      230
REMARK 921   NORMALIZED FREE ENERGY PREDICTED BY IDOCK:   -2.93 KCAL/MOL
REMARK 922        TOTAL FREE ENERGY PREDICTED BY IDOCK:   -4.37 KCAL/MOL
REMARK 923 INTER-LIGAND FREE ENERGY PREDICTED BY IDOCK:   -4.38 KCAL/MOL
REMARK 924 INTRA-LIGAND FREE ENERGY PREDICTED BY IDOCK:    0.01 KCAL/MOL
REMARK 927      BINDING AFFINITY PREDICTED BY RF-SCORE:    0.00 PKD
ROOT
HETATM    1  N   UNL     1     -11.505   7.454  72.347  1.00  0.00    -0.292 NA 
HETATM    2  H1  UNL     1     -12.026   7.701  73.189  1.00  0.00     0.000 HD 
HETATM    3  H2  UNL     1     -11.696   6.488  72.080  1.00  0.00     0.000 HD 
HETATM    4  CA  UNL     1     -10.032   7.689  72.447  1.00  0.00    -0.203 C  
HETATM    5  C   UNL     1      -9.504   6.853  73.630  1.00  0.00    -0.188 C  
HETATM    6  OXT UNL     1      -8.344   6.516  73.800  1.00  0.00    -0.116 OA 
HETATM    7  O   UNL     1     -10.505   6.537  74.495  1.00  0.00    -0.275 OA 
ENDROOT
BRANCH   4   8
HETATM    8  C   UNL     1      -9.246   7.315  71.175  1.00  0.00    -0.156 C  
BRANCH   8   9
HETATM    9  C   UNL     1      -8.857   8.451  70.248  1.00  0.00    -0.142 A  
HETATM   10  C   UNL     1      -9.512   8.684  69.038  1.00  0.00    -0.153 A  
HETATM   11  C   UNL     1      -9.121   9.750  68.216  1.00  0.00    -0.122 A  
HETATM   12  I   UNL     1     -10.153   9.967  66.384  1.00  0.00    -0.237 I  
HETATM   13  C   UNL     1      -8.063  10.619  68.569  1.00  0.00    -0.125 A  
HETATM   14  C   UNL     1      -7.424  10.397  69.796  1.00  0.00    -0.149 A  
HETATM   15  C   UNL     1      -7.839   9.338  70.628  1.00  0.00    -0.181 A  
HETATM   16  I   UNL     1      -5.747  11.458  70.499  1.00  0.00     0.007 I  
BRANCH  13  17
HETATM   17  O   UNL     1      -7.573  11.412  67.558  1.00  0.00    -0.106 OA 
BRANCH  17  18
HETATM   18  C   UNL     1      -7.804  12.758  67.431  1.00  0.00    -0.172 A  
HETATM   19  C   UNL     1      -8.918  13.048  66.627  1.00  0.00    -0.132 A  
HETATM   20  C   UNL     1      -9.297  14.367  66.372  1.00  0.00    -0.258 A  
HETATM   21  I   UNL     1     -10.965  14.699  65.161  1.00  0.00    -0.453 I  
HETATM   22  C   UNL     1      -8.553  15.417  66.911  1.00  0.00    -0.259 A  
HETATM   23  C   UNL     1      -7.444  15.131  67.718  1.00  0.00    -0.162 A  
HETATM   24  O   UNL     1      -8.906  16.721  66.662  1.00  0.00    -0.220 OA 
HETATM   25  H   UNL     1      -8.399  17.436  67.029  1.00  0.00     0.000 HD 
HETATM   26  I   UNL     1      -6.233  16.666  68.479  1.00  0.00    -0.154 I  
HETATM   27  C   UNL     1      -7.088  13.803  68.010  1.00  0.00    -0.133 A  
ENDBRANCH  17  18
ENDBRANCH  13  17
ENDBRANCH   8   9
ENDBRANCH   4   8
TORSDOF 4
ENDMDL
MODEL      231
REMARK 921   NORMALIZED FREE ENERGY PREDICTED BY IDOCK:   -2.90 KCAL/MOL
REMARK 922        TOTAL FREE ENERGY PREDICTED BY IDOCK:   -4.34 KCAL/MOL
REMARK 923 INTER-LIGAND FREE ENERGY PREDICTED BY IDOCK:   -4.50 KCAL/MOL
REMARK 924 INTRA-LIGAND FREE ENERGY PREDICTED BY IDOCK:    0.16 KCAL/MOL
REMARK 927      BINDING AFFINITY PREDICTED BY RF-SCORE:    0.00 PKD
ROOT
HETATM    1  N   UNL     1      -8.709   8.087  66.584  1.00  0.00    -0.134 NA 
HETATM    2  H1  UNL     1      -7.976   7.401  66.401  1.00  0.00     0.000 HD 
HETATM    3  H2  UNL     1      -9.630   7.668  66.452  1.00  0.00     0.000 HD 
HETATM    4  CA  UNL     1      -8.585   9.343  65.785  1.00  0.00    -0.145 C  
HETATM    5  C   UNL     1      -8.619   8.955  64.292  1.00  0.00    -0.109 C  
HETATM    6  OXT UNL     1      -8.891   9.705  63.369  1.00  0.00    -0.217 OA 
HETATM    7  O   UNL     1      -8.288   7.648  64.117  1.00  0.00    -0.042 OA 
ENDROOT
BRANCH   4   8
HETATM    8  C   UNL     1      -9.692  10.379  66.062  1.00  0.00    -0.265 C  
BRANCH   8   9
HETATM    9  C   UNL     1      -9.319  11.573  66.920  1.00  0.00    -0.189 A  
HETATM   10  C   UNL     1     -10.279  12.377  67.536  1.00  0.00    -0.214 A  
HETATM   11  C   UNL     1      -9.886  13.467  68.326  1.00  0.00    -0.235 A  
HETATM   12  I   UNL     1     -11.431  14.642  69.162  1.00  0.00    -0.395 I  
HETATM   13  C   UNL     1      -8.526  13.795  68.527  1.00  0.00    -0.117 A  
HETATM   14  C   UNL     1      -7.565  12.971  67.926  1.00  0.00    -0.144 A  
HETATM   15  C   UNL     1      -7.967  11.862  67.154  1.00  0.00    -0.172 A  
HETATM   16  I   UNL     1      -5.487  13.307  67.960  1.00  0.00    -0.072 I  
BRANCH  13  17
HETATM   17  O   UNL     1      -8.278  15.045  69.044  1.00  0.00    -0.166 OA 
BRANCH  17  18
HETATM   18  C   UNL     1      -8.321  16.215  68.328  1.00  0.00    -0.171 A  
HETATM   19  C   UNL     1      -7.134  16.467  67.623  1.00  0.00    -0.157 A  
HETATM   20  C   UNL     1      -6.988  17.620  66.850  1.00  0.00    -0.185 A  
HETATM   21  I   UNL     1      -5.183  17.910  65.840  1.00  0.00    -0.142 I  
HETATM   22  C   UNL     1      -8.029  18.546  66.786  1.00  0.00    -0.252 A  
HETATM   23  C   UNL     1      -9.217  18.296  67.485  1.00  0.00    -0.254 A  
HETATM   24  O   UNL     1      -7.898  19.691  66.039  1.00  0.00    -0.321 OA 
HETATM   25  H   UNL     1      -8.607  20.323  65.995  1.00  0.00     0.000 HD 
HETATM   26  I   UNL     1     -10.780  19.694  67.502  1.00  0.00    -0.133 I  
HETATM   27  C   UNL     1      -9.380  17.113  68.228  1.00  0.00    -0.265 A  
ENDBRANCH  17  18
ENDBRANCH  13  17
ENDBRANCH   8   9
ENDBRANCH   4   8
TORSDOF 4
ENDMDL
MODEL      232
REMARK 921   NORMALIZED FREE ENERGY PREDICTED BY IDOCK:   -2.90 KCAL/MOL
REMARK 922        TOTAL FREE ENERGY PREDICTED BY IDOCK:   -4.33 KCAL/MOL
REMARK 923 INTER-LIGAND FREE ENERGY PREDICTED BY IDOCK:   -3.97 KCAL/MOL
REMARK 924 INTRA-LIGAND FREE ENERGY PREDICTED BY IDOCK:   -0.37 KCAL/MOL
REMARK 927      BINDING AFFINITY PREDICTED BY RF-SCORE:    0.00 PKD
ROOT
HETATM    1  N   UNL     1     -12.300   6.888  71.892  1.00  0.00    -0.408 NA 
HETATM    2  H1  UNL     1     -12.744   6.173  72.469  1.00  0.00     0.000 HD 
HETATM    3  H2  UNL     1     -11.705   6.456  71.185  1.00  0.00     0.000 HD 
HETATM    4  CA  UNL     1     -11.536   7.912  72.666  1.00  0.00    -0.395 C  
HETATM    5  C   UNL     1     -10.451   7.174  73.477  1.00  0.00    -0.380 C  
HETATM    6  OXT UNL     1      -9.441   7.679  73.937  1.00  0.00    -0.275 OA 
HETATM    7  O   UNL     1     -10.767   5.861  73.638  1.00  0.00    -0.262 OA 
ENDROOT
BRANCH   4   8
HETATM    8  C   UNL     1     -10.865   8.992  71.794  1.00  0.00    -0.437 C  
BRANCH   8   9
HETATM    9  C   UNL     1      -9.928   8.511  70.703  1.00  0.00    -0.222 A  
HETATM   10  C   UNL     1      -8.556   8.767  70.733  1.00  0.00    -0.218 A  
HETATM   11  C   UNL     1      -7.727   8.297  69.705  1.00  0.00    -0.100 A  
HETATM   12  I   UNL     1      -5.677   8.794  69.834  1.00  0.00    -0.028 I  
HETATM   13  C   UNL     1      -8.234   7.559  68.611  1.00  0.00    -0.129 A  
HETATM   14  C   UNL     1      -9.608   7.284  68.597  1.00  0.00    -0.141 A  
HETATM   15  C   UNL     1     -10.432   7.738  69.647  1.00  0.00    -0.229 A  
HETATM   16  I   UNL     1     -10.636   6.320  67.032  1.00  0.00    -0.378 I  
BRANCH  13  17
HETATM   17  O   UNL     1      -7.395   7.432  67.529  1.00  0.00    -0.096 OA 
BRANCH  17  18
HETATM   18  C   UNL     1      -6.889   6.246  67.061  1.00  0.00    -0.062 A  
HETATM   19  C   UNL     1      -6.524   5.364  68.090  1.00  0.00    -0.044 A  
HETATM   20  C   UNL     1      -5.975   4.112  67.804  1.00  0.00    -0.027 A  
HETATM   21  I   UNL     1      -5.458   2.871  69.402  1.00  0.00    -0.019 I  
HETATM   22  C   UNL     1      -5.772   3.733  66.477  1.00  0.00    -0.022 A  
HETATM   23  C   UNL     1      -6.140   4.609  65.447  1.00  0.00    -0.026 A  
HETATM   24  O   UNL     1      -5.224   2.510  66.177  1.00  0.00    -0.004 OA 
HETATM   25  H   UNL     1      -5.085   2.252  65.273  1.00  0.00     0.000 HD 
HETATM   26  I   UNL     1      -5.773   4.134  63.437  1.00  0.00    -0.014 I  
HETATM   27  C   UNL     1      -6.733   5.851  65.734  1.00  0.00    -0.048 A  
ENDBRANCH  17  18
ENDBRANCH  13  17
ENDBRANCH   8   9
ENDBRANCH   4   8
TORSDOF 4
ENDMDL
MODEL      233
REMARK 921   NORMALIZED FREE ENERGY PREDICTED BY IDOCK:   -2.89 KCAL/MOL
REMARK 922        TOTAL FREE ENERGY PREDICTED BY IDOCK:   -4.32 KCAL/MOL
REMARK 923 INTER-LIGAND FREE ENERGY PREDICTED BY IDOCK:   -4.59 KCAL/MOL
REMARK 924 INTRA-LIGAND FREE ENERGY PREDICTED BY IDOCK:    0.27 KCAL/MOL
REMARK 927      BINDING AFFINITY PREDICTED BY RF-SCORE:    0.00 PKD
ROOT
HETATM    1  N   UNL     1     -11.262  12.473  63.637  1.00  0.00    -0.454 NA 
HETATM    2  H1  UNL     1     -11.080  13.359  63.165  1.00  0.00     0.000 HD 
HETATM    3  H2  UNL     1     -12.201  12.139  63.418  1.00  0.00     0.000 HD 
HETATM    4  CA  UNL     1     -11.050  12.511  65.116  1.00  0.00    -0.299 C  
HETATM    5  C   UNL     1     -11.985  13.592  65.695  1.00  0.00    -0.397 C  
HETATM    6  OXT UNL     1     -12.345  13.670  66.858  1.00  0.00    -0.365 OA 
HETATM    7  O   UNL     1     -12.361  14.481  64.738  1.00  0.00    -0.438 OA 
ENDROOT
BRANCH   4   8
HETATM    8  C   UNL     1     -11.325  11.171  65.827  1.00  0.00     0.122 C  
BRANCH   8   9
HETATM    9  C   UNL     1     -10.587  10.919  67.128  1.00  0.00    -0.302 A  
HETATM   10  C   UNL     1      -9.193  10.864  67.196  1.00  0.00    -0.159 A  
HETATM   11  C   UNL     1      -8.554  10.634  68.422  1.00  0.00    -0.134 A  
HETATM   12  I   UNL     1      -6.445  10.519  68.388  1.00  0.00    -0.056 I  
HETATM   13  C   UNL     1      -9.279  10.447  69.621  1.00  0.00    -0.056 A  
HETATM   14  C   UNL     1     -10.677  10.526  69.553  1.00  0.00    -0.255 A  
HETATM   15  C   UNL     1     -11.311  10.783  68.321  1.00  0.00    -0.376 A  
HETATM   16  I   UNL     1     -11.991  10.163  71.156  1.00  0.00    -0.421 I  
BRANCH  13  17
HETATM   17  O   UNL     1      -8.571   9.922  70.677  1.00  0.00    -0.130 OA 
BRANCH  17  18
HETATM   18  C   UNL     1      -8.627   8.614  71.088  1.00  0.00    -0.181 A  
HETATM   19  C   UNL     1      -7.366   7.998  71.122  1.00  0.00    -0.065 A  
HETATM   20  C   UNL     1      -7.228   6.662  71.501  1.00  0.00    -0.082 A  
HETATM   21  I   UNL     1      -5.312   5.832  71.517  1.00  0.00    -0.018 I  
HETATM   22  C   UNL     1      -8.360   5.919  71.838  1.00  0.00    -0.119 A  
HETATM   23  C   UNL     1      -9.619   6.531  71.810  1.00  0.00    -0.152 A  
HETATM   24  O   UNL     1      -8.243   4.599  72.204  1.00  0.00    -0.105 OA 
HETATM   25  H   UNL     1      -9.014   4.093  72.433  1.00  0.00     0.000 HD 
HETATM   26  I   UNL     1     -11.364   5.440  72.216  1.00  0.00     0.054 I  
HETATM   27  C   UNL     1      -9.753   7.889  71.470  1.00  0.00    -0.201 A  
ENDBRANCH  17  18
ENDBRANCH  13  17
ENDBRANCH   8   9
ENDBRANCH   4   8
TORSDOF 4
ENDMDL
MODEL      234
REMARK 921   NORMALIZED FREE ENERGY PREDICTED BY IDOCK:   -2.88 KCAL/MOL
REMARK 922        TOTAL FREE ENERGY PREDICTED BY IDOCK:   -4.31 KCAL/MOL
REMARK 923 INTER-LIGAND FREE ENERGY PREDICTED BY IDOCK:   -4.14 KCAL/MOL
REMARK 924 INTRA-LIGAND FREE ENERGY PREDICTED BY IDOCK:   -0.17 KCAL/MOL
REMARK 927      BINDING AFFINITY PREDICTED BY RF-SCORE:    0.00 PKD
ROOT
HETATM    1  N   UNL     1     -11.632   8.926  69.926  1.00  0.00    -0.438 NA 
HETATM    2  H1  UNL     1     -12.256   9.056  70.723  1.00  0.00     0.000 HD 
HETATM    3  H2  UNL     1     -12.169   8.745  69.078  1.00  0.00     0.000 HD 
HETATM    4  CA  UNL     1     -10.597   7.866  70.126  1.00  0.00    -0.237 C  
HETATM    5  C   UNL     1     -11.332   6.541  70.413  1.00  0.00    -0.383 C  
HETATM    6  OXT UNL     1     -10.859   5.424  70.283  1.00  0.00    -0.266 OA 
HETATM    7  O   UNL     1     -12.598   6.767  70.854  1.00  0.00    -0.336 OA 
ENDROOT
BRANCH   4   8
HETATM    8  C   UNL     1      -9.654   7.670  68.923  1.00  0.00    -0.150 C  
BRANCH   8   9
HETATM    9  C   UNL     1      -8.900   8.891  68.433  1.00  0.00    -0.134 A  
HETATM   10  C   UNL     1      -8.089   9.654  69.275  1.00  0.00    -0.107 A  
HETATM   11  C   UNL     1      -7.406  10.772  68.776  1.00  0.00    -0.104 A  
HETATM   12  I   UNL     1      -6.253  11.878  70.159  1.00  0.00     0.320 I  
HETATM   13  C   UNL     1      -7.509  11.171  67.423  1.00  0.00    -0.109 A  
HETATM   14  C   UNL     1      -8.305  10.388  66.576  1.00  0.00    -0.130 A  
HETATM   15  C   UNL     1      -8.968   9.251  67.079  1.00  0.00    -0.142 A  
HETATM   16  I   UNL     1      -8.728  10.829  64.562  1.00  0.00     0.117 I  
BRANCH  13  17
HETATM   17  O   UNL     1      -7.060  12.438  67.134  1.00  0.00    -0.142 OA 
BRANCH  17  18
HETATM   18  C   UNL     1      -7.774  13.592  67.341  1.00  0.00    -0.137 A  
HETATM   19  C   UNL     1      -8.990  13.369  68.006  1.00  0.00    -0.190 A  
HETATM   20  C   UNL     1      -9.858  14.424  68.290  1.00  0.00    -0.229 A  
HETATM   21  I   UNL     1     -11.646  13.994  69.280  1.00  0.00    -0.401 I  
HETATM   22  C   UNL     1      -9.524  15.720  67.896  1.00  0.00    -0.212 A  
HETATM   23  C   UNL     1      -8.309  15.946  67.235  1.00  0.00    -0.186 A  
HETATM   24  O   UNL     1     -10.372  16.768  68.158  1.00  0.00    -0.286 OA 
HETATM   25  H   UNL     1     -10.144  17.651  67.889  1.00  0.00     0.000 HD 
HETATM   26  I   UNL     1      -7.796  17.856  66.537  1.00  0.00    -0.290 I  
HETATM   27  C   UNL     1      -7.415  14.890  66.989  1.00  0.00     0.033 A  
ENDBRANCH  17  18
ENDBRANCH  13  17
ENDBRANCH   8   9
ENDBRANCH   4   8
TORSDOF 4
ENDMDL
MODEL      235
REMARK 921   NORMALIZED FREE ENERGY PREDICTED BY IDOCK:   -2.85 KCAL/MOL
REMARK 922        TOTAL FREE ENERGY PREDICTED BY IDOCK:   -4.27 KCAL/MOL
REMARK 923 INTER-LIGAND FREE ENERGY PREDICTED BY IDOCK:   -4.23 KCAL/MOL
REMARK 924 INTRA-LIGAND FREE ENERGY PREDICTED BY IDOCK:   -0.04 KCAL/MOL
REMARK 927      BINDING AFFINITY PREDICTED BY RF-SCORE:    0.00 PKD
ROOT
HETATM    1  N   UNL     1      -7.364  16.019  69.412  1.00  0.00    -0.228 NA 
HETATM    2  H1  UNL     1      -7.001  16.706  70.073  1.00  0.00     0.000 HD 
HETATM    3  H2  UNL     1      -6.598  15.554  68.924  1.00  0.00     0.000 HD 
HETATM    4  CA  UNL     1      -8.350  16.571  68.433  1.00  0.00    -0.200 C  
HETATM    5  C   UNL     1      -7.650  17.703  67.652  1.00  0.00    -0.204 C  
HETATM    6  OXT UNL     1      -8.000  18.139  66.568  1.00  0.00    -0.240 OA 
HETATM    7  O   UNL     1      -6.578  18.182  68.337  1.00  0.00    -0.200 OA 
ENDROOT
BRANCH   4   8
HETATM    8  C   UNL     1      -8.898  15.533  67.434  1.00  0.00    -0.203 C  
BRANCH   8   9
HETATM    9  C   UNL     1      -8.618  14.073  67.737  1.00  0.00    -0.183 A  
HETATM   10  C   UNL     1      -7.337  13.527  67.652  1.00  0.00    -0.180 A  
HETATM   11  C   UNL     1      -7.125  12.173  67.947  1.00  0.00    -0.101 A  
HETATM   12  I   UNL     1      -5.152  11.449  67.731  1.00  0.00    -0.061 I  
HETATM   13  C   UNL     1      -8.182  11.316  68.333  1.00  0.00    -0.149 A  
HETATM   14  C   UNL     1      -9.463  11.874  68.439  1.00  0.00    -0.189 A  
HETATM   15  C   UNL     1      -9.663  13.242  68.166  1.00  0.00    -0.227 A  
HETATM   16  I   UNL     1     -11.222  10.800  68.868  1.00  0.00    -0.385 I  
BRANCH  13  17
HETATM   17  O   UNL     1      -7.912   9.968  68.285  1.00  0.00    -0.095 OA 
BRANCH  17  18
HETATM   18  C   UNL     1      -8.023   9.183  67.164  1.00  0.00    -0.106 A  
HETATM   19  C   UNL     1      -8.712   7.984  67.404  1.00  0.00    -0.124 A  
HETATM   20  C   UNL     1      -8.908   7.051  66.385  1.00  0.00    -0.145 A  
HETATM   21  I   UNL     1      -9.940   5.293  66.839  1.00  0.00    -0.310 I  
HETATM   22  C   UNL     1      -8.403   7.304  65.109  1.00  0.00    -0.075 A  
HETATM   23  C   UNL     1      -7.719   8.502  64.865  1.00  0.00    -0.105 A  
HETATM   24  O   UNL     1      -8.578   6.392  64.097  1.00  0.00    -0.338 OA 
HETATM   25  H   UNL     1      -8.233   6.564  63.228  1.00  0.00     0.000 HD 
HETATM   26  I   UNL     1      -6.857   8.896  62.994  1.00  0.00    -0.087 I  
HETATM   27  C   UNL     1      -7.559   9.461  65.881  1.00  0.00    -0.099 A  
ENDBRANCH  17  18
ENDBRANCH  13  17
ENDBRANCH   8   9
ENDBRANCH   4   8
TORSDOF 4
ENDMDL
MODEL      236
REMARK 921   NORMALIZED FREE ENERGY PREDICTED BY IDOCK:   -2.84 KCAL/MOL
REMARK 922        TOTAL FREE ENERGY PREDICTED BY IDOCK:   -4.26 KCAL/MOL
REMARK 923 INTER-LIGAND FREE ENERGY PREDICTED BY IDOCK:   -3.63 KCAL/MOL
REMARK 924 INTRA-LIGAND FREE ENERGY PREDICTED BY IDOCK:   -0.63 KCAL/MOL
REMARK 927      BINDING AFFINITY PREDICTED BY RF-SCORE:    0.00 PKD
ROOT
HETATM    1  N   UNL     1      -8.064   3.592  64.221  1.00  0.00    -0.086 NA 
HETATM    2  H1  UNL     1      -8.213   3.176  63.301  1.00  0.00     0.000 HD 
HETATM    3  H2  UNL     1      -8.070   2.872  64.943  1.00  0.00     0.000 HD 
HETATM    4  CA  UNL     1      -9.026   4.684  64.562  1.00  0.00    -0.147 C  
HETATM    5  C   UNL     1     -10.449   4.091  64.502  1.00  0.00    -0.197 C  
HETATM    6  OXT UNL     1     -11.437   4.559  65.042  1.00  0.00    -0.157 OA 
HETATM    7  O   UNL     1     -10.479   2.963  63.743  1.00  0.00    -0.190 OA 
ENDROOT
BRANCH   4   8
HETATM    8  C   UNL     1      -8.801   5.312  65.952  1.00  0.00    -0.145 C  
BRANCH   8   9
HETATM    9  C   UNL     1      -8.162   6.687  65.990  1.00  0.00    -0.128 A  
HETATM   10  C   UNL     1      -7.267   7.067  66.992  1.00  0.00    -0.081 A  
HETATM   11  C   UNL     1      -6.698   8.347  66.983  1.00  0.00    -0.062 A  
HETATM   12  I   UNL     1      -5.400   8.822  68.582  1.00  0.00    -0.037 I  
HETATM   13  C   UNL     1      -7.000   9.295  65.978  1.00  0.00    -0.089 A  
HETATM   14  C   UNL     1      -7.881   8.903  64.961  1.00  0.00    -0.112 A  
HETATM   15  C   UNL     1      -8.430   7.604  64.963  1.00  0.00    -0.027 A  
HETATM   16  I   UNL     1      -8.594  10.153  63.426  1.00  0.00    -0.266 I  
BRANCH  13  17
HETATM   17  O   UNL     1      -6.638  10.594  66.248  1.00  0.00    -0.108 OA 
BRANCH  17  18
HETATM   18  C   UNL     1      -7.408  11.499  66.935  1.00  0.00    -0.140 A  
HETATM   19  C   UNL     1      -6.660  12.567  67.455  1.00  0.00    -0.150 A  
HETATM   20  C   UNL     1      -7.272  13.579  68.198  1.00  0.00    -0.117 A  
HETATM   21  I   UNL     1      -6.078  15.124  68.935  1.00  0.00    -0.107 I  
HETATM   22  C   UNL     1      -8.645  13.524  68.441  1.00  0.00    -0.142 A  
HETATM   23  C   UNL     1      -9.395  12.461  67.919  1.00  0.00    -0.195 A  
HETATM   24  O   UNL     1      -9.262  14.505  69.179  1.00  0.00    -0.363 OA 
HETATM   25  H   UNL     1     -10.197  14.467  69.344  1.00  0.00     0.000 HD 
HETATM   26  I   UNL     1     -11.443  12.276  68.329  1.00  0.00    -0.421 I  
HETATM   27  C   UNL     1      -8.785  11.466  67.134  1.00  0.00    -0.155 A  
ENDBRANCH  17  18
ENDBRANCH  13  17
ENDBRANCH   8   9
ENDBRANCH   4   8
TORSDOF 4
ENDMDL
MODEL      237
REMARK 921   NORMALIZED FREE ENERGY PREDICTED BY IDOCK:   -2.84 KCAL/MOL
REMARK 922        TOTAL FREE ENERGY PREDICTED BY IDOCK:   -4.26 KCAL/MOL
REMARK 923 INTER-LIGAND FREE ENERGY PREDICTED BY IDOCK:   -3.81 KCAL/MOL
REMARK 924 INTRA-LIGAND FREE ENERGY PREDICTED BY IDOCK:   -0.44 KCAL/MOL
REMARK 927      BINDING AFFINITY PREDICTED BY RF-SCORE:    0.00 PKD
ROOT
HETATM    1  N   UNL     1      -9.496   2.928  68.929  1.00  0.00    -0.155 NA 
HETATM    2  H1  UNL     1      -9.806   2.415  68.104  1.00  0.00     0.000 HD 
HETATM    3  H2  UNL     1     -10.045   3.780  69.045  1.00  0.00     0.000 HD 
HETATM    4  CA  UNL     1      -8.035   3.240  68.943  1.00  0.00    -0.056 C  
HETATM    5  C   UNL     1      -7.721   4.073  67.683  1.00  0.00    -0.071 C  
HETATM    6  OXT UNL     1      -6.746   4.790  67.530  1.00  0.00    -0.052 OA 
HETATM    7  O   UNL     1      -8.675   3.899  66.729  1.00  0.00    -0.108 OA 
ENDROOT
BRANCH   4   8
HETATM    8  C   UNL     1      -7.567   4.017  70.190  1.00  0.00    -0.045 C  
BRANCH   8   9
HETATM    9  C   UNL     1      -8.117   5.418  70.374  1.00  0.00    -0.101 A  
HETATM   10  C   UNL     1      -9.480   5.667  70.547  1.00  0.00    -0.203 A  
HETATM   11  C   UNL     1      -9.942   6.980  70.719  1.00  0.00    -0.190 A  
HETATM   12  I   UNL     1     -12.030   7.235  70.916  1.00  0.00    -0.224 I  
HETATM   13  C   UNL     1      -9.064   8.088  70.724  1.00  0.00    -0.145 A  
HETATM   14  C   UNL     1      -7.695   7.832  70.574  1.00  0.00    -0.088 A  
HETATM   15  C   UNL     1      -7.235   6.507  70.426  1.00  0.00    -0.080 A  
HETATM   16  I   UNL     1      -6.196   9.301  70.419  1.00  0.00    -0.078 I  
BRANCH  13  17
HETATM   17  O   UNL     1      -9.654   9.323  70.582  1.00  0.00    -0.234 OA 
BRANCH  17  18
HETATM   18  C   UNL     1      -9.826   9.980  69.390  1.00  0.00    -0.224 A  
HETATM   19  C   UNL     1     -10.475  11.216  69.537  1.00  0.00    -0.080 A  
HETATM   20  C   UNL     1     -10.751  12.020  68.429  1.00  0.00    -0.229 A  
HETATM   21  I   UNL     1     -11.725  13.840  68.747  1.00  0.00    -0.411 I  
HETATM   22  C   UNL     1     -10.390  11.586  67.153  1.00  0.00    -0.216 A  
HETATM   23  C   UNL     1      -9.737  10.355  67.004  1.00  0.00    -0.178 A  
HETATM   24  O   UNL     1     -10.663  12.360  66.052  1.00  0.00    -0.251 OA 
HETATM   25  H   UNL     1     -10.418  12.064  65.182  1.00  0.00     0.000 HD 
HETATM   26  I   UNL     1      -9.254   9.609  65.104  1.00  0.00    -0.249 I  
HETATM   27  C   UNL     1      -9.421   9.567  68.124  1.00  0.00    -0.145 A  
ENDBRANCH  17  18
ENDBRANCH  13  17
ENDBRANCH   8   9
ENDBRANCH   4   8
TORSDOF 4
ENDMDL
MODEL      238
REMARK 921   NORMALIZED FREE ENERGY PREDICTED BY IDOCK:   -2.84 KCAL/MOL
REMARK 922        TOTAL FREE ENERGY PREDICTED BY IDOCK:   -4.26 KCAL/MOL
REMARK 923 INTER-LIGAND FREE ENERGY PREDICTED BY IDOCK:   -4.04 KCAL/MOL
REMARK 924 INTRA-LIGAND FREE ENERGY PREDICTED BY IDOCK:   -0.22 KCAL/MOL
REMARK 927      BINDING AFFINITY PREDICTED BY RF-SCORE:    0.00 PKD
ROOT
HETATM    1  N   UNL     1     -10.940   5.364  72.208  1.00  0.00    -0.233 NA 
HETATM    2  H1  UNL     1     -11.101   5.720  73.150  1.00  0.00     0.000 HD 
HETATM    3  H2  UNL     1     -11.797   4.963  71.827  1.00  0.00     0.000 HD 
HETATM    4  CA  UNL     1      -9.814   4.386  72.107  1.00  0.00    -0.176 C  
HETATM    5  C   UNL     1     -10.134   3.204  73.044  1.00  0.00    -0.146 C  
HETATM    6  OXT UNL     1      -9.648   2.088  72.971  1.00  0.00    -0.076 OA 
HETATM    7  O   UNL     1     -11.035   3.563  73.998  1.00  0.00    -0.205 OA 
ENDROOT
BRANCH   4   8
HETATM    8  C   UNL     1      -9.571   3.849  70.682  1.00  0.00    -0.259 C  
BRANCH   8   9
HETATM    9  C   UNL     1      -9.196   4.863  69.619  1.00  0.00    -0.172 A  
HETATM   10  C   UNL     1      -9.278   4.578  68.255  1.00  0.00    -0.174 A  
HETATM   11  C   UNL     1      -8.925   5.549  67.308  1.00  0.00    -0.111 A  
HETATM   12  I   UNL     1      -9.040   4.981  65.275  1.00  0.00    -0.002 I  
HETATM   13  C   UNL     1      -8.477   6.836  67.685  1.00  0.00    -0.122 A  
HETATM   14  C   UNL     1      -8.419   7.126  69.055  1.00  0.00    -0.129 A  
HETATM   15  C   UNL     1      -8.799   6.153  70.001  1.00  0.00    -0.144 A  
HETATM   16  I   UNL     1      -7.672   8.910  69.885  1.00  0.00    -0.105 I  
BRANCH  13  17
HETATM   17  O   UNL     1      -7.870   7.575  66.697  1.00  0.00    -0.101 OA 
BRANCH  17  18
HETATM   18  C   UNL     1      -8.377   8.729  66.153  1.00  0.00    -0.123 A  
HETATM   19  C   UNL     1      -7.788   9.056  64.921  1.00  0.00    -0.119 A  
HETATM   20  C   UNL     1      -8.167  10.206  64.227  1.00  0.00    -0.165 A  
HETATM   21  I   UNL     1      -7.232  10.612  62.404  1.00  0.00    -0.019 I  
HETATM   22  C   UNL     1      -9.134  11.054  64.767  1.00  0.00    -0.137 A  
HETATM   23  C   UNL     1      -9.727  10.727  65.994  1.00  0.00    -0.217 A  
HETATM   24  O   UNL     1      -9.511  12.195  64.102  1.00  0.00    -0.496 OA 
HETATM   25  H   UNL     1     -10.170  12.772  64.470  1.00  0.00     0.000 HD 
HETATM   26  I   UNL     1     -11.118  12.009  66.900  1.00  0.00    -0.403 I  
HETATM   27  C   UNL     1      -9.377   9.547  66.672  1.00  0.00    -0.207 A  
ENDBRANCH  17  18
ENDBRANCH  13  17
ENDBRANCH   8   9
ENDBRANCH   4   8
TORSDOF 4
ENDMDL
MODEL      239
REMARK 921   NORMALIZED FREE ENERGY PREDICTED BY IDOCK:   -2.78 KCAL/MOL
REMARK 922        TOTAL FREE ENERGY PREDICTED BY IDOCK:   -4.19 KCAL/MOL
REMARK 923 INTER-LIGAND FREE ENERGY PREDICTED BY IDOCK:   -3.83 KCAL/MOL
REMARK 924 INTRA-LIGAND FREE ENERGY PREDICTED BY IDOCK:   -0.36 KCAL/MOL
REMARK 927      BINDING AFFINITY PREDICTED BY RF-SCORE:    0.00 PKD
ROOT
HETATM    1  N   UNL     1      -9.198   3.874  68.639  1.00  0.00    -0.139 NA 
HETATM    2  H1  UNL     1     -10.051   3.342  68.464  1.00  0.00     0.000 HD 
HETATM    3  H2  UNL     1      -9.289   4.822  68.274  1.00  0.00     0.000 HD 
HETATM    4  CA  UNL     1      -7.955   3.228  68.119  1.00  0.00    -0.070 C  
HETATM    5  C   UNL     1      -8.128   3.039  66.598  1.00  0.00    -0.084 C  
HETATM    6  OXT UNL     1      -7.224   2.877  65.795  1.00  0.00    -0.063 OA 
HETATM    7  O   UNL     1      -9.441   3.057  66.246  1.00  0.00    -0.111 OA 
ENDROOT
BRANCH   4   8
HETATM    8  C   UNL     1      -6.667   4.033  68.383  1.00  0.00    -0.046 C  
BRANCH   8   9
HETATM    9  C   UNL     1      -6.788   5.545  68.380  1.00  0.00    -0.059 A  
HETATM   10  C   UNL     1      -6.475   6.320  69.499  1.00  0.00    -0.039 A  
HETATM   11  C   UNL     1      -6.596   7.715  69.448  1.00  0.00    -0.039 A  
HETATM   12  I   UNL     1      -6.146   8.775  71.220  1.00  0.00    -0.067 I  
HETATM   13  C   UNL     1      -7.035   8.388  68.283  1.00  0.00    -0.073 A  
HETATM   14  C   UNL     1      -7.325   7.608  67.156  1.00  0.00    -0.091 A  
HETATM   15  C   UNL     1      -7.177   6.207  67.207  1.00  0.00    -0.075 A  
HETATM   16  I   UNL     1      -8.113   8.339  65.346  1.00  0.00    -0.160 I  
BRANCH  13  17
HETATM   17  O   UNL     1      -7.412   9.699  68.452  1.00  0.00    -0.079 OA 
BRANCH  17  18
HETATM   18  C   UNL     1      -8.710  10.142  68.517  1.00  0.00    -0.123 A  
HETATM   19  C   UNL     1      -9.439   9.546  69.558  1.00  0.00    -0.195 A  
HETATM   20  C   UNL     1     -10.782   9.862  69.768  1.00  0.00    -0.267 A  
HETATM   21  I   UNL     1     -11.785   8.921  71.339  1.00  0.00    -0.454 I  
HETATM   22  C   UNL     1     -11.418  10.774  68.925  1.00  0.00    -0.293 A  
HETATM   23  C   UNL     1     -10.692  11.374  67.887  1.00  0.00    -0.200 A  
HETATM   24  O   UNL     1     -12.742  11.089  69.111  1.00  0.00    -0.527 OA 
HETATM   25  H   UNL     1     -13.175  11.709  68.536  1.00  0.00     0.000 HD 
HETATM   26  I   UNL     1     -11.617  12.680  66.532  1.00  0.00    -0.410 I  
HETATM   27  C   UNL     1      -9.328  11.088  67.703  1.00  0.00    -0.162 A  
ENDBRANCH  17  18
ENDBRANCH  13  17
ENDBRANCH   8   9
ENDBRANCH   4   8
TORSDOF 4
ENDMDL
MODEL      240
REMARK 921   NORMALIZED FREE ENERGY PREDICTED BY IDOCK:   -2.77 KCAL/MOL
REMARK 922        TOTAL FREE ENERGY PREDICTED BY IDOCK:   -4.17 KCAL/MOL
REMARK 923 INTER-LIGAND FREE ENERGY PREDICTED BY IDOCK:   -5.51 KCAL/MOL
REMARK 924 INTRA-LIGAND FREE ENERGY PREDICTED BY IDOCK:    1.34 KCAL/MOL
REMARK 927      BINDING AFFINITY PREDICTED BY RF-SCORE:    0.00 PKD
ROOT
HETATM    1  N   UNL     1     -11.409   7.121  69.490  1.00  0.00    -0.491 NA 
HETATM    2  H1  UNL     1     -11.163   6.164  69.235  1.00  0.00     0.000 HD 
HETATM    3  H2  UNL     1     -12.394   7.301  69.294  1.00  0.00     0.000 HD 
HETATM    4  CA  UNL     1     -10.549   8.164  68.852  1.00  0.00    -0.140 C  
HETATM    5  C   UNL     1     -10.672   8.001  67.323  1.00  0.00    -0.210 C  
HETATM    6  OXT UNL     1     -10.411   8.857  66.494  1.00  0.00    -0.276 OA 
HETATM    7  O   UNL     1     -11.103   6.754  66.994  1.00  0.00    -0.403 OA 
ENDROOT
BRANCH   4   8
HETATM    8  C   UNL     1     -10.920   9.610  69.237  1.00  0.00    -0.194 C  
BRANCH   8   9
HETATM    9  C   UNL     1     -10.363  10.719  68.365  1.00  0.00    -0.199 A  
HETATM   10  C   UNL     1      -8.992  10.905  68.182  1.00  0.00    -0.144 A  
HETATM   11  C   UNL     1      -8.523  11.941  67.362  1.00  0.00    -0.166 A  
HETATM   12  I   UNL     1      -6.426  12.156  67.206  1.00  0.00    -0.019 I  
HETATM   13  C   UNL     1      -9.401  12.827  66.697  1.00  0.00    -0.242 A  
HETATM   14  C   UNL     1     -10.778  12.622  66.865  1.00  0.00    -0.242 A  
HETATM   15  C   UNL     1     -11.242  11.563  67.671  1.00  0.00    -0.343 A  
HETATM   16  I   UNL     1     -12.291  13.866  66.095  1.00  0.00    -0.290 I  
BRANCH  13  17
HETATM   17  O   UNL     1      -8.832  13.972  66.192  1.00  0.00     0.071 OA 
BRANCH  17  18
HETATM   18  C   UNL     1      -8.542  15.096  66.924  1.00  0.00    -0.257 A  
HETATM   19  C   UNL     1      -9.358  16.189  66.593  1.00  0.00    -0.267 A  
HETATM   20  C   UNL     1      -9.198  17.424  67.225  1.00  0.00    -0.234 A  
HETATM   21  I   UNL     1     -10.457  18.992  66.662  1.00  0.00    -0.450 I  
HETATM   22  C   UNL     1      -8.203  17.582  68.190  1.00  0.00    -0.251 A  
HETATM   23  C   UNL     1      -7.390  16.492  68.526  1.00  0.00    -0.186 A  
HETATM   24  O   UNL     1      -8.025  18.793  68.814  1.00  0.00    -0.329 OA 
HETATM   25  H   UNL     1      -7.347  18.902  69.471  1.00  0.00     0.000 HD 
HETATM   26  I   UNL     1      -5.819  16.696  69.901  1.00  0.00    -0.095 I  
HETATM   27  C   UNL     1      -7.580  15.237  67.921  1.00  0.00    -0.152 A  
ENDBRANCH  17  18
ENDBRANCH  13  17
ENDBRANCH   8   9
ENDBRANCH   4   8
TORSDOF 4
ENDMDL
MODEL      241
REMARK 921   NORMALIZED FREE ENERGY PREDICTED BY IDOCK:   -2.75 KCAL/MOL
REMARK 922        TOTAL FREE ENERGY PREDICTED BY IDOCK:   -4.15 KCAL/MOL
REMARK 923 INTER-LIGAND FREE ENERGY PREDICTED BY IDOCK:   -5.17 KCAL/MOL
REMARK 924 INTRA-LIGAND FREE ENERGY PREDICTED BY IDOCK:    1.02 KCAL/MOL
REMARK 927      BINDING AFFINITY PREDICTED BY RF-SCORE:    0.00 PKD
ROOT
HETATM    1  N   UNL     1      -7.649   8.597  72.335  1.00  0.00    -0.334 NA 
HETATM    2  H1  UNL     1      -6.940   7.944  72.669  1.00  0.00     0.000 HD 
HETATM    3  H2  UNL     1      -7.645   9.447  72.899  1.00  0.00     0.000 HD 
HETATM    4  CA  UNL     1      -9.027   8.022  72.267  1.00  0.00    -0.171 C  
HETATM    5  C   UNL     1      -9.407   7.544  73.683  1.00  0.00    -0.277 C  
HETATM    6  OXT UNL     1     -10.541   7.351  74.087  1.00  0.00    -0.194 OA 
HETATM    7  O   UNL     1      -8.300   7.343  74.447  1.00  0.00    -0.176 OA 
ENDROOT
BRANCH   4   8
HETATM    8  C   UNL     1     -10.099   9.008  71.763  1.00  0.00    -0.373 C  
BRANCH   8   9
HETATM    9  C   UNL     1      -9.884   9.615  70.389  1.00  0.00    -0.315 A  
HETATM   10  C   UNL     1      -8.924   9.128  69.501  1.00  0.00    -0.151 A  
HETATM   11  C   UNL     1      -8.765   9.718  68.239  1.00  0.00    -0.119 A  
HETATM   12  I   UNL     1      -7.242   8.928  67.005  1.00  0.00    -0.079 I  
HETATM   13  C   UNL     1      -9.554  10.813  67.819  1.00  0.00    -0.162 A  
HETATM   14  C   UNL     1     -10.534  11.284  68.704  1.00  0.00    -0.203 A  
HETATM   15  C   UNL     1     -10.704  10.670  69.962  1.00  0.00    -0.215 A  
HETATM   16  I   UNL     1     -11.750  12.970  68.381  1.00  0.00    -0.301 I  
BRANCH  13  17
HETATM   17  O   UNL     1      -9.099  11.494  66.714  1.00  0.00    -0.170 OA 
BRANCH  17  18
HETATM   18  C   UNL     1      -9.034  12.860  66.604  1.00  0.00    -0.136 A  
HETATM   19  C   UNL     1     -10.050  13.392  65.794  1.00  0.00    -0.297 A  
HETATM   20  C   UNL     1     -10.135  14.764  65.553  1.00  0.00    -0.380 A  
HETATM   21  I   UNL     1     -11.677  15.460  64.330  1.00  0.00     0.240 I  
HETATM   22  C   UNL     1      -9.189  15.623  66.113  1.00  0.00    -0.343 A  
HETATM   23  C   UNL     1      -8.177  15.097  66.927  1.00  0.00    -0.199 A  
HETATM   24  O   UNL     1      -9.251  16.975  65.879  1.00  0.00    -0.504 OA 
HETATM   25  H   UNL     1      -8.607  17.561  66.260  1.00  0.00     0.000 HD 
HETATM   26  I   UNL     1      -6.675  16.328  67.720  1.00  0.00    -0.218 I  
HETATM   27  C   UNL     1      -8.118  13.720  67.204  1.00  0.00    -0.094 A  
ENDBRANCH  17  18
ENDBRANCH  13  17
ENDBRANCH   8   9
ENDBRANCH   4   8
TORSDOF 4
ENDMDL
MODEL      242
REMARK 921   NORMALIZED FREE ENERGY PREDICTED BY IDOCK:   -2.74 KCAL/MOL
REMARK 922        TOTAL FREE ENERGY PREDICTED BY IDOCK:   -4.14 KCAL/MOL
REMARK 923 INTER-LIGAND FREE ENERGY PREDICTED BY IDOCK:   -4.36 KCAL/MOL
REMARK 924 INTRA-LIGAND FREE ENERGY PREDICTED BY IDOCK:    0.22 KCAL/MOL
REMARK 927      BINDING AFFINITY PREDICTED BY RF-SCORE:    0.00 PKD
ROOT
HETATM    1  N   UNL     1     -13.197   7.305  71.831  1.00  0.00    -0.523 NA 
HETATM    2  H1  UNL     1     -13.526   6.634  72.526  1.00  0.00     0.000 HD 
HETATM    3  H2  UNL     1     -12.766   6.821  71.044  1.00  0.00     0.000 HD 
HETATM    4  CA  UNL     1     -12.274   8.347  72.375  1.00  0.00    -0.367 C  
HETATM    5  C   UNL     1     -11.059   7.622  72.990  1.00  0.00    -0.381 C  
HETATM    6  OXT UNL     1      -9.968   8.123  73.205  1.00  0.00    -0.266 OA 
HETATM    7  O   UNL     1     -11.357   6.329  73.286  1.00  0.00    -0.109 OA 
ENDROOT
BRANCH   4   8
HETATM    8  C   UNL     1     -11.778   9.361  71.325  1.00  0.00    -0.432 C  
BRANCH   8   9
HETATM    9  C   UNL     1     -10.715   8.882  70.355  1.00  0.00    -0.261 A  
HETATM   10  C   UNL     1     -10.942   7.839  69.454  1.00  0.00    -0.046 A  
HETATM   11  C   UNL     1      -9.931   7.435  68.572  1.00  0.00    -0.165 A  
HETATM   12  I   UNL     1     -10.377   5.811  67.294  1.00  0.00    -0.359 I  
HETATM   13  C   UNL     1      -8.658   8.051  68.557  1.00  0.00    -0.128 A  
HETATM   14  C   UNL     1      -8.442   9.112  69.446  1.00  0.00    -0.130 A  
HETATM   15  C   UNL     1      -9.472   9.530  70.313  1.00  0.00    -0.307 A  
HETATM   16  I   UNL     1      -6.610  10.113  69.716  1.00  0.00    -0.128 I  
BRANCH  13  17
HETATM   17  O   UNL     1      -7.668   7.371  67.887  1.00  0.00    -0.111 OA 
BRANCH  17  18
HETATM   18  C   UNL     1      -7.480   7.395  66.528  1.00  0.00    -0.084 A  
HETATM   19  C   UNL     1      -7.975   8.565  65.929  1.00  0.00    -0.105 A  
HETATM   20  C   UNL     1      -7.886   8.759  64.549  1.00  0.00    -0.129 A  
HETATM   21  I   UNL     1      -8.655  10.528  63.749  1.00  0.00    -0.027 I  
HETATM   22  C   UNL     1      -7.309   7.774  63.748  1.00  0.00    -0.096 A  
HETATM   23  C   UNL     1      -6.810   6.608  64.343  1.00  0.00    -0.046 A  
HETATM   24  O   UNL     1      -7.223   7.944  62.388  1.00  0.00    -0.087 OA 
HETATM   25  H   UNL     1      -6.831   7.273  61.841  1.00  0.00     0.000 HD 
HETATM   26  I   UNL     1      -6.017   5.052  63.180  1.00  0.00    -0.018 I  
HETATM   27  C   UNL     1      -6.860   6.431  65.737  1.00  0.00    -0.053 A  
ENDBRANCH  17  18
ENDBRANCH  13  17
ENDBRANCH   8   9
ENDBRANCH   4   8
TORSDOF 4
ENDMDL
MODEL      243
REMARK 921   NORMALIZED FREE ENERGY PREDICTED BY IDOCK:   -2.74 KCAL/MOL
REMARK 922        TOTAL FREE ENERGY PREDICTED BY IDOCK:   -4.13 KCAL/MOL
REMARK 923 INTER-LIGAND FREE ENERGY PREDICTED BY IDOCK:   -3.75 KCAL/MOL
REMARK 924 INTRA-LIGAND FREE ENERGY PREDICTED BY IDOCK:   -0.39 KCAL/MOL
REMARK 927      BINDING AFFINITY PREDICTED BY RF-SCORE:    0.00 PKD
ROOT
HETATM    1  N   UNL     1     -11.141   5.163  72.375  1.00  0.00    -0.189 NA 
HETATM    2  H1  UNL     1     -11.381   5.330  73.353  1.00  0.00     0.000 HD 
HETATM    3  H2  UNL     1     -11.965   4.868  71.852  1.00  0.00     0.000 HD 
HETATM    4  CA  UNL     1     -10.020   4.194  72.178  1.00  0.00    -0.174 C  
HETATM    5  C   UNL     1     -10.433   2.859  72.832  1.00  0.00    -0.151 C  
HETATM    6  OXT UNL     1      -9.953   1.767  72.581  1.00  0.00    -0.099 OA 
HETATM    7  O   UNL     1     -11.411   3.048  73.758  1.00  0.00    -0.213 OA 
ENDROOT
BRANCH   4   8
HETATM    8  C   UNL     1      -9.658   3.940  70.701  1.00  0.00    -0.259 C  
BRANCH   8   9
HETATM    9  C   UNL     1      -9.113   5.117  69.914  1.00  0.00    -0.162 A  
HETATM   10  C   UNL     1      -9.113   5.145  68.519  1.00  0.00    -0.133 A  
HETATM   11  C   UNL     1      -8.604   6.257  67.834  1.00  0.00    -0.115 A  
HETATM   12  I   UNL     1      -8.608   6.159  65.723  1.00  0.00    -0.076 I  
HETATM   13  C   UNL     1      -8.077   7.379  68.514  1.00  0.00    -0.125 A  
HETATM   14  C   UNL     1      -8.100   7.357  69.915  1.00  0.00    -0.126 A  
HETATM   15  C   UNL     1      -8.637   6.246  70.597  1.00  0.00    -0.139 A  
HETATM   16  I   UNL     1      -7.268   8.832  71.165  1.00  0.00    -0.083 I  
BRANCH  13  17
HETATM   17  O   UNL     1      -7.331   8.248  67.753  1.00  0.00    -0.089 OA 
BRANCH  17  18
HETATM   18  C   UNL     1      -7.681   9.545  67.471  1.00  0.00    -0.095 A  
HETATM   19  C   UNL     1      -6.686  10.469  67.830  1.00  0.00    -0.065 A  
HETATM   20  C   UNL     1      -6.871  11.838  67.633  1.00  0.00    -0.099 A  
HETATM   21  I   UNL     1      -5.337  13.135  68.203  1.00  0.00    -0.106 I  
HETATM   22  C   UNL     1      -8.067  12.302  67.085  1.00  0.00    -0.173 A  
HETATM   23  C   UNL     1      -9.060  11.383  66.721  1.00  0.00    -0.176 A  
HETATM   24  O   UNL     1      -8.271  13.647  66.893  1.00  0.00    -0.392 OA 
HETATM   25  H   UNL     1      -9.085  13.963  66.520  1.00  0.00     0.000 HD 
HETATM   26  I   UNL     1     -10.913  12.026  65.979  1.00  0.00    -0.365 I  
HETATM   27  C   UNL     1      -8.856  10.001  66.879  1.00  0.00    -0.142 A  
ENDBRANCH  17  18
ENDBRANCH  13  17
ENDBRANCH   8   9
ENDBRANCH   4   8
TORSDOF 4
ENDMDL
MODEL      244
REMARK 921   NORMALIZED FREE ENERGY PREDICTED BY IDOCK:   -2.73 KCAL/MOL
REMARK 922        TOTAL FREE ENERGY PREDICTED BY IDOCK:   -4.12 KCAL/MOL
REMARK 923 INTER-LIGAND FREE ENERGY PREDICTED BY IDOCK:   -3.71 KCAL/MOL
REMARK 924 INTRA-LIGAND FREE ENERGY PREDICTED BY IDOCK:   -0.41 KCAL/MOL
REMARK 927      BINDING AFFINITY PREDICTED BY RF-SCORE:    0.00 PKD
ROOT
HETATM    1  N   UNL     1      -7.939   2.974  64.523  1.00  0.00    -0.082 NA 
HETATM    2  H1  UNL     1      -7.928   2.521  63.610  1.00  0.00     0.000 HD 
HETATM    3  H2  UNL     1      -8.145   2.296  65.256  1.00  0.00     0.000 HD 
HETATM    4  CA  UNL     1      -8.868   4.142  64.616  1.00  0.00    -0.136 C  
HETATM    5  C   UNL     1     -10.288   3.639  64.284  1.00  0.00    -0.227 C  
HETATM    6  OXT UNL     1     -11.328   4.198  64.589  1.00  0.00    -0.309 OA 
HETATM    7  O   UNL     1     -10.245   2.477  63.580  1.00  0.00    -0.148 OA 
ENDROOT
BRANCH   4   8
HETATM    8  C   UNL     1      -8.885   4.828  65.996  1.00  0.00    -0.123 C  
BRANCH   8   9
HETATM    9  C   UNL     1      -8.212   6.183  66.100  1.00  0.00    -0.119 A  
HETATM   10  C   UNL     1      -7.297   6.487  67.109  1.00  0.00    -0.086 A  
HETATM   11  C   UNL     1      -6.696   7.752  67.162  1.00  0.00    -0.068 A  
HETATM   12  I   UNL     1      -5.369   8.109  68.767  1.00  0.00    -0.033 I  
HETATM   13  C   UNL     1      -6.987   8.759  66.213  1.00  0.00    -0.081 A  
HETATM   14  C   UNL     1      -7.888   8.443  65.187  1.00  0.00    -0.118 A  
HETATM   15  C   UNL     1      -8.470   7.160  65.127  1.00  0.00    -0.023 A  
HETATM   16  I   UNL     1      -8.588   9.791  63.730  1.00  0.00    -0.259 I  
BRANCH  13  17
HETATM   17  O   UNL     1      -6.590  10.033  66.547  1.00  0.00    -0.070 OA 
BRANCH  17  18
HETATM   18  C   UNL     1      -7.394  10.980  67.129  1.00  0.00    -0.116 A  
HETATM   19  C   UNL     1      -8.463  10.422  67.848  1.00  0.00    -0.114 A  
HETATM   20  C   UNL     1      -9.396  11.234  68.495  1.00  0.00    -0.182 A  
HETATM   21  I   UNL     1     -10.954  10.312  69.536  1.00  0.00    -0.355 I  
HETATM   22  C   UNL     1      -9.277  12.622  68.417  1.00  0.00    -0.135 A  
HETATM   23  C   UNL     1      -8.209  13.182  67.704  1.00  0.00    -0.175 A  
HETATM   24  O   UNL     1     -10.193  13.435  69.039  1.00  0.00    -0.421 OA 
HETATM   25  H   UNL     1     -10.112  14.381  68.986  1.00  0.00     0.000 HD 
HETATM   26  I   UNL     1      -8.031  15.259  67.475  1.00  0.00    -0.254 I  
HETATM   27  C   UNL     1      -7.245  12.364  67.090  1.00  0.00    -0.081 A  
ENDBRANCH  17  18
ENDBRANCH  13  17
ENDBRANCH   8   9
ENDBRANCH   4   8
TORSDOF 4
ENDMDL
MODEL      245
REMARK 921   NORMALIZED FREE ENERGY PREDICTED BY IDOCK:   -2.71 KCAL/MOL
REMARK 922        TOTAL FREE ENERGY PREDICTED BY IDOCK:   -4.10 KCAL/MOL
REMARK 923 INTER-LIGAND FREE ENERGY PREDICTED BY IDOCK:   -3.71 KCAL/MOL
REMARK 924 INTRA-LIGAND FREE ENERGY PREDICTED BY IDOCK:   -0.39 KCAL/MOL
REMARK 927      BINDING AFFINITY PREDICTED BY RF-SCORE:    0.00 PKD
ROOT
HETATM    1  N   UNL     1     -10.884   5.632  71.831  1.00  0.00    -0.244 NA 
HETATM    2  H1  UNL     1     -10.791   5.357  72.809  1.00  0.00     0.000 HD 
HETATM    3  H2  UNL     1     -11.772   5.305  71.451  1.00  0.00     0.000 HD 
HETATM    4  CA  UNL     1      -9.750   5.196  70.961  1.00  0.00    -0.183 C  
HETATM    5  C   UNL     1      -9.659   3.659  71.045  1.00  0.00    -0.176 C  
HETATM    6  OXT UNL     1      -9.110   2.934  70.232  1.00  0.00    -0.091 OA 
HETATM    7  O   UNL     1     -10.266   3.191  72.169  1.00  0.00    -0.154 OA 
ENDROOT
BRANCH   4   8
HETATM    8  C   UNL     1      -9.890   5.613  69.484  1.00  0.00    -0.238 C  
BRANCH   8   9
HETATM    9  C   UNL     1      -9.365   6.984  69.103  1.00  0.00    -0.140 A  
HETATM   10  C   UNL     1      -9.851   7.688  67.999  1.00  0.00    -0.188 A  
HETATM   11  C   UNL     1      -9.339   8.955  67.689  1.00  0.00    -0.136 A  
HETATM   12  I   UNL     1     -10.115   9.898  65.964  1.00  0.00    -0.132 I  
HETATM   13  C   UNL     1      -8.325   9.564  68.463  1.00  0.00    -0.118 A  
HETATM   14  C   UNL     1      -7.857   8.864  69.584  1.00  0.00    -0.090 A  
HETATM   15  C   UNL     1      -8.394   7.601  69.904  1.00  0.00    -0.132 A  
HETATM   16  I   UNL     1      -6.273   9.483  70.825  1.00  0.00    -0.061 I  
BRANCH  13  17
HETATM   17  O   UNL     1      -7.693  10.642  67.887  1.00  0.00    -0.097 OA 
BRANCH  17  18
HETATM   18  C   UNL     1      -7.975  11.957  68.160  1.00  0.00    -0.151 A  
HETATM   19  C   UNL     1      -6.823  12.732  68.364  1.00  0.00    -0.091 A  
HETATM   20  C   UNL     1      -6.915  14.091  68.667  1.00  0.00    -0.106 A  
HETATM   21  I   UNL     1      -5.145  15.160  68.958  1.00  0.00    -0.100 I  
HETATM   22  C   UNL     1      -8.169  14.690  68.786  1.00  0.00    -0.156 A  
HETATM   23  C   UNL     1      -9.321  13.920  68.578  1.00  0.00    -0.164 A  
HETATM   24  O   UNL     1      -8.278  16.024  69.095  1.00  0.00    -0.226 OA 
HETATM   25  H   UNL     1      -9.132  16.432  69.175  1.00  0.00     0.000 HD 
HETATM   26  I   UNL     1     -11.234  14.743  68.833  1.00  0.00    -0.350 I  
HETATM   27  C   UNL     1      -9.228  12.562  68.229  1.00  0.00    -0.186 A  
ENDBRANCH  17  18
ENDBRANCH  13  17
ENDBRANCH   8   9
ENDBRANCH   4   8
TORSDOF 4
ENDMDL
MODEL      246
REMARK 921   NORMALIZED FREE ENERGY PREDICTED BY IDOCK:   -2.67 KCAL/MOL
REMARK 922        TOTAL FREE ENERGY PREDICTED BY IDOCK:   -4.05 KCAL/MOL
REMARK 923 INTER-LIGAND FREE ENERGY PREDICTED BY IDOCK:   -4.22 KCAL/MOL
REMARK 924 INTRA-LIGAND FREE ENERGY PREDICTED BY IDOCK:    0.17 KCAL/MOL
REMARK 927      BINDING AFFINITY PREDICTED BY RF-SCORE:    0.00 PKD
ROOT
HETATM    1  N   UNL     1      -6.020   8.899  73.205  1.00  0.00    -0.222 NA 
HETATM    2  H1  UNL     1      -5.027   8.666  73.187  1.00  0.00     0.000 HD 
HETATM    3  H2  UNL     1      -6.266   9.344  74.089  1.00  0.00     0.000 HD 
HETATM    4  CA  UNL     1      -6.925   7.741  72.932  1.00  0.00    -0.077 C  
HETATM    5  C   UNL     1      -6.640   6.662  73.997  1.00  0.00    -0.072 C  
HETATM    6  OXT UNL     1      -7.394   5.756  74.310  1.00  0.00    -0.088 OA 
HETATM    7  O   UNL     1      -5.410   6.833  74.552  1.00  0.00    -0.049 OA 
ENDROOT
BRANCH   4   8
HETATM    8  C   UNL     1      -8.426   8.092  72.960  1.00  0.00    -0.272 C  
BRANCH   8   9
HETATM    9  C   UNL     1      -9.161   8.075  71.633  1.00  0.00    -0.196 A  
HETATM   10  C   UNL     1      -8.941   7.088  70.671  1.00  0.00    -0.154 A  
HETATM   11  C   UNL     1      -9.648   7.110  69.462  1.00  0.00    -0.154 A  
HETATM   12  I   UNL     1      -9.189   5.593  68.063  1.00  0.00    -0.132 I  
HETATM   13  C   UNL     1     -10.597   8.115  69.166  1.00  0.00    -0.166 A  
HETATM   14  C   UNL     1     -10.833   9.091  70.144  1.00  0.00    -0.237 A  
HETATM   15  C   UNL     1     -10.136   9.048  71.369  1.00  0.00    -0.399 A  
HETATM   16  I   UNL     1     -12.092  10.762  69.911  1.00  0.00    -0.297 I  
BRANCH  13  17
HETATM   17  O   UNL     1     -10.982   8.211  67.849  1.00  0.00    -0.031 OA 
BRANCH  17  18
HETATM   18  C   UNL     1     -10.322   8.934  66.888  1.00  0.00    -0.262 A  
HETATM   19  C   UNL     1      -8.980   8.548  66.741  1.00  0.00    -0.173 A  
HETATM   20  C   UNL     1      -8.146   9.184  65.819  1.00  0.00    -0.112 A  
HETATM   21  I   UNL     1      -6.163   8.544  65.676  1.00  0.00    -0.048 I  
HETATM   22  C   UNL     1      -8.645  10.228  65.040  1.00  0.00    -0.180 A  
HETATM   23  C   UNL     1      -9.985  10.612  65.181  1.00  0.00    -0.303 A  
HETATM   24  O   UNL     1      -7.836  10.871  64.136  1.00  0.00    -0.346 OA 
HETATM   25  H   UNL     1      -8.176  11.583  63.605  1.00  0.00     0.000 HD 
HETATM   26  I   UNL     1     -10.766  12.234  64.104  1.00  0.00    -0.558 I  
HETATM   27  C   UNL     1     -10.836   9.942  66.078  1.00  0.00     0.314 A  
ENDBRANCH  17  18
ENDBRANCH  13  17
ENDBRANCH   8   9
ENDBRANCH   4   8
TORSDOF 4
ENDMDL
MODEL      247
REMARK 921   NORMALIZED FREE ENERGY PREDICTED BY IDOCK:   -2.63 KCAL/MOL
REMARK 922        TOTAL FREE ENERGY PREDICTED BY IDOCK:   -4.00 KCAL/MOL
REMARK 923 INTER-LIGAND FREE ENERGY PREDICTED BY IDOCK:   -4.33 KCAL/MOL
REMARK 924 INTRA-LIGAND FREE ENERGY PREDICTED BY IDOCK:    0.33 KCAL/MOL
REMARK 927      BINDING AFFINITY PREDICTED BY RF-SCORE:    0.00 PKD
ROOT
HETATM    1  N   UNL     1     -12.242   7.241  70.075  1.00  0.00    -0.338 NA 
HETATM    2  H1  UNL     1     -11.915   6.418  70.582  1.00  0.00     0.000 HD 
HETATM    3  H2  UNL     1     -11.455   7.738  69.657  1.00  0.00     0.000 HD 
HETATM    4  CA  UNL     1     -13.074   8.173  70.895  1.00  0.00     0.228 C  
HETATM    5  C   UNL     1     -12.222   8.626  72.099  1.00  0.00    -0.386 C  
HETATM    6  OXT UNL     1     -12.419   9.623  72.773  1.00  0.00     0.109 OA 
HETATM    7  O   UNL     1     -11.207   7.754  72.339  1.00  0.00    -0.285 OA 
ENDROOT
BRANCH   4   8
HETATM    8  C   UNL     1     -13.567   9.418  70.130  1.00  0.00     1.238 C  
BRANCH   8   9
HETATM    9  C   UNL     1     -12.541  10.494  69.833  1.00  0.00    -0.124 A  
HETATM   10  C   UNL     1     -12.709  11.818  70.245  1.00  0.00    -0.005 A  
HETATM   11  C   UNL     1     -11.730  12.778  69.952  1.00  0.00    -0.251 A  
HETATM   12  I   UNL     1     -12.122  14.757  70.581  1.00  0.00    -0.461 I  
HETATM   13  C   UNL     1     -10.554  12.455  69.238  1.00  0.00     0.139 A  
HETATM   14  C   UNL     1     -10.378  11.121  68.847  1.00  0.00    -0.201 A  
HETATM   15  C   UNL     1     -11.355  10.156  69.167  1.00  0.00    -0.198 A  
HETATM   16  I   UNL     1      -8.788  10.401  67.670  1.00  0.00    -0.131 I  
BRANCH  13  17
HETATM   17  O   UNL     1      -9.838  13.521  68.744  1.00  0.00    -0.165 OA 
BRANCH  17  18
HETATM   18  C   UNL     1     -10.188  14.259  67.641  1.00  0.00    -0.237 A  
HETATM   19  C   UNL     1     -10.653  13.468  66.579  1.00  0.00    -0.281 A  
HETATM   20  C   UNL     1     -11.040  14.044  65.368  1.00  0.00    -0.318 A  
HETATM   21  I   UNL     1     -11.712  12.785  63.844  1.00  0.00    -0.631 I  
HETATM   22  C   UNL     1     -10.953  15.427  65.202  1.00  0.00    -0.418 A  
HETATM   23  C   UNL     1     -10.495  16.220  66.262  1.00  0.00    -0.308 A  
HETATM   24  O   UNL     1     -11.320  16.010  64.013  1.00  0.00    -1.093 OA 
HETATM   25  H   UNL     1     -11.261  16.952  63.900  1.00  0.00     0.000 HD 
HETATM   26  I   UNL     1     -10.255  18.292  66.039  1.00  0.00     0.044 I  
HETATM   27  C   UNL     1     -10.146  15.643  67.495  1.00  0.00    -0.253 A  
ENDBRANCH  17  18
ENDBRANCH  13  17
ENDBRANCH   8   9
ENDBRANCH   4   8
TORSDOF 4
ENDMDL
MODEL      248
REMARK 921   NORMALIZED FREE ENERGY PREDICTED BY IDOCK:   -2.59 KCAL/MOL
REMARK 922        TOTAL FREE ENERGY PREDICTED BY IDOCK:   -3.95 KCAL/MOL
REMARK 923 INTER-LIGAND FREE ENERGY PREDICTED BY IDOCK:   -5.32 KCAL/MOL
REMARK 924 INTRA-LIGAND FREE ENERGY PREDICTED BY IDOCK:    1.38 KCAL/MOL
REMARK 927      BINDING AFFINITY PREDICTED BY RF-SCORE:    0.00 PKD
ROOT
HETATM    1  N   UNL     1      -5.451  16.956  66.395  1.00  0.00    -0.352 NA 
HETATM    2  H1  UNL     1      -4.554  17.160  65.954  1.00  0.00     0.000 HD 
HETATM    3  H2  UNL     1      -6.039  16.406  65.769  1.00  0.00     0.000 HD 
HETATM    4  CA  UNL     1      -6.186  18.165  66.876  1.00  0.00    -0.166 C  
HETATM    5  C   UNL     1      -6.419  19.086  65.662  1.00  0.00    -0.261 C  
HETATM    6  OXT UNL     1      -7.262  19.965  65.588  1.00  0.00    -0.304 OA 
HETATM    7  O   UNL     1      -5.543  18.809  64.659  1.00  0.00    -0.224 OA 
ENDROOT
BRANCH   4   8
HETATM    8  C   UNL     1      -7.542  17.857  67.543  1.00  0.00    -0.217 C  
BRANCH   8   9
HETATM    9  C   UNL     1      -8.272  16.613  67.073  1.00  0.00    -0.222 A  
HETATM   10  C   UNL     1      -9.355  16.672  66.195  1.00  0.00    -0.318 A  
HETATM   11  C   UNL     1      -9.996  15.495  65.783  1.00  0.00    -0.359 A  
HETATM   12  I   UNL     1     -11.657  15.716  64.496  1.00  0.00     0.212 I  
HETATM   13  C   UNL     1      -9.582  14.220  66.233  1.00  0.00    -0.288 A  
HETATM   14  C   UNL     1      -8.479  14.164  67.096  1.00  0.00    -0.195 A  
HETATM   15  C   UNL     1      -7.824  15.350  67.485  1.00  0.00    -0.193 A  
HETATM   16  I   UNL     1      -7.742  12.416  68.007  1.00  0.00    -0.173 I  
BRANCH  13  17
HETATM   17  O   UNL     1     -10.468  13.190  66.019  1.00  0.00    -0.274 OA 
BRANCH  17  18
HETATM   18  C   UNL     1     -10.161  11.856  66.116  1.00  0.00    -0.226 A  
HETATM   19  C   UNL     1      -9.548  11.352  64.958  1.00  0.00    -0.250 A  
HETATM   20  C   UNL     1      -9.178  10.009  64.866  1.00  0.00    -0.239 A  
HETATM   21  I   UNL     1      -8.277   9.350  63.102  1.00  0.00    -0.203 I  
HETATM   22  C   UNL     1      -9.432   9.148  65.934  1.00  0.00    -0.259 A  
HETATM   23  C   UNL     1     -10.040   9.649  67.093  1.00  0.00    -0.218 A  
HETATM   24  O   UNL     1      -9.084   7.821  65.857  1.00  0.00    -0.301 OA 
HETATM   25  H   UNL     1      -9.258   7.234  66.585  1.00  0.00     0.000 HD 
HETATM   26  I   UNL     1     -10.530   8.384  68.693  1.00  0.00    -0.035 I  
HETATM   27  C   UNL     1     -10.372  11.010  67.202  1.00  0.00    -0.259 A  
ENDBRANCH  17  18
ENDBRANCH  13  17
ENDBRANCH   8   9
ENDBRANCH   4   8
TORSDOF 4
ENDMDL
MODEL      249
REMARK 921   NORMALIZED FREE ENERGY PREDICTED BY IDOCK:   -2.53 KCAL/MOL
REMARK 922        TOTAL FREE ENERGY PREDICTED BY IDOCK:   -3.87 KCAL/MOL
REMARK 923 INTER-LIGAND FREE ENERGY PREDICTED BY IDOCK:   -3.59 KCAL/MOL
REMARK 924 INTRA-LIGAND FREE ENERGY PREDICTED BY IDOCK:   -0.28 KCAL/MOL
REMARK 927      BINDING AFFINITY PREDICTED BY RF-SCORE:    0.00 PKD
ROOT
HETATM    1  N   UNL     1      -9.252   3.921  68.641  1.00  0.00    -0.139 NA 
HETATM    2  H1  UNL     1     -10.120   3.421  68.445  1.00  0.00     0.000 HD 
HETATM    3  H2  UNL     1      -9.290   4.864  68.255  1.00  0.00     0.000 HD 
HETATM    4  CA  UNL     1      -8.020   3.214  68.176  1.00  0.00    -0.066 C  
HETATM    5  C   UNL     1      -8.148   3.001  66.654  1.00  0.00    -0.084 C  
HETATM    6  OXT UNL     1      -7.224   2.786  65.887  1.00  0.00    -0.063 OA 
HETATM    7  O   UNL     1      -9.446   3.066  66.256  1.00  0.00    -0.111 OA 
ENDROOT
BRANCH   4   8
HETATM    8  C   UNL     1      -6.710   3.970  68.472  1.00  0.00    -0.046 C  
BRANCH   8   9
HETATM    9  C   UNL     1      -6.745   5.482  68.350  1.00  0.00    -0.054 A  
HETATM   10  C   UNL     1      -6.591   6.322  69.454  1.00  0.00    -0.044 A  
HETATM   11  C   UNL     1      -6.625   7.714  69.293  1.00  0.00    -0.040 A  
HETATM   12  I   UNL     1      -6.434   8.880  71.045  1.00  0.00    -0.077 I  
HETATM   13  C   UNL     1      -6.816   8.318  68.029  1.00  0.00    -0.066 A  
HETATM   14  C   UNL     1      -6.947   7.471  66.919  1.00  0.00    -0.079 A  
HETATM   15  C   UNL     1      -6.887   6.072  67.086  1.00  0.00    -0.063 A  
HETATM   16  I   UNL     1      -7.366   8.101  64.955  1.00  0.00    -0.098 I  
BRANCH  13  17
HETATM   17  O   UNL     1      -7.145   9.653  68.043  1.00  0.00    -0.078 OA 
BRANCH  17  18
HETATM   18  C   UNL     1      -8.425  10.148  68.028  1.00  0.00    -0.118 A  
HETATM   19  C   UNL     1      -8.762  10.755  66.808  1.00  0.00    -0.145 A  
HETATM   20  C   UNL     1     -10.019  11.330  66.614  1.00  0.00    -0.209 A  
HETATM   21  I   UNL     1     -10.426  12.215  64.767  1.00  0.00    -0.377 I  
HETATM   22  C   UNL     1     -10.954  11.315  67.650  1.00  0.00    -0.259 A  
HETATM   23  C   UNL     1     -10.622  10.706  68.867  1.00  0.00    -0.212 A  
HETATM   24  O   UNL     1     -12.192  11.886  67.479  1.00  0.00    -0.510 OA 
HETATM   25  H   UNL     1     -12.828  11.876  68.185  1.00  0.00     0.000 HD 
HETATM   26  I   UNL     1     -11.951  10.734  70.490  1.00  0.00    -0.470 I  
HETATM   27  C   UNL     1      -9.372  10.088  69.047  1.00  0.00    -0.183 A  
ENDBRANCH  17  18
ENDBRANCH  13  17
ENDBRANCH   8   9
ENDBRANCH   4   8
TORSDOF 4
ENDMDL
MODEL      250
REMARK 921   NORMALIZED FREE ENERGY PREDICTED BY IDOCK:   -2.51 KCAL/MOL
REMARK 922        TOTAL FREE ENERGY PREDICTED BY IDOCK:   -3.85 KCAL/MOL
REMARK 923 INTER-LIGAND FREE ENERGY PREDICTED BY IDOCK:   -5.68 KCAL/MOL
REMARK 924 INTRA-LIGAND FREE ENERGY PREDICTED BY IDOCK:    1.82 KCAL/MOL
REMARK 927      BINDING AFFINITY PREDICTED BY RF-SCORE:    0.00 PKD
ROOT
HETATM    1  N   UNL     1     -11.200   7.355  68.807  1.00  0.00    -0.418 NA 
HETATM    2  H1  UNL     1     -10.653   6.499  68.908  1.00  0.00     0.000 HD 
HETATM    3  H2  UNL     1     -10.888   7.883  67.992  1.00  0.00     0.000 HD 
HETATM    4  CA  UNL     1     -11.206   8.224  70.023  1.00  0.00    -0.081 C  
HETATM    5  C   UNL     1      -9.743   8.595  70.341  1.00  0.00    -0.176 C  
HETATM    6  OXT UNL     1      -9.382   9.541  71.021  1.00  0.00    -0.201 OA 
HETATM    7  O   UNL     1      -8.878   7.711  69.775  1.00  0.00    -0.139 OA 
ENDROOT
BRANCH   4   8
HETATM    8  C   UNL     1     -12.032   9.517  69.870  1.00  0.00     0.227 C  
BRANCH   8   9
HETATM    9  C   UNL     1     -11.430  10.622  69.023  1.00  0.00    -0.342 A  
HETATM   10  C   UNL     1     -11.514  11.967  69.384  1.00  0.00    -0.361 A  
HETATM   11  C   UNL     1     -10.938  12.954  68.571  1.00  0.00    -0.259 A  
HETATM   12  I   UNL     1     -11.177  14.959  69.195  1.00  0.00    -0.369 I  
HETATM   13  C   UNL     1     -10.260  12.636  67.372  1.00  0.00    -0.217 A  
HETATM   14  C   UNL     1     -10.158  11.281  67.025  1.00  0.00    -0.206 A  
HETATM   15  C   UNL     1     -10.719  10.293  67.860  1.00  0.00    -0.310 A  
HETATM   16  I   UNL     1      -9.319  10.547  65.240  1.00  0.00    -0.339 I  
BRANCH  13  17
HETATM   17  O   UNL     1     -10.023  13.687  66.518  1.00  0.00    -0.272 OA 
BRANCH  17  18
HETATM   18  C   UNL     1      -9.240  14.776  66.810  1.00  0.00    -0.260 A  
HETATM   19  C   UNL     1      -9.896  15.996  66.583  1.00  0.00    -0.273 A  
HETATM   20  C   UNL     1      -9.251  17.213  66.810  1.00  0.00    -0.254 A  
HETATM   21  I   UNL     1     -10.306  18.976  66.439  1.00  0.00    -0.492 I  
HETATM   22  C   UNL     1      -7.928  17.221  67.255  1.00  0.00    -0.187 A  
HETATM   23  C   UNL     1      -7.272  16.005  67.486  1.00  0.00    -0.169 A  
HETATM   24  O   UNL     1      -7.274  18.409  67.473  1.00  0.00    -0.207 OA 
HETATM   25  H   UNL     1      -6.374  18.415  67.776  1.00  0.00     0.000 HD 
HETATM   26  I   UNL     1      -5.257  15.955  68.066  1.00  0.00    -0.138 I  
HETATM   27  C   UNL     1      -7.937  14.781  67.300  1.00  0.00    -0.232 A  
ENDBRANCH  17  18
ENDBRANCH  13  17
ENDBRANCH   8   9
ENDBRANCH   4   8
TORSDOF 4
ENDMDL
MODEL      251
REMARK 921   NORMALIZED FREE ENERGY PREDICTED BY IDOCK:   -2.45 KCAL/MOL
REMARK 922        TOTAL FREE ENERGY PREDICTED BY IDOCK:   -3.78 KCAL/MOL
REMARK 923 INTER-LIGAND FREE ENERGY PREDICTED BY IDOCK:   -3.25 KCAL/MOL
REMARK 924 INTRA-LIGAND FREE ENERGY PREDICTED BY IDOCK:   -0.53 KCAL/MOL
REMARK 927      BINDING AFFINITY PREDICTED BY RF-SCORE:    0.00 PKD
ROOT
HETATM    1  N   UNL     1      -6.125  17.045  69.467  1.00  0.00    -0.223 NA 
HETATM    2  H1  UNL     1      -5.166  17.291  69.710  1.00  0.00     0.000 HD 
HETATM    3  H2  UNL     1      -6.778  17.451  70.137  1.00  0.00     0.000 HD 
HETATM    4  CA  UNL     1      -6.364  15.576  69.327  1.00  0.00    -0.132 C  
HETATM    5  C   UNL     1      -5.998  14.912  70.670  1.00  0.00    -0.106 C  
HETATM    6  OXT UNL     1      -6.380  13.818  71.049  1.00  0.00    -0.045 OA 
HETATM    7  O   UNL     1      -5.165  15.703  71.399  1.00  0.00    -0.132 OA 
ENDROOT
BRANCH   4   8
HETATM    8  C   UNL     1      -7.814  15.205  68.960  1.00  0.00    -0.181 C  
BRANCH   8   9
HETATM    9  C   UNL     1      -8.022  13.901  68.213  1.00  0.00    -0.148 A  
HETATM   10  C   UNL     1      -9.291  13.442  67.853  1.00  0.00    -0.216 A  
HETATM   11  C   UNL     1      -9.434  12.234  67.158  1.00  0.00    -0.196 A  
HETATM   12  I   UNL     1     -11.407  11.618  66.716  1.00  0.00    -0.072 I  
HETATM   13  C   UNL     1      -8.321  11.439  66.800  1.00  0.00    -0.163 A  
HETATM   14  C   UNL     1      -7.048  11.914  67.142  1.00  0.00    -0.142 A  
HETATM   15  C   UNL     1      -6.910  13.143  67.819  1.00  0.00    -0.149 A  
HETATM   16  I   UNL     1      -5.244  10.873  66.842  1.00  0.00    -0.094 I  
BRANCH  13  17
HETATM   17  O   UNL     1      -8.602  10.149  66.414  1.00  0.00    -0.128 OA 
BRANCH  17  18
HETATM   18  C   UNL     1      -8.516   9.048  67.228  1.00  0.00    -0.114 A  
HETATM   19  C   UNL     1      -8.465   7.842  66.512  1.00  0.00    -0.132 A  
HETATM   20  C   UNL     1      -8.392   6.615  67.174  1.00  0.00    -0.113 A  
HETATM   21  I   UNL     1      -8.325   4.874  66.023  1.00  0.00    -0.120 I  
HETATM   22  C   UNL     1      -8.384   6.581  68.568  1.00  0.00    -0.121 A  
HETATM   23  C   UNL     1      -8.430   7.783  69.286  1.00  0.00    -0.138 A  
HETATM   24  O   UNL     1      -8.323   5.382  69.236  1.00  0.00    -0.095 OA 
HETATM   25  H   UNL     1      -8.317   5.358  70.186  1.00  0.00     0.000 HD 
HETATM   26  I   UNL     1      -8.513   7.791  71.382  1.00  0.00    -0.163 I  
HETATM   27  C   UNL     1      -8.459   9.020  68.619  1.00  0.00    -0.128 A  
ENDBRANCH  17  18
ENDBRANCH  13  17
ENDBRANCH   8   9
ENDBRANCH   4   8
TORSDOF 4
ENDMDL
MODEL      252
REMARK 921   NORMALIZED FREE ENERGY PREDICTED BY IDOCK:   -2.44 KCAL/MOL
REMARK 922        TOTAL FREE ENERGY PREDICTED BY IDOCK:   -3.77 KCAL/MOL
REMARK 923 INTER-LIGAND FREE ENERGY PREDICTED BY IDOCK:   -3.62 KCAL/MOL
REMARK 924 INTRA-LIGAND FREE ENERGY PREDICTED BY IDOCK:   -0.14 KCAL/MOL
REMARK 927      BINDING AFFINITY PREDICTED BY RF-SCORE:    0.00 PKD
ROOT
HETATM    1  N   UNL     1      -6.935   9.434  71.771  1.00  0.00    -0.301 NA 
HETATM    2  H1  UNL     1      -5.967   9.440  72.091  1.00  0.00     0.000 HD 
HETATM    3  H2  UNL     1      -7.396  10.312  72.011  1.00  0.00     0.000 HD 
HETATM    4  CA  UNL     1      -7.735   8.272  72.265  1.00  0.00    -0.126 C  
HETATM    5  C   UNL     1      -7.713   8.308  73.806  1.00  0.00    -0.156 C  
HETATM    6  OXT UNL     1      -8.514   7.755  74.542  1.00  0.00    -0.214 OA 
HETATM    7  O   UNL     1      -6.660   9.037  74.266  1.00  0.00    -0.335 OA 
ENDROOT
BRANCH   4   8
HETATM    8  C   UNL     1      -9.199   8.262  71.781  1.00  0.00    -0.261 C  
BRANCH   8   9
HETATM    9  C   UNL     1      -9.438   7.949  70.317  1.00  0.00    -0.163 A  
HETATM   10  C   UNL     1      -9.335   6.654  69.805  1.00  0.00    -0.145 A  
HETATM   11  C   UNL     1      -9.570   6.412  68.444  1.00  0.00    -0.125 A  
HETATM   12  I   UNL     1      -9.332   4.421  67.778  1.00  0.00    -0.206 I  
HETATM   13  C   UNL     1      -9.914   7.449  67.547  1.00  0.00    -0.173 A  
HETATM   14  C   UNL     1     -10.040   8.743  68.069  1.00  0.00    -0.196 A  
HETATM   15  C   UNL     1      -9.826   8.975  69.443  1.00  0.00    -0.183 A  
HETATM   16  I   UNL     1     -10.414  10.477  66.936  1.00  0.00    -0.241 I  
BRANCH  13  17
HETATM   17  O   UNL     1      -9.808   7.147  66.209  1.00  0.00    -0.094 OA 
BRANCH  17  18
HETATM   18  C   UNL     1      -8.657   7.251  65.468  1.00  0.00    -0.075 A  
HETATM   19  C   UNL     1      -8.238   6.022  64.935  1.00  0.00    -0.130 A  
HETATM   20  C   UNL     1      -7.077   5.931  64.166  1.00  0.00    -0.053 A  
HETATM   21  I   UNL     1      -6.531   4.058  63.419  1.00  0.00    -0.032 I  
HETATM   22  C   UNL     1      -6.311   7.073  63.932  1.00  0.00    -0.043 A  
HETATM   23  C   UNL     1      -6.729   8.302  64.459  1.00  0.00    -0.068 A  
HETATM   24  O   UNL     1      -5.160   6.999  63.186  1.00  0.00    -0.030 OA 
HETATM   25  H   UNL     1      -4.637   7.777  63.027  1.00  0.00     0.000 HD 
HETATM   26  I   UNL     1      -5.570  10.034  64.220  1.00  0.00    -0.138 I  
HETATM   27  C   UNL     1      -7.921   8.401  65.197  1.00  0.00    -0.136 A  
ENDBRANCH  17  18
ENDBRANCH  13  17
ENDBRANCH   8   9
ENDBRANCH   4   8
TORSDOF 4
ENDMDL
MODEL      253
REMARK 921   NORMALIZED FREE ENERGY PREDICTED BY IDOCK:   -2.43 KCAL/MOL
REMARK 922        TOTAL FREE ENERGY PREDICTED BY IDOCK:   -3.75 KCAL/MOL
REMARK 923 INTER-LIGAND FREE ENERGY PREDICTED BY IDOCK:   -3.54 KCAL/MOL
REMARK 924 INTRA-LIGAND FREE ENERGY PREDICTED BY IDOCK:   -0.21 KCAL/MOL
REMARK 927      BINDING AFFINITY PREDICTED BY RF-SCORE:    0.00 PKD
ROOT
HETATM    1  N   UNL     1     -10.103  13.614  63.744  1.00  0.00    -0.249 NA 
HETATM    2  H1  UNL     1      -9.457  14.369  63.513  1.00  0.00     0.000 HD 
HETATM    3  H2  UNL     1     -10.653  13.353  62.926  1.00  0.00     0.000 HD 
HETATM    4  CA  UNL     1     -10.998  13.908  64.904  1.00  0.00    -0.386 C  
HETATM    5  C   UNL     1     -11.806  15.177  64.564  1.00  0.00    -0.330 C  
HETATM    6  OXT UNL     1     -12.854  15.515  65.089  1.00  0.00     0.693 OA 
HETATM    7  O   UNL     1     -11.190  15.906  63.594  1.00  0.00    -0.072 OA 
ENDROOT
BRANCH   4   8
HETATM    8  C   UNL     1     -11.975  12.768  65.253  1.00  0.00    -0.473 C  
BRANCH   8   9
HETATM    9  C   UNL     1     -11.668  11.954  66.496  1.00  0.00    -0.247 A  
HETATM   10  C   UNL     1     -12.055  12.368  67.772  1.00  0.00    -0.074 A  
HETATM   11  C   UNL     1     -11.754  11.580  68.891  1.00  0.00    -0.339 A  
HETATM   12  I   UNL     1     -12.344  12.337  70.774  1.00  0.00     0.138 I  
HETATM   13  C   UNL     1     -11.056  10.355  68.780  1.00  0.00    -0.250 A  
HETATM   14  C   UNL     1     -10.690   9.932  67.495  1.00  0.00    -0.272 A  
HETATM   15  C   UNL     1     -11.018  10.718  66.371  1.00  0.00    -0.108 A  
HETATM   16  I   UNL     1      -9.540   8.223  67.063  1.00  0.00    -0.328 I  
BRANCH  13  17
HETATM   17  O   UNL     1     -10.549   9.843  69.952  1.00  0.00    -0.233 OA 
BRANCH  17  18
HETATM   18  C   UNL     1      -9.221   9.599  70.193  1.00  0.00    -0.246 A  
HETATM   19  C   UNL     1      -9.011   8.459  70.987  1.00  0.00    -0.199 A  
HETATM   20  C   UNL     1      -7.722   8.063  71.350  1.00  0.00    -0.089 A  
HETATM   21  I   UNL     1      -7.510   6.358  72.536  1.00  0.00    -0.095 I  
HETATM   22  C   UNL     1      -6.624   8.815  70.932  1.00  0.00    -0.055 A  
HETATM   23  C   UNL     1      -6.830   9.950  70.136  1.00  0.00    -0.125 A  
HETATM   24  O   UNL     1      -5.350   8.446  71.288  1.00  0.00    -0.032 OA 
HETATM   25  H   UNL     1      -4.602   8.958  71.004  1.00  0.00     0.000 HD 
HETATM   26  I   UNL     1      -5.226  11.171  69.555  1.00  0.00    -0.050 I  
HETATM   27  C   UNL     1      -8.124  10.324  69.734  1.00  0.00    -0.125 A  
ENDBRANCH  17  18
ENDBRANCH  13  17
ENDBRANCH   8   9
ENDBRANCH   4   8
TORSDOF 4
ENDMDL
MODEL      254
REMARK 921   NORMALIZED FREE ENERGY PREDICTED BY IDOCK:   -2.42 KCAL/MOL
REMARK 922        TOTAL FREE ENERGY PREDICTED BY IDOCK:   -3.74 KCAL/MOL
REMARK 923 INTER-LIGAND FREE ENERGY PREDICTED BY IDOCK:   -3.65 KCAL/MOL
REMARK 924 INTRA-LIGAND FREE ENERGY PREDICTED BY IDOCK:   -0.09 KCAL/MOL
REMARK 927      BINDING AFFINITY PREDICTED BY RF-SCORE:    0.00 PKD
ROOT
HETATM    1  N   UNL     1     -10.690  16.326  68.300  1.00  0.00    -0.307 NA 
HETATM    2  H1  UNL     1     -11.055  16.895  69.064  1.00  0.00     0.000 HD 
HETATM    3  H2  UNL     1     -10.268  15.471  68.662  1.00  0.00     0.000 HD 
HETATM    4  CA  UNL     1      -9.731  17.045  67.406  1.00  0.00    -0.252 C  
HETATM    5  C   UNL     1      -8.556  17.535  68.277  1.00  0.00    -0.266 C  
HETATM    6  OXT UNL     1      -7.448  17.840  67.867  1.00  0.00    -0.202 OA 
HETATM    7  O   UNL     1      -8.911  17.605  69.587  1.00  0.00     0.513 OA 
ENDROOT
BRANCH   4   8
HETATM    8  C   UNL     1      -9.180  16.186  66.252  1.00  0.00    -0.366 C  
BRANCH   8   9
HETATM    9  C   UNL     1      -9.428  14.691  66.326  1.00  0.00    -0.322 A  
HETATM   10  C   UNL     1     -10.357  14.048  65.506  1.00  0.00    -0.354 A  
HETATM   11  C   UNL     1     -10.549  12.663  65.607  1.00  0.00    -0.273 A  
HETATM   12  I   UNL     1     -12.021  11.813  64.351  1.00  0.00     0.084 I  
HETATM   13  C   UNL     1      -9.825  11.871  66.528  1.00  0.00    -0.206 A  
HETATM   14  C   UNL     1      -8.877  12.517  67.333  1.00  0.00    -0.187 A  
HETATM   15  C   UNL     1      -8.672  13.906  67.208  1.00  0.00    -0.225 A  
HETATM   16  I   UNL     1      -7.761  11.601  68.864  1.00  0.00     0.144 I  
BRANCH  13  17
HETATM   17  O   UNL     1     -10.319  10.607  66.753  1.00  0.00    -0.227 OA 
BRANCH  17  18
HETATM   18  C   UNL     1      -9.577   9.454  66.706  1.00  0.00    -0.179 A  
HETATM   19  C   UNL     1      -8.407   9.588  65.941  1.00  0.00    -0.124 A  
HETATM   20  C   UNL     1      -7.534   8.512  65.767  1.00  0.00    -0.081 A  
HETATM   21  I   UNL     1      -5.822   8.807  64.609  1.00  0.00    -0.066 I  
HETATM   22  C   UNL     1      -7.832   7.280  66.349  1.00  0.00    -0.106 A  
HETATM   23  C   UNL     1      -8.996   7.144  67.117  1.00  0.00    -0.125 A  
HETATM   24  O   UNL     1      -6.990   6.208  66.179  1.00  0.00    -0.063 OA 
HETATM   25  H   UNL     1      -7.192   5.368  66.575  1.00  0.00     0.000 HD 
HETATM   26  I   UNL     1      -9.542   5.293  67.937  1.00  0.00    -0.201 I  
HETATM   27  C   UNL     1      -9.852   8.239  67.328  1.00  0.00    -0.258 A  
ENDBRANCH  17  18
ENDBRANCH  13  17
ENDBRANCH   8   9
ENDBRANCH   4   8
TORSDOF 4
ENDMDL
MODEL      255
REMARK 921   NORMALIZED FREE ENERGY PREDICTED BY IDOCK:   -2.28 KCAL/MOL
REMARK 922        TOTAL FREE ENERGY PREDICTED BY IDOCK:   -3.56 KCAL/MOL
REMARK 923 INTER-LIGAND FREE ENERGY PREDICTED BY IDOCK:   -3.29 KCAL/MOL
REMARK 924 INTRA-LIGAND FREE ENERGY PREDICTED BY IDOCK:   -0.28 KCAL/MOL
REMARK 927      BINDING AFFINITY PREDICTED BY RF-SCORE:    0.00 PKD
ROOT
HETATM    1  N   UNL     1      -8.024  16.398  66.606  1.00  0.00    -0.258 NA 
HETATM    2  H1  UNL     1      -7.570  17.291  66.414  1.00  0.00     0.000 HD 
HETATM    3  H2  UNL     1      -8.777  16.231  65.939  1.00  0.00     0.000 HD 
HETATM    4  CA  UNL     1      -8.524  16.254  68.007  1.00  0.00    -0.174 C  
HETATM    5  C   UNL     1      -9.527  17.396  68.267  1.00  0.00    -0.290 C  
HETATM    6  OXT UNL     1     -10.380  17.408  69.139  1.00  0.00    -0.342 OA 
HETATM    7  O   UNL     1      -9.337  18.424  67.397  1.00  0.00    -0.269 OA 
ENDROOT
BRANCH   4   8
HETATM    8  C   UNL     1      -9.210  14.904  68.297  1.00  0.00    -0.187 C  
BRANCH   8   9
HETATM    9  C   UNL     1      -8.872  13.748  67.375  1.00  0.00    -0.211 A  
HETATM   10  C   UNL     1      -9.775  13.259  66.430  1.00  0.00    -0.279 A  
HETATM   11  C   UNL     1      -9.416  12.192  65.595  1.00  0.00    -0.108 A  
HETATM   12  I   UNL     1     -10.887  11.506  64.242  1.00  0.00    -0.357 I  
HETATM   13  C   UNL     1      -8.147  11.574  65.674  1.00  0.00     0.405 A  
HETATM   14  C   UNL     1      -7.234  12.083  66.608  1.00  0.00     0.140 A  
HETATM   15  C   UNL     1      -7.594  13.173  67.426  1.00  0.00    -0.137 A  
HETATM   16  I   UNL     1      -5.336  11.270  67.015  1.00  0.00    -0.124 I  
BRANCH  13  17
HETATM   17  O   UNL     1      -8.029  10.359  65.040  1.00  0.00    -0.154 OA 
BRANCH  17  18
HETATM   18  C   UNL     1      -7.987   9.142  65.674  1.00  0.00    -0.107 A  
HETATM   19  C   UNL     1      -8.678   9.139  66.896  1.00  0.00    -0.133 A  
HETATM   20  C   UNL     1      -8.730   7.992  67.690  1.00  0.00    -0.126 A  
HETATM   21  I   UNL     1      -9.778   8.086  69.494  1.00  0.00    -0.177 I  
HETATM   22  C   UNL     1      -8.076   6.833  67.273  1.00  0.00    -0.118 A  
HETATM   23  C   UNL     1      -7.389   6.831  66.052  1.00  0.00    -0.075 A  
HETATM   24  O   UNL     1      -8.108   5.698  68.047  1.00  0.00    -0.097 OA 
HETATM   25  H   UNL     1      -7.662   4.908  67.763  1.00  0.00     0.000 HD 
HETATM   26  I   UNL     1      -6.310   5.147  65.418  1.00  0.00    -0.037 I  
HETATM   27  C   UNL     1      -7.374   7.973  65.232  1.00  0.00    -0.070 A  
ENDBRANCH  17  18
ENDBRANCH  13  17
ENDBRANCH   8   9
ENDBRANCH   4   8
TORSDOF 4
ENDMDL
MODEL      256
REMARK 921   NORMALIZED FREE ENERGY PREDICTED BY IDOCK:   -2.27 KCAL/MOL
REMARK 922        TOTAL FREE ENERGY PREDICTED BY IDOCK:   -3.55 KCAL/MOL
REMARK 923 INTER-LIGAND FREE ENERGY PREDICTED BY IDOCK:   -3.89 KCAL/MOL
REMARK 924 INTRA-LIGAND FREE ENERGY PREDICTED BY IDOCK:    0.34 KCAL/MOL
REMARK 927      BINDING AFFINITY PREDICTED BY RF-SCORE:    0.00 PKD
ROOT
HETATM    1  N   UNL     1      -7.824  14.762  66.640  1.00  0.00    -0.209 NA 
HETATM    2  H1  UNL     1      -6.893  15.172  66.715  1.00  0.00     0.000 HD 
HETATM    3  H2  UNL     1      -8.007  14.466  65.681  1.00  0.00     0.000 HD 
HETATM    4  CA  UNL     1      -8.923  15.645  67.135  1.00  0.00    -0.214 C  
HETATM    5  C   UNL     1      -8.879  16.951  66.316  1.00  0.00    -0.279 C  
HETATM    6  OXT UNL     1      -9.800  17.741  66.187  1.00  0.00    -0.428 OA 
HETATM    7  O   UNL     1      -7.657  17.135  65.749  1.00  0.00    -0.381 OA 
ENDROOT
BRANCH   4   8
HETATM    8  C   UNL     1     -10.330  15.026  67.021  1.00  0.00    -0.269 C  
BRANCH   8   9
HETATM    9  C   UNL     1     -10.434  13.521  67.175  1.00  0.00    -0.256 A  
HETATM   10  C   UNL     1     -10.689  12.913  68.406  1.00  0.00    -0.273 A  
HETATM   11  C   UNL     1     -10.782  11.517  68.499  1.00  0.00    -0.209 A  
HETATM   12  I   UNL     1     -11.118  10.712  70.423  1.00  0.00     0.251 I  
HETATM   13  C   UNL     1     -10.622  10.679  67.371  1.00  0.00    -0.256 A  
HETATM   14  C   UNL     1     -10.389  11.294  66.134  1.00  0.00    -0.251 A  
HETATM   15  C   UNL     1     -10.322  12.699  66.044  1.00  0.00    -0.287 A  
HETATM   16  I   UNL     1      -9.990  10.281  64.332  1.00  0.00     0.246 I  
BRANCH  13  17
HETATM   17  O   UNL     1     -10.420   9.345  67.638  1.00  0.00    -0.238 OA 
BRANCH  17  18
HETATM   18  C   UNL     1      -9.232   8.797  68.052  1.00  0.00    -0.139 A  
HETATM   19  C   UNL     1      -9.244   8.426  69.406  1.00  0.00    -0.154 A  
HETATM   20  C   UNL     1      -8.117   7.865  70.009  1.00  0.00    -0.117 A  
HETATM   21  I   UNL     1      -8.230   7.350  72.029  1.00  0.00    -0.134 I  
HETATM   22  C   UNL     1      -6.953   7.682  69.262  1.00  0.00    -0.060 A  
HETATM   23  C   UNL     1      -6.938   8.047  67.909  1.00  0.00    -0.078 A  
HETATM   24  O   UNL     1      -5.831   7.141  69.841  1.00  0.00    -0.023 OA 
HETATM   25  H   UNL     1      -5.038   7.016  69.333  1.00  0.00     0.000 HD 
HETATM   26  I   UNL     1      -5.191   7.880  66.761  1.00  0.00    -0.029 I  
HETATM   27  C   UNL     1      -8.087   8.571  67.291  1.00  0.00    -0.105 A  
ENDBRANCH  17  18
ENDBRANCH  13  17
ENDBRANCH   8   9
ENDBRANCH   4   8
TORSDOF 4
ENDMDL
MODEL      257
REMARK 921   NORMALIZED FREE ENERGY PREDICTED BY IDOCK:   -2.21 KCAL/MOL
REMARK 922        TOTAL FREE ENERGY PREDICTED BY IDOCK:   -3.49 KCAL/MOL
REMARK 923 INTER-LIGAND FREE ENERGY PREDICTED BY IDOCK:   -3.66 KCAL/MOL
REMARK 924 INTRA-LIGAND FREE ENERGY PREDICTED BY IDOCK:    0.17 KCAL/MOL
REMARK 927      BINDING AFFINITY PREDICTED BY RF-SCORE:    0.00 PKD
ROOT
HETATM    1  N   UNL     1      -6.511   9.247  71.630  1.00  0.00    -0.258 NA 
HETATM    2  H1  UNL     1      -5.586   8.959  71.950  1.00  0.00     0.000 HD 
HETATM    3  H2  UNL     1      -6.703  10.207  71.914  1.00  0.00     0.000 HD 
HETATM    4  CA  UNL     1      -7.618   8.341  72.061  1.00  0.00    -0.116 C  
HETATM    5  C   UNL     1      -7.611   8.293  73.603  1.00  0.00    -0.139 C  
HETATM    6  OXT UNL     1      -8.548   7.958  74.308  1.00  0.00    -0.248 OA 
HETATM    7  O   UNL     1      -6.400   8.664  74.100  1.00  0.00    -0.126 OA 
ENDROOT
BRANCH   4   8
HETATM    8  C   UNL     1      -9.016   8.777  71.578  1.00  0.00    -0.306 C  
BRANCH   8   9
HETATM    9  C   UNL     1      -9.259   8.767  70.081  1.00  0.00    -0.179 A  
HETATM   10  C   UNL     1      -9.746   7.643  69.412  1.00  0.00    -0.165 A  
HETATM   11  C   UNL     1      -9.961   7.682  68.027  1.00  0.00    -0.175 A  
HETATM   12  I   UNL     1     -10.649   5.901  67.120  1.00  0.00    -0.320 I  
HETATM   13  C   UNL     1      -9.697   8.840  67.260  1.00  0.00    -0.183 A  
HETATM   14  C   UNL     1      -9.231   9.975  67.939  1.00  0.00    -0.137 A  
HETATM   15  C   UNL     1      -9.041   9.935  69.335  1.00  0.00    -0.216 A  
HETATM   16  I   UNL     1      -8.644  11.777  67.026  1.00  0.00    -0.164 I  
BRANCH  13  17
HETATM   17  O   UNL     1      -9.644   8.661  65.898  1.00  0.00    -0.220 OA 
BRANCH  17  18
HETATM   18  C   UNL     1      -8.567   8.155  65.214  1.00  0.00    -0.106 A  
HETATM   19  C   UNL     1      -7.696   9.155  64.752  1.00  0.00    -0.111 A  
HETATM   20  C   UNL     1      -6.552   8.830  64.020  1.00  0.00    -0.079 A  
HETATM   21  I   UNL     1      -5.319  10.385  63.371  1.00  0.00    -0.131 I  
HETATM   22  C   UNL     1      -6.274   7.494  63.729  1.00  0.00    -0.053 A  
HETATM   23  C   UNL     1      -7.139   6.494  64.192  1.00  0.00    -0.057 A  
HETATM   24  O   UNL     1      -5.159   7.158  63.001  1.00  0.00    -0.031 OA 
HETATM   25  H   UNL     1      -4.969   6.248  62.802  1.00  0.00     0.000 HD 
HETATM   26  I   UNL     1      -6.822   4.478  63.707  1.00  0.00    -0.046 I  
HETATM   27  C   UNL     1      -8.267   6.818  64.966  1.00  0.00    -0.096 A  
ENDBRANCH  17  18
ENDBRANCH  13  17
ENDBRANCH   8   9
ENDBRANCH   4   8
TORSDOF 4
ENDMDL
MODEL      258
REMARK 921   NORMALIZED FREE ENERGY PREDICTED BY IDOCK:   -2.15 KCAL/MOL
REMARK 922        TOTAL FREE ENERGY PREDICTED BY IDOCK:   -3.40 KCAL/MOL
REMARK 923 INTER-LIGAND FREE ENERGY PREDICTED BY IDOCK:   -3.61 KCAL/MOL
REMARK 924 INTRA-LIGAND FREE ENERGY PREDICTED BY IDOCK:    0.21 KCAL/MOL
REMARK 927      BINDING AFFINITY PREDICTED BY RF-SCORE:    0.00 PKD
ROOT
HETATM    1  N   UNL     1      -9.757  13.629  68.371  1.00  0.00    -0.232 NA 
HETATM    2  H1  UNL     1      -9.805  14.619  68.611  1.00  0.00     0.000 HD 
HETATM    3  H2  UNL     1      -8.843  13.401  67.978  1.00  0.00     0.000 HD 
HETATM    4  CA  UNL     1     -10.848  13.165  67.462  1.00  0.00    -0.255 C  
HETATM    5  C   UNL     1     -10.768  14.001  66.169  1.00  0.00    -0.289 C  
HETATM    6  OXT UNL     1     -11.246  13.690  65.091  1.00  0.00    -0.298 OA 
HETATM    7  O   UNL     1     -10.099  15.166  66.378  1.00  0.00    -0.253 OA 
ENDROOT
BRANCH   4   8
HETATM    8  C   UNL     1     -10.775  11.668  67.100  1.00  0.00    -0.288 C  
BRANCH   8   9
HETATM    9  C   UNL     1      -9.828  10.809  67.915  1.00  0.00    -0.185 A  
HETATM   10  C   UNL     1      -8.474  10.681  67.596  1.00  0.00    -0.118 A  
HETATM   11  C   UNL     1      -7.636   9.879  68.383  1.00  0.00    -0.083 A  
HETATM   12  I   UNL     1      -5.620   9.723  67.768  1.00  0.00    -0.038 I  
HETATM   13  C   UNL     1      -8.115   9.175  69.512  1.00  0.00    -0.107 A  
HETATM   14  C   UNL     1      -9.468   9.325  69.842  1.00  0.00    -0.197 A  
HETATM   15  C   UNL     1     -10.300  10.153  69.061  1.00  0.00    -0.230 A  
HETATM   16  I   UNL     1     -10.460   8.295  71.387  1.00  0.00    -0.346 I  
BRANCH  13  17
HETATM   17  O   UNL     1      -7.288   8.192  70.002  1.00  0.00    -0.059 OA 
BRANCH  17  18
HETATM   18  C   UNL     1      -7.163   6.933  69.471  1.00  0.00    -0.081 A  
HETATM   19  C   UNL     1      -7.665   6.840  68.163  1.00  0.00    -0.109 A  
HETATM   20  C   UNL     1      -7.637   5.630  67.466  1.00  0.00    -0.089 A  
HETATM   21  I   UNL     1      -8.411   5.589  65.527  1.00  0.00    -0.132 I  
HETATM   22  C   UNL     1      -7.117   4.491  68.080  1.00  0.00    -0.064 A  
HETATM   23  C   UNL     1      -6.611   4.581  69.383  1.00  0.00    -0.040 A  
HETATM   24  O   UNL     1      -7.091   3.290  67.413  1.00  0.00    -0.056 OA 
HETATM   25  H   UNL     1      -6.737   2.514  67.831  1.00  0.00     0.000 HD 
HETATM   26  I   UNL     1      -5.901   2.883  70.390  1.00  0.00    -0.019 I  
HETATM   27  C   UNL     1      -6.599   5.809  70.068  1.00  0.00    -0.043 A  
ENDBRANCH  17  18
ENDBRANCH  13  17
ENDBRANCH   8   9
ENDBRANCH   4   8
TORSDOF 4
ENDMDL
MODEL      259
REMARK 921   NORMALIZED FREE ENERGY PREDICTED BY IDOCK:   -2.15 KCAL/MOL
REMARK 922        TOTAL FREE ENERGY PREDICTED BY IDOCK:   -3.40 KCAL/MOL
REMARK 923 INTER-LIGAND FREE ENERGY PREDICTED BY IDOCK:   -5.13 KCAL/MOL
REMARK 924 INTRA-LIGAND FREE ENERGY PREDICTED BY IDOCK:    1.73 KCAL/MOL
REMARK 927      BINDING AFFINITY PREDICTED BY RF-SCORE:    0.00 PKD
ROOT
HETATM    1  N   UNL     1     -11.412   7.115  69.497  1.00  0.00    -0.514 NA 
HETATM    2  H1  UNL     1     -11.135   6.155  69.290  1.00  0.00     0.000 HD 
HETATM    3  H2  UNL     1     -12.401   7.253  69.292  1.00  0.00     0.000 HD 
HETATM    4  CA  UNL     1     -10.585   8.153  68.808  1.00  0.00    -0.121 C  
HETATM    5  C   UNL     1     -10.700   7.910  67.289  1.00  0.00    -0.229 C  
HETATM    6  OXT UNL     1     -10.464   8.732  66.419  1.00  0.00    -0.216 OA 
HETATM    7  O   UNL     1     -11.089   6.635  67.022  1.00  0.00    -0.403 OA 
ENDROOT
BRANCH   4   8
HETATM    8  C   UNL     1     -11.004   9.603  69.120  1.00  0.00    -0.177 C  
BRANCH   8   9
HETATM    9  C   UNL     1     -10.482  10.684  68.193  1.00  0.00    -0.215 A  
HETATM   10  C   UNL     1      -9.118  10.925  68.022  1.00  0.00    -0.152 A  
HETATM   11  C   UNL     1      -8.682  11.932  67.150  1.00  0.00    -0.176 A  
HETATM   12  I   UNL     1      -6.595  12.237  67.015  1.00  0.00     0.419 I  
HETATM   13  C   UNL     1      -9.588  12.736  66.420  1.00  0.00    -0.254 A  
HETATM   14  C   UNL     1     -10.957  12.475  66.577  1.00  0.00    -0.266 A  
HETATM   15  C   UNL     1     -11.386  11.444  67.437  1.00  0.00    -0.359 A  
HETATM   16  I   UNL     1     -12.512  13.600  65.713  1.00  0.00    -0.376 I  
BRANCH  13  17
HETATM   17  O   UNL     1      -9.064  13.875  65.857  1.00  0.00     0.064 OA 
BRANCH  17  18
HETATM   18  C   UNL     1      -8.889  15.068  66.513  1.00  0.00    -0.251 A  
HETATM   19  C   UNL     1      -8.009  14.968  67.602  1.00  0.00    -0.178 A  
HETATM   20  C   UNL     1      -7.721  16.078  68.398  1.00  0.00    -0.147 A  
HETATM   21  I   UNL     1      -6.403  15.830  69.999  1.00  0.00     0.152 I  
HETATM   22  C   UNL     1      -8.326  17.304  68.120  1.00  0.00    -0.233 A  
HETATM   23  C   UNL     1      -9.201  17.408  67.031  1.00  0.00    -0.246 A  
HETATM   24  O   UNL     1      -8.062  18.404  68.900  1.00  0.00    -0.274 OA 
HETATM   25  H   UNL     1      -8.474  19.239  68.711  1.00  0.00     0.000 HD 
HETATM   26  I   UNL     1     -10.211  19.200  66.620  1.00  0.00    -0.608 I  
HETATM   27  C   UNL     1      -9.456  16.301  66.203  1.00  0.00    -0.373 A  
ENDBRANCH  17  18
ENDBRANCH  13  17
ENDBRANCH   8   9
ENDBRANCH   4   8
TORSDOF 4
ENDMDL
MODEL      260
REMARK 921   NORMALIZED FREE ENERGY PREDICTED BY IDOCK:   -2.12 KCAL/MOL
REMARK 922        TOTAL FREE ENERGY PREDICTED BY IDOCK:   -3.37 KCAL/MOL
REMARK 923 INTER-LIGAND FREE ENERGY PREDICTED BY IDOCK:   -3.45 KCAL/MOL
REMARK 924 INTRA-LIGAND FREE ENERGY PREDICTED BY IDOCK:    0.08 KCAL/MOL
REMARK 927      BINDING AFFINITY PREDICTED BY RF-SCORE:    0.00 PKD
ROOT
HETATM    1  N   UNL     1     -10.656   9.548  69.312  1.00  0.00    -0.216 NA 
HETATM    2  H1  UNL     1     -10.983   8.898  70.027  1.00  0.00     0.000 HD 
HETATM    3  H2  UNL     1      -9.767   9.965  69.590  1.00  0.00     0.000 HD 
HETATM    4  CA  UNL     1     -11.643  10.611  68.951  1.00  0.00    -0.249 C  
HETATM    5  C   UNL     1     -11.974  11.398  70.236  1.00  0.00    -0.373 C  
HETATM    6  OXT UNL     1     -12.449  12.521  70.278  1.00  0.00    -0.202 OA 
HETATM    7  O   UNL     1     -11.682  10.671  71.347  1.00  0.00    -0.196 OA 
ENDROOT
BRANCH   4   8
HETATM    8  C   UNL     1     -11.148  11.593  67.871  1.00  0.00    -0.306 C  
BRANCH   8   9
HETATM    9  C   UNL     1     -10.029  12.539  68.263  1.00  0.00    -0.229 A  
HETATM   10  C   UNL     1      -8.695  12.132  68.323  1.00  0.00    -0.178 A  
HETATM   11  C   UNL     1      -7.694  13.044  68.685  1.00  0.00    -0.069 A  
HETATM   12  I   UNL     1      -5.720  12.296  68.793  1.00  0.00    -0.064 I  
HETATM   13  C   UNL     1      -7.985  14.391  69.002  1.00  0.00    -0.057 A  
HETATM   14  C   UNL     1      -9.323  14.801  68.917  1.00  0.00    -0.184 A  
HETATM   15  C   UNL     1     -10.321  13.885  68.528  1.00  0.00    -0.244 A  
HETATM   16  I   UNL     1     -10.043  16.705  69.454  1.00  0.00     0.014 I  
BRANCH  13  17
HETATM   17  O   UNL     1      -6.986  15.089  69.638  1.00  0.00    -0.169 OA 
BRANCH  17  18
HETATM   18  C   UNL     1      -6.556  16.344  69.285  1.00  0.00    -0.206 A  
HETATM   19  C   UNL     1      -6.437  16.509  67.896  1.00  0.00    -0.150 A  
HETATM   20  C   UNL     1      -5.997  17.717  67.351  1.00  0.00    -0.146 A  
HETATM   21  I   UNL     1      -5.847  17.867  65.274  1.00  0.00     0.632 I  
HETATM   22  C   UNL     1      -5.657  18.774  68.196  1.00  0.00    -0.185 A  
HETATM   23  C   UNL     1      -5.779  18.613  69.583  1.00  0.00    -0.244 A  
HETATM   24  O   UNL     1      -5.212  19.965  67.677  1.00  0.00    -0.176 OA 
HETATM   25  H   UNL     1      -4.980  20.685  68.253  1.00  0.00     0.000 HD 
HETATM   26  I   UNL     1      -5.195  20.133  70.905  1.00  0.00    -0.353 I  
HETATM   27  C   UNL     1      -6.264  17.412  70.129  1.00  0.00     0.097 A  
ENDBRANCH  17  18
ENDBRANCH  13  17
ENDBRANCH   8   9
ENDBRANCH   4   8
TORSDOF 4
ENDMDL
MODEL      261
REMARK 921   NORMALIZED FREE ENERGY PREDICTED BY IDOCK:   -1.79 KCAL/MOL
REMARK 922        TOTAL FREE ENERGY PREDICTED BY IDOCK:   -2.96 KCAL/MOL
REMARK 923 INTER-LIGAND FREE ENERGY PREDICTED BY IDOCK:   -2.48 KCAL/MOL
REMARK 924 INTRA-LIGAND FREE ENERGY PREDICTED BY IDOCK:   -0.48 KCAL/MOL
REMARK 927      BINDING AFFINITY PREDICTED BY RF-SCORE:    0.00 PKD
ROOT
HETATM    1  N   UNL     1      -9.644  15.418  68.522  1.00  0.00    -0.196 NA 
HETATM    2  H1  UNL     1      -9.355  16.357  68.244  1.00  0.00     0.000 HD 
HETATM    3  H2  UNL     1      -9.998  15.422  69.478  1.00  0.00     0.000 HD 
HETATM    4  CA  UNL     1      -8.582  14.379  68.360  1.00  0.00    -0.174 C  
HETATM    5  C   UNL     1      -7.372  14.808  69.215  1.00  0.00    -0.168 C  
HETATM    6  OXT UNL     1      -6.483  14.072  69.608  1.00  0.00    -0.122 OA 
HETATM    7  O   UNL     1      -7.403  16.143  69.476  1.00  0.00    -0.220 OA 
ENDROOT
BRANCH   4   8
HETATM    8  C   UNL     1      -9.017  12.961  68.779  1.00  0.00     0.175 C  
BRANCH   8   9
HETATM    9  C   UNL     1      -8.434  11.802  67.994  1.00  0.00    -0.157 A  
HETATM   10  C   UNL     1      -7.446  10.967  68.519  1.00  0.00    -0.106 A  
HETATM   11  C   UNL     1      -6.941   9.904  67.758  1.00  0.00    -0.085 A  
HETATM   12  I   UNL     1      -5.411   8.744  68.641  1.00  0.00    -0.037 I  
HETATM   13  C   UNL     1      -7.400   9.636  66.448  1.00  0.00    -0.094 A  
HETATM   14  C   UNL     1      -8.408  10.462  65.932  1.00  0.00    -0.152 A  
HETATM   15  C   UNL     1      -8.929  11.514  66.713  1.00  0.00    -0.181 A  
HETATM   16  I   UNL     1      -9.175  10.362  63.975  1.00  0.00    -0.364 I  
BRANCH  13  17
HETATM   17  O   UNL     1      -6.620   8.786  65.699  1.00  0.00    -0.062 OA 
BRANCH  17  18
HETATM   18  C   UNL     1      -6.901   7.464  65.463  1.00  0.00    -0.052 A  
HETATM   19  C   UNL     1      -8.192   7.098  65.878  1.00  0.00    -0.132 A  
HETATM   20  C   UNL     1      -8.650   5.788  65.732  1.00  0.00    -0.149 A  
HETATM   21  I   UNL     1     -10.583   5.338  66.382  1.00  0.00     0.061 I  
HETATM   22  C   UNL     1      -7.811   4.820  65.179  1.00  0.00    -0.091 A  
HETATM   23  C   UNL     1      -6.523   5.182  64.761  1.00  0.00    -0.035 A  
HETATM   24  O   UNL     1      -8.241   3.523  65.038  1.00  0.00    -0.093 OA 
HETATM   25  H   UNL     1      -7.670   2.863  64.662  1.00  0.00     0.000 HD 
HETATM   26  I   UNL     1      -5.186   3.752  64.010  1.00  0.00    -0.009 I  
HETATM   27  C   UNL     1      -6.079   6.511  64.868  1.00  0.00    -0.037 A  
ENDBRANCH  17  18
ENDBRANCH  13  17
ENDBRANCH   8   9
ENDBRANCH   4   8
TORSDOF 4
ENDMDL
MODEL      262
REMARK 921   NORMALIZED FREE ENERGY PREDICTED BY IDOCK:   -1.75 KCAL/MOL
REMARK 922        TOTAL FREE ENERGY PREDICTED BY IDOCK:   -2.91 KCAL/MOL
REMARK 923 INTER-LIGAND FREE ENERGY PREDICTED BY IDOCK:   -4.52 KCAL/MOL
REMARK 924 INTRA-LIGAND FREE ENERGY PREDICTED BY IDOCK:    1.61 KCAL/MOL
REMARK 927      BINDING AFFINITY PREDICTED BY RF-SCORE:    0.00 PKD
ROOT
HETATM    1  N   UNL     1     -13.788  14.428  72.867  1.00  0.00    -0.557 NA 
HETATM    2  H1  UNL     1     -13.575  14.975  73.702  1.00  0.00     0.000 HD 
HETATM    3  H2  UNL     1     -13.491  13.460  72.990  1.00  0.00     0.000 HD 
HETATM    4  CA  UNL     1     -13.222  14.993  71.604  1.00  0.00    -0.377 C  
HETATM    5  C   UNL     1     -11.691  15.080  71.774  1.00  0.00    -0.385 C  
HETATM    6  OXT UNL     1     -10.879  15.154  70.868  1.00  0.00    -0.252 OA 
HETATM    7  O   UNL     1     -11.342  15.080  73.089  1.00  0.00    -0.151 OA 
ENDROOT
BRANCH   4   8
HETATM    8  C   UNL     1     -13.543  14.167  70.343  1.00  0.00     0.601 C  
BRANCH   8   9
HETATM    9  C   UNL     1     -12.488  13.182  69.879  1.00  0.00    -0.091 A  
HETATM   10  C   UNL     1     -12.260  11.971  70.535  1.00  0.00    -0.414 A  
HETATM   11  C   UNL     1     -11.277  11.088  70.066  1.00  0.00    -0.224 A  
HETATM   12  I   UNL     1     -10.987   9.312  71.174  1.00  0.00    -0.453 I  
HETATM   13  C   UNL     1     -10.487  11.380  68.931  1.00  0.00    -0.193 A  
HETATM   14  C   UNL     1     -10.736  12.586  68.261  1.00  0.00    -0.228 A  
HETATM   15  C   UNL     1     -11.743  13.457  68.724  1.00  0.00    -0.377 A  
HETATM   16  I   UNL     1      -9.625  13.319  66.630  1.00  0.00    -0.212 I  
BRANCH  13  17
HETATM   17  O   UNL     1      -9.365  10.603  68.762  1.00  0.00    -0.165 OA 
BRANCH  17  18
HETATM   18  C   UNL     1      -9.180   9.699  67.747  1.00  0.00    -0.124 A  
HETATM   19  C   UNL     1      -9.424  10.246  66.477  1.00  0.00    -0.212 A  
HETATM   20  C   UNL     1      -9.302   9.469  65.324  1.00  0.00    -0.253 A  
HETATM   21  I   UNL     1      -9.690  10.369  63.480  1.00  0.00     0.040 I  
HETATM   22  C   UNL     1      -8.945   8.124  65.430  1.00  0.00     0.027 A  
HETATM   23  C   UNL     1      -8.696   7.577  66.696  1.00  0.00    -0.138 A  
HETATM   24  O   UNL     1      -8.831   7.343  64.307  1.00  0.00    -0.141 OA 
HETATM   25  H   UNL     1      -8.588   6.427  64.379  1.00  0.00     0.000 HD 
HETATM   26  I   UNL     1      -8.247   5.540  66.925  1.00  0.00    -0.103 I  
HETATM   27  C   UNL     1      -8.777   8.370  67.853  1.00  0.00    -0.138 A  
ENDBRANCH  17  18
ENDBRANCH  13  17
ENDBRANCH   8   9
ENDBRANCH   4   8
TORSDOF 4
ENDMDL
MODEL      263
REMARK 921   NORMALIZED FREE ENERGY PREDICTED BY IDOCK:   -1.70 KCAL/MOL
REMARK 922        TOTAL FREE ENERGY PREDICTED BY IDOCK:   -2.85 KCAL/MOL
REMARK 923 INTER-LIGAND FREE ENERGY PREDICTED BY IDOCK:   -4.92 KCAL/MOL
REMARK 924 INTRA-LIGAND FREE ENERGY PREDICTED BY IDOCK:    2.07 KCAL/MOL
REMARK 927      BINDING AFFINITY PREDICTED BY RF-SCORE:    0.00 PKD
ROOT
HETATM    1  N   UNL     1     -10.732   9.109  69.815  1.00  0.00    -0.228 NA 
HETATM    2  H1  UNL     1     -10.434   8.214  70.203  1.00  0.00     0.000 HD 
HETATM    3  H2  UNL     1     -10.052   9.837  70.036  1.00  0.00     0.000 HD 
HETATM    4  CA  UNL     1     -12.104   9.530  70.232  1.00  0.00     0.085 C  
HETATM    5  C   UNL     1     -12.120   9.616  71.772  1.00  0.00    -0.369 C  
HETATM    6  OXT UNL     1     -12.924  10.245  72.440  1.00  0.00    -0.295 OA 
HETATM    7  O   UNL     1     -11.116   8.878  72.316  1.00  0.00    -0.339 OA 
ENDROOT
BRANCH   4   8
HETATM    8  C   UNL     1     -12.554  10.883  69.647  1.00  0.00    -0.075 C  
BRANCH   8   9
HETATM    9  C   UNL     1     -11.465  11.816  69.153  1.00  0.00    -0.358 A  
HETATM   10  C   UNL     1     -10.414  11.373  68.348  1.00  0.00    -0.221 A  
HETATM   11  C   UNL     1      -9.432  12.273  67.910  1.00  0.00    -0.200 A  
HETATM   12  I   UNL     1      -7.863  11.474  66.742  1.00  0.00    -0.007 I  
HETATM   13  C   UNL     1      -9.461  13.643  68.259  1.00  0.00    -0.213 A  
HETATM   14  C   UNL     1     -10.531  14.088  69.048  1.00  0.00    -0.156 A  
HETATM   15  C   UNL     1     -11.528  13.182  69.464  1.00  0.00    -0.291 A  
HETATM   16  I   UNL     1     -10.746  16.037  69.811  1.00  0.00    -0.311 I  
BRANCH  13  17
HETATM   17  O   UNL     1      -8.299  14.344  68.042  1.00  0.00    -0.139 OA 
BRANCH  17  18
HETATM   18  C   UNL     1      -8.176  15.708  68.126  1.00  0.00    -0.144 A  
HETATM   19  C   UNL     1      -7.227  16.113  69.078  1.00  0.00    -0.195 A  
HETATM   20  C   UNL     1      -6.977  17.466  69.314  1.00  0.00    -0.175 A  
HETATM   21  I   UNL     1      -5.550  17.972  70.753  1.00  0.00     0.384 I  
HETATM   22  C   UNL     1      -7.689  18.435  68.606  1.00  0.00    -0.301 A  
HETATM   23  C   UNL     1      -8.634  18.034  67.652  1.00  0.00    -0.247 A  
HETATM   24  O   UNL     1      -7.463  19.771  68.833  1.00  0.00    -0.332 OA 
HETATM   25  H   UNL     1      -7.948  20.430  68.351  1.00  0.00     0.000 HD 
HETATM   26  I   UNL     1      -9.799  19.442  66.624  1.00  0.00    -0.599 I  
HETATM   27  C   UNL     1      -8.853  16.672  67.383  1.00  0.00    -0.198 A  
ENDBRANCH  17  18
ENDBRANCH  13  17
ENDBRANCH   8   9
ENDBRANCH   4   8
TORSDOF 4
ENDMDL
MODEL      264
REMARK 921   NORMALIZED FREE ENERGY PREDICTED BY IDOCK:   -1.63 KCAL/MOL
REMARK 922        TOTAL FREE ENERGY PREDICTED BY IDOCK:   -2.77 KCAL/MOL
REMARK 923 INTER-LIGAND FREE ENERGY PREDICTED BY IDOCK:   -4.64 KCAL/MOL
REMARK 924 INTRA-LIGAND FREE ENERGY PREDICTED BY IDOCK:    1.87 KCAL/MOL
REMARK 927      BINDING AFFINITY PREDICTED BY RF-SCORE:    0.00 PKD
ROOT
HETATM    1  N   UNL     1      -6.769  15.770  68.516  1.00  0.00    -0.116 NA 
HETATM    2  H1  UNL     1      -5.898  16.288  68.403  1.00  0.00     0.000 HD 
HETATM    3  H2  UNL     1      -7.156  15.519  67.606  1.00  0.00     0.000 HD 
HETATM    4  CA  UNL     1      -7.795  16.471  69.347  1.00  0.00    -0.006 C  
HETATM    5  C   UNL     1      -8.098  17.825  68.674  1.00  0.00    -0.276 C  
HETATM    6  OXT UNL     1      -9.100  18.498  68.851  1.00  0.00    -0.278 OA 
HETATM    7  O   UNL     1      -7.085  18.201  67.848  1.00  0.00    -0.210 OA 
ENDROOT
BRANCH   4   8
HETATM    8  C   UNL     1      -9.112  15.687  69.518  1.00  0.00    -0.240 C  
BRANCH   8   9
HETATM    9  C   UNL     1      -9.348  14.524  68.574  1.00  0.00    -0.203 A  
HETATM   10  C   UNL     1     -10.305  14.570  67.559  1.00  0.00    -0.244 A  
HETATM   11  C   UNL     1     -10.484  13.473  66.706  1.00  0.00    -0.273 A  
HETATM   12  I   UNL     1     -12.000  13.642  65.243  1.00  0.00    -0.514 I  
HETATM   13  C   UNL     1      -9.719  12.291  66.835  1.00  0.00    -0.212 A  
HETATM   14  C   UNL     1      -8.743  12.257  67.840  1.00  0.00    -0.177 A  
HETATM   15  C   UNL     1      -8.552  13.374  68.678  1.00  0.00     0.010 A  
HETATM   16  I   UNL     1      -7.562  10.584  68.327  1.00  0.00    -0.109 I  
BRANCH  13  17
HETATM   17  O   UNL     1     -10.196  11.189  66.162  1.00  0.00    -0.229 OA 
BRANCH  17  18
HETATM   18  C   UNL     1      -9.563   9.973  66.099  1.00  0.00    -0.210 A  
HETATM   19  C   UNL     1     -10.252   8.963  66.789  1.00  0.00    -0.348 A  
HETATM   20  C   UNL     1      -9.751   7.661  66.847  1.00  0.00    -0.213 A  
HETATM   21  I   UNL     1     -10.845   6.228  67.901  1.00  0.00    -0.242 I  
HETATM   22  C   UNL     1      -8.541   7.358  66.223  1.00  0.00    -0.142 A  
HETATM   23  C   UNL     1      -7.853   8.363  65.530  1.00  0.00    -0.109 A  
HETATM   24  O   UNL     1      -8.028   6.085  66.279  1.00  0.00    -0.102 OA 
HETATM   25  H   UNL     1      -7.203   5.878  65.855  1.00  0.00     0.000 HD 
HETATM   26  I   UNL     1      -5.985   7.989  64.652  1.00  0.00    -0.049 I  
HETATM   27  C   UNL     1      -8.380   9.663  65.434  1.00  0.00    -0.146 A  
ENDBRANCH  17  18
ENDBRANCH  13  17
ENDBRANCH   8   9
ENDBRANCH   4   8
TORSDOF 4
ENDMDL
MODEL      265
REMARK 921   NORMALIZED FREE ENERGY PREDICTED BY IDOCK:   -1.63 KCAL/MOL
REMARK 922        TOTAL FREE ENERGY PREDICTED BY IDOCK:   -2.76 KCAL/MOL
REMARK 923 INTER-LIGAND FREE ENERGY PREDICTED BY IDOCK:   -2.60 KCAL/MOL
REMARK 924 INTRA-LIGAND FREE ENERGY PREDICTED BY IDOCK:   -0.16 KCAL/MOL
REMARK 927      BINDING AFFINITY PREDICTED BY RF-SCORE:    0.00 PKD
ROOT
HETATM    1  N   UNL     1     -10.090  13.630  63.721  1.00  0.00    -0.249 NA 
HETATM    2  H1  UNL     1      -9.391  14.331  63.473  1.00  0.00     0.000 HD 
HETATM    3  H2  UNL     1     -10.652  13.385  62.906  1.00  0.00     0.000 HD 
HETATM    4  CA  UNL     1     -10.968  14.019  64.866  1.00  0.00    -0.392 C  
HETATM    5  C   UNL     1     -11.682  15.331  64.484  1.00  0.00    -0.305 C  
HETATM    6  OXT UNL     1     -12.707  15.756  64.991  1.00  0.00     0.808 OA 
HETATM    7  O   UNL     1     -11.013  15.987  63.498  1.00  0.00     0.578 OA 
ENDROOT
BRANCH   4   8
HETATM    8  C   UNL     1     -12.024  12.960  65.239  1.00  0.00    -0.459 C  
BRANCH   8   9
HETATM    9  C   UNL     1     -11.769  12.146  66.494  1.00  0.00    -0.392 A  
HETATM   10  C   UNL     1     -12.101  12.614  67.766  1.00  0.00    -0.157 A  
HETATM   11  C   UNL     1     -11.851  11.824  68.897  1.00  0.00    -0.320 A  
HETATM   12  I   UNL     1     -12.348  12.663  70.772  1.00  0.00     0.158 I  
HETATM   13  C   UNL     1     -11.261  10.543  68.801  1.00  0.00    -0.262 A  
HETATM   14  C   UNL     1     -10.950  10.067  67.519  1.00  0.00    -0.212 A  
HETATM   15  C   UNL     1     -11.227  10.857  66.385  1.00  0.00     0.040 A  
HETATM   16  I   UNL     1      -9.955   8.259  67.106  1.00  0.00    -0.388 I  
BRANCH  13  17
HETATM   17  O   UNL     1     -10.782  10.011  69.975  1.00  0.00    -0.257 OA 
BRANCH  17  18
HETATM   18  C   UNL     1      -9.479   9.646  70.199  1.00  0.00    -0.253 A  
HETATM   19  C   UNL     1      -8.557  10.585  69.711  1.00  0.00     0.123 A  
HETATM   20  C   UNL     1      -7.182  10.375  69.835  1.00  0.00    -0.153 A  
HETATM   21  I   UNL     1      -5.889  11.827  69.074  1.00  0.00    -0.071 I  
HETATM   22  C   UNL     1      -6.713   9.209  70.440  1.00  0.00    -0.058 A  
HETATM   23  C   UNL     1      -7.630   8.271  70.932  1.00  0.00    -0.076 A  
HETATM   24  O   UNL     1      -5.364   8.981  70.560  1.00  0.00    -0.024 OA 
HETATM   25  H   UNL     1      -5.043   8.187  70.972  1.00  0.00     0.000 HD 
HETATM   26  I   UNL     1      -6.984   6.459  71.766  1.00  0.00    -0.079 I  
HETATM   27  C   UNL     1      -9.014   8.504  70.846  1.00  0.00    -0.206 A  
ENDBRANCH  17  18
ENDBRANCH  13  17
ENDBRANCH   8   9
ENDBRANCH   4   8
TORSDOF 4
ENDMDL
MODEL      266
REMARK 921   NORMALIZED FREE ENERGY PREDICTED BY IDOCK:   -1.59 KCAL/MOL
REMARK 922        TOTAL FREE ENERGY PREDICTED BY IDOCK:   -2.72 KCAL/MOL
REMARK 923 INTER-LIGAND FREE ENERGY PREDICTED BY IDOCK:   -3.36 KCAL/MOL
REMARK 924 INTRA-LIGAND FREE ENERGY PREDICTED BY IDOCK:    0.64 KCAL/MOL
REMARK 927      BINDING AFFINITY PREDICTED BY RF-SCORE:    0.00 PKD
ROOT
HETATM    1  N   UNL     1     -10.796  11.663  68.697  1.00  0.00    -0.202 NA 
HETATM    2  H1  UNL     1     -11.759  11.975  68.820  1.00  0.00     0.000 HD 
HETATM    3  H2  UNL     1     -10.150  12.317  69.141  1.00  0.00     0.000 HD 
HETATM    4  CA  UNL     1     -10.405  11.427  67.274  1.00  0.00    -0.198 C  
HETATM    5  C   UNL     1     -10.610  12.749  66.506  1.00  0.00    -0.254 C  
HETATM    6  OXT UNL     1     -10.086  13.042  65.444  1.00  0.00    -0.290 OA 
HETATM    7  O   UNL     1     -11.478  13.567  67.159  1.00  0.00    -0.307 OA 
ENDROOT
BRANCH   4   8
HETATM    8  C   UNL     1      -8.949  10.957  67.088  1.00  0.00    -0.141 C  
BRANCH   8   9
HETATM    9  C   UNL     1      -8.631   9.528  67.486  1.00  0.00    -0.126 A  
HETATM   10  C   UNL     1      -9.532   8.480  67.286  1.00  0.00    -0.199 A  
HETATM   11  C   UNL     1      -9.193   7.174  67.665  1.00  0.00    -0.125 A  
HETATM   12  I   UNL     1     -10.660   5.684  67.361  1.00  0.00    -0.116 I  
HETATM   13  C   UNL     1      -7.947   6.866  68.258  1.00  0.00    -0.119 A  
HETATM   14  C   UNL     1      -7.036   7.916  68.435  1.00  0.00    -0.075 A  
HETATM   15  C   UNL     1      -7.375   9.223  68.029  1.00  0.00    -0.080 A  
HETATM   16  I   UNL     1      -5.174   7.755  69.403  1.00  0.00    -0.019 I  
BRANCH  13  17
HETATM   17  O   UNL     1      -7.858   5.635  68.865  1.00  0.00    -0.093 OA 
BRANCH  17  18
HETATM   18  C   UNL     1      -8.035   5.406  70.207  1.00  0.00    -0.092 A  
HETATM   19  C   UNL     1      -7.229   6.226  71.012  1.00  0.00    -0.075 A  
HETATM   20  C   UNL     1      -7.262   6.123  72.404  1.00  0.00    -0.085 A  
HETATM   21  I   UNL     1      -6.023   7.382  73.517  1.00  0.00    -0.058 I  
HETATM   22  C   UNL     1      -8.098   5.183  73.008  1.00  0.00    -0.105 A  
HETATM   23  C   UNL     1      -8.907   4.367  72.207  1.00  0.00    -0.113 A  
HETATM   24  O   UNL     1      -8.135   5.062  74.376  1.00  0.00    -0.095 OA 
HETATM   25  H   UNL     1      -8.704   4.421  74.787  1.00  0.00     0.000 HD 
HETATM   26  I   UNL     1     -10.113   2.874  73.054  1.00  0.00    -0.248 I  
HETATM   27  C   UNL     1      -8.906   4.501  70.808  1.00  0.00    -0.140 A  
ENDBRANCH  17  18
ENDBRANCH  13  17
ENDBRANCH   8   9
ENDBRANCH   4   8
TORSDOF 4
ENDMDL
MODEL      267
REMARK 921   NORMALIZED FREE ENERGY PREDICTED BY IDOCK:   -1.32 KCAL/MOL
REMARK 922        TOTAL FREE ENERGY PREDICTED BY IDOCK:   -2.38 KCAL/MOL
REMARK 923 INTER-LIGAND FREE ENERGY PREDICTED BY IDOCK:   -2.21 KCAL/MOL
REMARK 924 INTRA-LIGAND FREE ENERGY PREDICTED BY IDOCK:   -0.17 KCAL/MOL
REMARK 927      BINDING AFFINITY PREDICTED BY RF-SCORE:    0.00 PKD
ROOT
HETATM    1  N   UNL     1      -7.132  14.016  69.649  1.00  0.00    -0.340 NA 
HETATM    2  H1  UNL     1      -6.443  14.722  69.907  1.00  0.00     0.000 HD 
HETATM    3  H2  UNL     1      -7.889  13.990  70.332  1.00  0.00     0.000 HD 
HETATM    4  CA  UNL     1      -6.562  12.649  69.448  1.00  0.00    -0.067 C  
HETATM    5  C   UNL     1      -5.876  12.229  70.764  1.00  0.00     0.010 C  
HETATM    6  OXT UNL     1      -5.616  11.084  71.095  1.00  0.00    -0.276 OA 
HETATM    7  O   UNL     1      -5.573  13.312  71.528  1.00  0.00    -0.328 OA 
ENDROOT
BRANCH   4   8
HETATM    8  C   UNL     1      -7.603  11.581  69.058  1.00  0.00    -0.058 C  
BRANCH   8   9
HETATM    9  C   UNL     1      -7.113  10.414  68.223  1.00  0.00    -0.078 A  
HETATM   10  C   UNL     1      -6.564   9.266  68.796  1.00  0.00    -0.052 A  
HETATM   11  C   UNL     1      -6.129   8.209  67.984  1.00  0.00    -0.047 A  
HETATM   12  I   UNL     1      -5.268   6.547  68.965  1.00  0.00    -0.014 I  
HETATM   13  C   UNL     1      -6.223   8.260  66.574  1.00  0.00    -0.054 A  
HETATM   14  C   UNL     1      -6.796   9.405  66.004  1.00  0.00    -0.089 A  
HETATM   15  C   UNL     1      -7.254  10.453  66.828  1.00  0.00    -0.109 A  
HETATM   16  I   UNL     1      -6.938   9.789  63.939  1.00  0.00    -0.114 I  
BRANCH  13  17
HETATM   17  O   UNL     1      -5.486   7.323  65.888  1.00  0.00    -0.026 OA 
BRANCH  17  18
HETATM   18  C   UNL     1      -6.004   6.204  65.285  1.00  0.00    -0.026 A  
HETATM   19  C   UNL     1      -7.252   5.830  65.807  1.00  0.00    -0.075 A  
HETATM   20  C   UNL     1      -7.925   4.706  65.327  1.00  0.00    -0.095 A  
HETATM   21  I   UNL     1      -9.775   4.226  66.170  1.00  0.00    -0.192 I  
HETATM   22  C   UNL     1      -7.346   3.930  64.322  1.00  0.00    -0.066 A  
HETATM   23  C   UNL     1      -6.103   4.303  63.796  1.00  0.00    -0.018 A  
HETATM   24  O   UNL     1      -7.990   2.814  63.845  1.00  0.00    -0.079 OA 
HETATM   25  H   UNL     1      -7.595   2.286  63.161  1.00  0.00     0.000 HD 
HETATM   26  I   UNL     1      -5.141   3.125  62.351  1.00  0.00    -0.005 I  
HETATM   27  C   UNL     1      -5.446   5.460  64.249  1.00  0.00    -0.013 A  
ENDBRANCH  17  18
ENDBRANCH  13  17
ENDBRANCH   8   9
ENDBRANCH   4   8
TORSDOF 4
ENDMDL
MODEL      268
REMARK 921   NORMALIZED FREE ENERGY PREDICTED BY IDOCK:   -1.21 KCAL/MOL
REMARK 922        TOTAL FREE ENERGY PREDICTED BY IDOCK:   -2.25 KCAL/MOL
REMARK 923 INTER-LIGAND FREE ENERGY PREDICTED BY IDOCK:   -2.27 KCAL/MOL
REMARK 924 INTRA-LIGAND FREE ENERGY PREDICTED BY IDOCK:    0.01 KCAL/MOL
REMARK 927      BINDING AFFINITY PREDICTED BY RF-SCORE:    0.00 PKD
ROOT
HETATM    1  N   UNL     1      -9.043  14.234  67.926  1.00  0.00    -0.183 NA 
HETATM    2  H1  UNL     1      -8.595  15.098  67.621  1.00  0.00     0.000 HD 
HETATM    3  H2  UNL     1      -9.569  14.388  68.786  1.00  0.00     0.000 HD 
HETATM    4  CA  UNL     1      -8.104  13.082  68.087  1.00  0.00    -0.155 C  
HETATM    5  C   UNL     1      -7.036  13.489  69.123  1.00  0.00    -0.055 C  
HETATM    6  OXT UNL     1      -6.334  12.720  69.759  1.00  0.00    -0.122 OA 
HETATM    7  O   UNL     1      -6.953  14.842  69.238  1.00  0.00    -0.127 OA 
ENDROOT
BRANCH   4   8
HETATM    8  C   UNL     1      -8.781  11.776  68.547  1.00  0.00    -0.118 C  
BRANCH   8   9
HETATM    9  C   UNL     1      -8.288  10.486  67.918  1.00  0.00    -0.115 A  
HETATM   10  C   UNL     1      -7.598   9.517  68.648  1.00  0.00    -0.080 A  
HETATM   11  C   UNL     1      -7.167   8.338  68.025  1.00  0.00    -0.094 A  
HETATM   12  I   UNL     1      -6.087   6.970  69.221  1.00  0.00    -0.036 I  
HETATM   13  C   UNL     1      -7.404   8.084  66.654  1.00  0.00    -0.088 A  
HETATM   14  C   UNL     1      -8.117   9.050  65.931  1.00  0.00    -0.108 A  
HETATM   15  C   UNL     1      -8.569  10.222  66.570  1.00  0.00    -0.136 A  
HETATM   16  I   UNL     1      -8.493   8.981  63.861  1.00  0.00    -0.016 I  
BRANCH  13  17
HETATM   17  O   UNL     1      -6.670   7.064  66.095  1.00  0.00    -0.050 OA 
BRANCH  17  18
HETATM   18  C   UNL     1      -7.065   5.751  66.037  1.00  0.00    -0.071 A  
HETATM   19  C   UNL     1      -6.771   5.147  64.805  1.00  0.00    -0.048 A  
HETATM   20  C   UNL     1      -7.113   3.816  64.556  1.00  0.00    -0.058 A  
HETATM   21  I   UNL     1      -6.638   3.005  62.692  1.00  0.00    -0.024 I  
HETATM   22  C   UNL     1      -7.772   3.077  65.539  1.00  0.00    -0.081 A  
HETATM   23  C   UNL     1      -8.063   3.676  66.772  1.00  0.00    -0.095 A  
HETATM   24  O   UNL     1      -8.126   1.770  65.308  1.00  0.00    -0.072 OA 
HETATM   25  H   UNL     1      -8.574   1.266  65.977  1.00  0.00     0.000 HD 
HETATM   26  I   UNL     1      -9.132   2.644  68.252  1.00  0.00    -0.245 I  
HETATM   27  C   UNL     1      -7.678   5.002  67.038  1.00  0.00    -0.092 A  
ENDBRANCH  17  18
ENDBRANCH  13  17
ENDBRANCH   8   9
ENDBRANCH   4   8
TORSDOF 4
ENDMDL
MODEL      269
REMARK 921   NORMALIZED FREE ENERGY PREDICTED BY IDOCK:   -1.21 KCAL/MOL
REMARK 922        TOTAL FREE ENERGY PREDICTED BY IDOCK:   -2.25 KCAL/MOL
REMARK 923 INTER-LIGAND FREE ENERGY PREDICTED BY IDOCK:   -1.92 KCAL/MOL
REMARK 924 INTRA-LIGAND FREE ENERGY PREDICTED BY IDOCK:   -0.33 KCAL/MOL
REMARK 927      BINDING AFFINITY PREDICTED BY RF-SCORE:    0.00 PKD
ROOT
HETATM    1  N   UNL     1      -8.401  15.086  67.282  1.00  0.00    -0.190 NA 
HETATM    2  H1  UNL     1      -8.600  15.997  66.869  1.00  0.00     0.000 HD 
HETATM    3  H2  UNL     1      -9.094  14.400  66.983  1.00  0.00     0.000 HD 
HETATM    4  CA  UNL     1      -8.289  15.100  68.773  1.00  0.00    -0.175 C  
HETATM    5  C   UNL     1      -9.622  15.630  69.338  1.00  0.00    -0.287 C  
HETATM    6  OXT UNL     1     -10.030  15.460  70.475  1.00  0.00    -0.030 OA 
HETATM    7  O   UNL     1     -10.305  16.343  68.401  1.00  0.00    -0.256 OA 
ENDROOT
BRANCH   4   8
HETATM    8  C   UNL     1      -7.989  13.723  69.396  1.00  0.00     0.503 C  
BRANCH   8   9
HETATM    9  C   UNL     1      -8.041  12.522  68.471  1.00  0.00    -0.089 A  
HETATM   10  C   UNL     1      -9.157  11.688  68.395  1.00  0.00    -0.180 A  
HETATM   11  C   UNL     1      -9.162  10.592  67.520  1.00  0.00    -0.143 A  
HETATM   12  I   UNL     1     -10.887   9.372  67.533  1.00  0.00     0.273 I  
HETATM   13  C   UNL     1      -8.056  10.289  66.694  1.00  0.00    -0.119 A  
HETATM   14  C   UNL     1      -6.946  11.142  66.756  1.00  0.00    -0.137 A  
HETATM   15  C   UNL     1      -6.959  12.256  67.620  1.00  0.00    -0.128 A  
HETATM   16  I   UNL     1      -5.131  10.848  65.733  1.00  0.00    -0.021 I  
BRANCH  13  17
HETATM   17  O   UNL     1      -8.054   9.035  66.128  1.00  0.00    -0.107 OA 
BRANCH  17  18
HETATM   18  C   UNL     1      -7.802   7.868  66.805  1.00  0.00    -0.103 A  
HETATM   19  C   UNL     1      -8.311   6.736  66.149  1.00  0.00    -0.130 A  
HETATM   20  C   UNL     1      -8.164   5.460  66.697  1.00  0.00    -0.108 A  
HETATM   21  I   UNL     1      -8.959   3.838  65.650  1.00  0.00    -0.159 I  
HETATM   22  C   UNL     1      -7.514   5.304  67.921  1.00  0.00    -0.076 A  
HETATM   23  C   UNL     1      -7.001   6.432  68.576  1.00  0.00    -0.080 A  
HETATM   24  O   UNL     1      -7.370   4.058  68.480  1.00  0.00    -0.055 OA 
HETATM   25  H   UNL     1      -6.928   3.951  69.314  1.00  0.00     0.000 HD 
HETATM   26  I   UNL     1      -6.097   6.270  70.462  1.00  0.00    -0.037 I  
HETATM   27  C   UNL     1      -7.110   7.711  68.003  1.00  0.00    -0.085 A  
ENDBRANCH  17  18
ENDBRANCH  13  17
ENDBRANCH   8   9
ENDBRANCH   4   8
TORSDOF 4
ENDMDL
MODEL      270
REMARK 921   NORMALIZED FREE ENERGY PREDICTED BY IDOCK:   -1.16 KCAL/MOL
REMARK 922        TOTAL FREE ENERGY PREDICTED BY IDOCK:   -2.19 KCAL/MOL
REMARK 923 INTER-LIGAND FREE ENERGY PREDICTED BY IDOCK:   -2.89 KCAL/MOL
REMARK 924 INTRA-LIGAND FREE ENERGY PREDICTED BY IDOCK:    0.69 KCAL/MOL
REMARK 927      BINDING AFFINITY PREDICTED BY RF-SCORE:    0.00 PKD
ROOT
HETATM    1  N   UNL     1      -7.650  13.999  69.157  1.00  0.00    -0.308 NA 
HETATM    2  H1  UNL     1      -6.863  14.644  69.222  1.00  0.00     0.000 HD 
HETATM    3  H2  UNL     1      -8.276  14.119  69.953  1.00  0.00     0.000 HD 
HETATM    4  CA  UNL     1      -7.255  12.564  69.014  1.00  0.00     0.002 C  
HETATM    5  C   UNL     1      -6.395  12.191  70.239  1.00  0.00     0.129 C  
HETATM    6  OXT UNL     1      -6.191  11.059  70.645  1.00  0.00    -0.308 OA 
HETATM    7  O   UNL     1      -5.863  13.298  70.823  1.00  0.00    -0.186 OA 
ENDROOT
BRANCH   4   8
HETATM    8  C   UNL     1      -8.445  11.589  68.917  1.00  0.00     0.011 C  
BRANCH   8   9
HETATM    9  C   UNL     1      -8.158  10.208  68.359  1.00  0.00    -0.104 A  
HETATM   10  C   UNL     1      -7.901   9.110  69.183  1.00  0.00    -0.092 A  
HETATM   11  C   UNL     1      -7.647   7.851  68.623  1.00  0.00    -0.101 A  
HETATM   12  I   UNL     1      -7.219   6.279  69.969  1.00  0.00    -0.081 I  
HETATM   13  C   UNL     1      -7.637   7.640  67.225  1.00  0.00    -0.108 A  
HETATM   14  C   UNL     1      -7.919   8.740  66.402  1.00  0.00    -0.103 A  
HETATM   15  C   UNL     1      -8.198   9.998  66.973  1.00  0.00    -0.117 A  
HETATM   16  I   UNL     1      -7.844   8.731  64.298  1.00  0.00    -0.151 I  
BRANCH  13  17
HETATM   17  O   UNL     1      -7.072   6.462  66.797  1.00  0.00    -0.069 OA 
BRANCH  17  18
HETATM   18  C   UNL     1      -7.770   5.319  66.496  1.00  0.00    -0.096 A  
HETATM   19  C   UNL     1      -7.685   4.346  67.505  1.00  0.00    -0.085 A  
HETATM   20  C   UNL     1      -8.319   3.110  67.368  1.00  0.00    -0.084 A  
HETATM   21  I   UNL     1      -8.132   1.726  68.920  1.00  0.00    -0.074 I  
HETATM   22  C   UNL     1      -9.038   2.827  66.206  1.00  0.00    -0.119 A  
HETATM   23  C   UNL     1      -9.128   3.798  65.199  1.00  0.00    -0.142 A  
HETATM   24  O   UNL     1      -9.659   1.612  66.050  1.00  0.00    -0.327 OA 
HETATM   25  H   UNL     1     -10.148   1.419  65.258  1.00  0.00     0.000 HD 
HETATM   26  I   UNL     1     -10.116   3.395  63.393  1.00  0.00    -0.236 I  
HETATM   27  C   UNL     1      -8.526   5.058  65.357  1.00  0.00    -0.138 A  
ENDBRANCH  17  18
ENDBRANCH  13  17
ENDBRANCH   8   9
ENDBRANCH   4   8
TORSDOF 4
ENDMDL
MODEL      271
REMARK 921   NORMALIZED FREE ENERGY PREDICTED BY IDOCK:   -1.13 KCAL/MOL
REMARK 922        TOTAL FREE ENERGY PREDICTED BY IDOCK:   -2.15 KCAL/MOL
REMARK 923 INTER-LIGAND FREE ENERGY PREDICTED BY IDOCK:   -2.08 KCAL/MOL
REMARK 924 INTRA-LIGAND FREE ENERGY PREDICTED BY IDOCK:   -0.06 KCAL/MOL
REMARK 927      BINDING AFFINITY PREDICTED BY RF-SCORE:    0.00 PKD
ROOT
HETATM    1  N   UNL     1      -7.811  14.104  69.945  1.00  0.00    -0.000 NA 
HETATM    2  H1  UNL     1      -7.998  15.011  70.374  1.00  0.00     0.000 HD 
HETATM    3  H2  UNL     1      -6.826  13.859  70.043  1.00  0.00     0.000 HD 
HETATM    4  CA  UNL     1      -8.235  14.005  68.516  1.00  0.00    -0.136 C  
HETATM    5  C   UNL     1      -7.488  15.099  67.727  1.00  0.00    -0.162 C  
HETATM    6  OXT UNL     1      -7.306  15.107  66.521  1.00  0.00     0.215 OA 
HETATM    7  O   UNL     1      -7.055  16.090  68.552  1.00  0.00    -0.124 OA 
ENDROOT
BRANCH   4   8
HETATM    8  C   UNL     1      -7.953  12.635  67.867  1.00  0.00    -0.156 C  
BRANCH   8   9
HETATM    9  C   UNL     1      -8.036  11.417  68.768  1.00  0.00    -0.112 A  
HETATM   10  C   UNL     1      -6.899  10.750  69.226  1.00  0.00    -0.092 A  
HETATM   11  C   UNL     1      -7.025   9.631  70.062  1.00  0.00    -0.093 A  
HETATM   12  I   UNL     1      -5.234   8.674  70.645  1.00  0.00    -0.020 I  
HETATM   13  C   UNL     1      -8.286   9.138  70.469  1.00  0.00    -0.180 A  
HETATM   14  C   UNL     1      -9.424   9.825  70.027  1.00  0.00    -0.238 A  
HETATM   15  C   UNL     1      -9.289  10.964  69.207  1.00  0.00    -0.027 A  
HETATM   16  I   UNL     1     -11.412   9.231  70.379  1.00  0.00    -0.110 I  
BRANCH  13  17
HETATM   17  O   UNL     1      -8.290   7.875  71.013  1.00  0.00    -0.106 OA 
BRANCH  17  18
HETATM   18  C   UNL     1      -8.011   6.721  70.324  1.00  0.00    -0.115 A  
HETATM   19  C   UNL     1      -8.409   6.778  68.979  1.00  0.00    -0.124 A  
HETATM   20  C   UNL     1      -8.220   5.689  68.126  1.00  0.00    -0.096 A  
HETATM   21  I   UNL     1      -8.849   5.867  66.143  1.00  0.00    -0.133 I  
HETATM   22  C   UNL     1      -7.639   4.520  68.617  1.00  0.00    -0.064 A  
HETATM   23  C   UNL     1      -7.236   4.461  69.958  1.00  0.00    -0.046 A  
HETATM   24  O   UNL     1      -7.455   3.435  67.794  1.00  0.00    -0.058 OA 
HETATM   25  H   UNL     1      -7.059   2.638  68.129  1.00  0.00     0.000 HD 
HETATM   26  I   UNL     1      -6.443   2.699  70.775  1.00  0.00    -0.024 I  
HETATM   27  C   UNL     1      -7.387   5.573  70.805  1.00  0.00    -0.083 A  
ENDBRANCH  17  18
ENDBRANCH  13  17
ENDBRANCH   8   9
ENDBRANCH   4   8
TORSDOF 4
ENDMDL
MODEL      272
REMARK 921   NORMALIZED FREE ENERGY PREDICTED BY IDOCK:   -1.10 KCAL/MOL
REMARK 922        TOTAL FREE ENERGY PREDICTED BY IDOCK:   -2.12 KCAL/MOL
REMARK 923 INTER-LIGAND FREE ENERGY PREDICTED BY IDOCK:   -1.99 KCAL/MOL
REMARK 924 INTRA-LIGAND FREE ENERGY PREDICTED BY IDOCK:   -0.12 KCAL/MOL
REMARK 927      BINDING AFFINITY PREDICTED BY RF-SCORE:    0.00 PKD
ROOT
HETATM    1  N   UNL     1      -7.811  14.104  69.945  1.00  0.00    -0.000 NA 
HETATM    2  H1  UNL     1      -7.998  15.011  70.374  1.00  0.00     0.000 HD 
HETATM    3  H2  UNL     1      -6.826  13.859  70.043  1.00  0.00     0.000 HD 
HETATM    4  CA  UNL     1      -8.235  14.005  68.516  1.00  0.00    -0.136 C  
HETATM    5  C   UNL     1      -7.488  15.099  67.727  1.00  0.00    -0.162 C  
HETATM    6  OXT UNL     1      -7.306  15.107  66.521  1.00  0.00     0.215 OA 
HETATM    7  O   UNL     1      -7.055  16.090  68.552  1.00  0.00    -0.124 OA 
ENDROOT
BRANCH   4   8
HETATM    8  C   UNL     1      -7.953  12.635  67.867  1.00  0.00    -0.156 C  
BRANCH   8   9
HETATM    9  C   UNL     1      -8.036  11.417  68.768  1.00  0.00    -0.112 A  
HETATM   10  C   UNL     1      -6.899  10.750  69.226  1.00  0.00    -0.092 A  
HETATM   11  C   UNL     1      -7.025   9.631  70.062  1.00  0.00    -0.093 A  
HETATM   12  I   UNL     1      -5.234   8.674  70.645  1.00  0.00    -0.020 I  
HETATM   13  C   UNL     1      -8.286   9.138  70.469  1.00  0.00    -0.180 A  
HETATM   14  C   UNL     1      -9.424   9.825  70.027  1.00  0.00    -0.238 A  
HETATM   15  C   UNL     1      -9.289  10.964  69.207  1.00  0.00    -0.027 A  
HETATM   16  I   UNL     1     -11.412   9.231  70.379  1.00  0.00    -0.110 I  
BRANCH  13  17
HETATM   17  O   UNL     1      -8.290   7.875  71.013  1.00  0.00    -0.106 OA 
BRANCH  17  18
HETATM   18  C   UNL     1      -8.011   6.721  70.324  1.00  0.00    -0.115 A  
HETATM   19  C   UNL     1      -7.210   5.830  71.055  1.00  0.00    -0.076 A  
HETATM   20  C   UNL     1      -6.810   4.609  70.510  1.00  0.00    -0.037 A  
HETATM   21  I   UNL     1      -5.615   3.351  71.671  1.00  0.00    -0.009 I  
HETATM   22  C   UNL     1      -7.198   4.271  69.213  1.00  0.00    -0.051 A  
HETATM   23  C   UNL     1      -8.002   5.156  68.482  1.00  0.00    -0.086 A  
HETATM   24  O   UNL     1      -6.805   3.078  68.656  1.00  0.00    -0.043 OA 
HETATM   25  H   UNL     1      -7.069   2.848  67.773  1.00  0.00     0.000 HD 
HETATM   26  I   UNL     1      -8.539   4.744  66.497  1.00  0.00    -0.110 I  
HETATM   27  C   UNL     1      -8.440   6.366  69.049  1.00  0.00    -0.124 A  
ENDBRANCH  17  18
ENDBRANCH  13  17
ENDBRANCH   8   9
ENDBRANCH   4   8
TORSDOF 4
ENDMDL
MODEL      273
REMARK 921   NORMALIZED FREE ENERGY PREDICTED BY IDOCK:   -0.93 KCAL/MOL
REMARK 922        TOTAL FREE ENERGY PREDICTED BY IDOCK:   -1.90 KCAL/MOL
REMARK 923 INTER-LIGAND FREE ENERGY PREDICTED BY IDOCK:   -2.81 KCAL/MOL
REMARK 924 INTRA-LIGAND FREE ENERGY PREDICTED BY IDOCK:    0.91 KCAL/MOL
REMARK 927      BINDING AFFINITY PREDICTED BY RF-SCORE:    0.00 PKD
ROOT
HETATM    1  N   UNL     1     -12.480   6.143  72.370  1.00  0.00    -0.524 NA 
HETATM    2  H1  UNL     1     -12.860   6.301  73.303  1.00  0.00     0.000 HD 
HETATM    3  H2  UNL     1     -13.004   5.409  71.892  1.00  0.00     0.000 HD 
HETATM    4  CA  UNL     1     -11.016   5.841  72.348  1.00  0.00    -0.259 C  
HETATM    5  C   UNL     1     -10.785   4.581  73.208  1.00  0.00    -0.239 C  
HETATM    6  OXT UNL     1      -9.812   3.848  73.145  1.00  0.00    -0.120 OA 
HETATM    7  O   UNL     1     -11.811   4.385  74.078  1.00  0.00     0.199 OA 
ENDROOT
BRANCH   4   8
HETATM    8  C   UNL     1     -10.443   5.601  70.938  1.00  0.00    -0.323 C  
BRANCH   8   9
HETATM    9  C   UNL     1      -9.825   6.795  70.234  1.00  0.00    -0.185 A  
HETATM   10  C   UNL     1     -10.308   7.273  69.015  1.00  0.00    -0.208 A  
HETATM   11  C   UNL     1      -9.709   8.383  68.404  1.00  0.00    -0.156 A  
HETATM   12  I   UNL     1     -10.495   8.980  66.535  1.00  0.00     0.420 I  
HETATM   13  C   UNL     1      -8.608   9.054  68.984  1.00  0.00    -0.134 A  
HETATM   14  C   UNL     1      -8.141   8.585  70.219  1.00  0.00    -0.106 A  
HETATM   15  C   UNL     1      -8.765   7.484  70.839  1.00  0.00    -0.142 A  
HETATM   16  I   UNL     1      -6.448   9.318  71.232  1.00  0.00     0.075 I  
BRANCH  13  17
HETATM   17  O   UNL     1      -7.920   9.909  68.155  1.00  0.00    -0.099 OA 
BRANCH  17  18
HETATM   18  C   UNL     1      -8.272  11.210  67.900  1.00  0.00    -0.121 A  
HETATM   19  C   UNL     1      -8.887  11.374  66.648  1.00  0.00    -0.183 A  
HETATM   20  C   UNL     1      -9.301  12.633  66.209  1.00  0.00    -0.160 A  
HETATM   21  I   UNL     1     -10.202  12.778  64.331  1.00  0.00    -0.108 I  
HETATM   22  C   UNL     1      -9.088  13.751  67.017  1.00  0.00    -0.246 A  
HETATM   23  C   UNL     1      -8.479  13.590  68.268  1.00  0.00    -0.168 A  
HETATM   24  O   UNL     1      -9.479  14.998  66.596  1.00  0.00    -0.236 OA 
HETATM   25  H   UNL     1      -9.335  15.760  67.145  1.00  0.00     0.000 HD 
HETATM   26  I   UNL     1      -8.051  15.244  69.485  1.00  0.00     0.158 I  
HETATM   27  C   UNL     1      -8.103  12.316  68.728  1.00  0.00     0.054 A  
ENDBRANCH  17  18
ENDBRANCH  13  17
ENDBRANCH   8   9
ENDBRANCH   4   8
TORSDOF 4
ENDMDL
MODEL      274
REMARK 921   NORMALIZED FREE ENERGY PREDICTED BY IDOCK:   -0.79 KCAL/MOL
REMARK 922        TOTAL FREE ENERGY PREDICTED BY IDOCK:   -1.73 KCAL/MOL
REMARK 923 INTER-LIGAND FREE ENERGY PREDICTED BY IDOCK:   -2.60 KCAL/MOL
REMARK 924 INTRA-LIGAND FREE ENERGY PREDICTED BY IDOCK:    0.87 KCAL/MOL
REMARK 927      BINDING AFFINITY PREDICTED BY RF-SCORE:    0.00 PKD
ROOT
HETATM    1  N   UNL     1     -10.079   3.102  63.952  1.00  0.00    -0.170 NA 
HETATM    2  H1  UNL     1     -11.035   3.330  63.680  1.00  0.00     0.000 HD 
HETATM    3  H2  UNL     1     -10.076   2.523  64.792  1.00  0.00     0.000 HD 
HETATM    4  CA  UNL     1      -9.193   4.292  64.133  1.00  0.00    -0.150 C  
HETATM    5  C   UNL     1      -9.826   5.187  65.218  1.00  0.00     0.169 C  
HETATM    6  OXT UNL     1      -9.239   6.034  65.870  1.00  0.00    -0.146 OA 
HETATM    7  O   UNL     1     -11.153   4.925  65.358  1.00  0.00    -0.078 OA 
ENDROOT
BRANCH   4   8
HETATM    8  C   UNL     1      -7.748   3.946  64.544  1.00  0.00    -0.081 C  
BRANCH   8   9
HETATM    9  C   UNL     1      -7.426   3.983  66.026  1.00  0.00    -0.088 A  
HETATM   10  C   UNL     1      -7.823   2.970  66.901  1.00  0.00    -0.076 A  
HETATM   11  C   UNL     1      -7.498   3.044  68.262  1.00  0.00    -0.052 A  
HETATM   12  I   UNL     1      -8.199   1.477  69.495  1.00  0.00    -0.081 I  
HETATM   13  C   UNL     1      -6.770   4.130  68.801  1.00  0.00    -0.046 A  
HETATM   14  C   UNL     1      -6.354   5.134  67.916  1.00  0.00    -0.040 A  
HETATM   15  C   UNL     1      -6.662   5.039  66.543  1.00  0.00    -0.061 A  
HETATM   16  I   UNL     1      -5.373   6.911  68.472  1.00  0.00    -0.018 I  
BRANCH  13  17
HETATM   17  O   UNL     1      -6.790   4.248  70.171  1.00  0.00    -0.033 OA 
BRANCH  17  18
HETATM   18  C   UNL     1      -7.765   4.892  70.891  1.00  0.00    -0.078 A  
HETATM   19  C   UNL     1      -8.338   4.080  71.883  1.00  0.00    -0.098 A  
HETATM   20  C   UNL     1      -9.358   4.561  72.705  1.00  0.00    -0.129 A  
HETATM   21  I   UNL     1     -10.150   3.277  74.149  1.00  0.00    -0.251 I  
HETATM   22  C   UNL     1      -9.830   5.862  72.532  1.00  0.00    -0.161 A  
HETATM   23  C   UNL     1      -9.257   6.677  71.546  1.00  0.00    -0.146 A  
HETATM   24  O   UNL     1     -10.841   6.348  73.326  1.00  0.00    -0.285 OA 
HETATM   25  H   UNL     1     -11.162   7.234  73.208  1.00  0.00     0.000 HD 
HETATM   26  I   UNL     1      -9.987   8.609  71.179  1.00  0.00    -0.373 I  
HETATM   27  C   UNL     1      -8.200   6.207  70.748  1.00  0.00    -0.125 A  
ENDBRANCH  17  18
ENDBRANCH  13  17
ENDBRANCH   8   9
ENDBRANCH   4   8
TORSDOF 4
ENDMDL
MODEL      275
REMARK 921   NORMALIZED FREE ENERGY PREDICTED BY IDOCK:   -0.36 KCAL/MOL
REMARK 922        TOTAL FREE ENERGY PREDICTED BY IDOCK:   -1.20 KCAL/MOL
REMARK 923 INTER-LIGAND FREE ENERGY PREDICTED BY IDOCK:   -2.40 KCAL/MOL
REMARK 924 INTRA-LIGAND FREE ENERGY PREDICTED BY IDOCK:    1.20 KCAL/MOL
REMARK 927      BINDING AFFINITY PREDICTED BY RF-SCORE:    0.00 PKD
ROOT
HETATM    1  N   UNL     1     -10.078   3.103  63.951  1.00  0.00    -0.170 NA 
HETATM    2  H1  UNL     1     -11.035   3.323  63.675  1.00  0.00     0.000 HD 
HETATM    3  H2  UNL     1     -10.073   2.526  64.792  1.00  0.00     0.000 HD 
HETATM    4  CA  UNL     1      -9.203   4.301  64.131  1.00  0.00    -0.150 C  
HETATM    5  C   UNL     1      -9.847   5.193  65.212  1.00  0.00     0.169 C  
HETATM    6  OXT UNL     1      -9.270   6.048  65.864  1.00  0.00    -0.146 OA 
HETATM    7  O   UNL     1     -11.172   4.921  65.348  1.00  0.00    -0.028 OA 
ENDROOT
BRANCH   4   8
HETATM    8  C   UNL     1      -7.756   3.968  64.548  1.00  0.00    -0.081 C  
BRANCH   8   9
HETATM    9  C   UNL     1      -7.439   4.015  66.031  1.00  0.00    -0.088 A  
HETATM   10  C   UNL     1      -7.829   3.003  66.909  1.00  0.00    -0.076 A  
HETATM   11  C   UNL     1      -7.509   3.087  68.271  1.00  0.00    -0.052 A  
HETATM   12  I   UNL     1      -8.199   1.519  69.509  1.00  0.00    -0.081 I  
HETATM   13  C   UNL     1      -6.792   4.181  68.806  1.00  0.00    -0.047 A  
HETATM   14  C   UNL     1      -6.382   5.185  67.917  1.00  0.00    -0.040 A  
HETATM   15  C   UNL     1      -6.686   5.081  66.545  1.00  0.00    -0.061 A  
HETATM   16  I   UNL     1      -5.419   6.973  68.468  1.00  0.00    -0.019 I  
BRANCH  13  17
HETATM   17  O   UNL     1      -6.817   4.305  70.176  1.00  0.00    -0.033 OA 
BRANCH  17  18
HETATM   18  C   UNL     1      -7.800   4.944  70.890  1.00  0.00    -0.083 A  
HETATM   19  C   UNL     1      -7.961   6.287  70.515  1.00  0.00    -0.112 A  
HETATM   20  C   UNL     1      -8.904   7.101  71.144  1.00  0.00    -0.144 A  
HETATM   21  I   UNL     1      -9.068   9.088  70.522  1.00  0.00    -0.318 I  
HETATM   22  C   UNL     1      -9.692   6.580  72.171  1.00  0.00    -0.151 A  
HETATM   23  C   UNL     1      -9.537   5.238  72.545  1.00  0.00    -0.149 A  
HETATM   24  O   UNL     1     -10.618   7.370  72.809  1.00  0.00    -0.241 OA 
HETATM   25  H   UNL     1     -11.154   7.015  73.508  1.00  0.00     0.000 HD 
HETATM   26  I   UNL     1     -10.626   4.426  74.142  1.00  0.00    -0.180 I  
HETATM   27  C   UNL     1      -8.617   4.407  71.881  1.00  0.00    -0.121 A  
ENDBRANCH  17  18
ENDBRANCH  13  17
ENDBRANCH   8   9
ENDBRANCH   4   8
TORSDOF 4
ENDMDL
MODEL      276
REMARK 921   NORMALIZED FREE ENERGY PREDICTED BY IDOCK:   -0.35 KCAL/MOL
REMARK 922        TOTAL FREE ENERGY PREDICTED BY IDOCK:   -1.19 KCAL/MOL
REMARK 923 INTER-LIGAND FREE ENERGY PREDICTED BY IDOCK:   -1.02 KCAL/MOL
REMARK 924 INTRA-LIGAND FREE ENERGY PREDICTED BY IDOCK:   -0.17 KCAL/MOL
REMARK 927      BINDING AFFINITY PREDICTED BY RF-SCORE:    0.00 PKD
ROOT
HETATM    1  N   UNL     1     -11.127   5.024  72.354  1.00  0.00    -0.145 NA 
HETATM    2  H1  UNL     1     -11.441   5.491  73.205  1.00  0.00     0.000 HD 
HETATM    3  H2  UNL     1     -11.867   5.028  71.652  1.00  0.00     0.000 HD 
HETATM    4  CA  UNL     1     -10.616   3.637  72.570  1.00  0.00    -0.011 C  
HETATM    5  C   UNL     1     -11.753   2.812  73.207  1.00  0.00     0.146 C  
HETATM    6  OXT UNL     1     -11.835   1.595  73.205  1.00  0.00    -0.166 OA 
HETATM    7  O   UNL     1     -12.672   3.619  73.802  1.00  0.00     0.825 OA 
ENDROOT
BRANCH   4   8
HETATM    8  C   UNL     1     -10.142   2.932  71.284  1.00  0.00     0.134 C  
BRANCH   8   9
HETATM    9  C   UNL     1      -9.322   3.756  70.310  1.00  0.00    -0.238 A  
HETATM   10  C   UNL     1      -7.991   3.455  70.015  1.00  0.00    -0.053 A  
HETATM   11  C   UNL     1      -7.274   4.243  69.104  1.00  0.00    -0.051 A  
HETATM   12  I   UNL     1      -5.251   3.721  68.781  1.00  0.00    -0.013 I  
HETATM   13  C   UNL     1      -7.855   5.357  68.456  1.00  0.00    -0.088 A  
HETATM   14  C   UNL     1      -9.199   5.641  68.736  1.00  0.00    -0.118 A  
HETATM   15  C   UNL     1      -9.921   4.829  69.635  1.00  0.00    -0.297 A  
HETATM   16  I   UNL     1     -10.263   7.305  68.010  1.00  0.00    -0.259 I  
BRANCH  13  17
HETATM   17  O   UNL     1      -6.979   6.222  67.843  1.00  0.00    -0.067 OA 
BRANCH  17  18
HETATM   18  C   UNL     1      -6.999   6.548  66.510  1.00  0.00    -0.067 A  
HETATM   19  C   UNL     1      -7.239   5.441  65.681  1.00  0.00    -0.068 A  
HETATM   20  C   UNL     1      -7.279   5.579  64.292  1.00  0.00    -0.051 A  
HETATM   21  I   UNL     1      -7.637   3.874  63.141  1.00  0.00    -0.060 I  
HETATM   22  C   UNL     1      -7.064   6.830  63.715  1.00  0.00    -0.060 A  
HETATM   23  C   UNL     1      -6.829   7.938  64.540  1.00  0.00    -0.062 A  
HETATM   24  O   UNL     1      -7.089   6.981  62.350  1.00  0.00    -0.063 OA 
HETATM   25  H   UNL     1      -6.942   7.834  61.956  1.00  0.00     0.000 HD 
HETATM   26  I   UNL     1      -6.407   9.825  63.727  1.00  0.00    -0.132 I  
HETATM   27  C   UNL     1      -6.832   7.807  65.940  1.00  0.00    -0.057 A  
ENDBRANCH  17  18
ENDBRANCH  13  17
ENDBRANCH   8   9
ENDBRANCH   4   8
TORSDOF 4
ENDMDL
MODEL      277
REMARK 921   NORMALIZED FREE ENERGY PREDICTED BY IDOCK:   -0.06 KCAL/MOL
REMARK 922        TOTAL FREE ENERGY PREDICTED BY IDOCK:   -0.83 KCAL/MOL
REMARK 923 INTER-LIGAND FREE ENERGY PREDICTED BY IDOCK:   -0.44 KCAL/MOL
REMARK 924 INTRA-LIGAND FREE ENERGY PREDICTED BY IDOCK:   -0.39 KCAL/MOL
REMARK 927      BINDING AFFINITY PREDICTED BY RF-SCORE:    0.00 PKD
ROOT
HETATM    1  N   UNL     1     -11.151   5.020  72.348  1.00  0.00    -0.145 NA 
HETATM    2  H1  UNL     1     -11.444   5.477  73.212  1.00  0.00     0.000 HD 
HETATM    3  H2  UNL     1     -11.889   5.080  71.646  1.00  0.00     0.000 HD 
HETATM    4  CA  UNL     1     -10.709   3.603  72.524  1.00  0.00     0.062 C  
HETATM    5  C   UNL     1     -11.886   2.817  73.136  1.00  0.00     0.344 C  
HETATM    6  OXT UNL     1     -12.027   1.606  73.098  1.00  0.00    -0.104 OA 
HETATM    7  O   UNL     1     -12.766   3.650  73.753  1.00  0.00     0.825 OA 
ENDROOT
BRANCH   4   8
HETATM    8  C   UNL     1     -10.266   2.914  71.218  1.00  0.00     0.327 C  
BRANCH   8   9
HETATM    9  C   UNL     1      -9.385   3.717  70.280  1.00  0.00    -0.238 A  
HETATM   10  C   UNL     1      -8.010   3.501  70.182  1.00  0.00    -0.052 A  
HETATM   11  C   UNL     1      -7.236   4.264  69.296  1.00  0.00    -0.051 A  
HETATM   12  I   UNL     1      -5.158   3.882  69.276  1.00  0.00    -0.008 I  
HETATM   13  C   UNL     1      -7.804   5.270  68.481  1.00  0.00    -0.083 A  
HETATM   14  C   UNL     1      -9.189   5.468  68.566  1.00  0.00    -0.118 A  
HETATM   15  C   UNL     1      -9.964   4.679  69.440  1.00  0.00    -0.249 A  
HETATM   16  I   UNL     1     -10.262   6.975  67.562  1.00  0.00    -0.362 I  
BRANCH  13  17
HETATM   17  O   UNL     1      -6.917   6.148  67.903  1.00  0.00    -0.071 OA 
BRANCH  17  18
HETATM   18  C   UNL     1      -6.786   6.360  66.554  1.00  0.00    -0.062 A  
HETATM   19  C   UNL     1      -6.458   7.688  66.239  1.00  0.00    -0.049 A  
HETATM   20  C   UNL     1      -6.299   8.095  64.913  1.00  0.00    -0.049 A  
HETATM   21  I   UNL     1      -5.816  10.092  64.543  1.00  0.00    -0.095 I  
HETATM   22  C   UNL     1      -6.482   7.174  63.881  1.00  0.00    -0.044 A  
HETATM   23  C   UNL     1      -6.805   5.846  64.192  1.00  0.00    -0.049 A  
HETATM   24  O   UNL     1      -6.340   7.559  62.570  1.00  0.00    -0.064 OA 
HETATM   25  H   UNL     1      -6.465   6.932  61.867  1.00  0.00     0.000 HD 
HETATM   26  I   UNL     1      -7.183   4.441  62.681  1.00  0.00    -0.041 I  
HETATM   27  C   UNL     1      -6.922   5.427  65.529  1.00  0.00    -0.065 A  
ENDBRANCH  17  18
ENDBRANCH  13  17
ENDBRANCH   8   9
ENDBRANCH   4   8
TORSDOF 4
ENDMDL
MODEL      278
REMARK 921   NORMALIZED FREE ENERGY PREDICTED BY IDOCK:    0.01 KCAL/MOL
REMARK 922        TOTAL FREE ENERGY PREDICTED BY IDOCK:   -0.75 KCAL/MOL
REMARK 923 INTER-LIGAND FREE ENERGY PREDICTED BY IDOCK:   -1.34 KCAL/MOL
REMARK 924 INTRA-LIGAND FREE ENERGY PREDICTED BY IDOCK:    0.60 KCAL/MOL
REMARK 927      BINDING AFFINITY PREDICTED BY RF-SCORE:    0.00 PKD
ROOT
HETATM    1  N   UNL     1     -10.767   8.955  72.499  1.00  0.00    -0.026 NA 
HETATM    2  H1  UNL     1     -11.779   9.083  72.538  1.00  0.00     0.000 HD 
HETATM    3  H2  UNL     1     -10.445   8.958  71.531  1.00  0.00     0.000 HD 
HETATM    4  CA  UNL     1     -10.276   7.737  73.211  1.00  0.00    -0.303 C  
HETATM    5  C   UNL     1     -10.965   6.512  72.575  1.00  0.00    -0.248 C  
HETATM    6  OXT UNL     1     -10.570   5.360  72.643  1.00  0.00    -0.205 OA 
HETATM    7  O   UNL     1     -12.103   6.872  71.923  1.00  0.00    -0.311 OA 
ENDROOT
BRANCH   4   8
HETATM    8  C   UNL     1      -8.748   7.543  73.151  1.00  0.00    -0.202 C  
BRANCH   8   9
HETATM    9  C   UNL     1      -8.121   7.438  71.774  1.00  0.00    -0.105 A  
HETATM   10  C   UNL     1      -7.201   8.375  71.300  1.00  0.00    -0.073 A  
HETATM   11  C   UNL     1      -6.644   8.233  70.022  1.00  0.00    -0.039 A  
HETATM   12  I   UNL     1      -5.305   9.743  69.395  1.00  0.00    -0.034 I  
HETATM   13  C   UNL     1      -6.984   7.155  69.171  1.00  0.00    -0.074 A  
HETATM   14  C   UNL     1      -7.889   6.204  69.660  1.00  0.00    -0.103 A  
HETATM   15  C   UNL     1      -8.427   6.340  70.956  1.00  0.00    -0.128 A  
HETATM   16  I   UNL     1      -8.657   4.583  68.559  1.00  0.00    -0.133 I  
BRANCH  13  17
HETATM   17  O   UNL     1      -6.625   7.295  67.851  1.00  0.00    -0.046 OA 
BRANCH  17  18
HETATM   18  C   UNL     1      -7.421   7.839  66.873  1.00  0.00    -0.094 A  
HETATM   19  C   UNL     1      -8.064   9.016  67.286  1.00  0.00    -0.103 A  
HETATM   20  C   UNL     1      -8.927   9.702  66.429  1.00  0.00    -0.152 A  
HETATM   21  I   UNL     1      -9.842  11.442  67.134  1.00  0.00    -0.232 I  
HETATM   22  C   UNL     1      -9.168   9.206  65.148  1.00  0.00    -0.153 A  
HETATM   23  C   UNL     1      -8.523   8.034  64.731  1.00  0.00    -0.019 A  
HETATM   24  O   UNL     1     -10.022   9.863  64.296  1.00  0.00    -0.433 OA 
HETATM   25  H   UNL     1     -10.186   9.525  63.423  1.00  0.00     0.000 HD 
HETATM   26  I   UNL     1      -8.917   7.191  62.852  1.00  0.00     1.967 I  
HETATM   27  C   UNL     1      -7.621   7.368  65.579  1.00  0.00    -0.094 A  
ENDBRANCH  17  18
ENDBRANCH  13  17
ENDBRANCH   8   9
ENDBRANCH   4   8
TORSDOF 4
ENDMDL
MODEL      279
REMARK 921   NORMALIZED FREE ENERGY PREDICTED BY IDOCK:    0.17 KCAL/MOL
REMARK 922        TOTAL FREE ENERGY PREDICTED BY IDOCK:   -0.55 KCAL/MOL
REMARK 923 INTER-LIGAND FREE ENERGY PREDICTED BY IDOCK:   -4.53 KCAL/MOL
REMARK 924 INTRA-LIGAND FREE ENERGY PREDICTED BY IDOCK:    3.98 KCAL/MOL
REMARK 927      BINDING AFFINITY PREDICTED BY RF-SCORE:    0.00 PKD
ROOT
HETATM    1  N   UNL     1      -8.275  16.787  66.354  1.00  0.00    -0.289 NA 
HETATM    2  H1  UNL     1      -8.825  17.626  66.168  1.00  0.00     0.000 HD 
HETATM    3  H2  UNL     1      -8.330  16.143  65.565  1.00  0.00     0.000 HD 
HETATM    4  CA  UNL     1      -8.635  16.089  67.626  1.00  0.00    -0.166 C  
HETATM    5  C   UNL     1     -10.128  15.708  67.545  1.00  0.00    -0.253 C  
HETATM    6  OXT UNL     1     -10.678  14.847  68.211  1.00  0.00    -0.240 OA 
HETATM    7  O   UNL     1     -10.782  16.473  66.630  1.00  0.00    -0.265 OA 
ENDROOT
BRANCH   4   8
HETATM    8  C   UNL     1      -7.806  14.820  67.906  1.00  0.00    -0.145 C  
BRANCH   8   9
HETATM    9  C   UNL     1      -8.455  13.488  67.584  1.00  0.00    -0.184 A  
HETATM   10  C   UNL     1      -9.084  13.242  66.363  1.00  0.00    -0.062 A  
HETATM   11  C   UNL     1      -9.666  11.992  66.107  1.00  0.00    -0.238 A  
HETATM   12  I   UNL     1     -10.636  11.758  64.244  1.00  0.00    -0.507 I  
HETATM   13  C   UNL     1      -9.643  10.946  67.058  1.00  0.00    -0.173 A  
HETATM   14  C   UNL     1      -8.989  11.190  68.273  1.00  0.00    -0.166 A  
HETATM   15  C   UNL     1      -8.385  12.440  68.514  1.00  0.00    -0.081 A  
HETATM   16  I   UNL     1      -8.920   9.857  69.901  1.00  0.00     0.003 I  
BRANCH  13  17
HETATM   17  O   UNL     1     -10.505   9.901  66.823  1.00  0.00    -0.230 OA 
BRANCH  17  18
HETATM   18  C   UNL     1     -10.379   8.643  67.356  1.00  0.00    -0.284 A  
HETATM   19  C   UNL     1      -9.983   7.685  66.408  1.00  0.00    -0.142 A  
HETATM   20  C   UNL     1      -9.818   6.346  66.764  1.00  0.00    -0.162 A  
HETATM   21  I   UNL     1      -9.232   4.995  65.284  1.00  0.00     0.051 I  
HETATM   22  C   UNL     1     -10.063   5.945  68.078  1.00  0.00    -0.162 A  
HETATM   23  C   UNL     1     -10.454   6.898  69.028  1.00  0.00    -0.208 A  
HETATM   24  O   UNL     1      -9.916   4.629  68.443  1.00  0.00    -0.139 OA 
HETATM   25  H   UNL     1     -10.083   4.355  69.338  1.00  0.00     0.000 HD 
HETATM   26  I   UNL     1     -10.925   6.339  70.993  1.00  0.00    -0.351 I  
HETATM   27  C   UNL     1     -10.577   8.254  68.678  1.00  0.00    -0.144 A  
ENDBRANCH  17  18
ENDBRANCH  13  17
ENDBRANCH   8   9
ENDBRANCH   4   8
TORSDOF 4
ENDMDL
MODEL      280
REMARK 921   NORMALIZED FREE ENERGY PREDICTED BY IDOCK:    0.46 KCAL/MOL
REMARK 922        TOTAL FREE ENERGY PREDICTED BY IDOCK:   -0.19 KCAL/MOL
REMARK 923 INTER-LIGAND FREE ENERGY PREDICTED BY IDOCK:   -1.13 KCAL/MOL
REMARK 924 INTRA-LIGAND FREE ENERGY PREDICTED BY IDOCK:    0.95 KCAL/MOL
REMARK 927      BINDING AFFINITY PREDICTED BY RF-SCORE:    0.00 PKD
ROOT
HETATM    1  N   UNL     1     -10.805  11.653  68.699  1.00  0.00    -0.202 NA 
HETATM    2  H1  UNL     1     -11.745  12.024  68.838  1.00  0.00     0.000 HD 
HETATM    3  H2  UNL     1     -10.113  12.262  69.136  1.00  0.00     0.000 HD 
HETATM    4  CA  UNL     1     -10.452  11.401  67.268  1.00  0.00    -0.206 C  
HETATM    5  C   UNL     1     -10.584  12.738  66.510  1.00  0.00    -0.254 C  
HETATM    6  OXT UNL     1     -10.059  13.004  65.442  1.00  0.00    -0.290 OA 
HETATM    7  O   UNL     1     -11.389  13.606  67.181  1.00  0.00    -0.296 OA 
ENDROOT
BRANCH   4   8
HETATM    8  C   UNL     1      -9.031  10.841  67.058  1.00  0.00    -0.148 C  
BRANCH   8   9
HETATM    9  C   UNL     1      -8.804   9.387  67.424  1.00  0.00    -0.135 A  
HETATM   10  C   UNL     1      -7.576   8.920  67.897  1.00  0.00    -0.093 A  
HETATM   11  C   UNL     1      -7.414   7.568  68.228  1.00  0.00    -0.109 A  
HETATM   12  I   UNL     1      -5.495   6.971  68.881  1.00  0.00    -0.019 I  
HETATM   13  C   UNL     1      -8.468   6.633  68.099  1.00  0.00    -0.116 A  
HETATM   14  C   UNL     1      -9.705   7.110  67.647  1.00  0.00    -0.143 A  
HETATM   15  C   UNL     1      -9.867   8.477  67.339  1.00  0.00    -0.244 A  
HETATM   16  I   UNL     1     -11.392   5.916  67.246  1.00  0.00     1.642 I  
BRANCH  13  17
HETATM   17  O   UNL     1      -8.105   5.308  68.148  1.00  0.00    -0.094 OA 
BRANCH  17  18
HETATM   18  C   UNL     1      -7.928   4.500  67.053  1.00  0.00    -0.102 A  
HETATM   19  C   UNL     1      -9.032   4.507  66.185  1.00  0.00    -0.120 A  
HETATM   20  C   UNL     1      -9.039   3.732  65.024  1.00  0.00    -0.141 A  
HETATM   21  I   UNL     1     -10.727   3.806  63.797  1.00  0.00     0.192 I  
HETATM   22  C   UNL     1      -7.941   2.925  64.725  1.00  0.00    -0.082 A  
HETATM   23  C   UNL     1      -6.836   2.919  65.586  1.00  0.00    -0.048 A  
HETATM   24  O   UNL     1      -7.935   2.148  63.592  1.00  0.00    -0.066 OA 
HETATM   25  H   UNL     1      -7.188   1.598  63.388  1.00  0.00     0.000 HD 
HETATM   26  I   UNL     1      -5.197   1.657  65.237  1.00  0.00    -0.005 I  
HETATM   27  C   UNL     1      -6.811   3.733  66.732  1.00  0.00    -0.054 A  
ENDBRANCH  17  18
ENDBRANCH  13  17
ENDBRANCH   8   9
ENDBRANCH   4   8
TORSDOF 4
ENDMDL
MODEL      281
REMARK 921   NORMALIZED FREE ENERGY PREDICTED BY IDOCK:    1.16 KCAL/MOL
REMARK 922        TOTAL FREE ENERGY PREDICTED BY IDOCK:    0.67 KCAL/MOL
REMARK 923 INTER-LIGAND FREE ENERGY PREDICTED BY IDOCK:    0.53 KCAL/MOL
REMARK 924 INTRA-LIGAND FREE ENERGY PREDICTED BY IDOCK:    0.15 KCAL/MOL
REMARK 927      BINDING AFFINITY PREDICTED BY RF-SCORE:    0.00 PKD
ROOT
HETATM    1  N   UNL     1     -10.015  10.813  69.792  1.00  0.00    -0.423 NA 
HETATM    2  H1  UNL     1     -10.610  11.557  69.427  1.00  0.00     0.000 HD 
HETATM    3  H2  UNL     1      -9.879  10.926  70.796  1.00  0.00     0.000 HD 
HETATM    4  CA  UNL     1      -8.698  10.684  69.096  1.00  0.00    -0.126 C  
HETATM    5  C   UNL     1      -7.962  12.032  69.234  1.00  0.00     0.452 C  
HETATM    6  OXT UNL     1      -6.760  12.201  69.110  1.00  0.00    -0.099 OA 
HETATM    7  O   UNL     1      -8.832  13.043  69.502  1.00  0.00     1.067 OA 
ENDROOT
BRANCH   4   8
HETATM    8  C   UNL     1      -7.800   9.560  69.647  1.00  0.00    -0.116 C  
BRANCH   8   9
HETATM    9  C   UNL     1      -8.270   8.134  69.430  1.00  0.00    -0.121 A  
HETATM   10  C   UNL     1      -7.676   7.047  70.073  1.00  0.00    -0.104 A  
HETATM   11  C   UNL     1      -8.149   5.747  69.846  1.00  0.00    -0.107 A  
HETATM   12  I   UNL     1      -7.134   4.179  70.835  1.00  0.00    -0.033 I  
HETATM   13  C   UNL     1      -9.226   5.484  68.969  1.00  0.00    -0.119 A  
HETATM   14  C   UNL     1      -9.835   6.580  68.343  1.00  0.00    -0.137 A  
HETATM   15  C   UNL     1      -9.371   7.887  68.596  1.00  0.00    -0.145 A  
HETATM   16  I   UNL     1     -11.365   6.459  66.903  1.00  0.00     1.499 I  
BRANCH  13  17
HETATM   17  O   UNL     1      -9.387   4.172  68.589  1.00  0.00    -0.135 OA 
BRANCH  17  18
HETATM   18  C   UNL     1      -8.795   3.592  67.495  1.00  0.00    -0.125 A  
HETATM   19  C   UNL     1      -9.633   3.571  66.368  1.00  0.00    -0.114 A  
HETATM   20  C   UNL     1      -9.206   3.005  65.165  1.00  0.00    -0.149 A  
HETATM   21  I   UNL     1     -10.525   3.016  63.546  1.00  0.00    -0.176 I  
HETATM   22  C   UNL     1      -7.934   2.439  65.080  1.00  0.00    -0.078 A  
HETATM   23  C   UNL     1      -7.094   2.462  66.201  1.00  0.00    -0.060 A  
HETATM   24  O   UNL     1      -7.503   1.868  63.908  1.00  0.00    -0.055 OA 
HETATM   25  H   UNL     1      -6.636   1.482  63.850  1.00  0.00     0.000 HD 
HETATM   26  I   UNL     1      -5.208   1.545  66.161  1.00  0.00    -0.005 I  
HETATM   27  C   UNL     1      -7.507   3.071  67.399  1.00  0.00    -0.062 A  
ENDBRANCH  17  18
ENDBRANCH  13  17
ENDBRANCH   8   9
ENDBRANCH   4   8
TORSDOF 4
ENDMDL
MODEL      282
REMARK 921   NORMALIZED FREE ENERGY PREDICTED BY IDOCK:    1.58 KCAL/MOL
REMARK 922        TOTAL FREE ENERGY PREDICTED BY IDOCK:    1.19 KCAL/MOL
REMARK 923 INTER-LIGAND FREE ENERGY PREDICTED BY IDOCK:   -1.23 KCAL/MOL
REMARK 924 INTRA-LIGAND FREE ENERGY PREDICTED BY IDOCK:    2.42 KCAL/MOL
REMARK 927      BINDING AFFINITY PREDICTED BY RF-SCORE:    0.00 PKD
ROOT
HETATM    1  N   UNL     1      -5.171  13.040  74.183  1.00  0.00    -0.426 NA 
HETATM    2  H1  UNL     1      -4.459  12.369  74.472  1.00  0.00     0.000 HD 
HETATM    3  H2  UNL     1      -6.087  12.760  74.534  1.00  0.00     0.000 HD 
HETATM    4  CA  UNL     1      -5.225  13.279  72.709  1.00  0.00     0.069 C  
HETATM    5  C   UNL     1      -5.500  11.924  72.024  1.00  0.00     0.581 C  
HETATM    6  OXT UNL     1      -5.948  11.774  70.900  1.00  0.00    -0.360 OA 
HETATM    7  O   UNL     1      -5.162  10.886  72.835  1.00  0.00    -0.308 OA 
ENDROOT
BRANCH   4   8
HETATM    8  C   UNL     1      -6.302  14.292  72.272  1.00  0.00     1.014 C  
BRANCH   8   9
HETATM    9  C   UNL     1      -6.388  14.609  70.791  1.00  0.00     0.002 A  
HETATM   10  C   UNL     1      -5.883  15.793  70.252  1.00  0.00    -0.126 A  
HETATM   11  C   UNL     1      -5.981  16.041  68.876  1.00  0.00    -0.114 A  
HETATM   12  I   UNL     1      -5.228  17.891  68.186  1.00  0.00    -0.152 I  
HETATM   13  C   UNL     1      -6.586  15.120  67.990  1.00  0.00    -0.145 A  
HETATM   14  C   UNL     1      -7.071  13.922  68.532  1.00  0.00    -0.104 A  
HETATM   15  C   UNL     1      -6.947  13.669  69.913  1.00  0.00     0.308 A  
HETATM   16  I   UNL     1      -8.124  12.446  67.463  1.00  0.00    -0.192 I  
BRANCH  13  17
HETATM   17  O   UNL     1      -6.903  15.604  66.742  1.00  0.00    -0.203 OA 
BRANCH  17  18
HETATM   18  C   UNL     1      -8.179  15.807  66.278  1.00  0.00    -0.027 A  
HETATM   19  C   UNL     1      -8.594  17.144  66.388  1.00  0.00    -0.300 A  
HETATM   20  C   UNL     1      -9.870  17.536  65.980  1.00  0.00    -0.179 A  
HETATM   21  I   UNL     1     -10.398  19.546  66.187  1.00  0.00    -0.473 I  
HETATM   22  C   UNL     1     -10.754  16.587  65.467  1.00  0.00    -0.256 A  
HETATM   23  C   UNL     1     -10.341  15.253  65.352  1.00  0.00    -0.393 A  
HETATM   24  O   UNL     1     -12.017  16.954  65.071  1.00  0.00     0.811 OA 
HETATM   25  H   UNL     1     -12.620  16.308  64.722  1.00  0.00     0.000 HD 
HETATM   26  I   UNL     1     -11.658  13.767  64.676  1.00  0.00    -0.439 I  
HETATM   27  C   UNL     1      -9.041  14.866  65.722  1.00  0.00     0.181 A  
ENDBRANCH  17  18
ENDBRANCH  13  17
ENDBRANCH   8   9
ENDBRANCH   4   8
TORSDOF 4
ENDMDL
MODEL      283
REMARK 921   NORMALIZED FREE ENERGY PREDICTED BY IDOCK:    1.65 KCAL/MOL
REMARK 922        TOTAL FREE ENERGY PREDICTED BY IDOCK:    1.29 KCAL/MOL
REMARK 923 INTER-LIGAND FREE ENERGY PREDICTED BY IDOCK:   -2.33 KCAL/MOL
REMARK 924 INTRA-LIGAND FREE ENERGY PREDICTED BY IDOCK:    3.61 KCAL/MOL
REMARK 927      BINDING AFFINITY PREDICTED BY RF-SCORE:    0.00 PKD
ROOT
HETATM    1  N   UNL     1      -5.644  13.608  74.550  1.00  0.00    -0.702 NA 
HETATM    2  H1  UNL     1      -4.983  13.005  75.041  1.00  0.00     0.000 HD 
HETATM    3  H2  UNL     1      -6.598  13.269  74.678  1.00  0.00     0.000 HD 
HETATM    4  CA  UNL     1      -5.343  13.790  73.097  1.00  0.00    -0.099 C  
HETATM    5  C   UNL     1      -5.347  12.395  72.439  1.00  0.00     0.512 C  
HETATM    6  OXT UNL     1      -5.489  12.172  71.249  1.00  0.00    -0.339 OA 
HETATM    7  O   UNL     1      -5.153  11.415  73.363  1.00  0.00    -0.324 OA 
ENDROOT
BRANCH   4   8
HETATM    8  C   UNL     1      -6.342  14.700  72.355  1.00  0.00     1.013 C  
BRANCH   8   9
HETATM    9  C   UNL     1      -5.948  15.166  70.967  1.00  0.00     0.165 A  
HETATM   10  C   UNL     1      -5.749  16.513  70.661  1.00  0.00     0.034 A  
HETATM   11  C   UNL     1      -5.380  16.897  69.364  1.00  0.00    -0.140 A  
HETATM   12  I   UNL     1      -5.161  18.969  69.011  1.00  0.00    -0.211 I  
HETATM   13  C   UNL     1      -5.198  15.953  68.327  1.00  0.00    -0.106 A  
HETATM   14  C   UNL     1      -5.375  14.599  68.644  1.00  0.00    -0.095 A  
HETATM   15  C   UNL     1      -5.722  14.220  69.957  1.00  0.00    -0.122 A  
HETATM   16  I   UNL     1      -5.291  13.011  67.266  1.00  0.00     0.722 I  
BRANCH  13  17
HETATM   17  O   UNL     1      -5.152  16.463  67.051  1.00  0.00    -0.292 OA 
BRANCH  17  18
HETATM   18  C   UNL     1      -5.950  17.475  66.579  1.00  0.00    -0.205 A  
HETATM   19  C   UNL     1      -7.259  17.417  67.083  1.00  0.00    -0.201 A  
HETATM   20  C   UNL     1      -8.219  18.356  66.701  1.00  0.00    -0.266 A  
HETATM   21  I   UNL     1     -10.141  18.186  67.500  1.00  0.00    -0.425 I  
HETATM   22  C   UNL     1      -7.881  19.361  65.794  1.00  0.00    -0.102 A  
HETATM   23  C   UNL     1      -6.574  19.424  65.293  1.00  0.00    -0.266 A  
HETATM   24  O   UNL     1      -8.815  20.287  65.399  1.00  0.00    -0.389 OA 
HETATM   25  H   UNL     1      -8.585  20.971  64.781  1.00  0.00     0.000 HD 
HETATM   26  I   UNL     1      -6.032  20.854  63.857  1.00  0.00    -0.273 I  
HETATM   27  C   UNL     1      -5.596  18.504  65.711  1.00  0.00    -0.215 A  
ENDBRANCH  17  18
ENDBRANCH  13  17
ENDBRANCH   8   9
ENDBRANCH   4   8
TORSDOF 4
ENDMDL
MODEL      284
REMARK 921   NORMALIZED FREE ENERGY PREDICTED BY IDOCK:    1.71 KCAL/MOL
REMARK 922        TOTAL FREE ENERGY PREDICTED BY IDOCK:    1.36 KCAL/MOL
REMARK 923 INTER-LIGAND FREE ENERGY PREDICTED BY IDOCK:    1.88 KCAL/MOL
REMARK 924 INTRA-LIGAND FREE ENERGY PREDICTED BY IDOCK:   -0.52 KCAL/MOL
REMARK 927      BINDING AFFINITY PREDICTED BY RF-SCORE:    0.00 PKD
ROOT
HETATM    1  N   UNL     1      -5.409  16.500  71.374  1.00  0.00     0.002 NA 
HETATM    2  H1  UNL     1      -4.501  16.445  71.835  1.00  0.00     0.000 HD 
HETATM    3  H2  UNL     1      -6.049  17.081  71.916  1.00  0.00     0.000 HD 
HETATM    4  CA  UNL     1      -6.029  15.173  71.080  1.00  0.00     0.165 C  
HETATM    5  C   UNL     1      -6.187  14.422  72.418  1.00  0.00     0.787 C  
HETATM    6  OXT UNL     1      -6.948  13.492  72.625  1.00  0.00     3.071 OA 
HETATM    7  O   UNL     1      -5.347  14.921  73.363  1.00  0.00    -0.119 OA 
ENDROOT
BRANCH   4   8
HETATM    8  C   UNL     1      -7.402  15.257  70.384  1.00  0.00     0.534 C  
BRANCH   8   9
HETATM    9  C   UNL     1      -7.733  14.170  69.379  1.00  0.00     0.188 A  
HETATM   10  C   UNL     1      -8.955  14.123  68.706  1.00  0.00    -0.065 A  
HETATM   11  C   UNL     1      -9.214  13.102  67.782  1.00  0.00    -0.203 A  
HETATM   12  I   UNL     1     -11.119  13.107  66.868  1.00  0.00    -0.363 I  
HETATM   13  C   UNL     1      -8.267  12.091  67.497  1.00  0.00    -0.159 A  
HETATM   14  C   UNL     1      -7.032  12.155  68.157  1.00  0.00    -0.082 A  
HETATM   15  C   UNL     1      -6.770  13.199  69.067  1.00  0.00    -0.103 A  
HETATM   16  I   UNL     1      -5.504  10.715  68.013  1.00  0.00    -0.034 I  
BRANCH  13  17
HETATM   17  O   UNL     1      -8.746  10.989  66.829  1.00  0.00    -0.144 OA 
BRANCH  17  18
HETATM   18  C   UNL     1      -9.009   9.772  67.407  1.00  0.00    -0.135 A  
HETATM   19  C   UNL     1      -9.788   9.876  68.570  1.00  0.00    -0.168 A  
HETATM   20  C   UNL     1     -10.142   8.742  69.303  1.00  0.00    -0.204 A  
HETATM   21  I   UNL     1     -11.299   8.998  71.022  1.00  0.00    -0.432 I  
HETATM   22  C   UNL     1      -9.705   7.485  68.884  1.00  0.00    -0.151 A  
HETATM   23  C   UNL     1      -8.931   7.376  67.721  1.00  0.00    -0.127 A  
HETATM   24  O   UNL     1     -10.035   6.359  69.599  1.00  0.00    -0.159 OA 
HETATM   25  H   UNL     1      -9.738   5.503  69.315  1.00  0.00     0.000 HD 
HETATM   26  I   UNL     1      -8.169   5.525  67.095  1.00  0.00    -0.097 I  
HETATM   27  C   UNL     1      -8.612   8.514  66.960  1.00  0.00    -0.124 A  
ENDBRANCH  17  18
ENDBRANCH  13  17
ENDBRANCH   8   9
ENDBRANCH   4   8
TORSDOF 4
ENDMDL
MODEL      285
REMARK 921   NORMALIZED FREE ENERGY PREDICTED BY IDOCK:    1.85 KCAL/MOL
REMARK 922        TOTAL FREE ENERGY PREDICTED BY IDOCK:    1.53 KCAL/MOL
REMARK 923 INTER-LIGAND FREE ENERGY PREDICTED BY IDOCK:   -2.19 KCAL/MOL
REMARK 924 INTRA-LIGAND FREE ENERGY PREDICTED BY IDOCK:    3.72 KCAL/MOL
REMARK 927      BINDING AFFINITY PREDICTED BY RF-SCORE:    0.00 PKD
ROOT
HETATM    1  N   UNL     1      -5.497  13.566  74.566  1.00  0.00    -0.655 NA 
HETATM    2  H1  UNL     1      -4.874  12.885  75.001  1.00  0.00     0.000 HD 
HETATM    3  H2  UNL     1      -6.471  13.328  74.753  1.00  0.00     0.000 HD 
HETATM    4  CA  UNL     1      -5.275  13.750  73.099  1.00  0.00    -0.157 C  
HETATM    5  C   UNL     1      -5.472  12.379  72.420  1.00  0.00     0.737 C  
HETATM    6  OXT UNL     1      -5.715  12.201  71.238  1.00  0.00    -0.381 OA 
HETATM    7  O   UNL     1      -5.324  11.363  73.312  1.00  0.00    -0.021 OA 
ENDROOT
BRANCH   4   8
HETATM    8  C   UNL     1      -6.216  14.778  72.442  1.00  0.00     0.847 C  
BRANCH   8   9
HETATM    9  C   UNL     1      -5.898  15.191  71.018  1.00  0.00     0.090 A  
HETATM   10  C   UNL     1      -5.709  16.525  70.653  1.00  0.00     0.034 A  
HETATM   11  C   UNL     1      -5.410  16.859  69.325  1.00  0.00    -0.136 A  
HETATM   12  I   UNL     1      -5.200  18.915  68.885  1.00  0.00    -0.199 I  
HETATM   13  C   UNL     1      -5.292  15.878  68.314  1.00  0.00    -0.106 A  
HETATM   14  C   UNL     1      -5.459  14.538  68.689  1.00  0.00    -0.094 A  
HETATM   15  C   UNL     1      -5.734  14.208  70.032  1.00  0.00    -0.123 A  
HETATM   16  I   UNL     1      -5.461  12.900  67.367  1.00  0.00     0.365 I  
BRANCH  13  17
HETATM   17  O   UNL     1      -5.314  16.342  67.020  1.00  0.00    -0.323 OA 
BRANCH  17  18
HETATM   18  C   UNL     1      -6.128  17.346  66.558  1.00  0.00    -0.215 A  
HETATM   19  C   UNL     1      -5.510  18.144  65.582  1.00  0.00    -0.228 A  
HETATM   20  C   UNL     1      -6.180  19.225  65.007  1.00  0.00    -0.282 A  
HETATM   21  I   UNL     1      -5.177  20.357  63.567  1.00  0.00    -0.305 I  
HETATM   22  C   UNL     1      -7.479  19.530  65.416  1.00  0.00     0.080 A  
HETATM   23  C   UNL     1      -8.100  18.733  66.387  1.00  0.00    -0.280 A  
HETATM   24  O   UNL     1      -8.149  20.597  64.869  1.00  0.00    -0.039 OA 
HETATM   25  H   UNL     1      -9.033  20.805  65.148  1.00  0.00     0.000 HD 
HETATM   26  I   UNL     1     -10.014  19.198  67.107  1.00  0.00    -0.572 I  
HETATM   27  C   UNL     1      -7.441  17.618  66.933  1.00  0.00    -0.230 A  
ENDBRANCH  17  18
ENDBRANCH  13  17
ENDBRANCH   8   9
ENDBRANCH   4   8
TORSDOF 4
ENDMDL
MODEL      286
REMARK 921   NORMALIZED FREE ENERGY PREDICTED BY IDOCK:    2.48 KCAL/MOL
REMARK 922        TOTAL FREE ENERGY PREDICTED BY IDOCK:    2.31 KCAL/MOL
REMARK 923 INTER-LIGAND FREE ENERGY PREDICTED BY IDOCK:    0.70 KCAL/MOL
REMARK 924 INTRA-LIGAND FREE ENERGY PREDICTED BY IDOCK:    1.61 KCAL/MOL
REMARK 927      BINDING AFFINITY PREDICTED BY RF-SCORE:    0.00 PKD
ROOT
HETATM    1  N   UNL     1      -5.157  21.195  66.464  1.00  0.00    -0.194 NA 
HETATM    2  H1  UNL     1      -4.890  21.730  65.637  1.00  0.00     0.000 HD 
HETATM    3  H2  UNL     1      -4.392  20.586  66.756  1.00  0.00     0.000 HD 
HETATM    4  CA  UNL     1      -6.419  20.411  66.305  1.00  0.00    -0.219 C  
HETATM    5  C   UNL     1      -6.224  19.444  65.119  1.00  0.00    -0.272 C  
HETATM    6  OXT UNL     1      -6.874  18.433  64.913  1.00  0.00    -0.349 OA 
HETATM    7  O   UNL     1      -5.226  19.868  64.298  1.00  0.00    -0.157 OA 
ENDROOT
BRANCH   4   8
HETATM    8  C   UNL     1      -6.821  19.602  67.554  1.00  0.00    -0.250 C  
BRANCH   8   9
HETATM    9  C   UNL     1      -8.106  18.800  67.470  1.00  0.00    -0.273 A  
HETATM   10  C   UNL     1      -9.364  19.393  67.593  1.00  0.00    -0.382 A  
HETATM   11  C   UNL     1     -10.525  18.612  67.503  1.00  0.00    -0.428 A  
HETATM   12  I   UNL     1     -12.368  19.615  67.758  1.00  0.00     6.778 I  
HETATM   13  C   UNL     1     -10.474  17.216  67.290  1.00  0.00    -0.313 A  
HETATM   14  C   UNL     1      -9.210  16.628  67.144  1.00  0.00    -0.222 A  
HETATM   15  C   UNL     1      -8.048  17.423  67.210  1.00  0.00    -0.218 A  
HETATM   16  I   UNL     1      -8.848  14.564  66.947  1.00  0.00    -0.134 I  
BRANCH  13  17
HETATM   17  O   UNL     1     -11.639  16.527  67.536  1.00  0.00     0.153 OA 
BRANCH  17  18
HETATM   18  C   UNL     1     -11.743  15.418  68.338  1.00  0.00    -0.316 A  
HETATM   19  C   UNL     1     -11.889  15.740  69.697  1.00  0.00    -0.352 A  
HETATM   20  C   UNL     1     -11.994  14.740  70.665  1.00  0.00    -0.309 A  
HETATM   21  I   UNL     1     -12.205  15.316  72.662  1.00  0.00    -0.586 I  
HETATM   22  C   UNL     1     -11.939  13.399  70.284  1.00  0.00    -0.308 A  
HETATM   23  C   UNL     1     -11.798  13.075  68.928  1.00  0.00    -0.316 A  
HETATM   24  O   UNL     1     -12.030  12.403  71.225  1.00  0.00    -0.152 OA 
HETATM   25  H   UNL     1     -11.992  11.489  70.965  1.00  0.00     0.000 HD 
HETATM   26  I   UNL     1     -11.616  11.080  68.305  1.00  0.00    -0.082 I  
HETATM   27  C   UNL     1     -11.736  14.082  67.949  1.00  0.00    -0.397 A  
ENDBRANCH  17  18
ENDBRANCH  13  17
ENDBRANCH   8   9
ENDBRANCH   4   8
TORSDOF 4
ENDMDL
MODEL      287
REMARK 921   NORMALIZED FREE ENERGY PREDICTED BY IDOCK:    3.54 KCAL/MOL
REMARK 922        TOTAL FREE ENERGY PREDICTED BY IDOCK:    3.62 KCAL/MOL
REMARK 923 INTER-LIGAND FREE ENERGY PREDICTED BY IDOCK:   -2.16 KCAL/MOL
REMARK 924 INTRA-LIGAND FREE ENERGY PREDICTED BY IDOCK:    5.78 KCAL/MOL
REMARK 927      BINDING AFFINITY PREDICTED BY RF-SCORE:    0.00 PKD
ROOT
HETATM    1  N   UNL     1      -5.495  13.121  67.551  1.00  0.00    -0.315 NA 
HETATM    2  H1  UNL     1      -4.576  13.355  67.174  1.00  0.00     0.000 HD 
HETATM    3  H2  UNL     1      -6.156  12.943  66.795  1.00  0.00     0.000 HD 
HETATM    4  CA  UNL     1      -6.045  14.137  68.500  1.00  0.00    -0.091 C  
HETATM    5  C   UNL     1      -6.136  15.480  67.746  1.00  0.00    -0.154 C  
HETATM    6  OXT UNL     1      -6.840  16.425  68.062  1.00  0.00    -0.128 OA 
HETATM    7  O   UNL     1      -5.307  15.496  66.668  1.00  0.00     0.434 OA 
ENDROOT
BRANCH   4   8
HETATM    8  C   UNL     1      -7.433  13.783  69.069  1.00  0.00     0.002 C  
BRANCH   8   9
HETATM    9  C   UNL     1      -8.057  12.481  68.601  1.00  0.00    -0.013 A  
HETATM   10  C   UNL     1      -9.152  11.905  69.248  1.00  0.00     0.669 A  
HETATM   11  C   UNL     1      -9.698  10.704  68.777  1.00  0.00    -0.189 A  
HETATM   12  I   UNL     1     -11.319   9.902  69.871  1.00  0.00    -0.184 I  
HETATM   13  C   UNL     1      -9.173  10.033  67.648  1.00  0.00    -0.137 A  
HETATM   14  C   UNL     1      -8.089  10.628  66.987  1.00  0.00    -0.120 A  
HETATM   15  C   UNL     1      -7.561  11.849  67.452  1.00  0.00    -0.151 A  
HETATM   16  I   UNL     1      -7.044   9.781  65.368  1.00  0.00    -0.131 I  
BRANCH  13  17
HETATM   17  O   UNL     1      -9.581   8.731  67.478  1.00  0.00    -0.144 OA 
BRANCH  17  18
HETATM   18  C   UNL     1      -9.409   7.727  68.398  1.00  0.00    -0.143 A  
HETATM   19  C   UNL     1      -9.898   8.064  69.670  1.00  0.00    -0.184 A  
HETATM   20  C   UNL     1      -9.797   7.171  70.739  1.00  0.00    -0.178 A  
HETATM   21  I   UNL     1     -10.549   7.763  72.595  1.00  0.00    -0.436 I  
HETATM   22  C   UNL     1      -9.188   5.931  70.548  1.00  0.00    -0.152 A  
HETATM   23  C   UNL     1      -8.703   5.590  69.279  1.00  0.00    -0.107 A  
HETATM   24  O   UNL     1      -9.070   5.045  71.592  1.00  0.00    -0.137 OA 
HETATM   25  H   UNL     1      -8.655   4.200  71.462  1.00  0.00     0.000 HD 
HETATM   26  I   UNL     1      -7.696   3.779  68.955  1.00  0.00    -0.056 I  
HETATM   27  C   UNL     1      -8.845   6.471  68.193  1.00  0.00    -0.115 A  
ENDBRANCH  17  18
ENDBRANCH  13  17
ENDBRANCH   8   9
ENDBRANCH   4   8
TORSDOF 4
ENDMDL
MODEL      288
REMARK 921   NORMALIZED FREE ENERGY PREDICTED BY IDOCK:    3.57 KCAL/MOL
REMARK 922        TOTAL FREE ENERGY PREDICTED BY IDOCK:    3.64 KCAL/MOL
REMARK 923 INTER-LIGAND FREE ENERGY PREDICTED BY IDOCK:    2.13 KCAL/MOL
REMARK 924 INTRA-LIGAND FREE ENERGY PREDICTED BY IDOCK:    1.51 KCAL/MOL
REMARK 927      BINDING AFFINITY PREDICTED BY RF-SCORE:    0.00 PKD
ROOT
HETATM    1  N   UNL     1      -5.326  21.184  66.365  1.00  0.00    -0.204 NA 
HETATM    2  H1  UNL     1      -4.963  21.582  65.499  1.00  0.00     0.000 HD 
HETATM    3  H2  UNL     1      -4.621  20.599  66.812  1.00  0.00     0.000 HD 
HETATM    4  CA  UNL     1      -6.606  20.430  66.203  1.00  0.00    -0.229 C  
HETATM    5  C   UNL     1      -6.355  19.292  65.192  1.00  0.00    -0.278 C  
HETATM    6  OXT UNL     1      -7.032  18.285  65.073  1.00  0.00    -0.352 OA 
HETATM    7  O   UNL     1      -5.270  19.555  64.416  1.00  0.00    -0.155 OA 
ENDROOT
BRANCH   4   8
HETATM    8  C   UNL     1      -7.155  19.829  67.512  1.00  0.00    -0.268 C  
BRANCH   8   9
HETATM    9  C   UNL     1      -8.294  18.834  67.388  1.00  0.00    -0.280 A  
HETATM   10  C   UNL     1      -9.619  19.236  67.210  1.00  0.00    -0.394 A  
HETATM   11  C   UNL     1     -10.638  18.281  67.096  1.00  0.00    -0.367 A  
HETATM   12  I   UNL     1     -12.609  19.012  66.884  1.00  0.00     8.526 I  
HETATM   13  C   UNL     1     -10.374  16.893  67.155  1.00  0.00    -0.304 A  
HETATM   14  C   UNL     1      -9.039  16.493  67.309  1.00  0.00    -0.204 A  
HETATM   15  C   UNL     1      -8.017  17.459  67.399  1.00  0.00    -0.212 A  
HETATM   16  I   UNL     1      -8.390  14.506  67.554  1.00  0.00    -0.237 I  
BRANCH  13  17
HETATM   17  O   UNL     1     -11.466  16.080  67.348  1.00  0.00    -0.083 OA 
BRANCH  17  18
HETATM   18  C   UNL     1     -11.662  15.271  68.439  1.00  0.00    -0.321 A  
HETATM   19  C   UNL     1     -11.617  13.905  68.121  1.00  0.00    -0.370 A  
HETATM   20  C   UNL     1     -11.811  12.931  69.102  1.00  0.00    -0.303 A  
HETATM   21  I   UNL     1     -11.731  10.924  68.531  1.00  0.00     0.060 I  
HETATM   22  C   UNL     1     -12.067  13.317  70.418  1.00  0.00    -0.327 A  
HETATM   23  C   UNL     1     -12.108  14.680  70.740  1.00  0.00    -0.320 A  
HETATM   24  O   UNL     1     -12.271  12.372  71.394  1.00  0.00    -0.195 OA 
HETATM   25  H   UNL     1     -12.446  12.635  72.290  1.00  0.00     0.000 HD 
HETATM   26  I   UNL     1     -12.580  15.321  72.681  1.00  0.00    -0.671 I  
HETATM   27  C   UNL     1     -11.869  15.659  69.760  1.00  0.00    -0.376 A  
ENDBRANCH  17  18
ENDBRANCH  13  17
ENDBRANCH   8   9
ENDBRANCH   4   8
TORSDOF 4
ENDMDL
MODEL      289
REMARK 921   NORMALIZED FREE ENERGY PREDICTED BY IDOCK:    3.72 KCAL/MOL
REMARK 922        TOTAL FREE ENERGY PREDICTED BY IDOCK:    3.84 KCAL/MOL
REMARK 923 INTER-LIGAND FREE ENERGY PREDICTED BY IDOCK:    0.77 KCAL/MOL
REMARK 924 INTRA-LIGAND FREE ENERGY PREDICTED BY IDOCK:    3.07 KCAL/MOL
REMARK 927      BINDING AFFINITY PREDICTED BY RF-SCORE:    0.00 PKD
ROOT
HETATM    1  N   UNL     1      -5.187  15.850  69.293  1.00  0.00    -0.108 NA 
HETATM    2  H1  UNL     1      -4.327  16.272  68.941  1.00  0.00     0.000 HD 
HETATM    3  H2  UNL     1      -5.799  15.590  68.520  1.00  0.00     0.000 HD 
HETATM    4  CA  UNL     1      -5.924  16.695  70.282  1.00  0.00    -0.052 C  
HETATM    5  C   UNL     1      -6.263  18.033  69.594  1.00  0.00    -0.205 C  
HETATM    6  OXT UNL     1      -7.133  18.812  69.946  1.00  0.00     0.120 OA 
HETATM    7  O   UNL     1      -5.447  18.260  68.530  1.00  0.00    -0.174 OA 
ENDROOT
BRANCH   4   8
HETATM    8  C   UNL     1      -7.223  16.058  70.813  1.00  0.00     2.087 C  
BRANCH   8   9
HETATM    9  C   UNL     1      -7.774  14.874  70.042  1.00  0.00     0.250 A  
HETATM   10  C   UNL     1      -8.939  14.959  69.277  1.00  0.00    -0.099 A  
HETATM   11  C   UNL     1      -9.408  13.840  68.576  1.00  0.00    -0.144 A  
HETATM   12  I   UNL     1     -11.210  14.078  67.498  1.00  0.00    -0.391 I  
HETATM   13  C   UNL     1      -8.735  12.597  68.613  1.00  0.00     0.050 A  
HETATM   14  C   UNL     1      -7.553  12.521  69.362  1.00  0.00     0.523 A  
HETATM   15  C   UNL     1      -7.074  13.658  70.045  1.00  0.00     0.539 A  
HETATM   16  I   UNL     1      -6.432  10.769  69.686  1.00  0.00    -0.139 I  
BRANCH  13  17
HETATM   17  O   UNL     1      -9.448  11.513  68.157  1.00  0.00    -0.171 OA 
BRANCH  17  18
HETATM   18  C   UNL     1      -9.040  10.206  68.252  1.00  0.00    -0.122 A  
HETATM   19  C   UNL     1      -9.933   9.407  68.983  1.00  0.00    -0.182 A  
HETATM   20  C   UNL     1      -9.675   8.052  69.198  1.00  0.00    -0.163 A  
HETATM   21  I   UNL     1     -11.060   6.946  70.303  1.00  0.00    -0.375 I  
HETATM   22  C   UNL     1      -8.506   7.482  68.693  1.00  0.00    -0.129 A  
HETATM   23  C   UNL     1      -7.615   8.276  67.959  1.00  0.00    -0.102 A  
HETATM   24  O   UNL     1      -8.232   6.153  68.905  1.00  0.00    -0.110 OA 
HETATM   25  H   UNL     1      -7.435   5.764  68.561  1.00  0.00     0.000 HD 
HETATM   26  I   UNL     1      -5.799   7.497  67.254  1.00  0.00    -0.038 I  
HETATM   27  C   UNL     1      -7.896   9.630  67.705  1.00  0.00    -0.094 A  
ENDBRANCH  17  18
ENDBRANCH  13  17
ENDBRANCH   8   9
ENDBRANCH   4   8
TORSDOF 4
ENDMDL
MODEL      290
REMARK 921   NORMALIZED FREE ENERGY PREDICTED BY IDOCK:    4.75 KCAL/MOL
REMARK 922        TOTAL FREE ENERGY PREDICTED BY IDOCK:    5.10 KCAL/MOL
REMARK 923 INTER-LIGAND FREE ENERGY PREDICTED BY IDOCK:    4.42 KCAL/MOL
REMARK 924 INTRA-LIGAND FREE ENERGY PREDICTED BY IDOCK:    0.68 KCAL/MOL
REMARK 927      BINDING AFFINITY PREDICTED BY RF-SCORE:    0.00 PKD
ROOT
HETATM    1  N   UNL     1      -5.338  14.113  74.263  1.00  0.00    -0.569 NA 
HETATM    2  H1  UNL     1      -4.501  13.696  74.670  1.00  0.00     0.000 HD 
HETATM    3  H2  UNL     1      -6.155  13.908  74.838  1.00  0.00     0.000 HD 
HETATM    4  CA  UNL     1      -5.586  13.724  72.842  1.00  0.00     0.070 C  
HETATM    5  C   UNL     1      -5.713  12.188  72.792  1.00  0.00     1.747 C  
HETATM    6  OXT UNL     1      -6.250  11.548  71.903  1.00  0.00     1.023 OA 
HETATM    7  O   UNL     1      -5.129  11.611  73.876  1.00  0.00    -0.349 OA 
ENDROOT
BRANCH   4   8
HETATM    8  C   UNL     1      -6.851  14.355  72.226  1.00  0.00     2.409 C  
BRANCH   8   9
HETATM    9  C   UNL     1      -6.812  14.668  70.743  1.00  0.00     0.457 A  
HETATM   10  C   UNL     1      -6.561  15.952  70.258  1.00  0.00     0.233 A  
HETATM   11  C   UNL     1      -6.529  16.193  68.877  1.00  0.00    -0.133 A  
HETATM   12  I   UNL     1      -6.193  18.188  68.267  1.00  0.00    -0.195 I  
HETATM   13  C   UNL     1      -6.749  15.164  67.932  1.00  0.00    -0.152 A  
HETATM   14  C   UNL     1      -6.977  13.871  68.423  1.00  0.00    -0.102 A  
HETATM   15  C   UNL     1      -6.983  13.633  69.812  1.00  0.00     0.228 A  
HETATM   16  I   UNL     1      -7.455  12.195  67.244  1.00  0.00    -0.052 I  
BRANCH  13  17
HETATM   17  O   UNL     1      -7.005  15.575  66.645  1.00  0.00    -0.072 OA 
BRANCH  17  18
HETATM   18  C   UNL     1      -8.186  16.128  66.217  1.00  0.00    -0.240 A  
HETATM   19  C   UNL     1      -9.070  15.178  65.679  1.00  0.00     0.253 A  
HETATM   20  C   UNL     1     -10.316  15.559  65.178  1.00  0.00    -0.356 A  
HETATM   21  I   UNL     1     -11.561  14.076  64.395  1.00  0.00    -0.264 I  
HETATM   22  C   UNL     1     -10.687  16.904  65.196  1.00  0.00    -0.103 A  
HETATM   23  C   UNL     1      -9.809  17.853  65.735  1.00  0.00     0.105 A  
HETATM   24  O   UNL     1     -11.905  17.297  64.696  1.00  0.00     0.353 OA 
HETATM   25  H   UNL     1     -12.158  18.213  64.708  1.00  0.00     0.000 HD 
HETATM   26  I   UNL     1     -10.273  19.898  65.704  1.00  0.00     0.377 I  
HETATM   27  C   UNL     1      -8.573  17.464  66.280  1.00  0.00    -0.246 A  
ENDBRANCH  17  18
ENDBRANCH  13  17
ENDBRANCH   8   9
ENDBRANCH   4   8
TORSDOF 4
ENDMDL
MODEL      291
REMARK 921   NORMALIZED FREE ENERGY PREDICTED BY IDOCK:    6.15 KCAL/MOL
REMARK 922        TOTAL FREE ENERGY PREDICTED BY IDOCK:    6.84 KCAL/MOL
REMARK 923 INTER-LIGAND FREE ENERGY PREDICTED BY IDOCK:    6.40 KCAL/MOL
REMARK 924 INTRA-LIGAND FREE ENERGY PREDICTED BY IDOCK:    0.43 KCAL/MOL
REMARK 927      BINDING AFFINITY PREDICTED BY RF-SCORE:    0.00 PKD
ROOT
HETATM    1  N   UNL     1      -5.682  11.648  73.633  1.00  0.00     0.946 NA 
HETATM    2  H1  UNL     1      -4.835  11.609  74.200  1.00  0.00     0.000 HD 
HETATM    3  H2  UNL     1      -6.510  11.647  74.229  1.00  0.00     0.000 HD 
HETATM    4  CA  UNL     1      -5.779  10.571  72.602  1.00  0.00     0.905 C  
HETATM    5  C   UNL     1      -5.724   9.214  73.334  1.00  0.00    -0.013 C  
HETATM    6  OXT UNL     1      -6.116   8.149  72.887  1.00  0.00    -0.058 OA 
HETATM    7  O   UNL     1      -5.158   9.342  74.564  1.00  0.00    -0.119 OA 
ENDROOT
BRANCH   4   8
HETATM    8  C   UNL     1      -7.060  10.630  71.746  1.00  0.00     3.456 C  
BRANCH   8   9
HETATM    9  C   UNL     1      -7.041  11.552  70.542  1.00  0.00     1.661 A  
HETATM   10  C   UNL     1      -6.307  12.739  70.524  1.00  0.00     0.379 A  
HETATM   11  C   UNL     1      -6.316  13.558  69.386  1.00  0.00    -0.110 A  
HETATM   12  I   UNL     1      -5.210  15.355  69.499  1.00  0.00    -0.104 I  
HETATM   13  C   UNL     1      -7.055  13.224  68.228  1.00  0.00    -0.109 A  
HETATM   14  C   UNL     1      -7.771  12.019  68.241  1.00  0.00    -0.127 A  
HETATM   15  C   UNL     1      -7.738  11.189  69.380  1.00  0.00     0.026 A  
HETATM   16  I   UNL     1      -9.048  11.351  66.707  1.00  0.00    -0.204 I  
BRANCH  13  17
HETATM   17  O   UNL     1      -7.238  14.238  67.318  1.00  0.00    -0.157 OA 
BRANCH  17  18
HETATM   18  C   UNL     1      -7.793  15.460  67.603  1.00  0.00    -0.157 A  
HETATM   19  C   UNL     1      -7.179  16.515  66.908  1.00  0.00    -0.263 A  
HETATM   20  C   UNL     1      -7.601  17.834  67.084  1.00  0.00    -0.203 A  
HETATM   21  I   UNL     1      -6.624  19.335  66.011  1.00  0.00    -0.303 I  
HETATM   22  C   UNL     1      -8.638  18.115  67.973  1.00  0.00    -0.265 A  
HETATM   23  C   UNL     1      -9.256  17.065  68.665  1.00  0.00    -0.266 A  
HETATM   24  O   UNL     1      -9.059  19.409  68.167  1.00  0.00    -0.312 OA 
HETATM   25  H   UNL     1      -9.765  19.601  68.772  1.00  0.00     0.000 HD 
HETATM   26  I   UNL     1     -10.757  17.436  70.082  1.00  0.00     1.984 I  
HETATM   27  C   UNL     1      -8.861  15.732  68.455  1.00  0.00    -0.185 A  
ENDBRANCH  17  18
ENDBRANCH  13  17
ENDBRANCH   8   9
ENDBRANCH   4   8
TORSDOF 4
ENDMDL
MODEL      292
REMARK 921   NORMALIZED FREE ENERGY PREDICTED BY IDOCK:    6.58 KCAL/MOL
REMARK 922        TOTAL FREE ENERGY PREDICTED BY IDOCK:    7.37 KCAL/MOL
REMARK 923 INTER-LIGAND FREE ENERGY PREDICTED BY IDOCK:    7.04 KCAL/MOL
REMARK 924 INTRA-LIGAND FREE ENERGY PREDICTED BY IDOCK:    0.33 KCAL/MOL
REMARK 927      BINDING AFFINITY PREDICTED BY RF-SCORE:    0.00 PKD
ROOT
HETATM    1  N   UNL     1     -10.050  10.770  70.053  1.00  0.00    -0.341 NA 
HETATM    2  H1  UNL     1     -10.571  11.604  69.784  1.00  0.00     0.000 HD 
HETATM    3  H2  UNL     1      -9.938  10.731  71.066  1.00  0.00     0.000 HD 
HETATM    4  CA  UNL     1      -8.726  10.629  69.373  1.00  0.00    -0.023 C  
HETATM    5  C   UNL     1      -7.889  11.878  69.715  1.00  0.00     1.248 C  
HETATM    6  OXT UNL     1      -6.674  11.961  69.641  1.00  0.00    -0.098 OA 
HETATM    7  O   UNL     1      -8.683  12.911  70.104  1.00  0.00     3.157 OA 
ENDROOT
BRANCH   4   8
HETATM    8  C   UNL     1      -7.939   9.367  69.780  1.00  0.00    -0.119 C  
BRANCH   8   9
HETATM    9  C   UNL     1      -8.512   8.030  69.351  1.00  0.00    -0.132 A  
HETATM   10  C   UNL     1      -8.053   6.820  69.873  1.00  0.00    -0.126 A  
HETATM   11  C   UNL     1      -8.617   5.609  69.450  1.00  0.00    -0.106 A  
HETATM   12  I   UNL     1      -7.801   3.841  70.273  1.00  0.00    -0.058 I  
HETATM   13  C   UNL     1      -9.655   5.559  68.492  1.00  0.00    -0.127 A  
HETATM   14  C   UNL     1     -10.130   6.778  67.987  1.00  0.00    -0.159 A  
HETATM   15  C   UNL     1      -9.575   7.993  68.436  1.00  0.00    -0.157 A  
HETATM   16  I   UNL     1     -11.571   6.982  66.467  1.00  0.00     4.955 I  
BRANCH  13  17
HETATM   17  O   UNL     1      -9.900   4.327  67.933  1.00  0.00    -0.140 OA 
BRANCH  17  18
HETATM   18  C   UNL     1      -9.276   3.833  66.814  1.00  0.00    -0.177 A  
HETATM   19  C   UNL     1      -7.925   3.523  67.035  1.00  0.00    -0.083 A  
HETATM   20  C   UNL     1      -7.125   3.022  66.007  1.00  0.00    -0.062 A  
HETATM   21  I   UNL     1      -5.125   2.594  66.430  1.00  0.00    -0.005 I  
HETATM   22  C   UNL     1      -7.668   2.840  64.735  1.00  0.00    -0.077 A  
HETATM   23  C   UNL     1      -9.017   3.144  64.512  1.00  0.00    -0.121 A  
HETATM   24  O   UNL     1      -6.892   2.359  63.708  1.00  0.00    -0.033 OA 
HETATM   25  H   UNL     1      -7.261   2.234  62.842  1.00  0.00     0.000 HD 
HETATM   26  I   UNL     1      -9.864   2.978  62.600  1.00  0.00    -0.112 I  
HETATM   27  C   UNL     1      -9.834   3.606  65.559  1.00  0.00    -0.068 A  
ENDBRANCH  17  18
ENDBRANCH  13  17
ENDBRANCH   8   9
ENDBRANCH   4   8
TORSDOF 4
ENDMDL
MODEL      293
REMARK 921   NORMALIZED FREE ENERGY PREDICTED BY IDOCK:    7.19 KCAL/MOL
REMARK 922        TOTAL FREE ENERGY PREDICTED BY IDOCK:    8.12 KCAL/MOL
REMARK 923 INTER-LIGAND FREE ENERGY PREDICTED BY IDOCK:    7.65 KCAL/MOL
REMARK 924 INTRA-LIGAND FREE ENERGY PREDICTED BY IDOCK:    0.47 KCAL/MOL
REMARK 927      BINDING AFFINITY PREDICTED BY RF-SCORE:    0.00 PKD
ROOT
HETATM    1  N   UNL     1      -6.547  17.043  72.140  1.00  0.00     4.627 NA 
HETATM    2  H1  UNL     1      -5.635  17.391  72.437  1.00  0.00     0.000 HD 
HETATM    3  H2  UNL     1      -7.194  17.020  72.928  1.00  0.00     0.000 HD 
HETATM    4  CA  UNL     1      -6.503  15.712  71.461  1.00  0.00     1.743 C  
HETATM    5  C   UNL     1      -5.873  14.704  72.444  1.00  0.00     0.321 C  
HETATM    6  OXT UNL     1      -5.988  13.491  72.389  1.00  0.00    -0.267 OA 
HETATM    7  O   UNL     1      -5.141  15.340  73.398  1.00  0.00     0.246 OA 
ENDROOT
BRANCH   4   8
HETATM    8  C   UNL     1      -7.880  15.185  71.013  1.00  0.00     2.307 C  
BRANCH   8   9
HETATM    9  C   UNL     1      -7.926  14.387  69.724  1.00  0.00     0.437 A  
HETATM   10  C   UNL     1      -9.020  14.431  68.858  1.00  0.00    -0.067 A  
HETATM   11  C   UNL     1      -9.015  13.680  67.675  1.00  0.00    -0.202 A  
HETATM   12  I   UNL     1     -10.750  13.788  66.472  1.00  0.00    -0.297 I  
HETATM   13  C   UNL     1      -7.924  12.857  67.313  1.00  0.00    -0.149 A  
HETATM   14  C   UNL     1      -6.818  12.834  68.174  1.00  0.00    -0.094 A  
HETATM   15  C   UNL     1      -6.819  13.611  69.350  1.00  0.00    -0.022 A  
HETATM   16  I   UNL     1      -5.125  11.605  67.939  1.00  0.00    -0.066 I  
BRANCH  13  17
HETATM   17  O   UNL     1      -8.164  11.943  66.315  1.00  0.00    -0.030 OA 
BRANCH  17  18
HETATM   18  C   UNL     1      -7.841  10.610  66.375  1.00  0.00    -0.144 A  
HETATM   19  C   UNL     1      -6.989  10.208  65.334  1.00  0.00    -0.139 A  
HETATM   20  C   UNL     1      -6.566   8.882  65.223  1.00  0.00    -0.068 A  
HETATM   21  I   UNL     1      -5.303   8.378  63.638  1.00  0.00    -0.059 I  
HETATM   22  C   UNL     1      -7.005   7.936  66.149  1.00  0.00    -0.062 A  
HETATM   23  C   UNL     1      -7.852   8.336  67.192  1.00  0.00    -0.097 A  
HETATM   24  O   UNL     1      -6.607   6.626  66.048  1.00  0.00    -0.042 OA 
HETATM   25  H   UNL     1      -6.907   5.981  66.679  1.00  0.00     0.000 HD 
HETATM   26  I   UNL     1      -8.618   6.942  68.559  1.00  0.00    -0.119 I  
HETATM   27  C   UNL     1      -8.242   9.679  67.329  1.00  0.00    -0.114 A  
ENDBRANCH  17  18
ENDBRANCH  13  17
ENDBRANCH   8   9
ENDBRANCH   4   8
TORSDOF 4
ENDMDL
MODEL      294
REMARK 921   NORMALIZED FREE ENERGY PREDICTED BY IDOCK:    8.36 KCAL/MOL
REMARK 922        TOTAL FREE ENERGY PREDICTED BY IDOCK:    9.56 KCAL/MOL
REMARK 923 INTER-LIGAND FREE ENERGY PREDICTED BY IDOCK:    3.11 KCAL/MOL
REMARK 924 INTRA-LIGAND FREE ENERGY PREDICTED BY IDOCK:    6.45 KCAL/MOL
REMARK 927      BINDING AFFINITY PREDICTED BY RF-SCORE:    0.00 PKD
ROOT
HETATM    1  N   UNL     1     -12.536  16.410  69.890  1.00  0.00    -0.153 NA 
HETATM    2  H1  UNL     1     -13.400  16.910  69.678  1.00  0.00     0.000 HD 
HETATM    3  H2  UNL     1     -11.804  17.063  70.166  1.00  0.00     0.000 HD 
HETATM    4  CA  UNL     1     -12.058  15.521  68.787  1.00  0.00    -0.141 C  
HETATM    5  C   UNL     1     -11.839  16.400  67.539  1.00  0.00     0.730 C  
HETATM    6  OXT UNL     1     -11.141  16.112  66.581  1.00  0.00    -0.136 OA 
HETATM    7  O   UNL     1     -12.544  17.560  67.624  1.00  0.00     3.062 OA 
ENDROOT
BRANCH   4   8
HETATM    8  C   UNL     1     -10.753  14.765  69.107  1.00  0.00    -0.258 C  
BRANCH   8   9
HETATM    9  C   UNL     1     -10.854  13.262  69.282  1.00  0.00    -0.071 A  
HETATM   10  C   UNL     1      -9.941  12.381  68.700  1.00  0.00    -0.117 A  
HETATM   11  C   UNL     1     -10.071  10.999  68.894  1.00  0.00    -0.199 A  
HETATM   12  I   UNL     1      -8.660   9.764  67.919  1.00  0.00    -0.125 I  
HETATM   13  C   UNL     1     -11.115  10.446  69.671  1.00  0.00    -0.276 A  
HETATM   14  C   UNL     1     -12.016  11.335  70.272  1.00  0.00    -0.379 A  
HETATM   15  C   UNL     1     -11.864  12.725  70.093  1.00  0.00    -0.326 A  
HETATM   16  I   UNL     1     -13.724  10.774  71.367  1.00  0.00     1.157 I  
BRANCH  13  17
HETATM   17  O   UNL     1     -11.321   9.094  69.526  1.00  0.00    -0.042 OA 
BRANCH  17  18
HETATM   18  C   UNL     1     -10.353   8.183  69.184  1.00  0.00    -0.220 A  
HETATM   19  C   UNL     1     -10.263   7.977  67.798  1.00  0.00    -0.282 A  
HETATM   20  C   UNL     1      -9.344   7.072  67.264  1.00  0.00    -0.133 A  
HETATM   21  I   UNL     1      -9.288   6.830  65.190  1.00  0.00     1.609 I  
HETATM   22  C   UNL     1      -8.511   6.349  68.116  1.00  0.00    -0.115 A  
HETATM   23  C   UNL     1      -8.595   6.555  69.500  1.00  0.00    -0.134 A  
HETATM   24  O   UNL     1      -7.608   5.446  67.608  1.00  0.00    -0.086 OA 
HETATM   25  H   UNL     1      -7.040   4.953  68.189  1.00  0.00     0.000 HD 
HETATM   26  I   UNL     1      -7.433   5.430  70.835  1.00  0.00    -0.094 I  
HETATM   27  C   UNL     1      -9.489   7.498  70.035  1.00  0.00    -0.161 A  
ENDBRANCH  17  18
ENDBRANCH  13  17
ENDBRANCH   8   9
ENDBRANCH   4   8
TORSDOF 4
ENDMDL
MODEL      295
REMARK 921   NORMALIZED FREE ENERGY PREDICTED BY IDOCK:    9.62 KCAL/MOL
REMARK 922        TOTAL FREE ENERGY PREDICTED BY IDOCK:   11.11 KCAL/MOL
REMARK 923 INTER-LIGAND FREE ENERGY PREDICTED BY IDOCK:    3.12 KCAL/MOL
REMARK 924 INTRA-LIGAND FREE ENERGY PREDICTED BY IDOCK:    7.99 KCAL/MOL
REMARK 927      BINDING AFFINITY PREDICTED BY RF-SCORE:    0.00 PKD
ROOT
HETATM    1  N   UNL     1      -5.958  12.820  68.535  1.00  0.00    -0.059 NA 
HETATM    2  H1  UNL     1      -5.166  13.321  68.130  1.00  0.00     0.000 HD 
HETATM    3  H2  UNL     1      -6.766  12.869  67.915  1.00  0.00     0.000 HD 
HETATM    4  CA  UNL     1      -6.326  13.268  69.912  1.00  0.00    -0.051 C  
HETATM    5  C   UNL     1      -6.663  14.772  69.841  1.00  0.00    -0.172 C  
HETATM    6  OXT UNL     1      -7.324  15.391  70.658  1.00  0.00     0.549 OA 
HETATM    7  O   UNL     1      -6.111  15.348  68.740  1.00  0.00    -0.096 OA 
ENDROOT
BRANCH   4   8
HETATM    8  C   UNL     1      -7.521  12.512  70.524  1.00  0.00     3.450 C  
BRANCH   8   9
HETATM    9  C   UNL     1      -8.188  11.461  69.656  1.00  0.00     0.779 A  
HETATM   10  C   UNL     1      -9.106  10.543  70.169  1.00  0.00     0.626 A  
HETATM   11  C   UNL     1      -9.701   9.594  69.328  1.00  0.00    -0.185 A  
HETATM   12  I   UNL     1     -11.034   8.225  70.231  1.00  0.00    -0.113 I  
HETATM   13  C   UNL     1      -9.401   9.523  67.948  1.00  0.00    -0.132 A  
HETATM   14  C   UNL     1      -8.497  10.461  67.432  1.00  0.00    -0.121 A  
HETATM   15  C   UNL     1      -7.921  11.429  68.280  1.00  0.00    -0.136 A  
HETATM   16  I   UNL     1      -7.784  10.496  65.452  1.00  0.00     0.085 I  
BRANCH  13  17
HETATM   17  O   UNL     1      -9.794   8.372  67.305  1.00  0.00    -0.170 OA 
BRANCH  17  18
HETATM   18  C   UNL     1      -9.096   7.757  66.296  1.00  0.00    -0.178 A  
HETATM   19  C   UNL     1      -8.845   8.609  65.208  1.00  0.00    -0.178 A  
HETATM   20  C   UNL     1      -8.160   8.154  64.081  1.00  0.00    -0.128 A  
HETATM   21  I   UNL     1      -7.839   9.493  62.511  1.00  0.00    -0.153 I  
HETATM   22  C   UNL     1      -7.728   6.828  64.023  1.00  0.00    -0.112 A  
HETATM   23  C   UNL     1      -7.973   5.977  65.109  1.00  0.00    -0.123 A  
HETATM   24  O   UNL     1      -7.062   6.360  62.917  1.00  0.00    -0.044 OA 
HETATM   25  H   UNL     1      -6.768   5.457  62.877  1.00  0.00     0.000 HD 
HETATM   26  I   UNL     1      -7.430   3.952  65.041  1.00  0.00    -0.078 I  
HETATM   27  C   UNL     1      -8.624   6.448  66.262  1.00  0.00    -0.140 A  
ENDBRANCH  17  18
ENDBRANCH  13  17
ENDBRANCH   8   9
ENDBRANCH   4   8
TORSDOF 4
ENDMDL
MODEL      296
REMARK 921   NORMALIZED FREE ENERGY PREDICTED BY IDOCK:    9.76 KCAL/MOL
REMARK 922        TOTAL FREE ENERGY PREDICTED BY IDOCK:   11.29 KCAL/MOL
REMARK 923 INTER-LIGAND FREE ENERGY PREDICTED BY IDOCK:    5.46 KCAL/MOL
REMARK 924 INTRA-LIGAND FREE ENERGY PREDICTED BY IDOCK:    5.83 KCAL/MOL
REMARK 927      BINDING AFFINITY PREDICTED BY RF-SCORE:    0.00 PKD
ROOT
HETATM    1  N   UNL     1      -7.484  12.678  71.401  1.00  0.00     5.541 NA 
HETATM    2  H1  UNL     1      -7.100  13.216  72.178  1.00  0.00     0.000 HD 
HETATM    3  H2  UNL     1      -7.061  11.751  71.365  1.00  0.00     0.000 HD 
HETATM    4  CA  UNL     1      -7.374  13.356  70.073  1.00  0.00     1.086 C  
HETATM    5  C   UNL     1      -5.879  13.627  69.809  1.00  0.00    -0.115 C  
HETATM    6  OXT UNL     1      -5.377  13.835  68.717  1.00  0.00    -0.073 OA 
HETATM    7  O   UNL     1      -5.166  13.623  70.967  1.00  0.00    -0.120 OA 
ENDROOT
BRANCH   4   8
HETATM    8  C   UNL     1      -7.954  12.543  68.899  1.00  0.00     0.165 C  
BRANCH   8   9
HETATM    9  C   UNL     1      -8.736  11.292  69.249  1.00  0.00     0.240 A  
HETATM   10  C   UNL     1      -8.120  10.051  69.421  1.00  0.00    -0.150 A  
HETATM   11  C   UNL     1      -8.884   8.922  69.749  1.00  0.00    -0.144 A  
HETATM   12  I   UNL     1      -7.845   7.091  69.930  1.00  0.00    -0.118 I  
HETATM   13  C   UNL     1     -10.286   8.989  69.916  1.00  0.00    -0.207 A  
HETATM   14  C   UNL     1     -10.898  10.241  69.766  1.00  0.00    -0.287 A  
HETATM   15  C   UNL     1     -10.120  11.376  69.460  1.00  0.00     0.290 A  
HETATM   16  I   UNL     1     -12.972  10.593  69.835  1.00  0.00     1.162 I  
BRANCH  13  17
HETATM   17  O   UNL     1     -10.950   7.784  69.920  1.00  0.00    -0.248 OA 
BRANCH  17  18
HETATM   18  C   UNL     1     -10.381   6.572  69.620  1.00  0.00    -0.196 A  
HETATM   19  C   UNL     1     -10.068   6.438  68.258  1.00  0.00    -0.169 A  
HETATM   20  C   UNL     1      -9.496   5.264  67.764  1.00  0.00    -0.124 A  
HETATM   21  I   UNL     1      -9.071   5.157  65.722  1.00  0.00    -0.119 I  
HETATM   22  C   UNL     1      -9.242   4.201  68.630  1.00  0.00    -0.145 A  
HETATM   23  C   UNL     1      -9.549   4.333  69.991  1.00  0.00    -0.204 A  
HETATM   24  O   UNL     1      -8.690   3.035  68.158  1.00  0.00    -0.090 OA 
HETATM   25  H   UNL     1      -8.517   2.310  68.748  1.00  0.00     0.000 HD 
HETATM   26  I   UNL     1      -9.276   2.736  71.323  1.00  0.00    -0.224 I  
HETATM   27  C   UNL     1     -10.084   5.531  70.496  1.00  0.00    -0.293 A  
ENDBRANCH  17  18
ENDBRANCH  13  17
ENDBRANCH   8   9
ENDBRANCH   4   8
TORSDOF 4
ENDMDL
MODEL      297
REMARK 921   NORMALIZED FREE ENERGY PREDICTED BY IDOCK:   11.72 KCAL/MOL
REMARK 922        TOTAL FREE ENERGY PREDICTED BY IDOCK:   13.71 KCAL/MOL
REMARK 923 INTER-LIGAND FREE ENERGY PREDICTED BY IDOCK:    7.90 KCAL/MOL
REMARK 924 INTRA-LIGAND FREE ENERGY PREDICTED BY IDOCK:    5.80 KCAL/MOL
REMARK 927      BINDING AFFINITY PREDICTED BY RF-SCORE:    0.00 PKD
ROOT
HETATM    1  N   UNL     1      -5.697  11.657  73.649  1.00  0.00     0.946 NA 
HETATM    2  H1  UNL     1      -4.820  11.559  74.161  1.00  0.00     0.000 HD 
HETATM    3  H2  UNL     1      -6.488  11.656  74.293  1.00  0.00     0.000 HD 
HETATM    4  CA  UNL     1      -5.896  10.638  72.574  1.00  0.00     1.185 C  
HETATM    5  C   UNL     1      -5.851   9.245  73.235  1.00  0.00     0.112 C  
HETATM    6  OXT UNL     1      -6.310   8.219  72.761  1.00  0.00    -0.074 OA 
HETATM    7  O   UNL     1      -5.210   9.290  74.433  1.00  0.00    -0.117 OA 
ENDROOT
BRANCH   4   8
HETATM    8  C   UNL     1      -7.221  10.787  71.800  1.00  0.00     4.309 C  
BRANCH   8   9
HETATM    9  C   UNL     1      -7.248  11.798  70.671  1.00  0.00     2.698 A  
HETATM   10  C   UNL     1      -6.479  12.963  70.694  1.00  0.00     0.757 A  
HETATM   11  C   UNL     1      -6.533  13.867  69.624  1.00  0.00    -0.108 A  
HETATM   12  I   UNL     1      -5.364  15.619  69.799  1.00  0.00    -0.127 I  
HETATM   13  C   UNL     1      -7.355  13.644  68.495  1.00  0.00    -0.114 A  
HETATM   14  C   UNL     1      -8.108  12.462  68.465  1.00  0.00    -0.096 A  
HETATM   15  C   UNL     1      -8.030  11.546  69.534  1.00  0.00     0.511 A  
HETATM   16  I   UNL     1      -9.501  11.950  66.973  1.00  0.00    -0.216 I  
BRANCH  13  17
HETATM   17  O   UNL     1      -7.562  14.730  67.678  1.00  0.00    -0.141 OA 
BRANCH  17  18
HETATM   18  C   UNL     1      -8.571  14.838  66.754  1.00  0.00    -0.193 A  
HETATM   19  C   UNL     1      -9.094  16.139  66.666  1.00  0.00    -0.282 A  
HETATM   20  C   UNL     1     -10.139  16.436  65.789  1.00  0.00    -0.327 A  
HETATM   21  I   UNL     1     -10.852  18.397  65.732  1.00  0.00     1.017 I  
HETATM   22  C   UNL     1     -10.685  15.426  64.997  1.00  0.00    -0.438 A  
HETATM   23  C   UNL     1     -10.163  14.128  65.080  1.00  0.00    -0.370 A  
HETATM   24  O   UNL     1     -11.721  15.698  64.137  1.00  0.00    -0.809 OA 
HETATM   25  H   UNL     1     -12.094  15.010  63.598  1.00  0.00     0.000 HD 
HETATM   26  I   UNL     1     -11.005  12.550  63.983  1.00  0.00    -0.540 I  
HETATM   27  C   UNL     1      -9.082  13.839  65.930  1.00  0.00     0.320 A  
ENDBRANCH  17  18
ENDBRANCH  13  17
ENDBRANCH   8   9
ENDBRANCH   4   8
TORSDOF 4
ENDMDL
MODEL      298
REMARK 921   NORMALIZED FREE ENERGY PREDICTED BY IDOCK:   14.57 KCAL/MOL
REMARK 922        TOTAL FREE ENERGY PREDICTED BY IDOCK:   17.22 KCAL/MOL
REMARK 923 INTER-LIGAND FREE ENERGY PREDICTED BY IDOCK:   16.62 KCAL/MOL
REMARK 924 INTRA-LIGAND FREE ENERGY PREDICTED BY IDOCK:    0.60 KCAL/MOL
REMARK 927      BINDING AFFINITY PREDICTED BY RF-SCORE:    0.00 PKD
ROOT
HETATM    1  N   UNL     1      -8.013  16.749  68.129  1.00  0.00    -0.175 NA 
HETATM    2  H1  UNL     1      -8.278  17.717  67.945  1.00  0.00     0.000 HD 
HETATM    3  H2  UNL     1      -8.596  16.354  68.867  1.00  0.00     0.000 HD 
HETATM    4  CA  UNL     1      -6.565  16.560  68.447  1.00  0.00    -0.138 C  
HETATM    5  C   UNL     1      -6.243  17.415  69.689  1.00  0.00    -0.233 C  
HETATM    6  OXT UNL     1      -5.291  17.255  70.435  1.00  0.00    -0.225 OA 
HETATM    7  O   UNL     1      -7.159  18.406  69.855  1.00  0.00     0.202 OA 
ENDROOT
BRANCH   4   8
HETATM    8  C   UNL     1      -6.165  15.097  68.725  1.00  0.00    -0.086 C  
BRANCH   8   9
HETATM    9  C   UNL     1      -7.275  14.064  68.698  1.00  0.00    -0.114 A  
HETATM   10  C   UNL     1      -7.554  13.241  69.790  1.00  0.00     1.040 A  
HETATM   11  C   UNL     1      -8.594  12.303  69.721  1.00  0.00     2.282 A  
HETATM   12  I   UNL     1      -8.885  11.079  71.419  1.00  0.00    11.312 I  
HETATM   13  C   UNL     1      -9.390  12.151  68.563  1.00  0.00    -0.106 A  
HETATM   14  C   UNL     1      -9.122  12.995  67.477  1.00  0.00    -0.191 A  
HETATM   15  C   UNL     1      -8.091  13.952  67.562  1.00  0.00    -0.191 A  
HETATM   16  I   UNL     1     -10.067  12.891  65.599  1.00  0.00    -0.177 I  
BRANCH  13  17
HETATM   17  O   UNL     1     -10.150  11.006  68.502  1.00  0.00    -0.176 OA 
BRANCH  17  18
HETATM   18  C   UNL     1      -9.759   9.833  67.908  1.00  0.00    -0.144 A  
HETATM   19  C   UNL     1      -9.100   8.966  68.794  1.00  0.00    -0.134 A  
HETATM   20  C   UNL     1      -8.616   7.729  68.363  1.00  0.00    -0.128 A  
HETATM   21  I   UNL     1      -7.645   6.510  69.753  1.00  0.00    -0.101 I  
HETATM   22  C   UNL     1      -8.773   7.352  67.029  1.00  0.00    -0.123 A  
HETATM   23  C   UNL     1      -9.434   8.213  66.143  1.00  0.00    -0.147 A  
HETATM   24  O   UNL     1      -8.293   6.144  66.586  1.00  0.00    -0.109 OA 
HETATM   25  H   UNL     1      -8.400   5.886  65.677  1.00  0.00     0.000 HD 
HETATM   26  I   UNL     1      -9.619   7.740  64.108  1.00  0.00     4.808 I  
HETATM   27  C   UNL     1      -9.961   9.439  66.588  1.00  0.00    -0.326 A  
ENDBRANCH  17  18
ENDBRANCH  13  17
ENDBRANCH   8   9
ENDBRANCH   4   8
TORSDOF 4
ENDMDL
MODEL      299
REMARK 921   NORMALIZED FREE ENERGY PREDICTED BY IDOCK:   15.18 KCAL/MOL
REMARK 922        TOTAL FREE ENERGY PREDICTED BY IDOCK:   17.98 KCAL/MOL
REMARK 923 INTER-LIGAND FREE ENERGY PREDICTED BY IDOCK:    9.61 KCAL/MOL
REMARK 924 INTRA-LIGAND FREE ENERGY PREDICTED BY IDOCK:    8.37 KCAL/MOL
REMARK 927      BINDING AFFINITY PREDICTED BY RF-SCORE:    0.00 PKD
ROOT
HETATM    1  N   UNL     1      -7.562  15.772  65.333  1.00  0.00     2.738 NA 
HETATM    2  H1  UNL     1      -8.093  16.322  64.657  1.00  0.00     0.000 HD 
HETATM    3  H2  UNL     1      -6.786  15.295  64.874  1.00  0.00     0.000 HD 
HETATM    4  CA  UNL     1      -8.387  14.799  66.113  1.00  0.00     0.818 C  
HETATM    5  C   UNL     1      -9.063  13.846  65.106  1.00  0.00     1.502 C  
HETATM    6  OXT UNL     1      -9.512  12.742  65.366  1.00  0.00    -0.018 OA 
HETATM    7  O   UNL     1      -9.117  14.398  63.865  1.00  0.00     4.431 OA 
ENDROOT
BRANCH   4   8
HETATM    8  C   UNL     1      -7.585  13.968  67.133  1.00  0.00     0.037 C  
BRANCH   8   9
HETATM    9  C   UNL     1      -7.490  12.475  66.883  1.00  0.00     0.092 A  
HETATM   10  C   UNL     1      -7.213  11.947  65.621  1.00  0.00     1.576 A  
HETATM   11  C   UNL     1      -7.130  10.560  65.439  1.00  0.00    -0.072 A  
HETATM   12  I   UNL     1      -6.758   9.879  63.473  1.00  0.00    -0.100 I  
HETATM   13  C   UNL     1      -7.322   9.651  66.504  1.00  0.00    -0.090 A  
HETATM   14  C   UNL     1      -7.576  10.186  67.775  1.00  0.00    -0.090 A  
HETATM   15  C   UNL     1      -7.634  11.582  67.955  1.00  0.00    -0.112 A  
HETATM   16  I   UNL     1      -8.023   9.061  69.497  1.00  0.00    -0.121 I  
BRANCH  13  17
HETATM   17  O   UNL     1      -7.529   8.339  66.147  1.00  0.00    -0.079 OA 
BRANCH  17  18
HETATM   18  C   UNL     1      -7.716   7.304  67.028  1.00  0.00    -0.111 A  
HETATM   19  C   UNL     1      -7.079   6.120  66.622  1.00  0.00    -0.072 A  
HETATM   20  C   UNL     1      -7.171   4.955  67.386  1.00  0.00    -0.074 A  
HETATM   21  I   UNL     1      -6.194   3.243  66.699  1.00  0.00    -0.029 I  
HETATM   22  C   UNL     1      -7.918   4.959  68.564  1.00  0.00    -0.085 A  
HETATM   23  C   UNL     1      -8.552   6.140  68.974  1.00  0.00    -0.121 A  
HETATM   24  O   UNL     1      -8.029   3.819  69.323  1.00  0.00    -0.055 OA 
HETATM   25  H   UNL     1      -8.538   3.821  70.125  1.00  0.00     0.000 HD 
HETATM   26  I   UNL     1      -9.763   6.181  70.686  1.00  0.00    -0.232 I  
HETATM   27  C   UNL     1      -8.422   7.324  68.228  1.00  0.00    -0.124 A  
ENDBRANCH  17  18
ENDBRANCH  13  17
ENDBRANCH   8   9
ENDBRANCH   4   8
TORSDOF 4
ENDMDL
MODEL      300
REMARK 921   NORMALIZED FREE ENERGY PREDICTED BY IDOCK:   27.11 KCAL/MOL
REMARK 922        TOTAL FREE ENERGY PREDICTED BY IDOCK:   32.69 KCAL/MOL
REMARK 923 INTER-LIGAND FREE ENERGY PREDICTED BY IDOCK:   32.79 KCAL/MOL
REMARK 924 INTRA-LIGAND FREE ENERGY PREDICTED BY IDOCK:   -0.10 KCAL/MOL
REMARK 927      BINDING AFFINITY PREDICTED BY RF-SCORE:    0.00 PKD
ROOT
HETATM    1  N   UNL     1     -11.367   5.136  72.066  1.00  0.00     0.043 NA 
HETATM    2  H1  UNL     1     -11.582   5.064  73.060  1.00  0.00     0.000 HD 
HETATM    3  H2  UNL     1     -11.988   5.808  71.614  1.00  0.00     0.000 HD 
HETATM    4  CA  UNL     1     -11.392   3.830  71.338  1.00  0.00     2.899 C  
HETATM    5  C   UNL     1     -12.801   3.226  71.509  1.00  0.00    10.672 C  
HETATM    6  OXT UNL     1     -13.299   2.373  70.793  1.00  0.00    13.494 OA 
HETATM    7  O   UNL     1     -13.437   3.756  72.587  1.00  0.00     1.922 OA 
ENDROOT
BRANCH   4   8
HETATM    8  C   UNL     1     -11.068   3.939  69.835  1.00  0.00     4.359 C  
BRANCH   8   9
HETATM    9  C   UNL     1     -10.079   5.011  69.420  1.00  0.00    -0.288 A  
HETATM   10  C   UNL     1      -8.775   4.709  69.024  1.00  0.00    -0.108 A  
HETATM   11  C   UNL     1      -7.897   5.733  68.643  1.00  0.00    -0.097 A  
HETATM   12  I   UNL     1      -5.934   5.156  68.115  1.00  0.00    -0.024 I  
HETATM   13  C   UNL     1      -8.285   7.093  68.646  1.00  0.00    -0.125 A  
HETATM   14  C   UNL     1      -9.602   7.390  69.022  1.00  0.00    -0.148 A  
HETATM   15  C   UNL     1     -10.487   6.352  69.380  1.00  0.00    -0.277 A  
HETATM   16  I   UNL     1     -10.395   9.328  69.234  1.00  0.00    -0.239 I  
BRANCH  13  17
HETATM   17  O   UNL     1      -7.264   8.010  68.564  1.00  0.00    -0.081 OA 
BRANCH  17  18
HETATM   18  C   UNL     1      -6.910   8.692  67.427  1.00  0.00    -0.071 A  
HETATM   19  C   UNL     1      -6.817  10.079  67.628  1.00  0.00    -0.084 A  
HETATM   20  C   UNL     1      -6.482  10.937  66.579  1.00  0.00    -0.128 A  
HETATM   21  I   UNL     1      -6.373  12.984  66.975  1.00  0.00     1.470 I  
HETATM   22  C   UNL     1      -6.250  10.415  65.306  1.00  0.00    -0.122 A  
HETATM   23  C   UNL     1      -6.337   9.032  65.103  1.00  0.00    -0.061 A  
HETATM   24  O   UNL     1      -5.930  11.246  64.261  1.00  0.00    -0.096 OA 
HETATM   25  H   UNL     1      -5.772  10.891  63.393  1.00  0.00     0.000 HD 
HETATM   26  I   UNL     1      -6.090   8.200  63.193  1.00  0.00    -0.078 I  
HETATM   27  C   UNL     1      -6.631   8.164  66.169  1.00  0.00    -0.047 A  
ENDBRANCH  17  18
ENDBRANCH  13  17
ENDBRANCH   8   9
ENDBRANCH   4   8
TORSDOF 4
ENDMDL
MODEL      301
REMARK 921   NORMALIZED FREE ENERGY PREDICTED BY IDOCK:   29.02 KCAL/MOL
REMARK 922        TOTAL FREE ENERGY PREDICTED BY IDOCK:   35.04 KCAL/MOL
REMARK 923 INTER-LIGAND FREE ENERGY PREDICTED BY IDOCK:   34.75 KCAL/MOL
REMARK 924 INTRA-LIGAND FREE ENERGY PREDICTED BY IDOCK:    0.30 KCAL/MOL
REMARK 927      BINDING AFFINITY PREDICTED BY RF-SCORE:    0.00 PKD
ROOT
HETATM    1  N   UNL     1     -10.272  16.042  73.850  1.00  0.00     7.233 NA 
HETATM    2  H1  UNL     1     -10.041  16.672  74.618  1.00  0.00     0.000 HD 
HETATM    3  H2  UNL     1     -10.153  16.514  72.953  1.00  0.00     0.000 HD 
HETATM    4  CA  UNL     1     -11.635  15.436  73.945  1.00  0.00     0.268 C  
HETATM    5  C   UNL     1     -12.660  16.589  73.978  1.00  0.00    -0.309 C  
HETATM    6  OXT UNL     1     -13.844  16.494  73.705  1.00  0.00    -0.369 OA 
HETATM    7  O   UNL     1     -12.077  17.752  74.373  1.00  0.00    -0.065 OA 
ENDROOT
BRANCH   4   8
HETATM    8  C   UNL     1     -11.985  14.484  72.784  1.00  0.00    -0.027 C  
BRANCH   8   9
HETATM    9  C   UNL     1     -10.966  14.357  71.667  1.00  0.00     1.421 A  
HETATM   10  C   UNL     1     -11.025  15.137  70.511  1.00  0.00    -0.267 A  
HETATM   11  C   UNL     1     -10.058  14.989  69.508  1.00  0.00    -0.166 A  
HETATM   12  I   UNL     1     -10.284  16.188  67.783  1.00  0.00    -0.286 I  
HETATM   13  C   UNL     1      -8.999  14.058  69.620  1.00  0.00     1.039 A  
HETATM   14  C   UNL     1      -8.930  13.293  70.792  1.00  0.00     7.581 A  
HETATM   15  C   UNL     1      -9.893  13.465  71.807  1.00  0.00    11.036 A  
HETATM   16  I   UNL     1      -7.540  11.755  71.155  1.00  0.00     9.081 I  
BRANCH  13  17
HETATM   17  O   UNL     1      -8.315  13.783  68.459  1.00  0.00    -0.155 OA 
BRANCH  17  18
HETATM   18  C   UNL     1      -8.760  12.953  67.461  1.00  0.00    -0.190 A  
HETATM   19  C   UNL     1      -8.359  11.619  67.641  1.00  0.00    -0.142 A  
HETATM   20  C   UNL     1      -8.706  10.633  66.716  1.00  0.00    -0.130 A  
HETATM   21  I   UNL     1      -8.059   8.679  67.066  1.00  0.00    -0.098 I  
HETATM   22  C   UNL     1      -9.450  10.975  65.587  1.00  0.00    -0.217 A  
HETATM   23  C   UNL     1      -9.856  12.304  65.407  1.00  0.00    -0.192 A  
HETATM   24  O   UNL     1      -9.791  10.019  64.661  1.00  0.00    -0.332 OA 
HETATM   25  H   UNL     1     -10.298  10.252  63.892  1.00  0.00     0.000 HD 
HETATM   26  I   UNL     1     -10.897  12.895  63.684  1.00  0.00     0.293 I  
HETATM   27  C   UNL     1      -9.544  13.289  66.360  1.00  0.00    -0.260 A  
ENDBRANCH  17  18
ENDBRANCH  13  17
ENDBRANCH   8   9
ENDBRANCH   4   8
TORSDOF 4
ENDMDL
MODEL      302
REMARK 921   NORMALIZED FREE ENERGY PREDICTED BY IDOCK:   30.60 KCAL/MOL
REMARK 922        TOTAL FREE ENERGY PREDICTED BY IDOCK:   37.01 KCAL/MOL
REMARK 923 INTER-LIGAND FREE ENERGY PREDICTED BY IDOCK:   31.04 KCAL/MOL
REMARK 924 INTRA-LIGAND FREE ENERGY PREDICTED BY IDOCK:    5.96 KCAL/MOL
REMARK 927      BINDING AFFINITY PREDICTED BY RF-SCORE:    0.00 PKD
ROOT
HETATM    1  N   UNL     1      -6.814  17.074  72.354  1.00  0.00     6.594 NA 
HETATM    2  H1  UNL     1      -5.818  17.288  72.416  1.00  0.00     0.000 HD 
HETATM    3  H2  UNL     1      -7.291  17.343  73.214  1.00  0.00     0.000 HD 
HETATM    4  CA  UNL     1      -7.114  15.651  72.011  1.00  0.00     4.495 C  
HETATM    5  C   UNL     1      -6.474  14.763  73.098  1.00  0.00     1.749 C  
HETATM    6  OXT UNL     1      -6.789  13.612  73.350  1.00  0.00     1.874 OA 
HETATM    7  O   UNL     1      -5.481  15.423  73.750  1.00  0.00     0.780 OA 
ENDROOT
BRANCH   4   8
HETATM    8  C   UNL     1      -8.618  15.328  71.916  1.00  0.00     5.799 C  
BRANCH   8   9
HETATM    9  C   UNL     1      -9.058  14.429  70.777  1.00  0.00     3.131 A  
HETATM   10  C   UNL     1     -10.330  13.854  70.729  1.00  0.00     2.698 A  
HETATM   11  C   UNL     1     -10.694  13.034  69.653  1.00  0.00     0.455 A  
HETATM   12  I   UNL     1     -12.626  12.178  69.720  1.00  0.00     0.785 I  
HETATM   13  C   UNL     1      -9.807  12.756  68.588  1.00  0.00    -0.063 A  
HETATM   14  C   UNL     1      -8.540  13.354  68.628  1.00  0.00     0.010 A  
HETATM   15  C   UNL     1      -8.189  14.197  69.701  1.00  0.00     0.661 A  
HETATM   16  I   UNL     1      -6.992  13.007  67.244  1.00  0.00     0.460 I  
BRANCH  13  17
HETATM   17  O   UNL     1     -10.156  11.706  67.772  1.00  0.00    -0.182 OA 
BRANCH  17  18
HETATM   18  C   UNL     1      -9.270  10.911  67.090  1.00  0.00    -0.148 A  
HETATM   19  C   UNL     1      -9.840   9.702  66.659  1.00  0.00    -0.285 A  
HETATM   20  C   UNL     1      -9.083   8.759  65.961  1.00  0.00    -0.213 A  
HETATM   21  I   UNL     1     -10.017   6.989  65.366  1.00  0.00     2.994 I  
HETATM   22  C   UNL     1      -7.737   9.010  65.698  1.00  0.00    -0.091 A  
HETATM   23  C   UNL     1      -7.166  10.217  66.122  1.00  0.00    -0.121 A  
HETATM   24  O   UNL     1      -6.975   8.088  65.022  1.00  0.00    -0.061 OA 
HETATM   25  H   UNL     1      -6.057   8.259  64.843  1.00  0.00     0.000 HD 
HETATM   26  I   UNL     1      -5.125  10.610  65.837  1.00  0.00    -0.125 I  
HETATM   27  C   UNL     1      -7.939  11.186  66.786  1.00  0.00    -0.156 A  
ENDBRANCH  17  18
ENDBRANCH  13  17
ENDBRANCH   8   9
ENDBRANCH   4   8
TORSDOF 4
ENDMDL
MODEL      303
REMARK 921   NORMALIZED FREE ENERGY PREDICTED BY IDOCK:   39.87 KCAL/MOL
REMARK 922        TOTAL FREE ENERGY PREDICTED BY IDOCK:   48.44 KCAL/MOL
REMARK 923 INTER-LIGAND FREE ENERGY PREDICTED BY IDOCK:   45.45 KCAL/MOL
REMARK 924 INTRA-LIGAND FREE ENERGY PREDICTED BY IDOCK:    3.00 KCAL/MOL
REMARK 927      BINDING AFFINITY PREDICTED BY RF-SCORE:    0.00 PKD
ROOT
HETATM    1  N   UNL     1      -5.760  11.726  73.736  1.00  0.00     0.886 NA 
HETATM    2  H1  UNL     1      -4.926  11.206  74.008  1.00  0.00     0.000 HD 
HETATM    3  H2  UNL     1      -6.273  12.035  74.562  1.00  0.00     0.000 HD 
HETATM    4  CA  UNL     1      -6.664  10.989  72.802  1.00  0.00     5.363 C  
HETATM    5  C   UNL     1      -7.091   9.681  73.499  1.00  0.00     1.817 C  
HETATM    6  OXT UNL     1      -8.069   9.010  73.213  1.00  0.00    -0.194 OA 
HETATM    7  O   UNL     1      -6.220   9.343  74.487  1.00  0.00    -0.347 OA 
ENDROOT
BRANCH   4   8
HETATM    8  C   UNL     1      -7.925  11.776  72.392  1.00  0.00    16.381 C  
BRANCH   8   9
HETATM    9  C   UNL     1      -7.797  12.708  71.202  1.00  0.00     8.283 A  
HETATM   10  C   UNL     1      -7.105  12.347  70.044  1.00  0.00     0.915 A  
HETATM   11  C   UNL     1      -7.017  13.240  68.967  1.00  0.00    -0.075 A  
HETATM   12  I   UNL     1      -5.898  12.602  67.291  1.00  0.00     0.394 I  
HETATM   13  C   UNL     1      -7.613  14.522  69.005  1.00  0.00    -0.124 A  
HETATM   14  C   UNL     1      -8.327  14.870  70.160  1.00  0.00     0.690 A  
HETATM   15  C   UNL     1      -8.431  13.958  71.229  1.00  0.00     6.885 A  
HETATM   16  I   UNL     1      -9.197  16.752  70.525  1.00  0.00     4.450 I  
BRANCH  13  17
HETATM   17  O   UNL     1      -7.197  15.408  68.039  1.00  0.00    -0.108 OA 
BRANCH  17  18
HETATM   18  C   UNL     1      -7.692  16.676  67.870  1.00  0.00    -0.161 A  
HETATM   19  C   UNL     1      -6.689  17.624  67.609  1.00  0.00    -0.182 A  
HETATM   20  C   UNL     1      -7.004  18.971  67.424  1.00  0.00    -0.204 A  
HETATM   21  I   UNL     1      -5.444  20.307  67.046  1.00  0.00    -0.214 I  
HETATM   22  C   UNL     1      -8.332  19.390  67.513  1.00  0.00    -0.291 A  
HETATM   23  C   UNL     1      -9.335  18.446  67.769  1.00  0.00    -0.274 A  
HETATM   24  O   UNL     1      -8.657  20.714  67.345  1.00  0.00    -0.374 OA 
HETATM   25  H   UNL     1      -9.562  20.999  67.406  1.00  0.00     0.000 HD 
HETATM   26  I   UNL     1     -11.336  19.030  68.006  1.00  0.00     2.155 I  
HETATM   27  C   UNL     1      -9.023  17.083  67.911  1.00  0.00    -0.228 A  
ENDBRANCH  17  18
ENDBRANCH  13  17
ENDBRANCH   8   9
ENDBRANCH   4   8
TORSDOF 4
ENDMDL
MODEL      304
REMARK 921   NORMALIZED FREE ENERGY PREDICTED BY IDOCK:   45.12 KCAL/MOL
REMARK 922        TOTAL FREE ENERGY PREDICTED BY IDOCK:   54.92 KCAL/MOL
REMARK 923 INTER-LIGAND FREE ENERGY PREDICTED BY IDOCK:   52.45 KCAL/MOL
REMARK 924 INTRA-LIGAND FREE ENERGY PREDICTED BY IDOCK:    2.47 KCAL/MOL
REMARK 927      BINDING AFFINITY PREDICTED BY RF-SCORE:    0.00 PKD
ROOT
HETATM    1  N   UNL     1     -13.339   9.601  71.562  1.00  0.00    -0.386 NA 
HETATM    2  H1  UNL     1     -12.978   8.752  71.996  1.00  0.00     0.000 HD 
HETATM    3  H2  UNL     1     -12.919   9.738  70.643  1.00  0.00     0.000 HD 
HETATM    4  CA  UNL     1     -13.184  10.830  72.398  1.00  0.00     0.188 C  
HETATM    5  C   UNL     1     -11.680  11.012  72.687  1.00  0.00     5.011 C  
HETATM    6  OXT UNL     1     -11.142  12.054  73.025  1.00  0.00     9.617 OA 
HETATM    7  O   UNL     1     -11.004   9.842  72.533  1.00  0.00     1.741 OA 
ENDROOT
BRANCH   4   8
HETATM    8  C   UNL     1     -13.730  12.113  71.742  1.00  0.00     0.173 C  
BRANCH   8   9
HETATM    9  C   UNL     1     -12.876  12.752  70.663  1.00  0.00    -0.034 A  
HETATM   10  C   UNL     1     -13.431  13.390  69.553  1.00  0.00     2.738 A  
HETATM   11  C   UNL     1     -12.601  13.972  68.584  1.00  0.00     0.510 A  
HETATM   12  I   UNL     1     -13.558  14.861  66.923  1.00  0.00     8.186 I  
HETATM   13  C   UNL     1     -11.192  13.936  68.685  1.00  0.00    -0.270 A  
HETATM   14  C   UNL     1     -10.638  13.315  69.813  1.00  0.00     0.709 A  
HETATM   15  C   UNL     1     -11.480  12.754  70.796  1.00  0.00     0.973 A  
HETATM   16  I   UNL     1      -8.582  13.013  70.145  1.00  0.00     5.691 I  
BRANCH  13  17
HETATM   17  O   UNL     1     -10.498  14.250  67.540  1.00  0.00    -0.250 OA 
BRANCH  17  18
HETATM   18  C   UNL     1     -10.141  15.520  67.160  1.00  0.00    -0.254 A  
HETATM   19  C   UNL     1     -10.325  15.751  65.788  1.00  0.00    -0.390 A  
HETATM   20  C   UNL     1     -10.001  16.982  65.216  1.00  0.00     0.479 A  
HETATM   21  I   UNL     1     -10.304  17.230  63.165  1.00  0.00    18.912 I  
HETATM   22  C   UNL     1      -9.473  17.997  66.014  1.00  0.00    -0.040 A  
HETATM   23  C   UNL     1      -9.293  17.772  67.385  1.00  0.00    -0.252 A  
HETATM   24  O   UNL     1      -9.138  19.212  65.466  1.00  0.00    -0.141 OA 
HETATM   25  H   UNL     1      -8.778  19.903  66.009  1.00  0.00     0.000 HD 
HETATM   26  I   UNL     1      -8.418  19.227  68.617  1.00  0.00    -0.232 I  
HETATM   27  C   UNL     1      -9.660  16.547  67.968  1.00  0.00    -0.227 A  
ENDBRANCH  17  18
ENDBRANCH  13  17
ENDBRANCH   8   9
ENDBRANCH   4   8
TORSDOF 4
ENDMDL
