MODEL        1
REMARK 921   NORMALIZED FREE ENERGY PREDICTED BY IDOCK:   -6.39 KCAL/MOL
REMARK 922        TOTAL FREE ENERGY PREDICTED BY IDOCK:   -6.83 KCAL/MOL
REMARK 923 INTER-LIGAND FREE ENERGY PREDICTED BY IDOCK:   -6.77 KCAL/MOL
REMARK 924 INTRA-LIGAND FREE ENERGY PREDICTED BY IDOCK:   -0.06 KCAL/MOL
REMARK 927      BINDING AFFINITY PREDICTED BY RF-SCORE:    0.00 PKD
ROOT
HETATM    1  C   UNL     1     -10.041   7.756  69.616  1.00  0.00    -0.196 C  
HETATM    2  C   UNL     1     -10.464   9.125  69.017  1.00  0.00    -0.238 C  
HETATM    3  C   UNL     1     -11.423  10.002  69.785  1.00  0.00    -0.240 A  
HETATM    4  C   UNL     1     -12.156   9.477  70.845  1.00  0.00    -0.357 A  
HETATM    5  C   UNL     1     -12.867  10.331  71.696  1.00  0.00    -0.568 A  
HETATM    6  C   UNL     1     -11.966   8.043  71.179  1.00  0.00    -0.297 C  
HETATM    7  C   UNL     1     -11.252   7.907  72.953  1.00  0.00    -0.429 C  
HETATM    8  C   UNL     1     -13.067   7.158  71.342  1.00  0.00    -0.408 C  
HETATM    9  C   UNL     1     -12.895  11.706  71.474  1.00  0.00    -0.364 A  
HETATM   10  C   UNL     1     -10.237   6.409  73.331  1.00  0.00    -0.248 C  
HETATM   11  C   UNL     1     -12.272  12.218  70.338  1.00  0.00    -0.371 A  
HETATM   12  C   UNL     1     -11.790   6.369  71.565  1.00  0.00    -0.355 C  
HETATM   13  C   UNL     1     -11.153   6.919  69.759  1.00  0.00    -0.316 C  
HETATM   14  N   UNL     1     -10.088   7.256  71.046  1.00  0.00    -0.192 NA 
HETATM   15  C   UNL     1     -11.547  11.368  69.493  1.00  0.00    -0.399 A  
HETATM   16  C   UNL     1      -9.094   8.184  71.672  1.00  0.00    -0.163 C  
HETATM   17  C   UNL     1      -9.818   5.169  72.059  1.00  0.00    -0.221 C  
HETATM   18  C   UNL     1     -10.231   5.299  70.268  1.00  0.00    -0.345 C  
ENDROOT
BRANCH   9  19
HETATM   19  O   UNL     1     -13.533  12.422  72.449  1.00  0.00    -0.503 OA 
HETATM   20  C   UNL     1     -13.558  13.835  72.304  1.00  0.00    -0.559 C  
ENDBRANCH   9  19
TORSDOF 1
ENDMDL
MODEL        2
REMARK 921   NORMALIZED FREE ENERGY PREDICTED BY IDOCK:   -6.39 KCAL/MOL
REMARK 922        TOTAL FREE ENERGY PREDICTED BY IDOCK:   -6.83 KCAL/MOL
REMARK 923 INTER-LIGAND FREE ENERGY PREDICTED BY IDOCK:   -6.77 KCAL/MOL
REMARK 924 INTRA-LIGAND FREE ENERGY PREDICTED BY IDOCK:   -0.06 KCAL/MOL
REMARK 927      BINDING AFFINITY PREDICTED BY RF-SCORE:    0.00 PKD
ROOT
HETATM    1  C   UNL     1     -10.389  16.936  69.049  1.00  0.00    -0.333 C  
HETATM    2  C   UNL     1     -11.326  15.722  68.803  1.00  0.00    -0.362 C  
HETATM    3  C   UNL     1     -11.332  15.055  67.449  1.00  0.00    -0.338 A  
HETATM    4  C   UNL     1     -10.754  15.691  66.354  1.00  0.00    -0.291 A  
HETATM    5  C   UNL     1     -10.555  14.987  65.160  1.00  0.00    -0.440 A  
HETATM    6  C   UNL     1     -10.151  17.030  66.566  1.00  0.00    -0.318 C  
HETATM    7  C   UNL     1      -8.272  16.933  66.194  1.00  0.00    -0.295 C  
HETATM    8  C   UNL     1     -10.460  18.134  65.725  1.00  0.00    -0.215 C  
HETATM    9  C   UNL     1     -10.970  13.664  65.029  1.00  0.00    -0.346 A  
HETATM   10  C   UNL     1      -7.185  18.146  67.067  1.00  0.00    -0.221 C  
HETATM   11  C   UNL     1     -11.667  13.069  66.078  1.00  0.00    -0.442 A  
HETATM   12  C   UNL     1      -9.474  18.605  66.778  1.00  0.00    -0.324 C  
HETATM   13  C   UNL     1     -10.728  17.996  68.201  1.00  0.00    -0.267 C  
HETATM   14  N   UNL     1      -9.143  17.377  68.307  1.00  0.00    -0.264 NA 
HETATM   15  C   UNL     1     -11.854  13.766  67.279  1.00  0.00    -0.436 A  
HETATM   16  C   UNL     1      -8.240  16.225  68.618  1.00  0.00    -0.214 C  
HETATM   17  C   UNL     1      -7.829  19.308  68.319  1.00  0.00    -0.354 C  
HETATM   18  C   UNL     1      -9.562  19.345  68.946  1.00  0.00    -0.477 C  
ENDROOT
BRANCH   9  19
HETATM   19  O   UNL     1     -10.608  13.073  63.850  1.00  0.00    -0.396 OA 
HETATM   20  C   UNL     1     -10.892  11.689  63.704  1.00  0.00    -0.432 C  
ENDBRANCH   9  19
TORSDOF 1
ENDMDL
MODEL        3
REMARK 921   NORMALIZED FREE ENERGY PREDICTED BY IDOCK:   -6.25 KCAL/MOL
REMARK 922        TOTAL FREE ENERGY PREDICTED BY IDOCK:   -6.68 KCAL/MOL
REMARK 923 INTER-LIGAND FREE ENERGY PREDICTED BY IDOCK:   -6.62 KCAL/MOL
REMARK 924 INTRA-LIGAND FREE ENERGY PREDICTED BY IDOCK:   -0.06 KCAL/MOL
REMARK 927      BINDING AFFINITY PREDICTED BY RF-SCORE:    0.00 PKD
ROOT
HETATM    1  C   UNL     1     -11.241  15.899  68.977  1.00  0.00    -0.327 C  
HETATM    2  C   UNL     1     -12.252  15.487  70.081  1.00  0.00    -0.404 C  
HETATM    3  C   UNL     1     -12.462  14.022  70.381  1.00  0.00    -0.418 A  
HETATM    4  C   UNL     1     -12.007  13.054  69.491  1.00  0.00    -0.350 A  
HETATM    5  C   UNL     1     -11.995  11.706  69.869  1.00  0.00    -0.414 A  
HETATM    6  C   UNL     1     -11.326  13.511  68.255  1.00  0.00    -0.328 C  
HETATM    7  C   UNL     1      -9.518  12.873  68.268  1.00  0.00    -0.206 C  
HETATM    8  C   UNL     1     -11.696  13.025  66.971  1.00  0.00    -0.441 C  
HETATM    9  C   UNL     1     -12.479  11.305  71.112  1.00  0.00    -0.373 A  
HETATM   10  C   UNL     1      -8.276  13.866  67.325  1.00  0.00    -0.176 C  
HETATM   11  C   UNL     1     -13.057  12.255  71.950  1.00  0.00    -0.469 A  
HETATM   12  C   UNL     1     -10.562  14.017  66.790  1.00  0.00    -0.277 C  
HETATM   13  C   UNL     1     -11.643  15.400  67.733  1.00  0.00    -0.237 C  
HETATM   14  N   UNL     1     -10.086  15.128  68.370  1.00  0.00    -0.221 NA 
HETATM   15  C   UNL     1     -13.056  13.608  71.581  1.00  0.00    -0.455 A  
HETATM   16  C   UNL     1      -9.198  15.013  69.570  1.00  0.00    -0.059 C  
HETATM   17  C   UNL     1      -8.702  15.446  66.516  1.00  0.00    -0.335 C  
HETATM   18  C   UNL     1     -10.334  16.293  66.627  1.00  0.00    -0.302 C  
ENDROOT
BRANCH   9  19
HETATM   19  O   UNL     1     -12.299   9.977  71.386  1.00  0.00    -0.355 OA 
HETATM   20  C   UNL     1     -13.306   9.330  72.150  1.00  0.00    -0.468 C  
ENDBRANCH   9  19
TORSDOF 1
ENDMDL
MODEL        4
REMARK 921   NORMALIZED FREE ENERGY PREDICTED BY IDOCK:   -6.14 KCAL/MOL
REMARK 922        TOTAL FREE ENERGY PREDICTED BY IDOCK:   -6.56 KCAL/MOL
REMARK 923 INTER-LIGAND FREE ENERGY PREDICTED BY IDOCK:   -6.49 KCAL/MOL
REMARK 924 INTRA-LIGAND FREE ENERGY PREDICTED BY IDOCK:   -0.07 KCAL/MOL
REMARK 927      BINDING AFFINITY PREDICTED BY RF-SCORE:    0.00 PKD
ROOT
HETATM    1  C   UNL     1      -9.052  16.534  65.835  1.00  0.00    -0.153 C  
HETATM    2  C   UNL     1      -9.834  15.270  66.283  1.00  0.00    -0.316 C  
HETATM    3  C   UNL     1     -10.503  15.255  67.636  1.00  0.00    -0.263 A  
HETATM    4  C   UNL     1     -10.175  16.215  68.589  1.00  0.00    -0.244 A  
HETATM    5  C   UNL     1     -10.949  16.345  69.748  1.00  0.00    -0.341 A  
HETATM    6  C   UNL     1      -9.152  17.229  68.231  1.00  0.00    -0.262 C  
HETATM    7  C   UNL     1      -9.963  18.967  68.260  1.00  0.00    -0.459 C  
HETATM    8  C   UNL     1      -8.048  17.514  69.079  1.00  0.00    -0.077 C  
HETATM    9  C   UNL     1     -12.023  15.493  69.993  1.00  0.00    -0.364 A  
HETATM   10  C   UNL     1      -9.212  20.256  67.168  1.00  0.00    -0.519 C  
HETATM   11  C   UNL     1     -12.271  14.448  69.106  1.00  0.00    -0.255 A  
HETATM   12  C   UNL     1      -7.940  18.400  67.851  1.00  0.00    -0.269 C  
HETATM   13  C   UNL     1      -7.976  16.776  66.697  1.00  0.00    -0.306 C  
HETATM   14  N   UNL     1      -9.140  17.965  66.327  1.00  0.00    -0.451 NA 
HETATM   15  C   UNL     1     -11.508  14.325  67.937  1.00  0.00    -0.341 A  
HETATM   16  C   UNL     1     -10.534  18.297  65.893  1.00  0.00    -0.307 C  
HETATM   17  C   UNL     1      -7.845  19.884  66.018  1.00  0.00    -0.335 C  
HETATM   18  C   UNL     1      -7.135  18.211  65.712  1.00  0.00    -0.256 C  
ENDROOT
BRANCH   9  19
HETATM   19  O   UNL     1     -12.753  15.811  71.105  1.00  0.00    -0.471 OA 
HETATM   20  C   UNL     1     -12.047  15.936  72.330  1.00  0.00    -0.506 C  
ENDBRANCH   9  19
TORSDOF 1
ENDMDL
MODEL        5
REMARK 921   NORMALIZED FREE ENERGY PREDICTED BY IDOCK:   -5.96 KCAL/MOL
REMARK 922        TOTAL FREE ENERGY PREDICTED BY IDOCK:   -6.37 KCAL/MOL
REMARK 923 INTER-LIGAND FREE ENERGY PREDICTED BY IDOCK:   -6.30 KCAL/MOL
REMARK 924 INTRA-LIGAND FREE ENERGY PREDICTED BY IDOCK:   -0.07 KCAL/MOL
REMARK 927      BINDING AFFINITY PREDICTED BY RF-SCORE:    0.00 PKD
ROOT
HETATM    1  C   UNL     1      -9.545  14.313  65.339  1.00  0.00     0.047 C  
HETATM    2  C   UNL     1      -9.557  15.675  66.084  1.00  0.00    -0.362 C  
HETATM    3  C   UNL     1     -10.449  15.850  67.290  1.00  0.00    -0.310 A  
HETATM    4  C   UNL     1     -11.464  14.934  67.547  1.00  0.00    -0.361 A  
HETATM    5  C   UNL     1     -12.138  14.962  68.774  1.00  0.00    -0.212 A  
HETATM    6  C   UNL     1     -11.637  13.804  66.601  1.00  0.00    -0.392 C  
HETATM    7  C   UNL     1     -11.323  12.158  67.534  1.00  0.00    -0.392 C  
HETATM    8  C   UNL     1     -12.904  13.476  66.047  1.00  0.00    -0.169 C  
HETATM    9  C   UNL     1     -11.843  15.928  69.733  1.00  0.00    -0.295 A  
HETATM   10  C   UNL     1     -10.726  10.728  66.527  1.00  0.00    -0.245 C  
HETATM   11  C   UNL     1     -10.922  16.926  69.424  1.00  0.00    -0.081 A  
HETATM   12  C   UNL     1     -11.883  12.498  65.497  1.00  0.00    -0.491 C  
HETATM   13  C   UNL     1     -10.810  14.031  64.812  1.00  0.00    -0.430 C  
HETATM   14  N   UNL     1      -9.968  12.936  65.809  1.00  0.00    -0.272 NA 
HETATM   15  C   UNL     1     -10.234  16.891  68.204  1.00  0.00    -0.311 A  
HETATM   16  C   UNL     1      -8.947  12.708  66.881  1.00  0.00    -0.213 C  
HETATM   17  C   UNL     1     -10.328  10.885  64.752  1.00  0.00    -0.391 C  
HETATM   18  C   UNL     1     -10.352  12.456  63.790  1.00  0.00    -0.454 C  
ENDROOT
BRANCH   9  19
HETATM   19  O   UNL     1     -12.500  15.762  70.921  1.00  0.00    -0.431 OA 
HETATM   20  C   UNL     1     -11.824  16.179  72.099  1.00  0.00    -0.536 C  
ENDBRANCH   9  19
TORSDOF 1
ENDMDL
MODEL        6
REMARK 921   NORMALIZED FREE ENERGY PREDICTED BY IDOCK:   -5.92 KCAL/MOL
REMARK 922        TOTAL FREE ENERGY PREDICTED BY IDOCK:   -6.33 KCAL/MOL
REMARK 923 INTER-LIGAND FREE ENERGY PREDICTED BY IDOCK:   -6.25 KCAL/MOL
REMARK 924 INTRA-LIGAND FREE ENERGY PREDICTED BY IDOCK:   -0.08 KCAL/MOL
REMARK 927      BINDING AFFINITY PREDICTED BY RF-SCORE:    0.00 PKD
ROOT
HETATM    1  C   UNL     1     -10.710  13.219  68.695  1.00  0.00    -0.259 C  
HETATM    2  C   UNL     1     -10.563  11.691  68.457  1.00  0.00    -0.241 C  
HETATM    3  C   UNL     1     -10.480  11.168  67.043  1.00  0.00    -0.277 A  
HETATM    4  C   UNL     1     -10.836  11.984  65.974  1.00  0.00    -0.329 A  
HETATM    5  C   UNL     1     -10.546  11.588  64.663  1.00  0.00    -0.369 A  
HETATM    6  C   UNL     1     -11.302  13.361  66.274  1.00  0.00    -0.329 C  
HETATM    7  C   UNL     1     -10.084  14.616  65.489  1.00  0.00    -0.405 C  
HETATM    8  C   UNL     1     -12.504  13.883  65.724  1.00  0.00    -0.530 C  
HETATM    9  C   UNL     1      -9.944  10.359  64.402  1.00  0.00    -0.318 A  
HETATM   10  C   UNL     1      -9.957  16.274  66.296  1.00  0.00    -0.335 C  
HETATM   11  C   UNL     1      -9.707   9.485  65.460  1.00  0.00    -0.344 A  
HETATM   12  C   UNL     1     -11.882  14.956  66.599  1.00  0.00    -0.167 C  
HETATM   13  C   UNL     1     -11.904  13.689  68.137  1.00  0.00    -0.407 C  
HETATM   14  N   UNL     1     -10.390  14.387  67.785  1.00  0.00    -0.236 NA 
HETATM   15  C   UNL     1      -9.983   9.886  66.774  1.00  0.00    -0.272 A  
HETATM   16  C   UNL     1      -8.904  14.233  67.688  1.00  0.00    -0.196 C  
HETATM   17  C   UNL     1     -10.846  16.677  67.839  1.00  0.00    -0.321 C  
HETATM   18  C   UNL     1     -11.854  15.493  68.828  1.00  0.00    -0.335 C  
ENDROOT
BRANCH   9  19
HETATM   19  O   UNL     1      -9.618  10.158  63.088  1.00  0.00    -0.300 OA 
HETATM   20  C   UNL     1      -8.819  11.150  62.460  1.00  0.00    -0.281 C  
ENDBRANCH   9  19
TORSDOF 1
ENDMDL
MODEL        7
REMARK 921   NORMALIZED FREE ENERGY PREDICTED BY IDOCK:   -5.75 KCAL/MOL
REMARK 922        TOTAL FREE ENERGY PREDICTED BY IDOCK:   -6.16 KCAL/MOL
REMARK 923 INTER-LIGAND FREE ENERGY PREDICTED BY IDOCK:   -6.08 KCAL/MOL
REMARK 924 INTRA-LIGAND FREE ENERGY PREDICTED BY IDOCK:   -0.07 KCAL/MOL
REMARK 927      BINDING AFFINITY PREDICTED BY RF-SCORE:    0.00 PKD
ROOT
HETATM    1  C   UNL     1     -11.622  11.719  67.746  1.00  0.00    -0.304 C  
HETATM    2  C   UNL     1     -11.908  12.532  69.037  1.00  0.00    -0.344 C  
HETATM    3  C   UNL     1     -11.339  13.924  69.175  1.00  0.00    -0.331 A  
HETATM    4  C   UNL     1     -10.331  14.355  68.318  1.00  0.00    -0.239 A  
HETATM    5  C   UNL     1      -9.963  15.706  68.293  1.00  0.00    -0.213 A  
HETATM    6  C   UNL     1      -9.840  13.406  67.288  1.00  0.00    -0.233 C  
HETATM    7  C   UNL     1     -10.208  14.129  65.551  1.00  0.00    -0.371 C  
HETATM    8  C   UNL     1      -8.454  13.149  67.104  1.00  0.00    -0.173 C  
HETATM    9  C   UNL     1     -10.560  16.628  69.150  1.00  0.00    -0.340 A  
HETATM   10  C   UNL     1     -10.423  12.918  64.171  1.00  0.00    -0.429 C  
HETATM   11  C   UNL     1     -11.473  16.175  70.099  1.00  0.00    -0.309 A  
HETATM   12  C   UNL     1      -9.227  12.309  66.103  1.00  0.00    -0.132 C  
HETATM   13  C   UNL     1     -10.248  11.490  67.605  1.00  0.00    -0.205 C  
HETATM   14  N   UNL     1     -11.194  12.186  66.369  1.00  0.00    -0.315 NA 
HETATM   15  C   UNL     1     -11.854  14.826  70.117  1.00  0.00    -0.360 A  
HETATM   16  C   UNL     1     -12.409  12.967  65.977  1.00  0.00    -0.319 C  
HETATM   17  C   UNL     1     -10.412  11.114  64.448  1.00  0.00    -0.418 C  
HETATM   18  C   UNL     1     -10.311  10.288  66.092  1.00  0.00    -0.253 C  
ENDROOT
BRANCH   9  19
HETATM   19  O   UNL     1     -10.184  17.925  68.932  1.00  0.00    -0.374 OA 
HETATM   20  C   UNL     1     -10.422  18.461  67.639  1.00  0.00    -0.419 C  
ENDBRANCH   9  19
TORSDOF 1
ENDMDL
MODEL        8
REMARK 921   NORMALIZED FREE ENERGY PREDICTED BY IDOCK:   -5.74 KCAL/MOL
REMARK 922        TOTAL FREE ENERGY PREDICTED BY IDOCK:   -6.14 KCAL/MOL
REMARK 923 INTER-LIGAND FREE ENERGY PREDICTED BY IDOCK:   -6.08 KCAL/MOL
REMARK 924 INTRA-LIGAND FREE ENERGY PREDICTED BY IDOCK:   -0.06 KCAL/MOL
REMARK 927      BINDING AFFINITY PREDICTED BY RF-SCORE:    0.00 PKD
ROOT
HETATM    1  C   UNL     1     -12.011  14.413  68.701  1.00  0.00    -0.297 C  
HETATM    2  C   UNL     1     -11.770  15.933  68.908  1.00  0.00    -0.376 C  
HETATM    3  C   UNL     1     -10.611  16.599  68.207  1.00  0.00    -0.338 A  
HETATM    4  C   UNL     1      -9.599  15.829  67.641  1.00  0.00    -0.220 A  
HETATM    5  C   UNL     1      -8.651  16.425  66.801  1.00  0.00    -0.270 A  
HETATM    6  C   UNL     1      -9.699  14.353  67.762  1.00  0.00    -0.221 C  
HETATM    7  C   UNL     1      -9.844  13.594  66.007  1.00  0.00    -0.290 C  
HETATM    8  C   UNL     1      -8.613  13.563  68.228  1.00  0.00    -0.168 C  
HETATM    9  C   UNL     1      -8.673  17.795  66.553  1.00  0.00    -0.257 A  
HETATM   10  C   UNL     1     -10.718  11.971  65.869  1.00  0.00    -0.314 C  
HETATM   11  C   UNL     1      -9.603  18.588  67.222  1.00  0.00    -0.305 A  
HETATM   12  C   UNL     1      -9.773  12.634  67.918  1.00  0.00    -0.216 C  
HETATM   13  C   UNL     1     -10.919  13.675  69.173  1.00  0.00    -0.235 C  
HETATM   14  N   UNL     1     -11.540  13.488  67.597  1.00  0.00    -0.318 NA 
HETATM   15  C   UNL     1     -10.562  17.992  68.053  1.00  0.00    -0.361 A  
HETATM   16  C   UNL     1     -12.285  14.076  66.439  1.00  0.00    -0.460 C  
HETATM   17  C   UNL     1     -11.520  11.172  67.300  1.00  0.00    -0.218 C  
HETATM   18  C   UNL     1     -11.667  11.903  68.985  1.00  0.00    -0.391 C  
ENDROOT
BRANCH   9  19
HETATM   19  O   UNL     1      -7.759  18.215  65.626  1.00  0.00    -0.532 OA 
HETATM   20  C   UNL     1      -7.250  19.534  65.768  1.00  0.00    -0.295 C  
ENDBRANCH   9  19
TORSDOF 1
ENDMDL
MODEL        9
REMARK 921   NORMALIZED FREE ENERGY PREDICTED BY IDOCK:   -5.73 KCAL/MOL
REMARK 922        TOTAL FREE ENERGY PREDICTED BY IDOCK:   -6.13 KCAL/MOL
REMARK 923 INTER-LIGAND FREE ENERGY PREDICTED BY IDOCK:   -6.04 KCAL/MOL
REMARK 924 INTRA-LIGAND FREE ENERGY PREDICTED BY IDOCK:   -0.08 KCAL/MOL
REMARK 927      BINDING AFFINITY PREDICTED BY RF-SCORE:    0.00 PKD
ROOT
HETATM    1  C   UNL     1     -11.043  15.591  69.437  1.00  0.00    -0.291 C  
HETATM    2  C   UNL     1     -11.711  14.370  70.124  1.00  0.00    -0.361 C  
HETATM    3  C   UNL     1     -11.694  13.030  69.428  1.00  0.00    -0.386 A  
HETATM    4  C   UNL     1     -11.371  12.948  68.077  1.00  0.00    -0.333 A  
HETATM    5  C   UNL     1     -11.132  11.700  67.489  1.00  0.00    -0.333 A  
HETATM    6  C   UNL     1     -11.058  14.208  67.359  1.00  0.00    -0.318 C  
HETATM    7  C   UNL     1      -9.245  14.137  66.739  1.00  0.00    -0.282 C  
HETATM    8  C   UNL     1     -11.675  14.540  66.123  1.00  0.00    -0.355 C  
HETATM    9  C   UNL     1     -11.258  10.524  68.224  1.00  0.00    -0.291 A  
HETATM   10  C   UNL     1      -8.374  15.753  66.521  1.00  0.00    -0.313 C  
HETATM   11  C   UNL     1     -11.711  10.596  69.540  1.00  0.00    -0.356 A  
HETATM   12  C   UNL     1     -10.724  15.664  66.491  1.00  0.00    -0.293 C  
HETATM   13  C   UNL     1     -11.681  15.882  68.225  1.00  0.00    -0.191 C  
HETATM   14  N   UNL     1      -9.997  15.648  68.342  1.00  0.00    -0.208 NA 
HETATM   15  C   UNL     1     -11.936  11.844  70.136  1.00  0.00    -0.413 A  
HETATM   16  C   UNL     1      -8.839  15.033  69.065  1.00  0.00    -0.205 C  
HETATM   17  C   UNL     1      -9.140  17.344  66.984  1.00  0.00    -0.251 C  
HETATM   18  C   UNL     1     -10.774  17.538  67.812  1.00  0.00    -0.333 C  
ENDROOT
BRANCH   9  19
HETATM   19  O   UNL     1     -10.884   9.394  67.550  1.00  0.00    -0.269 OA 
HETATM   20  C   UNL     1      -9.967   9.553  66.477  1.00  0.00    -0.261 C  
ENDBRANCH   9  19
TORSDOF 1
ENDMDL
MODEL       10
REMARK 921   NORMALIZED FREE ENERGY PREDICTED BY IDOCK:   -5.59 KCAL/MOL
REMARK 922        TOTAL FREE ENERGY PREDICTED BY IDOCK:   -5.98 KCAL/MOL
REMARK 923 INTER-LIGAND FREE ENERGY PREDICTED BY IDOCK:   -5.91 KCAL/MOL
REMARK 924 INTRA-LIGAND FREE ENERGY PREDICTED BY IDOCK:   -0.07 KCAL/MOL
REMARK 927      BINDING AFFINITY PREDICTED BY RF-SCORE:    0.00 PKD
ROOT
HETATM    1  C   UNL     1     -11.903   7.877  72.446  1.00  0.00    -0.348 C  
HETATM    2  C   UNL     1     -12.402   9.300  72.077  1.00  0.00    -0.433 C  
HETATM    3  C   UNL     1     -11.678  10.083  71.008  1.00  0.00    -0.479 A  
HETATM    4  C   UNL     1     -10.416   9.682  70.582  1.00  0.00    -0.379 A  
HETATM    5  C   UNL     1      -9.844  10.262  69.443  1.00  0.00    -0.247 A  
HETATM    6  C   UNL     1      -9.818   8.480  71.214  1.00  0.00    -0.279 C  
HETATM    7  C   UNL     1      -9.568   7.131  69.874  1.00  0.00    -0.163 C  
HETATM    8  C   UNL     1      -8.496   8.486  71.736  1.00  0.00    -0.236 C  
HETATM    9  C   UNL     1     -10.499  11.277  68.749  1.00  0.00    -0.208 A  
HETATM   10  C   UNL     1      -9.582   5.373  70.446  1.00  0.00    -0.233 C  
HETATM   11  C   UNL     1     -11.700  11.771  69.251  1.00  0.00    -0.398 A  
HETATM   12  C   UNL     1      -9.084   7.105  71.959  1.00  0.00    -0.142 C  
HETATM   13  C   UNL     1     -10.600   7.930  72.953  1.00  0.00    -0.434 C  
HETATM   14  N   UNL     1     -11.041   6.908  71.662  1.00  0.00    -0.234 NA 
HETATM   15  C   UNL     1     -12.282  11.182  70.382  1.00  0.00    -0.457 A  
HETATM   16  C   UNL     1     -11.957   6.624  70.514  1.00  0.00    -0.316 C  
HETATM   17  C   UNL     1      -9.938   4.915  72.177  1.00  0.00    -0.235 C  
HETATM   18  C   UNL     1     -10.432   6.087  73.510  1.00  0.00    -0.275 C  
ENDROOT
BRANCH   9  19
HETATM   19  O   UNL     1      -9.874  11.666  67.596  1.00  0.00    -0.181 OA 
HETATM   20  C   UNL     1     -10.276  11.026  66.393  1.00  0.00    -0.236 C  
ENDBRANCH   9  19
TORSDOF 1
ENDMDL
MODEL       11
REMARK 921   NORMALIZED FREE ENERGY PREDICTED BY IDOCK:   -5.55 KCAL/MOL
REMARK 922        TOTAL FREE ENERGY PREDICTED BY IDOCK:   -5.94 KCAL/MOL
REMARK 923 INTER-LIGAND FREE ENERGY PREDICTED BY IDOCK:   -5.88 KCAL/MOL
REMARK 924 INTRA-LIGAND FREE ENERGY PREDICTED BY IDOCK:   -0.06 KCAL/MOL
REMARK 927      BINDING AFFINITY PREDICTED BY RF-SCORE:    0.00 PKD
ROOT
HETATM    1  C   UNL     1      -8.923  13.447  66.969  1.00  0.00    -0.224 C  
HETATM    2  C   UNL     1      -8.966  14.772  67.777  1.00  0.00    -0.182 C  
HETATM    3  C   UNL     1     -10.177  15.082  68.625  1.00  0.00    -0.231 A  
HETATM    4  C   UNL     1     -11.355  14.363  68.450  1.00  0.00    -0.312 A  
HETATM    5  C   UNL     1     -12.396  14.488  69.378  1.00  0.00    -0.213 A  
HETATM    6  C   UNL     1     -11.376  13.304  67.410  1.00  0.00    -0.337 C  
HETATM    7  C   UNL     1     -11.680  11.609  68.254  1.00  0.00    -0.374 C  
HETATM    8  C   UNL     1     -12.410  13.227  66.438  1.00  0.00    -0.347 C  
HETATM    9  C   UNL     1     -12.294  15.363  70.457  1.00  0.00    -0.408 A  
HETATM   10  C   UNL     1     -11.017  10.116  67.390  1.00  0.00    -0.295 C  
HETATM   11  C   UNL     1     -11.171  16.181  70.559  1.00  0.00    -0.381 A  
HETATM   12  C   UNL     1     -11.438  12.090  66.182  1.00  0.00    -0.401 C  
HETATM   13  C   UNL     1      -9.957  13.414  66.027  1.00  0.00    -0.300 C  
HETATM   14  N   UNL     1      -9.704  12.162  67.154  1.00  0.00    -0.197 NA 
HETATM   15  C   UNL     1     -10.121  16.046  69.641  1.00  0.00    -0.244 A  
HETATM   16  C   UNL     1      -9.168  11.727  68.483  1.00  0.00    -0.151 C  
HETATM   17  C   UNL     1     -10.012  10.235  65.870  1.00  0.00    -0.321 C  
HETATM   18  C   UNL     1      -9.442  11.804  65.090  1.00  0.00    -0.109 C  
ENDROOT
BRANCH   9  19
HETATM   19  O   UNL     1     -13.338  15.294  71.339  1.00  0.00    -0.419 OA 
HETATM   20  C   UNL     1     -13.116  14.591  72.553  1.00  0.00    -0.431 C  
ENDBRANCH   9  19
TORSDOF 1
ENDMDL
MODEL       12
REMARK 921   NORMALIZED FREE ENERGY PREDICTED BY IDOCK:   -5.53 KCAL/MOL
REMARK 922        TOTAL FREE ENERGY PREDICTED BY IDOCK:   -5.92 KCAL/MOL
REMARK 923 INTER-LIGAND FREE ENERGY PREDICTED BY IDOCK:   -5.86 KCAL/MOL
REMARK 924 INTRA-LIGAND FREE ENERGY PREDICTED BY IDOCK:   -0.06 KCAL/MOL
REMARK 927      BINDING AFFINITY PREDICTED BY RF-SCORE:    0.00 PKD
ROOT
HETATM    1  C   UNL     1      -6.832  17.203  67.965  1.00  0.00    -0.169 C  
HETATM    2  C   UNL     1      -7.110  15.675  67.931  1.00  0.00    -0.153 C  
HETATM    3  C   UNL     1      -8.478  15.182  67.527  1.00  0.00    -0.185 A  
HETATM    4  C   UNL     1      -9.555  16.062  67.487  1.00  0.00    -0.222 A  
HETATM    5  C   UNL     1     -10.762  15.666  66.899  1.00  0.00    -0.307 A  
HETATM    6  C   UNL     1      -9.311  17.478  67.860  1.00  0.00    -0.265 C  
HETATM    7  C   UNL     1      -9.671  18.592  66.341  1.00  0.00    -0.363 C  
HETATM    8  C   UNL     1     -10.130  18.158  68.801  1.00  0.00    -0.392 C  
HETATM    9  C   UNL     1     -10.924  14.379  66.390  1.00  0.00    -0.319 A  
HETATM   10  C   UNL     1      -8.765  20.201  66.253  1.00  0.00    -0.283 C  
HETATM   11  C   UNL     1      -9.893  13.456  66.548  1.00  0.00    -0.286 A  
HETATM   12  C   UNL     1      -9.061  19.123  68.323  1.00  0.00    -0.385 C  
HETATM   13  C   UNL     1      -7.660  17.831  68.903  1.00  0.00    -0.223 C  
HETATM   14  N   UNL     1      -7.556  18.345  67.281  1.00  0.00    -0.220 NA 
HETATM   15  C   UNL     1      -8.679  13.855  67.123  1.00  0.00    -0.233 A  
HETATM   16  C   UNL     1      -7.263  18.012  65.851  1.00  0.00    -0.243 C  
HETATM   17  C   UNL     1      -7.493  20.671  67.475  1.00  0.00    -0.353 C  
HETATM   18  C   UNL     1      -6.878  19.597  68.839  1.00  0.00    -0.377 C  
ENDROOT
BRANCH   9  19
HETATM   19  O   UNL     1     -12.113  14.173  65.746  1.00  0.00    -0.386 OA 
HETATM   20  C   UNL     1     -12.354  12.872  65.229  1.00  0.00    -0.490 C  
ENDBRANCH   9  19
TORSDOF 1
ENDMDL
MODEL       13
REMARK 921   NORMALIZED FREE ENERGY PREDICTED BY IDOCK:   -5.49 KCAL/MOL
REMARK 922        TOTAL FREE ENERGY PREDICTED BY IDOCK:   -5.87 KCAL/MOL
REMARK 923 INTER-LIGAND FREE ENERGY PREDICTED BY IDOCK:   -5.81 KCAL/MOL
REMARK 924 INTRA-LIGAND FREE ENERGY PREDICTED BY IDOCK:   -0.06 KCAL/MOL
REMARK 927      BINDING AFFINITY PREDICTED BY RF-SCORE:    0.00 PKD
ROOT
HETATM    1  C   UNL     1     -10.944   6.077  70.159  1.00  0.00    -0.359 C  
HETATM    2  C   UNL     1     -10.951   6.399  68.640  1.00  0.00    -0.404 C  
HETATM    3  C   UNL     1     -10.623   7.800  68.181  1.00  0.00    -0.182 A  
HETATM    4  C   UNL     1     -10.621   8.852  69.092  1.00  0.00    -0.211 A  
HETATM    5  C   UNL     1     -10.100  10.098  68.722  1.00  0.00    -0.198 A  
HETATM    6  C   UNL     1     -10.956   8.549  70.505  1.00  0.00    -0.263 C  
HETATM    7  C   UNL     1      -9.437   8.952  71.605  1.00  0.00    -0.351 C  
HETATM    8  C   UNL     1     -11.924   9.300  71.225  1.00  0.00    -0.414 C  
HETATM    9  C   UNL     1      -9.622  10.322  67.432  1.00  0.00    -0.158 A  
HETATM   10  C   UNL     1      -9.275   8.005  73.184  1.00  0.00    -0.347 C  
HETATM   11  C   UNL     1      -9.747   9.311  66.482  1.00  0.00    -0.305 A  
HETATM   12  C   UNL     1     -11.376   8.229  72.150  1.00  0.00    -0.419 C  
HETATM   13  C   UNL     1     -11.910   6.838  70.827  1.00  0.00    -0.446 C  
HETATM   14  N   UNL     1     -10.276   6.800  71.311  1.00  0.00    -0.202 NA 
HETATM   15  C   UNL     1     -10.253   8.058  66.854  1.00  0.00    -0.385 A  
HETATM   16  C   UNL     1      -8.840   6.588  70.945  1.00  0.00    -0.147 C  
HETATM   17  C   UNL     1     -10.425   6.661  73.637  1.00  0.00    -0.353 C  
HETATM   18  C   UNL     1     -11.776   6.010  72.568  1.00  0.00    -0.280 C  
ENDROOT
BRANCH   9  19
HETATM   19  O   UNL     1      -9.041  11.546  67.251  1.00  0.00    -0.160 OA 
HETATM   20  C   UNL     1      -9.908  12.645  67.008  1.00  0.00    -0.225 C  
ENDBRANCH   9  19
TORSDOF 1
ENDMDL
MODEL       14
REMARK 921   NORMALIZED FREE ENERGY PREDICTED BY IDOCK:   -5.44 KCAL/MOL
REMARK 922        TOTAL FREE ENERGY PREDICTED BY IDOCK:   -5.82 KCAL/MOL
REMARK 923 INTER-LIGAND FREE ENERGY PREDICTED BY IDOCK:   -5.76 KCAL/MOL
REMARK 924 INTRA-LIGAND FREE ENERGY PREDICTED BY IDOCK:   -0.06 KCAL/MOL
REMARK 927      BINDING AFFINITY PREDICTED BY RF-SCORE:    0.00 PKD
ROOT
HETATM    1  C   UNL     1     -11.402  11.717  67.222  1.00  0.00    -0.305 C  
HETATM    2  C   UNL     1     -11.935  11.347  68.633  1.00  0.00    -0.317 C  
HETATM    3  C   UNL     1     -11.950  12.400  69.716  1.00  0.00    -0.359 A  
HETATM    4  C   UNL     1     -11.224  13.576  69.558  1.00  0.00    -0.194 A  
HETATM    5  C   UNL     1     -11.416  14.642  70.446  1.00  0.00    -0.283 A  
HETATM    6  C   UNL     1     -10.440  13.747  68.310  1.00  0.00    -0.251 C  
HETATM    7  C   UNL     1     -11.126  15.257  67.347  1.00  0.00    -0.326 C  
HETATM    8  C   UNL     1      -9.072  14.132  68.330  1.00  0.00    -0.190 C  
HETATM    9  C   UNL     1     -12.293  14.530  71.522  1.00  0.00    -0.361 A  
HETATM   10  C   UNL     1     -10.901  15.250  65.513  1.00  0.00    -0.382 C  
HETATM   11  C   UNL     1     -12.920  13.309  71.758  1.00  0.00    -0.430 A  
HETATM   12  C   UNL     1      -9.491  13.957  66.881  1.00  0.00    -0.263 C  
HETATM   13  C   UNL     1     -10.055  12.089  67.289  1.00  0.00    -0.208 C  
HETATM   14  N   UNL     1     -11.242  13.070  66.559  1.00  0.00    -0.292 NA 
HETATM   15  C   UNL     1     -12.742  12.246  70.863  1.00  0.00    -0.277 A  
HETATM   16  C   UNL     1     -12.680  13.475  66.460  1.00  0.00     0.078 C  
HETATM   17  C   UNL     1     -10.175  13.829  64.626  1.00  0.00    -0.313 C  
HETATM   18  C   UNL     1      -9.699  12.223  65.394  1.00  0.00    -0.150 C  
ENDROOT
BRANCH   9  19
HETATM   19  O   UNL     1     -12.462  15.686  72.234  1.00  0.00    -0.356 OA 
HETATM   20  C   UNL     1     -12.622  15.565  73.640  1.00  0.00    -0.582 C  
ENDBRANCH   9  19
TORSDOF 1
ENDMDL
MODEL       15
REMARK 921   NORMALIZED FREE ENERGY PREDICTED BY IDOCK:   -5.41 KCAL/MOL
REMARK 922        TOTAL FREE ENERGY PREDICTED BY IDOCK:   -5.79 KCAL/MOL
REMARK 923 INTER-LIGAND FREE ENERGY PREDICTED BY IDOCK:   -5.73 KCAL/MOL
REMARK 924 INTRA-LIGAND FREE ENERGY PREDICTED BY IDOCK:   -0.07 KCAL/MOL
REMARK 927      BINDING AFFINITY PREDICTED BY RF-SCORE:    0.00 PKD
ROOT
HETATM    1  C   UNL     1     -11.017  15.545  65.717  1.00  0.00    -0.283 C  
HETATM    2  C   UNL     1     -10.971  14.626  64.466  1.00  0.00    -0.247 C  
HETATM    3  C   UNL     1     -10.412  13.229  64.595  1.00  0.00    -0.420 A  
HETATM    4  C   UNL     1      -9.670  12.874  65.718  1.00  0.00    -0.155 A  
HETATM    5  C   UNL     1      -9.348  11.531  65.948  1.00  0.00    -0.242 A  
HETATM    6  C   UNL     1      -9.448  13.907  66.760  1.00  0.00    -0.287 C  
HETATM    7  C   UNL     1     -10.269  13.330  68.394  1.00  0.00    -0.249 C  
HETATM    8  C   UNL     1      -8.153  14.184  67.278  1.00  0.00    -0.188 C  
HETATM    9  C   UNL     1      -9.717  10.539  65.043  1.00  0.00    -0.292 A  
HETATM   10  C   UNL     1     -10.813  14.651  69.566  1.00  0.00    -0.238 C  
HETATM   11  C   UNL     1     -10.343  10.909  63.855  1.00  0.00    -0.397 A  
HETATM   12  C   UNL     1      -9.144  15.101  67.971  1.00  0.00    -0.180 C  
HETATM   13  C   UNL     1      -9.724  15.789  66.193  1.00  0.00    -0.351 C  
HETATM   14  N   UNL     1     -10.971  15.195  67.191  1.00  0.00    -0.322 NA 
HETATM   15  C   UNL     1     -10.681  12.250  63.629  1.00  0.00    -0.513 A  
HETATM   16  C   UNL     1     -12.261  14.446  67.314  1.00  0.00    -0.213 C  
HETATM   17  C   UNL     1     -10.697  16.427  69.156  1.00  0.00    -0.317 C  
HETATM   18  C   UNL     1     -10.156  17.112  67.534  1.00  0.00    -0.301 C  
ENDROOT
BRANCH   9  19
HETATM   19  O   UNL     1      -9.435   9.266  65.456  1.00  0.00    -0.252 OA 
HETATM   20  C   UNL     1     -10.161   8.770  66.571  1.00  0.00    -0.279 C  
ENDBRANCH   9  19
TORSDOF 1
ENDMDL
MODEL       16
REMARK 921   NORMALIZED FREE ENERGY PREDICTED BY IDOCK:   -5.39 KCAL/MOL
REMARK 922        TOTAL FREE ENERGY PREDICTED BY IDOCK:   -5.77 KCAL/MOL
REMARK 923 INTER-LIGAND FREE ENERGY PREDICTED BY IDOCK:   -5.70 KCAL/MOL
REMARK 924 INTRA-LIGAND FREE ENERGY PREDICTED BY IDOCK:   -0.07 KCAL/MOL
REMARK 927      BINDING AFFINITY PREDICTED BY RF-SCORE:    0.00 PKD
ROOT
HETATM    1  C   UNL     1     -11.412  14.999  68.348  1.00  0.00    -0.323 C  
HETATM    2  C   UNL     1     -12.244  14.021  69.221  1.00  0.00    -0.319 C  
HETATM    3  C   UNL     1     -11.754  12.606  69.417  1.00  0.00    -0.387 A  
HETATM    4  C   UNL     1     -10.757  12.091  68.593  1.00  0.00    -0.266 A  
HETATM    5  C   UNL     1     -10.144  10.873  68.913  1.00  0.00    -0.211 A  
HETATM    6  C   UNL     1     -10.211  12.969  67.529  1.00  0.00    -0.221 C  
HETATM    7  C   UNL     1      -8.347  13.267  67.863  1.00  0.00    -0.163 C  
HETATM    8  C   UNL     1     -10.102  12.535  66.180  1.00  0.00    -0.265 C  
HETATM    9  C   UNL     1     -10.549  10.136  70.023  1.00  0.00    -0.287 A  
HETATM   10  C   UNL     1      -7.624  14.840  67.216  1.00  0.00    -0.195 C  
HETATM   11  C   UNL     1     -11.635  10.584  70.772  1.00  0.00    -0.432 A  
HETATM   12  C   UNL     1      -9.584  13.959  66.260  1.00  0.00    -0.274 C  
HETATM   13  C   UNL     1     -11.329  14.532  67.032  1.00  0.00    -0.359 C  
HETATM   14  N   UNL     1      -9.952  14.951  67.944  1.00  0.00    -0.218 NA 
HETATM   15  C   UNL     1     -12.240  11.810  70.464  1.00  0.00    -0.438 A  
HETATM   16  C   UNL     1      -9.311  15.117  69.286  1.00  0.00    -0.207 C  
HETATM   17  C   UNL     1      -8.642  16.119  66.403  1.00  0.00    -0.365 C  
HETATM   18  C   UNL     1     -10.476  16.072  66.233  1.00  0.00    -0.326 C  
ENDROOT
BRANCH   9  19
HETATM   19  O   UNL     1      -9.786   9.029  70.273  1.00  0.00    -0.174 OA 
HETATM   20  C   UNL     1      -9.679   8.607  71.625  1.00  0.00    -0.278 C  
ENDBRANCH   9  19
TORSDOF 1
ENDMDL
MODEL       17
REMARK 921   NORMALIZED FREE ENERGY PREDICTED BY IDOCK:   -5.35 KCAL/MOL
REMARK 922        TOTAL FREE ENERGY PREDICTED BY IDOCK:   -5.73 KCAL/MOL
REMARK 923 INTER-LIGAND FREE ENERGY PREDICTED BY IDOCK:   -5.66 KCAL/MOL
REMARK 924 INTRA-LIGAND FREE ENERGY PREDICTED BY IDOCK:   -0.06 KCAL/MOL
REMARK 927      BINDING AFFINITY PREDICTED BY RF-SCORE:    0.00 PKD
ROOT
HETATM    1  C   UNL     1      -9.036  19.722  66.678  1.00  0.00    -0.374 C  
HETATM    2  C   UNL     1     -10.063  18.805  65.960  1.00  0.00    -0.353 C  
HETATM    3  C   UNL     1      -9.855  17.310  65.973  1.00  0.00    -0.219 A  
HETATM    4  C   UNL     1      -8.622  16.779  66.343  1.00  0.00    -0.338 A  
HETATM    5  C   UNL     1      -8.493  15.405  66.576  1.00  0.00    -0.248 A  
HETATM    6  C   UNL     1      -7.539  17.725  66.708  1.00  0.00    -0.248 C  
HETATM    7  C   UNL     1      -7.052  17.437  68.540  1.00  0.00    -0.219 C  
HETATM    8  C   UNL     1      -6.238  17.631  66.143  1.00  0.00    -0.268 C  
HETATM    9  C   UNL     1      -9.572  14.542  66.398  1.00  0.00    -0.303 A  
HETATM   10  C   UNL     1      -6.344  18.880  69.453  1.00  0.00    -0.299 C  
HETATM   11  C   UNL     1     -10.769  15.052  65.900  1.00  0.00    -0.337 A  
HETATM   12  C   UNL     1      -6.250  18.806  67.104  1.00  0.00    -0.184 C  
HETATM   13  C   UNL     1      -7.772  19.597  66.091  1.00  0.00    -0.331 C  
HETATM   14  N   UNL     1      -8.029  19.402  67.764  1.00  0.00    -0.278 NA 
HETATM   15  C   UNL     1     -10.906  16.430  65.681  1.00  0.00    -0.185 A  
HETATM   16  C   UNL     1      -8.962  19.053  68.882  1.00  0.00    -0.263 C  
HETATM   17  C   UNL     1      -6.220  20.540  68.705  1.00  0.00    -0.351 C  
HETATM   18  C   UNL     1      -6.869  21.013  67.046  1.00  0.00    -0.397 C  
ENDROOT
BRANCH   9  19
HETATM   19  O   UNL     1      -9.329  13.249  66.771  1.00  0.00    -0.243 OA 
HETATM   20  C   UNL     1     -10.453  12.393  66.916  1.00  0.00    -0.224 C  
ENDBRANCH   9  19
TORSDOF 1
ENDMDL
MODEL       18
REMARK 921   NORMALIZED FREE ENERGY PREDICTED BY IDOCK:   -5.31 KCAL/MOL
REMARK 922        TOTAL FREE ENERGY PREDICTED BY IDOCK:   -5.68 KCAL/MOL
REMARK 923 INTER-LIGAND FREE ENERGY PREDICTED BY IDOCK:   -5.62 KCAL/MOL
REMARK 924 INTRA-LIGAND FREE ENERGY PREDICTED BY IDOCK:   -0.07 KCAL/MOL
REMARK 927      BINDING AFFINITY PREDICTED BY RF-SCORE:    0.00 PKD
ROOT
HETATM    1  C   UNL     1     -10.977  14.903  65.322  1.00  0.00    -0.380 C  
HETATM    2  C   UNL     1     -10.793  13.700  64.357  1.00  0.00    -0.374 C  
HETATM    3  C   UNL     1     -10.220  12.408  64.889  1.00  0.00    -0.301 A  
HETATM    4  C   UNL     1      -9.583  12.383  66.126  1.00  0.00    -0.238 A  
HETATM    5  C   UNL     1      -9.257  11.158  66.720  1.00  0.00    -0.183 A  
HETATM    6  C   UNL     1      -9.483  13.655  66.883  1.00  0.00    -0.263 C  
HETATM    7  C   UNL     1     -10.447  13.475  68.531  1.00  0.00    -0.250 C  
HETATM    8  C   UNL     1      -8.251  14.111  67.426  1.00  0.00    -0.207 C  
HETATM    9  C   UNL     1      -9.517   9.953  66.071  1.00  0.00    -0.202 A  
HETATM   10  C   UNL     1     -11.128  15.025  69.273  1.00  0.00    -0.280 C  
HETATM   11  C   UNL     1     -10.032   9.981  64.777  1.00  0.00    -0.248 A  
HETATM   12  C   UNL     1      -9.322  15.129  67.770  1.00  0.00    -0.189 C  
HETATM   13  C   UNL     1      -9.741  15.318  65.831  1.00  0.00    -0.390 C  
HETATM   14  N   UNL     1     -11.067  14.941  66.834  1.00  0.00    -0.332 NA 
HETATM   15  C   UNL     1     -10.374  11.205  64.186  1.00  0.00    -0.423 A  
HETATM   16  C   UNL     1     -12.347  14.191  67.031  1.00  0.00    -0.218 C  
HETATM   17  C   UNL     1     -11.009  16.641  68.434  1.00  0.00    -0.345 C  
HETATM   18  C   UNL     1     -10.328  16.917  66.744  1.00  0.00    -0.298 C  
ENDROOT
BRANCH   9  19
HETATM   19  O   UNL     1      -9.250   8.840  66.820  1.00  0.00    -0.152 OA 
HETATM   20  C   UNL     1     -10.300   7.896  66.975  1.00  0.00    -0.341 C  
ENDBRANCH   9  19
TORSDOF 1
ENDMDL
MODEL       19
REMARK 921   NORMALIZED FREE ENERGY PREDICTED BY IDOCK:   -5.26 KCAL/MOL
REMARK 922        TOTAL FREE ENERGY PREDICTED BY IDOCK:   -5.64 KCAL/MOL
REMARK 923 INTER-LIGAND FREE ENERGY PREDICTED BY IDOCK:   -5.57 KCAL/MOL
REMARK 924 INTRA-LIGAND FREE ENERGY PREDICTED BY IDOCK:   -0.06 KCAL/MOL
REMARK 927      BINDING AFFINITY PREDICTED BY RF-SCORE:    0.00 PKD
ROOT
HETATM    1  C   UNL     1     -11.093  14.543  65.386  1.00  0.00    -0.345 C  
HETATM    2  C   UNL     1     -11.036  16.061  65.066  1.00  0.00    -0.345 C  
HETATM    3  C   UNL     1     -10.628  17.030  66.149  1.00  0.00    -0.194 A  
HETATM    4  C   UNL     1     -10.606  16.622  67.480  1.00  0.00    -0.311 A  
HETATM    5  C   UNL     1     -10.015  17.438  68.452  1.00  0.00    -0.329 A  
HETATM    6  C   UNL     1     -11.000  15.225  67.785  1.00  0.00    -0.312 C  
HETATM    7  C   UNL     1      -9.501  14.309  68.554  1.00  0.00    -0.206 C  
HETATM    8  C   UNL     1     -11.954  14.918  68.793  1.00  0.00    -0.284 C  
HETATM    9  C   UNL     1      -9.486  18.683  68.120  1.00  0.00    -0.325 A  
HETATM   10  C   UNL     1      -9.435  12.476  68.325  1.00  0.00    -0.201 C  
HETATM   11  C   UNL     1      -9.627  19.150  66.815  1.00  0.00    -0.383 A  
HETATM   12  C   UNL     1     -11.488  13.613  68.172  1.00  0.00    -0.348 C  
HETATM   13  C   UNL     1     -12.044  14.287  66.381  1.00  0.00    -0.442 C  
HETATM   14  N   UNL     1     -10.430  13.750  66.494  1.00  0.00    -0.279 NA 
HETATM   15  C   UNL     1     -10.204  18.329  65.836  1.00  0.00    -0.236 A  
HETATM   16  C   UNL     1      -8.994  13.928  66.109  1.00  0.00     0.235 C  
HETATM   17  C   UNL     1     -10.660  11.576  67.315  1.00  0.00    -0.266 C  
HETATM   18  C   UNL     1     -12.006  12.356  66.326  1.00  0.00    -0.369 C  
ENDROOT
BRANCH   9  19
HETATM   19  O   UNL     1      -8.842  19.315  69.148  1.00  0.00    -0.282 OA 
HETATM   20  C   UNL     1      -7.428  19.414  69.064  1.00  0.00    -0.349 C  
ENDBRANCH   9  19
TORSDOF 1
ENDMDL
MODEL       20
REMARK 921   NORMALIZED FREE ENERGY PREDICTED BY IDOCK:   -5.23 KCAL/MOL
REMARK 922        TOTAL FREE ENERGY PREDICTED BY IDOCK:   -5.60 KCAL/MOL
REMARK 923 INTER-LIGAND FREE ENERGY PREDICTED BY IDOCK:   -5.54 KCAL/MOL
REMARK 924 INTRA-LIGAND FREE ENERGY PREDICTED BY IDOCK:   -0.06 KCAL/MOL
REMARK 927      BINDING AFFINITY PREDICTED BY RF-SCORE:    0.00 PKD
ROOT
HETATM    1  C   UNL     1     -10.094  12.773  65.627  1.00  0.00    -0.270 C  
HETATM    2  C   UNL     1     -10.731  14.135  66.013  1.00  0.00    -0.299 C  
HETATM    3  C   UNL     1     -11.179  14.364  67.437  1.00  0.00    -0.337 A  
HETATM    4  C   UNL     1     -11.311  13.288  68.309  1.00  0.00    -0.335 A  
HETATM    5  C   UNL     1     -11.503  13.515  69.678  1.00  0.00    -0.283 A  
HETATM    6  C   UNL     1     -11.008  11.931  67.791  1.00  0.00    -0.278 C  
HETATM    7  C   UNL     1      -9.522  11.210  68.766  1.00  0.00    -0.173 C  
HETATM    8  C   UNL     1     -11.905  10.842  67.968  1.00  0.00    -0.070 C  
HETATM    9  C   UNL     1     -11.612  14.809  70.182  1.00  0.00    -0.290 A  
HETATM   10  C   UNL     1      -8.478   9.961  67.892  1.00  0.00    -0.121 C  
HETATM   11  C   UNL     1     -11.613  15.882  69.293  1.00  0.00    -0.372 A  
HETATM   12  C   UNL     1     -10.695  10.337  67.203  1.00  0.00    -0.303 C  
HETATM   13  C   UNL     1     -11.010  11.732  65.816  1.00  0.00    -0.353 C  
HETATM   14  N   UNL     1      -9.446  11.713  66.495  1.00  0.00    -0.200 NA 
HETATM   15  C   UNL     1     -11.406  15.658  67.925  1.00  0.00    -0.302 A  
HETATM   16  C   UNL     1      -8.258  12.479  66.986  1.00  0.00    -0.125 C  
HETATM   17  C   UNL     1      -8.753   9.511  66.145  1.00  0.00    -0.162 C  
HETATM   18  C   UNL     1      -9.985  10.299  65.023  1.00  0.00    -0.393 C  
ENDROOT
BRANCH   9  19
HETATM   19  O   UNL     1     -11.681  14.879  71.546  1.00  0.00    -0.336 OA 
HETATM   20  C   UNL     1     -11.940  16.153  72.118  1.00  0.00    -0.537 C  
ENDBRANCH   9  19
TORSDOF 1
ENDMDL
MODEL       21
REMARK 921   NORMALIZED FREE ENERGY PREDICTED BY IDOCK:   -5.21 KCAL/MOL
REMARK 922        TOTAL FREE ENERGY PREDICTED BY IDOCK:   -5.57 KCAL/MOL
REMARK 923 INTER-LIGAND FREE ENERGY PREDICTED BY IDOCK:   -5.51 KCAL/MOL
REMARK 924 INTRA-LIGAND FREE ENERGY PREDICTED BY IDOCK:   -0.06 KCAL/MOL
REMARK 927      BINDING AFFINITY PREDICTED BY RF-SCORE:    0.00 PKD
ROOT
HETATM    1  C   UNL     1      -8.940  13.566  67.982  1.00  0.00    -0.189 C  
HETATM    2  C   UNL     1      -7.947  14.491  67.228  1.00  0.00    -0.216 C  
HETATM    3  C   UNL     1      -8.420  15.838  66.735  1.00  0.00    -0.304 A  
HETATM    4  C   UNL     1      -9.781  16.121  66.675  1.00  0.00    -0.260 A  
HETATM    5  C   UNL     1     -10.214  17.432  66.440  1.00  0.00    -0.339 A  
HETATM    6  C   UNL     1     -10.732  15.063  67.099  1.00  0.00    -0.303 C  
HETATM    7  C   UNL     1     -11.719  15.687  68.620  1.00  0.00    -0.364 C  
HETATM    8  C   UNL     1     -11.837  14.680  66.292  1.00  0.00    -0.299 C  
HETATM    9  C   UNL     1      -9.301  18.460  66.215  1.00  0.00    -0.224 A  
HETATM   10  C   UNL     1     -12.364  14.401  69.781  1.00  0.00    -0.333 C  
HETATM   11  C   UNL     1      -7.944  18.153  66.142  1.00  0.00    -0.222 A  
HETATM   12  C   UNL     1     -11.860  13.837  67.554  1.00  0.00    -0.422 C  
HETATM   13  C   UNL     1     -10.010  13.215  67.151  1.00  0.00    -0.236 C  
HETATM   14  N   UNL     1     -10.234  13.896  68.698  1.00  0.00    -0.232 NA 
HETATM   15  C   UNL     1      -7.507  16.845  66.393  1.00  0.00    -0.323 A  
HETATM   16  C   UNL     1      -9.701  14.744  69.810  1.00  0.00     0.215 C  
HETATM   17  C   UNL     1     -11.987  12.627  69.577  1.00  0.00    -0.332 C  
HETATM   18  C   UNL     1     -10.857  11.917  68.306  1.00  0.00    -0.261 C  
ENDROOT
BRANCH   9  19
HETATM   19  O   UNL     1      -9.864  19.702  66.114  1.00  0.00    -0.404 OA 
HETATM   20  C   UNL     1      -9.677  20.589  67.207  1.00  0.00    -0.460 C  
ENDBRANCH   9  19
TORSDOF 1
ENDMDL
MODEL       22
REMARK 921   NORMALIZED FREE ENERGY PREDICTED BY IDOCK:   -5.20 KCAL/MOL
REMARK 922        TOTAL FREE ENERGY PREDICTED BY IDOCK:   -5.57 KCAL/MOL
REMARK 923 INTER-LIGAND FREE ENERGY PREDICTED BY IDOCK:   -5.51 KCAL/MOL
REMARK 924 INTRA-LIGAND FREE ENERGY PREDICTED BY IDOCK:   -0.06 KCAL/MOL
REMARK 927      BINDING AFFINITY PREDICTED BY RF-SCORE:    0.00 PKD
ROOT
HETATM    1  C   UNL     1     -10.777   5.789  71.082  1.00  0.00    -0.261 C  
HETATM    2  C   UNL     1     -11.876   6.417  71.980  1.00  0.00    -0.382 C  
HETATM    3  C   UNL     1     -12.097   7.910  71.945  1.00  0.00    -0.352 A  
HETATM    4  C   UNL     1     -11.144   8.744  71.367  1.00  0.00    -0.361 A  
HETATM    5  C   UNL     1     -11.445  10.090  71.128  1.00  0.00    -0.432 A  
HETATM    6  C   UNL     1      -9.922   8.118  70.805  1.00  0.00    -0.209 C  
HETATM    7  C   UNL     1      -9.861   8.455  68.918  1.00  0.00    -0.184 C  
HETATM    8  C   UNL     1      -8.620   8.589  71.130  1.00  0.00    -0.207 C  
HETATM    9  C   UNL     1     -12.672  10.629  71.504  1.00  0.00    -0.444 A  
HETATM   10  C   UNL     1      -8.950   7.227  67.879  1.00  0.00    -0.130 C  
HETATM   11  C   UNL     1     -13.575   9.830  72.203  1.00  0.00    -0.432 A  
HETATM   12  C   UNL     1      -8.473   7.418  70.175  1.00  0.00    -0.137 C  
HETATM   13  C   UNL     1      -9.515   6.281  71.436  1.00  0.00    -0.167 C  
HETATM   14  N   UNL     1     -10.103   6.330  69.837  1.00  0.00    -0.168 NA 
HETATM   15  C   UNL     1     -13.283   8.478  72.429  1.00  0.00    -0.319 A  
HETATM   16  C   UNL     1     -11.276   6.364  68.907  1.00  0.00    -0.307 C  
HETATM   17  C   UNL     1      -8.242   5.696  68.577  1.00  0.00    -0.106 C  
HETATM   18  C   UNL     1      -8.435   5.130  70.320  1.00  0.00    -0.103 C  
ENDROOT
BRANCH   9  19
HETATM   19  O   UNL     1     -12.866  11.923  71.106  1.00  0.00    -0.343 OA 
HETATM   20  C   UNL     1     -13.410  12.822  72.062  1.00  0.00    -0.466 C  
ENDBRANCH   9  19
TORSDOF 1
ENDMDL
MODEL       23
REMARK 921   NORMALIZED FREE ENERGY PREDICTED BY IDOCK:   -5.17 KCAL/MOL
REMARK 922        TOTAL FREE ENERGY PREDICTED BY IDOCK:   -5.54 KCAL/MOL
REMARK 923 INTER-LIGAND FREE ENERGY PREDICTED BY IDOCK:   -5.48 KCAL/MOL
REMARK 924 INTRA-LIGAND FREE ENERGY PREDICTED BY IDOCK:   -0.06 KCAL/MOL
REMARK 927      BINDING AFFINITY PREDICTED BY RF-SCORE:    0.00 PKD
ROOT
HETATM    1  C   UNL     1     -10.924   6.528  71.980  1.00  0.00    -0.247 C  
HETATM    2  C   UNL     1     -11.895   7.596  72.553  1.00  0.00    -0.312 C  
HETATM    3  C   UNL     1     -11.905   8.982  71.953  1.00  0.00    -0.447 A  
HETATM    4  C   UNL     1     -10.866   9.393  71.124  1.00  0.00    -0.427 A  
HETATM    5  C   UNL     1     -10.983  10.580  70.390  1.00  0.00    -0.252 A  
HETATM    6  C   UNL     1      -9.762   8.436  70.866  1.00  0.00    -0.212 C  
HETATM    7  C   UNL     1      -9.718   8.027  68.993  1.00  0.00    -0.159 C  
HETATM    8  C   UNL     1      -8.397   8.804  71.018  1.00  0.00    -0.208 C  
HETATM    9  C   UNL     1     -12.110  11.389  70.508  1.00  0.00    -0.394 A  
HETATM   10  C   UNL     1      -9.022   6.383  68.514  1.00  0.00    -0.125 C  
HETATM   11  C   UNL     1     -13.092  11.047  71.436  1.00  0.00    -0.441 A  
HETATM   12  C   UNL     1      -8.447   7.353  70.578  1.00  0.00    -0.137 C  
HETATM   13  C   UNL     1      -9.595   6.932  72.151  1.00  0.00    -0.154 C  
HETATM   14  N   UNL     1     -10.223   6.461  70.639  1.00  0.00    -0.187 NA 
HETATM   15  C   UNL     1     -12.984   9.853  72.161  1.00  0.00    -0.471 A  
HETATM   16  C   UNL     1     -11.410   6.308  69.739  1.00  0.00    -0.436 C  
HETATM   17  C   UNL     1      -8.511   5.143  69.751  1.00  0.00    -0.097 C  
HETATM   18  C   UNL     1      -8.723   5.306  71.575  1.00  0.00    -0.140 C  
ENDROOT
BRANCH   9  19
HETATM   19  O   UNL     1     -12.135  12.452  69.648  1.00  0.00    -0.276 OA 
HETATM   20  C   UNL     1     -12.269  13.745  70.219  1.00  0.00    -0.359 C  
ENDBRANCH   9  19
TORSDOF 1
ENDMDL
MODEL       24
REMARK 921   NORMALIZED FREE ENERGY PREDICTED BY IDOCK:   -5.16 KCAL/MOL
REMARK 922        TOTAL FREE ENERGY PREDICTED BY IDOCK:   -5.52 KCAL/MOL
REMARK 923 INTER-LIGAND FREE ENERGY PREDICTED BY IDOCK:   -5.45 KCAL/MOL
REMARK 924 INTRA-LIGAND FREE ENERGY PREDICTED BY IDOCK:   -0.07 KCAL/MOL
REMARK 927      BINDING AFFINITY PREDICTED BY RF-SCORE:    0.00 PKD
ROOT
HETATM    1  C   UNL     1     -11.393  11.427  66.143  1.00  0.00    -0.043 C  
HETATM    2  C   UNL     1     -12.036  12.465  65.184  1.00  0.00    -0.454 C  
HETATM    3  C   UNL     1     -11.691  13.928  65.340  1.00  0.00    -0.347 A  
HETATM    4  C   UNL     1     -11.065  14.378  66.498  1.00  0.00    -0.331 A  
HETATM    5  C   UNL     1     -10.543  15.676  66.552  1.00  0.00    -0.307 A  
HETATM    6  C   UNL     1     -10.764  13.384  67.558  1.00  0.00    -0.263 C  
HETATM    7  C   UNL     1      -8.864  13.291  67.802  1.00  0.00    -0.197 C  
HETATM    8  C   UNL     1     -11.126  13.601  68.916  1.00  0.00    -0.292 C  
HETATM    9  C   UNL     1     -10.679  16.550  65.476  1.00  0.00    -0.256 A  
HETATM   10  C   UNL     1      -8.182  11.696  68.438  1.00  0.00    -0.155 C  
HETATM   11  C   UNL     1     -11.420  16.145  64.368  1.00  0.00    -0.197 A  
HETATM   12  C   UNL     1     -10.434  12.254  68.822  1.00  0.00    -0.187 C  
HETATM   13  C   UNL     1     -11.775  11.679  67.465  1.00  0.00    -0.288 C  
HETATM   14  N   UNL     1     -10.144  11.523  66.995  1.00  0.00    -0.206 NA 
HETATM   15  C   UNL     1     -11.931  14.842  64.305  1.00  0.00    -0.387 A  
HETATM   16  C   UNL     1      -9.109  11.627  65.919  1.00  0.00    -0.149 C  
HETATM   17  C   UNL     1      -9.230  10.226  68.709  1.00  0.00    -0.166 C  
HETATM   18  C   UNL     1     -11.020  10.102  68.288  1.00  0.00    -0.299 C  
ENDROOT
BRANCH   9  19
HETATM   19  O   UNL     1     -10.021  17.739  65.629  1.00  0.00    -0.548 OA 
HETATM   20  C   UNL     1     -10.176  18.411  66.870  1.00  0.00    -0.380 C  
ENDBRANCH   9  19
TORSDOF 1
ENDMDL
MODEL       25
REMARK 921   NORMALIZED FREE ENERGY PREDICTED BY IDOCK:   -5.14 KCAL/MOL
REMARK 922        TOTAL FREE ENERGY PREDICTED BY IDOCK:   -5.50 KCAL/MOL
REMARK 923 INTER-LIGAND FREE ENERGY PREDICTED BY IDOCK:   -5.43 KCAL/MOL
REMARK 924 INTRA-LIGAND FREE ENERGY PREDICTED BY IDOCK:   -0.07 KCAL/MOL
REMARK 927      BINDING AFFINITY PREDICTED BY RF-SCORE:    0.00 PKD
ROOT
HETATM    1  C   UNL     1     -10.500  11.989  67.109  1.00  0.00    -0.220 C  
HETATM    2  C   UNL     1     -11.589  12.158  68.203  1.00  0.00    -0.397 C  
HETATM    3  C   UNL     1     -11.725  11.107  69.280  1.00  0.00    -0.401 A  
HETATM    4  C   UNL     1     -11.110   9.868  69.129  1.00  0.00    -0.197 A  
HETATM    5  C   UNL     1     -11.041   8.984  70.212  1.00  0.00    -0.263 A  
HETATM    6  C   UNL     1     -10.338   9.622  67.886  1.00  0.00    -0.271 C  
HETATM    7  C   UNL     1      -8.499   9.324  68.344  1.00  0.00    -0.120 C  
HETATM    8  C   UNL     1     -10.535   8.455  67.099  1.00  0.00    -0.380 C  
HETATM    9  C   UNL     1     -11.623   9.303  71.437  1.00  0.00    -0.367 A  
HETATM   10  C   UNL     1      -7.240   9.748  67.059  1.00  0.00    -0.090 C  
HETATM   11  C   UNL     1     -12.353  10.484  71.550  1.00  0.00    -0.443 A  
HETATM   12  C   UNL     1      -9.462   9.297  66.433  1.00  0.00    -0.277 C  
HETATM   13  C   UNL     1     -10.733  10.829  66.361  1.00  0.00    -0.228 C  
HETATM   14  N   UNL     1      -9.236  11.154  67.108  1.00  0.00    -0.157 NA 
HETATM   15  C   UNL     1     -12.410  11.378  70.472  1.00  0.00    -0.439 A  
HETATM   16  C   UNL     1      -8.473  11.845  68.195  1.00  0.00    -0.163 C  
HETATM   17  C   UNL     1      -7.691  10.528  65.472  1.00  0.00    -0.127 C  
HETATM   18  C   UNL     1      -9.383  11.088  65.003  1.00  0.00    -0.250 C  
ENDROOT
BRANCH   9  19
HETATM   19  O   UNL     1     -11.377   8.396  72.431  1.00  0.00    -0.363 OA 
HETATM   20  C   UNL     1     -11.535   7.022  72.108  1.00  0.00    -0.274 C  
ENDBRANCH   9  19
TORSDOF 1
ENDMDL
MODEL       26
REMARK 921   NORMALIZED FREE ENERGY PREDICTED BY IDOCK:   -5.13 KCAL/MOL
REMARK 922        TOTAL FREE ENERGY PREDICTED BY IDOCK:   -5.50 KCAL/MOL
REMARK 923 INTER-LIGAND FREE ENERGY PREDICTED BY IDOCK:   -5.43 KCAL/MOL
REMARK 924 INTRA-LIGAND FREE ENERGY PREDICTED BY IDOCK:   -0.07 KCAL/MOL
REMARK 927      BINDING AFFINITY PREDICTED BY RF-SCORE:    0.00 PKD
ROOT
HETATM    1  C   UNL     1     -10.598  11.070  68.599  1.00  0.00    -0.196 C  
HETATM    2  C   UNL     1     -10.249   9.756  67.849  1.00  0.00    -0.237 C  
HETATM    3  C   UNL     1      -9.949   9.806  66.370  1.00  0.00    -0.314 A  
HETATM    4  C   UNL     1     -10.277  10.937  65.629  1.00  0.00    -0.323 A  
HETATM    5  C   UNL     1      -9.799  11.080  64.321  1.00  0.00    -0.355 A  
HETATM    6  C   UNL     1     -10.930  12.067  66.335  1.00  0.00    -0.337 C  
HETATM    7  C   UNL     1      -9.786  13.603  66.244  1.00  0.00    -0.310 C  
HETATM    8  C   UNL     1     -12.116  12.676  65.842  1.00  0.00    -0.459 C  
HETATM    9  C   UNL     1      -9.033  10.081  63.724  1.00  0.00    -0.247 A  
HETATM   10  C   UNL     1      -9.943  14.843  67.605  1.00  0.00    -0.226 C  
HETATM   11  C   UNL     1      -8.815   8.892  64.416  1.00  0.00    -0.047 A  
HETATM   12  C   UNL     1     -11.723  13.382  67.126  1.00  0.00    -0.424 C  
HETATM   13  C   UNL     1     -11.769  11.634  68.081  1.00  0.00    -0.365 C  
HETATM   14  N   UNL     1     -10.316  12.512  68.230  1.00  0.00    -0.231 NA 
HETATM   15  C   UNL     1      -9.280   8.753  65.731  1.00  0.00    -0.269 A  
HETATM   16  C   UNL     1      -8.821  12.505  68.303  1.00  0.00    -0.171 C  
HETATM   17  C   UNL     1     -11.038  14.579  69.042  1.00  0.00    -0.279 C  
HETATM   18  C   UNL     1     -12.006  13.048  69.377  1.00  0.00    -0.338 C  
ENDROOT
BRANCH   9  19
HETATM   19  O   UNL     1      -8.542  10.409  62.489  1.00  0.00    -0.166 OA 
HETATM   20  C   UNL     1      -7.138  10.591  62.377  1.00  0.00    -0.137 C  
ENDBRANCH   9  19
TORSDOF 1
ENDMDL
MODEL       27
REMARK 921   NORMALIZED FREE ENERGY PREDICTED BY IDOCK:   -5.06 KCAL/MOL
REMARK 922        TOTAL FREE ENERGY PREDICTED BY IDOCK:   -5.42 KCAL/MOL
REMARK 923 INTER-LIGAND FREE ENERGY PREDICTED BY IDOCK:   -5.36 KCAL/MOL
REMARK 924 INTRA-LIGAND FREE ENERGY PREDICTED BY IDOCK:   -0.06 KCAL/MOL
REMARK 927      BINDING AFFINITY PREDICTED BY RF-SCORE:    0.00 PKD
ROOT
HETATM    1  C   UNL     1     -10.764  17.060  66.694  1.00  0.00    -0.092 C  
HETATM    2  C   UNL     1     -10.680  15.523  66.493  1.00  0.00    -0.304 C  
HETATM    3  C   UNL     1      -9.388  14.806  66.808  1.00  0.00    -0.268 A  
HETATM    4  C   UNL     1      -8.210  15.529  66.973  1.00  0.00    -0.275 A  
HETATM    5  C   UNL     1      -7.069  14.900  67.485  1.00  0.00    -0.215 A  
HETATM    6  C   UNL     1      -8.272  17.004  66.822  1.00  0.00    -0.273 C  
HETATM    7  C   UNL     1      -7.793  17.821  68.489  1.00  0.00    -0.290 C  
HETATM    8  C   UNL     1      -7.363  17.711  65.988  1.00  0.00    -0.301 C  
HETATM    9  C   UNL     1      -7.075  13.541  67.791  1.00  0.00    -0.159 A  
HETATM   10  C   UNL     1      -8.492  19.498  68.828  1.00  0.00    -0.337 C  
HETATM   11  C   UNL     1      -8.211  12.789  67.502  1.00  0.00    -0.179 A  
HETATM   12  C   UNL     1      -8.309  18.719  66.616  1.00  0.00    -0.296 C  
HETATM   13  C   UNL     1      -9.854  17.715  65.857  1.00  0.00    -0.090 C  
HETATM   14  N   UNL     1      -9.911  17.986  67.539  1.00  0.00    -0.314 NA 
HETATM   15  C   UNL     1      -9.360  13.419  67.004  1.00  0.00    -0.243 A  
HETATM   16  C   UNL     1     -10.260  17.479  68.903  1.00  0.00    -0.353 C  
HETATM   17  C   UNL     1      -9.681  20.304  67.701  1.00  0.00    -0.555 C  
HETATM   18  C   UNL     1     -10.410  19.535  66.194  1.00  0.00    -0.614 C  
ENDROOT
BRANCH   9  19
HETATM   19  O   UNL     1      -5.929  13.092  68.387  1.00  0.00    -0.071 OA 
HETATM   20  C   UNL     1      -5.998  12.776  69.770  1.00  0.00    -0.131 C  
ENDBRANCH   9  19
TORSDOF 1
ENDMDL
MODEL       28
REMARK 921   NORMALIZED FREE ENERGY PREDICTED BY IDOCK:   -5.05 KCAL/MOL
REMARK 922        TOTAL FREE ENERGY PREDICTED BY IDOCK:   -5.40 KCAL/MOL
REMARK 923 INTER-LIGAND FREE ENERGY PREDICTED BY IDOCK:   -5.32 KCAL/MOL
REMARK 924 INTRA-LIGAND FREE ENERGY PREDICTED BY IDOCK:   -0.08 KCAL/MOL
REMARK 927      BINDING AFFINITY PREDICTED BY RF-SCORE:    0.00 PKD
ROOT
HETATM    1  C   UNL     1      -8.990  16.648  65.772  1.00  0.00     0.064 C  
HETATM    2  C   UNL     1      -9.729  15.299  65.557  1.00  0.00    -0.313 C  
HETATM    3  C   UNL     1     -10.392  14.624  66.734  1.00  0.00    -0.268 A  
HETATM    4  C   UNL     1     -10.092  15.028  68.031  1.00  0.00    -0.223 A  
HETATM    5  C   UNL     1     -10.865  14.568  69.104  1.00  0.00    -0.278 A  
HETATM    6  C   UNL     1      -9.104  16.121  68.209  1.00  0.00    -0.190 C  
HETATM    7  C   UNL     1      -9.971  17.612  69.048  1.00  0.00    -0.264 C  
HETATM    8  C   UNL     1      -8.006  16.003  69.104  1.00  0.00    -0.238 C  
HETATM    9  C   UNL     1     -11.911  13.670  68.903  1.00  0.00    -0.364 A  
HETATM   10  C   UNL     1      -9.267  19.286  68.707  1.00  0.00    -0.421 C  
HETATM   11  C   UNL     1     -12.128  13.163  67.623  1.00  0.00    -0.281 A  
HETATM   12  C   UNL     1      -7.932  17.368  68.445  1.00  0.00    -0.259 C  
HETATM   13  C   UNL     1      -7.920  16.485  66.658  1.00  0.00    -0.320 C  
HETATM   14  N   UNL     1      -9.123  17.671  66.881  1.00  0.00    -0.246 NA 
HETATM   15  C   UNL     1     -11.365  13.633  66.545  1.00  0.00    -0.335 A  
HETATM   16  C   UNL     1     -10.528  18.127  66.640  1.00  0.00    -0.339 C  
HETATM   17  C   UNL     1      -7.892  19.546  67.534  1.00  0.00    -0.299 C  
HETATM   18  C   UNL     1      -7.130  18.240  66.481  1.00  0.00    -0.257 C  
ENDROOT
BRANCH   9  19
HETATM   19  O   UNL     1     -12.646  13.400  70.024  1.00  0.00    -0.180 OA 
HETATM   20  C   UNL     1     -12.207  13.982  71.243  1.00  0.00    -0.310 C  
ENDBRANCH   9  19
TORSDOF 1
ENDMDL
MODEL       29
REMARK 921   NORMALIZED FREE ENERGY PREDICTED BY IDOCK:   -5.03 KCAL/MOL
REMARK 922        TOTAL FREE ENERGY PREDICTED BY IDOCK:   -5.39 KCAL/MOL
REMARK 923 INTER-LIGAND FREE ENERGY PREDICTED BY IDOCK:   -5.31 KCAL/MOL
REMARK 924 INTRA-LIGAND FREE ENERGY PREDICTED BY IDOCK:   -0.08 KCAL/MOL
REMARK 927      BINDING AFFINITY PREDICTED BY RF-SCORE:    0.00 PKD
ROOT
HETATM    1  C   UNL     1      -8.598  14.567  68.292  1.00  0.00    -0.171 C  
HETATM    2  C   UNL     1      -8.381  13.085  67.881  1.00  0.00    -0.170 C  
HETATM    3  C   UNL     1      -9.245  12.485  66.797  1.00  0.00    -0.217 A  
HETATM    4  C   UNL     1     -10.409  13.133  66.392  1.00  0.00    -0.289 A  
HETATM    5  C   UNL     1     -11.084  12.705  65.243  1.00  0.00    -0.330 A  
HETATM    6  C   UNL     1     -10.764  14.408  67.062  1.00  0.00    -0.285 C  
HETATM    7  C   UNL     1     -10.756  15.817  65.761  1.00  0.00    -0.337 C  
HETATM    8  C   UNL     1     -12.062  14.640  67.594  1.00  0.00    -0.216 C  
HETATM    9  C   UNL     1     -10.638  11.604  64.516  1.00  0.00    -0.318 A  
HETATM   10  C   UNL     1     -10.405  17.523  66.381  1.00  0.00    -0.334 C  
HETATM   11  C   UNL     1      -9.551  10.875  64.994  1.00  0.00    -0.299 A  
HETATM   12  C   UNL     1     -11.220  15.877  67.850  1.00  0.00    -0.297 C  
HETATM   13  C   UNL     1      -9.886  14.749  68.809  1.00  0.00    -0.227 C  
HETATM   14  N   UNL     1      -9.262  15.704  67.543  1.00  0.00    -0.199 NA 
HETATM   15  C   UNL     1      -8.864  11.310  66.136  1.00  0.00    -0.194 A  
HETATM   16  C   UNL     1      -8.312  15.841  66.394  1.00  0.00    -0.232 C  
HETATM   17  C   UNL     1      -9.962  17.856  68.120  1.00  0.00    -0.350 C  
HETATM   18  C   UNL     1      -9.697  16.574  69.417  1.00  0.00    -0.128 C  
ENDROOT
BRANCH   9  19
HETATM   19  O   UNL     1     -11.329  11.374  63.358  1.00  0.00    -0.337 OA 
HETATM   20  C   UNL     1     -12.599  11.995  63.228  1.00  0.00    -0.385 C  
ENDBRANCH   9  19
TORSDOF 1
ENDMDL
MODEL       30
REMARK 921   NORMALIZED FREE ENERGY PREDICTED BY IDOCK:   -5.03 KCAL/MOL
REMARK 922        TOTAL FREE ENERGY PREDICTED BY IDOCK:   -5.39 KCAL/MOL
REMARK 923 INTER-LIGAND FREE ENERGY PREDICTED BY IDOCK:   -5.30 KCAL/MOL
REMARK 924 INTRA-LIGAND FREE ENERGY PREDICTED BY IDOCK:   -0.08 KCAL/MOL
REMARK 927      BINDING AFFINITY PREDICTED BY RF-SCORE:    0.00 PKD
ROOT
HETATM    1  C   UNL     1      -8.384   9.121  64.964  1.00  0.00    -0.158 C  
HETATM    2  C   UNL     1      -9.279   9.848  63.924  1.00  0.00    -0.295 C  
HETATM    3  C   UNL     1     -10.296  10.857  64.401  1.00  0.00    -0.430 A  
HETATM    4  C   UNL     1     -10.647  10.913  65.747  1.00  0.00    -0.230 A  
HETATM    5  C   UNL     1     -11.408  11.985  66.227  1.00  0.00    -0.415 A  
HETATM    6  C   UNL     1     -10.000   9.953  66.675  1.00  0.00    -0.277 C  
HETATM    7  C   UNL     1      -8.971  10.931  67.964  1.00  0.00    -0.145 C  
HETATM    8  C   UNL     1     -10.755   9.163  67.584  1.00  0.00    -0.257 C  
HETATM    9  C   UNL     1     -11.866  12.983  65.369  1.00  0.00    -0.388 A  
HETATM   10  C   UNL     1      -7.521  10.060  68.709  1.00  0.00    -0.081 C  
HETATM   11  C   UNL     1     -11.629  12.858  64.002  1.00  0.00    -0.486 A  
HETATM   12  C   UNL     1      -9.287   8.823  67.770  1.00  0.00    -0.157 C  
HETATM   13  C   UNL     1      -9.168   8.358  65.837  1.00  0.00    -0.217 C  
HETATM   14  N   UNL     1      -8.030   9.502  66.387  1.00  0.00    -0.110 NA 
HETATM   15  C   UNL     1     -10.854  11.794  63.520  1.00  0.00    -0.496 A  
HETATM   16  C   UNL     1      -7.247  10.751  66.128  1.00  0.00    -0.126 C  
HETATM   17  C   UNL     1      -7.000   8.397  68.168  1.00  0.00    -0.081 C  
HETATM   18  C   UNL     1      -7.746   7.446  66.777  1.00  0.00    -0.109 C  
ENDROOT
BRANCH   9  19
HETATM   19  O   UNL     1     -12.497  14.021  65.997  1.00  0.00    -0.468 OA 
HETATM   20  C   UNL     1     -12.023  14.383  67.286  1.00  0.00    -0.377 C  
ENDBRANCH   9  19
TORSDOF 1
ENDMDL
MODEL       31
REMARK 921   NORMALIZED FREE ENERGY PREDICTED BY IDOCK:   -4.99 KCAL/MOL
REMARK 922        TOTAL FREE ENERGY PREDICTED BY IDOCK:   -5.35 KCAL/MOL
REMARK 923 INTER-LIGAND FREE ENERGY PREDICTED BY IDOCK:   -5.27 KCAL/MOL
REMARK 924 INTRA-LIGAND FREE ENERGY PREDICTED BY IDOCK:   -0.08 KCAL/MOL
REMARK 927      BINDING AFFINITY PREDICTED BY RF-SCORE:    0.00 PKD
ROOT
HETATM    1  C   UNL     1     -10.242   6.238  69.333  1.00  0.00    -0.193 C  
HETATM    2  C   UNL     1     -11.453   6.230  70.304  1.00  0.00    -0.428 C  
HETATM    3  C   UNL     1     -11.901   7.526  70.937  1.00  0.00    -0.293 A  
HETATM    4  C   UNL     1     -11.071   8.643  70.904  1.00  0.00    -0.310 A  
HETATM    5  C   UNL     1     -11.569   9.896  71.282  1.00  0.00    -0.456 A  
HETATM    6  C   UNL     1      -9.750   8.509  70.243  1.00  0.00    -0.182 C  
HETATM    7  C   UNL     1      -9.684   9.696  68.738  1.00  0.00    -0.167 C  
HETATM    8  C   UNL     1      -8.548   8.928  70.875  1.00  0.00    -0.242 C  
HETATM    9  C   UNL     1     -12.876  10.041  71.740  1.00  0.00    -0.446 A  
HETATM   10  C   UNL     1      -8.562   9.220  67.348  1.00  0.00    -0.122 C  
HETATM   11  C   UNL     1     -13.665   8.904  71.899  1.00  0.00    -0.488 A  
HETATM   12  C   UNL     1      -8.192   8.370  69.510  1.00  0.00    -0.118 C  
HETATM   13  C   UNL     1      -9.083   6.656  69.996  1.00  0.00    -0.151 C  
HETATM   14  N   UNL     1      -9.622   7.377  68.549  1.00  0.00    -0.145 NA 
HETATM   15  C   UNL     1     -13.175   7.651  71.507  1.00  0.00    -0.380 A  
HETATM   16  C   UNL     1     -10.757   7.698  67.627  1.00  0.00    -0.175 C  
HETATM   17  C   UNL     1      -7.647   7.641  67.331  1.00  0.00    -0.109 C  
HETATM   18  C   UNL     1      -7.804   6.305  68.591  1.00  0.00    -0.102 C  
ENDROOT
BRANCH   9  19
HETATM   19  O   UNL     1     -13.256  11.336  71.963  1.00  0.00    -0.506 OA 
HETATM   20  C   UNL     1     -12.624  12.340  71.181  1.00  0.00    -0.253 C  
ENDBRANCH   9  19
TORSDOF 1
ENDMDL
MODEL       32
REMARK 921   NORMALIZED FREE ENERGY PREDICTED BY IDOCK:   -4.99 KCAL/MOL
REMARK 922        TOTAL FREE ENERGY PREDICTED BY IDOCK:   -5.34 KCAL/MOL
REMARK 923 INTER-LIGAND FREE ENERGY PREDICTED BY IDOCK:   -5.26 KCAL/MOL
REMARK 924 INTRA-LIGAND FREE ENERGY PREDICTED BY IDOCK:   -0.08 KCAL/MOL
REMARK 927      BINDING AFFINITY PREDICTED BY RF-SCORE:    0.00 PKD
ROOT
HETATM    1  C   UNL     1     -10.938  15.033  65.596  1.00  0.00    -0.354 C  
HETATM    2  C   UNL     1     -10.849  13.640  64.914  1.00  0.00    -0.382 C  
HETATM    3  C   UNL     1     -10.089  12.530  65.599  1.00  0.00    -0.285 A  
HETATM    4  C   UNL     1      -9.227  12.819  66.653  1.00  0.00    -0.212 A  
HETATM    5  C   UNL     1      -8.701  11.781  67.432  1.00  0.00    -0.162 A  
HETATM    6  C   UNL     1      -9.082  14.237  67.063  1.00  0.00    -0.246 C  
HETATM    7  C   UNL     1      -9.696  14.428  68.870  1.00  0.00    -0.145 C  
HETATM    8  C   UNL     1      -7.807  14.845  67.224  1.00  0.00    -0.235 C  
HETATM    9  C   UNL     1      -8.987  10.449  67.141  1.00  0.00    -0.139 A  
HETATM   10  C   UNL     1     -10.339  16.090  69.361  1.00  0.00    -0.272 C  
HETATM   11  C   UNL     1      -9.741  10.153  66.008  1.00  0.00    -0.285 A  
HETATM   12  C   UNL     1      -8.868  15.885  67.538  1.00  0.00    -0.199 C  
HETATM   13  C   UNL     1      -9.663  15.592  65.734  1.00  0.00    -0.380 C  
HETATM   14  N   UNL     1     -10.740  15.428  67.045  1.00  0.00    -0.317 NA 
HETATM   15  C   UNL     1     -10.282  11.190  65.236  1.00  0.00    -0.337 A  
HETATM   16  C   UNL     1     -11.898  14.710  67.665  1.00  0.00    -0.337 C  
HETATM   17  C   UNL     1     -10.507  17.462  68.169  1.00  0.00    -0.389 C  
HETATM   18  C   UNL     1     -10.184  17.346  66.358  1.00  0.00    -0.339 C  
ENDROOT
BRANCH   9  19
HETATM   19  O   UNL     1      -8.498   9.556  68.054  1.00  0.00    -0.118 OA 
HETATM   20  C   UNL     1      -7.897  10.088  69.225  1.00  0.00    -0.125 C  
ENDBRANCH   9  19
TORSDOF 1
ENDMDL
MODEL       33
REMARK 921   NORMALIZED FREE ENERGY PREDICTED BY IDOCK:   -4.97 KCAL/MOL
REMARK 922        TOTAL FREE ENERGY PREDICTED BY IDOCK:   -5.32 KCAL/MOL
REMARK 923 INTER-LIGAND FREE ENERGY PREDICTED BY IDOCK:   -5.24 KCAL/MOL
REMARK 924 INTRA-LIGAND FREE ENERGY PREDICTED BY IDOCK:   -0.08 KCAL/MOL
REMARK 927      BINDING AFFINITY PREDICTED BY RF-SCORE:    0.00 PKD
ROOT
HETATM    1  C   UNL     1      -9.779   9.559  65.745  1.00  0.00    -0.287 C  
HETATM    2  C   UNL     1     -10.304  10.623  64.743  1.00  0.00    -0.353 C  
HETATM    3  C   UNL     1     -10.665  12.000  65.249  1.00  0.00    -0.331 A  
HETATM    4  C   UNL     1     -10.824  12.224  66.613  1.00  0.00    -0.296 A  
HETATM    5  C   UNL     1     -10.931  13.532  67.100  1.00  0.00    -0.302 A  
HETATM    6  C   UNL     1     -10.638  11.074  67.533  1.00  0.00    -0.266 C  
HETATM    7  C   UNL     1      -9.156  11.440  68.694  1.00  0.00    -0.138 C  
HETATM    8  C   UNL     1     -11.595  10.750  68.533  1.00  0.00    -0.325 C  
HETATM    9  C   UNL     1     -10.928  14.623  66.233  1.00  0.00    -0.327 A  
HETATM   10  C   UNL     1      -8.242   9.981  69.366  1.00  0.00    -0.158 C  
HETATM   11  C   UNL     1     -10.903  14.393  64.860  1.00  0.00    -0.430 A  
HETATM   12  C   UNL     1     -10.461   9.745  68.623  1.00  0.00    -0.233 C  
HETATM   13  C   UNL     1     -10.752   9.272  66.709  1.00  0.00    -0.120 C  
HETATM   14  N   UNL     1      -9.161   9.728  67.118  1.00  0.00    -0.137 NA 
HETATM   15  C   UNL     1     -10.780  13.086  64.370  1.00  0.00    -0.414 A  
HETATM   16  C   UNL     1      -7.901  10.443  66.743  1.00  0.00    -0.117 C  
HETATM   17  C   UNL     1      -8.634   8.270  68.865  1.00  0.00    -0.132 C  
HETATM   18  C   UNL     1      -9.865   7.792  67.580  1.00  0.00    -0.221 C  
ENDROOT
BRANCH   9  19
HETATM   19  O   UNL     1     -10.924  15.839  66.859  1.00  0.00    -0.300 OA 
HETATM   20  C   UNL     1     -11.178  15.851  68.256  1.00  0.00    -0.354 C  
ENDBRANCH   9  19
TORSDOF 1
ENDMDL
MODEL       34
REMARK 921   NORMALIZED FREE ENERGY PREDICTED BY IDOCK:   -4.97 KCAL/MOL
REMARK 922        TOTAL FREE ENERGY PREDICTED BY IDOCK:   -5.32 KCAL/MOL
REMARK 923 INTER-LIGAND FREE ENERGY PREDICTED BY IDOCK:   -5.26 KCAL/MOL
REMARK 924 INTRA-LIGAND FREE ENERGY PREDICTED BY IDOCK:   -0.06 KCAL/MOL
REMARK 927      BINDING AFFINITY PREDICTED BY RF-SCORE:    0.00 PKD
ROOT
HETATM    1  C   UNL     1     -10.400   7.426  71.612  1.00  0.00    -0.196 C  
HETATM    2  C   UNL     1     -11.043   8.826  71.803  1.00  0.00    -0.417 C  
HETATM    3  C   UNL     1     -11.134   9.765  70.623  1.00  0.00    -0.398 A  
HETATM    4  C   UNL     1     -10.387   9.518  69.475  1.00  0.00    -0.229 A  
HETATM    5  C   UNL     1     -10.638  10.248  68.307  1.00  0.00    -0.255 A  
HETATM    6  C   UNL     1      -9.508   8.323  69.460  1.00  0.00    -0.162 C  
HETATM    7  C   UNL     1     -10.105   7.128  68.084  1.00  0.00    -0.195 C  
HETATM    8  C   UNL     1      -8.142   8.400  69.074  1.00  0.00    -0.116 C  
HETATM    9  C   UNL     1     -11.597  11.258  68.283  1.00  0.00    -0.300 A  
HETATM   10  C   UNL     1      -9.738   5.332  68.321  1.00  0.00    -0.185 C  
HETATM   11  C   UNL     1     -12.251  11.595  69.466  1.00  0.00    -0.257 A  
HETATM   12  C   UNL     1      -8.450   6.957  69.431  1.00  0.00    -0.133 C  
HETATM   13  C   UNL     1      -9.059   7.550  71.233  1.00  0.00    -0.147 C  
HETATM   14  N   UNL     1     -10.178   6.613  70.353  1.00  0.00    -0.187 NA 
HETATM   15  C   UNL     1     -12.013  10.856  70.633  1.00  0.00    -0.467 A  
HETATM   16  C   UNL     1     -11.600   6.352  69.965  1.00  0.00    -0.377 C  
HETATM   17  C   UNL     1      -8.958   4.689  69.841  1.00  0.00    -0.144 C  
HETATM   18  C   UNL     1      -8.556   5.687  71.337  1.00  0.00    -0.132 C  
ENDROOT
BRANCH   9  19
HETATM   19  O   UNL     1     -11.811  11.804  67.047  1.00  0.00    -0.599 OA 
HETATM   20  C   UNL     1     -11.547  13.191  66.897  1.00  0.00    -0.368 C  
ENDBRANCH   9  19
TORSDOF 1
ENDMDL
MODEL       35
REMARK 921   NORMALIZED FREE ENERGY PREDICTED BY IDOCK:   -4.96 KCAL/MOL
REMARK 922        TOTAL FREE ENERGY PREDICTED BY IDOCK:   -5.32 KCAL/MOL
REMARK 923 INTER-LIGAND FREE ENERGY PREDICTED BY IDOCK:   -5.25 KCAL/MOL
REMARK 924 INTRA-LIGAND FREE ENERGY PREDICTED BY IDOCK:   -0.07 KCAL/MOL
REMARK 927      BINDING AFFINITY PREDICTED BY RF-SCORE:    0.00 PKD
ROOT
HETATM    1  C   UNL     1     -11.138  16.802  68.145  1.00  0.00    -0.254 C  
HETATM    2  C   UNL     1     -10.713  18.252  67.791  1.00  0.00    -0.358 C  
HETATM    3  C   UNL     1      -9.315  18.508  67.279  1.00  0.00    -0.286 A  
HETATM    4  C   UNL     1      -8.332  17.533  67.413  1.00  0.00    -0.220 A  
HETATM    5  C   UNL     1      -7.110  17.673  66.743  1.00  0.00    -0.239 A  
HETATM    6  C   UNL     1      -8.703  16.257  68.075  1.00  0.00    -0.178 C  
HETATM    7  C   UNL     1      -8.501  14.823  66.819  1.00  0.00    -0.179 C  
HETATM    8  C   UNL     1      -7.926  15.705  69.129  1.00  0.00    -0.227 C  
HETATM    9  C   UNL     1      -6.838  18.803  65.976  1.00  0.00    -0.254 A  
HETATM   10  C   UNL     1      -9.564  13.332  67.077  1.00  0.00    -0.243 C  
HETATM   11  C   UNL     1      -7.768  19.840  65.949  1.00  0.00    -0.328 A  
HETATM   12  C   UNL     1      -9.100  14.778  68.873  1.00  0.00    -0.168 C  
HETATM   13  C   UNL     1     -10.348  16.299  69.185  1.00  0.00    -0.272 C  
HETATM   14  N   UNL     1     -10.552  15.475  67.707  1.00  0.00    -0.274 NA 
HETATM   15  C   UNL     1      -8.998  19.696  66.605  1.00  0.00    -0.419 A  
HETATM   16  C   UNL     1     -10.855  15.534  66.242  1.00  0.00    -0.283 C  
HETATM   17  C   UNL     1     -10.838  13.257  68.382  1.00  0.00    -0.279 C  
HETATM   18  C   UNL     1     -11.302  14.648  69.499  1.00  0.00    -0.314 C  
ENDROOT
BRANCH   9  19
HETATM   19  O   UNL     1      -5.655  18.749  65.291  1.00  0.00    -0.170 OA 
HETATM   20  C   UNL     1      -5.659  19.220  63.952  1.00  0.00    -0.308 C  
ENDBRANCH   9  19
TORSDOF 1
ENDMDL
MODEL       36
REMARK 921   NORMALIZED FREE ENERGY PREDICTED BY IDOCK:   -4.96 KCAL/MOL
REMARK 922        TOTAL FREE ENERGY PREDICTED BY IDOCK:   -5.31 KCAL/MOL
REMARK 923 INTER-LIGAND FREE ENERGY PREDICTED BY IDOCK:   -5.25 KCAL/MOL
REMARK 924 INTRA-LIGAND FREE ENERGY PREDICTED BY IDOCK:   -0.07 KCAL/MOL
REMARK 927      BINDING AFFINITY PREDICTED BY RF-SCORE:    0.00 PKD
ROOT
HETATM    1  C   UNL     1      -7.882  16.609  68.298  1.00  0.00    -0.182 C  
HETATM    2  C   UNL     1      -7.514  15.101  68.335  1.00  0.00    -0.115 C  
HETATM    3  C   UNL     1      -8.448  14.097  67.702  1.00  0.00    -0.189 A  
HETATM    4  C   UNL     1      -9.749  14.465  67.369  1.00  0.00    -0.220 A  
HETATM    5  C   UNL     1     -10.536  13.617  66.582  1.00  0.00    -0.277 A  
HETATM    6  C   UNL     1     -10.176  15.855  67.666  1.00  0.00    -0.263 C  
HETATM    7  C   UNL     1     -10.605  16.739  66.019  1.00  0.00    -0.232 C  
HETATM    8  C   UNL     1     -11.384  16.137  68.360  1.00  0.00    -0.345 C  
HETATM    9  C   UNL     1     -10.057  12.380  66.159  1.00  0.00    -0.248 A  
HETATM   10  C   UNL     1     -10.418  18.577  65.985  1.00  0.00    -0.433 C  
HETATM   11  C   UNL     1      -8.807  11.953  66.601  1.00  0.00    -0.191 A  
HETATM   12  C   UNL     1     -10.709  17.457  68.033  1.00  0.00    -0.359 C  
HETATM   13  C   UNL     1      -9.075  16.840  68.992  1.00  0.00    -0.191 C  
HETATM   14  N   UNL     1      -8.830  17.364  67.389  1.00  0.00    -0.225 NA 
HETATM   15  C   UNL     1      -8.010  12.806  67.376  1.00  0.00    -0.179 A  
HETATM   16  C   UNL     1      -8.121  17.190  66.082  1.00  0.00    -0.248 C  
HETATM   17  C   UNL     1      -9.742  19.514  67.398  1.00  0.00    -0.449 C  
HETATM   18  C   UNL     1      -9.067  18.772  68.944  1.00  0.00    -0.250 C  
ENDROOT
BRANCH   9  19
HETATM   19  O   UNL     1     -10.892  11.713  65.304  1.00  0.00    -0.287 OA 
HETATM   20  C   UNL     1     -10.288  10.972  64.254  1.00  0.00    -0.364 C  
ENDBRANCH   9  19
TORSDOF 1
ENDMDL
MODEL       37
REMARK 921   NORMALIZED FREE ENERGY PREDICTED BY IDOCK:   -4.95 KCAL/MOL
REMARK 922        TOTAL FREE ENERGY PREDICTED BY IDOCK:   -5.30 KCAL/MOL
REMARK 923 INTER-LIGAND FREE ENERGY PREDICTED BY IDOCK:   -5.24 KCAL/MOL
REMARK 924 INTRA-LIGAND FREE ENERGY PREDICTED BY IDOCK:   -0.07 KCAL/MOL
REMARK 927      BINDING AFFINITY PREDICTED BY RF-SCORE:    0.00 PKD
ROOT
HETATM    1  C   UNL     1      -7.921  19.477  68.147  1.00  0.00    -0.318 C  
HETATM    2  C   UNL     1      -6.793  18.884  69.034  1.00  0.00    -0.336 C  
HETATM    3  C   UNL     1      -6.775  17.400  69.314  1.00  0.00    -0.222 A  
HETATM    4  C   UNL     1      -7.903  16.627  69.054  1.00  0.00    -0.215 A  
HETATM    5  C   UNL     1      -7.818  15.230  69.096  1.00  0.00    -0.204 A  
HETATM    6  C   UNL     1      -9.103  17.308  68.508  1.00  0.00    -0.269 C  
HETATM    7  C   UNL     1      -9.482  16.598  66.767  1.00  0.00    -0.260 C  
HETATM    8  C   UNL     1     -10.392  17.128  69.078  1.00  0.00    -0.331 C  
HETATM    9  C   UNL     1      -6.628  14.593  69.442  1.00  0.00    -0.138 A  
HETATM   10  C   UNL     1     -10.368  17.712  65.587  1.00  0.00    -0.120 C  
HETATM   11  C   UNL     1      -5.537  15.366  69.832  1.00  0.00    -0.123 A  
HETATM   12  C   UNL     1     -10.525  18.081  67.905  1.00  0.00    -0.408 C  
HETATM   13  C   UNL     1      -9.170  19.277  68.746  1.00  0.00    -0.421 C  
HETATM   14  N   UNL     1      -8.834  18.802  67.144  1.00  0.00    -0.273 NA 
HETATM   15  C   UNL     1      -5.615  16.765  69.776  1.00  0.00    -0.194 A  
HETATM   16  C   UNL     1      -7.825  18.390  66.119  1.00  0.00    -0.207 C  
HETATM   17  C   UNL     1     -10.762  19.447  65.994  1.00  0.00    -0.512 C  
HETATM   18  C   UNL     1     -10.244  20.326  67.529  1.00  0.00    -0.486 C  
ENDROOT
BRANCH   9  19
HETATM   19  O   UNL     1      -6.665  13.230  69.329  1.00  0.00    -0.107 OA 
HETATM   20  C   UNL     1      -6.499  12.683  68.029  1.00  0.00    -0.093 C  
ENDBRANCH   9  19
TORSDOF 1
ENDMDL
MODEL       38
REMARK 921   NORMALIZED FREE ENERGY PREDICTED BY IDOCK:   -4.92 KCAL/MOL
REMARK 922        TOTAL FREE ENERGY PREDICTED BY IDOCK:   -5.28 KCAL/MOL
REMARK 923 INTER-LIGAND FREE ENERGY PREDICTED BY IDOCK:   -5.21 KCAL/MOL
REMARK 924 INTRA-LIGAND FREE ENERGY PREDICTED BY IDOCK:   -0.07 KCAL/MOL
REMARK 927      BINDING AFFINITY PREDICTED BY RF-SCORE:    0.00 PKD
ROOT
HETATM    1  C   UNL     1     -12.014  12.758  67.966  1.00  0.00    -0.264 C  
HETATM    2  C   UNL     1     -11.909  11.544  68.928  1.00  0.00    -0.406 C  
HETATM    3  C   UNL     1     -10.595  10.811  69.053  1.00  0.00    -0.250 A  
HETATM    4  C   UNL     1      -9.591  11.010  68.109  1.00  0.00    -0.175 A  
HETATM    5  C   UNL     1      -8.302  10.516  68.343  1.00  0.00    -0.126 A  
HETATM    6  C   UNL     1      -9.864  11.948  66.992  1.00  0.00    -0.206 C  
HETATM    7  C   UNL     1      -8.632  13.414  67.096  1.00  0.00    -0.201 C  
HETATM    8  C   UNL     1      -9.627  11.589  65.637  1.00  0.00    -0.256 C  
HETATM    9  C   UNL     1      -8.013   9.780  69.490  1.00  0.00    -0.137 A  
HETATM   10  C   UNL     1      -9.187  15.023  66.374  1.00  0.00    -0.328 C  
HETATM   11  C   UNL     1      -9.047   9.467  70.370  1.00  0.00    -0.302 A  
HETATM   12  C   UNL     1     -10.168  13.007  65.661  1.00  0.00    -0.296 C  
HETATM   13  C   UNL     1     -11.774  12.359  66.646  1.00  0.00    -0.438 C  
HETATM   14  N   UNL     1     -10.930  13.643  67.384  1.00  0.00    -0.272 NA 
HETATM   15  C   UNL     1     -10.334   9.974  70.146  1.00  0.00    -0.321 A  
HETATM   16  C   UNL     1     -10.430  14.289  68.639  1.00  0.00    -0.249 C  
HETATM   17  C   UNL     1     -10.867  15.261  65.702  1.00  0.00    -0.371 C  
HETATM   18  C   UNL     1     -12.224  14.016  65.759  1.00  0.00    -0.475 C  
ENDROOT
BRANCH   9  19
HETATM   19  O   UNL     1      -6.691   9.462  69.637  1.00  0.00    -0.044 OA 
HETATM   20  C   UNL     1      -6.005  10.035  70.741  1.00  0.00    -0.095 C  
ENDBRANCH   9  19
TORSDOF 1
ENDMDL
MODEL       39
REMARK 921   NORMALIZED FREE ENERGY PREDICTED BY IDOCK:   -4.87 KCAL/MOL
REMARK 922        TOTAL FREE ENERGY PREDICTED BY IDOCK:   -5.22 KCAL/MOL
REMARK 923 INTER-LIGAND FREE ENERGY PREDICTED BY IDOCK:   -5.16 KCAL/MOL
REMARK 924 INTRA-LIGAND FREE ENERGY PREDICTED BY IDOCK:   -0.06 KCAL/MOL
REMARK 927      BINDING AFFINITY PREDICTED BY RF-SCORE:    0.00 PKD
ROOT
HETATM    1  C   UNL     1      -9.636   9.761  65.245  1.00  0.00    -0.300 C  
HETATM    2  C   UNL     1     -10.647  10.797  64.681  1.00  0.00    -0.269 C  
HETATM    3  C   UNL     1     -11.192  11.870  65.594  1.00  0.00    -0.360 A  
HETATM    4  C   UNL     1     -11.044  11.756  66.973  1.00  0.00    -0.358 A  
HETATM    5  C   UNL     1     -11.340  12.845  67.801  1.00  0.00    -0.343 A  
HETATM    6  C   UNL     1     -10.349  10.555  67.501  1.00  0.00    -0.265 C  
HETATM    7  C   UNL     1      -8.756  11.109  68.412  1.00  0.00    -0.157 C  
HETATM    8  C   UNL     1     -10.906   9.764  68.543  1.00  0.00    -0.227 C  
HETATM    9  C   UNL     1     -11.830  14.037  67.272  1.00  0.00    -0.411 A  
HETATM   10  C   UNL     1      -7.369   9.889  68.485  1.00  0.00    -0.078 C  
HETATM   11  C   UNL     1     -12.104  14.107  65.908  1.00  0.00    -0.441 A  
HETATM   12  C   UNL     1      -9.576   9.151  68.144  1.00  0.00    -0.160 C  
HETATM   13  C   UNL     1     -10.225   9.007  66.266  1.00  0.00    -0.237 C  
HETATM   14  N   UNL     1      -8.745   9.828  66.469  1.00  0.00    -0.127 NA 
HETATM   15  C   UNL     1     -11.794  13.024  65.074  1.00  0.00    -0.401 A  
HETATM   16  C   UNL     1      -7.841  10.951  66.064  1.00  0.00    -0.121 C  
HETATM   17  C   UNL     1      -7.443   8.277  67.632  1.00  0.00    -0.094 C  
HETATM   18  C   UNL     1      -8.808   7.719  66.526  1.00  0.00    -0.175 C  
ENDROOT
BRANCH   9  19
HETATM   19  O   UNL     1     -11.964  15.046  68.185  1.00  0.00    -0.299 OA 
HETATM   20  C   UNL     1     -10.923  16.010  68.244  1.00  0.00    -0.335 C  
ENDBRANCH   9  19
TORSDOF 1
ENDMDL
MODEL       40
REMARK 921   NORMALIZED FREE ENERGY PREDICTED BY IDOCK:   -4.83 KCAL/MOL
REMARK 922        TOTAL FREE ENERGY PREDICTED BY IDOCK:   -5.18 KCAL/MOL
REMARK 923 INTER-LIGAND FREE ENERGY PREDICTED BY IDOCK:   -5.11 KCAL/MOL
REMARK 924 INTRA-LIGAND FREE ENERGY PREDICTED BY IDOCK:   -0.06 KCAL/MOL
REMARK 927      BINDING AFFINITY PREDICTED BY RF-SCORE:    0.00 PKD
ROOT
HETATM    1  C   UNL     1      -8.976  12.389  66.631  1.00  0.00    -0.184 C  
HETATM    2  C   UNL     1     -10.034  13.471  66.975  1.00  0.00    -0.247 C  
HETATM    3  C   UNL     1     -10.976  13.241  68.133  1.00  0.00    -0.278 A  
HETATM    4  C   UNL     1     -11.110  11.970  68.683  1.00  0.00    -0.298 A  
HETATM    5  C   UNL     1     -11.801  11.798  69.889  1.00  0.00    -0.423 A  
HETATM    6  C   UNL     1     -10.311  10.868  68.091  1.00  0.00    -0.202 C  
HETATM    7  C   UNL     1      -9.105  10.192  69.420  1.00  0.00    -0.217 C  
HETATM    8  C   UNL     1     -10.902   9.631  67.715  1.00  0.00    -0.278 C  
HETATM    9  C   UNL     1     -12.403  12.878  70.531  1.00  0.00    -0.283 A  
HETATM   10  C   UNL     1      -7.543   9.414  68.811  1.00  0.00    -0.079 C  
HETATM   11  C   UNL     1     -12.383  14.127  69.914  1.00  0.00    -0.382 A  
HETATM   12  C   UNL     1      -9.419   9.561  67.399  1.00  0.00    -0.164 C  
HETATM   13  C   UNL     1      -9.600  11.191  66.267  1.00  0.00    -0.234 C  
HETATM   14  N   UNL     1      -8.406  11.271  67.480  1.00  0.00    -0.128 NA 
HETATM   15  C   UNL     1     -11.680  14.305  68.715  1.00  0.00    -0.378 A  
HETATM   16  C   UNL     1      -7.691  12.079  68.518  1.00  0.00    -0.127 C  
HETATM   17  C   UNL     1      -7.092   9.390  67.042  1.00  0.00    -0.086 C  
HETATM   18  C   UNL     1      -8.035  10.214  65.691  1.00  0.00    -0.147 C  
ENDROOT
BRANCH   9  19
HETATM   19  O   UNL     1     -12.941  12.578  71.753  1.00  0.00    -0.375 OA 
HETATM   20  C   UNL     1     -13.753  13.571  72.364  1.00  0.00    -0.602 C  
ENDBRANCH   9  19
TORSDOF 1
ENDMDL
MODEL       41
REMARK 921   NORMALIZED FREE ENERGY PREDICTED BY IDOCK:   -4.78 KCAL/MOL
REMARK 922        TOTAL FREE ENERGY PREDICTED BY IDOCK:   -5.12 KCAL/MOL
REMARK 923 INTER-LIGAND FREE ENERGY PREDICTED BY IDOCK:   -5.07 KCAL/MOL
REMARK 924 INTRA-LIGAND FREE ENERGY PREDICTED BY IDOCK:   -0.06 KCAL/MOL
REMARK 927      BINDING AFFINITY PREDICTED BY RF-SCORE:    0.00 PKD
ROOT
HETATM    1  C   UNL     1     -10.452  11.129  68.320  1.00  0.00    -0.191 C  
HETATM    2  C   UNL     1     -11.272  10.922  69.621  1.00  0.00    -0.348 C  
HETATM    3  C   UNL     1     -11.211   9.589  70.329  1.00  0.00    -0.307 A  
HETATM    4  C   UNL     1     -10.690   8.475  69.678  1.00  0.00    -0.200 A  
HETATM    5  C   UNL     1     -10.422   7.305  70.398  1.00  0.00    -0.232 A  
HETATM    6  C   UNL     1     -10.214   8.645  68.283  1.00  0.00    -0.237 C  
HETATM    7  C   UNL     1      -8.332   8.279  68.219  1.00  0.00    -0.132 C  
HETATM    8  C   UNL     1     -10.619   7.768  67.240  1.00  0.00    -0.376 C  
HETATM    9  C   UNL     1     -10.714   7.216  71.758  1.00  0.00    -0.215 A  
HETATM   10  C   UNL     1      -7.364   9.113  66.884  1.00  0.00    -0.090 C  
HETATM   11  C   UNL     1     -11.357   8.283  72.381  1.00  0.00    -0.457 A  
HETATM   12  C   UNL     1      -9.684   8.807  66.646  1.00  0.00    -0.309 C  
HETATM   13  C   UNL     1     -10.883  10.247  67.322  1.00  0.00    -0.312 C  
HETATM   14  N   UNL     1      -9.249  10.375  67.790  1.00  0.00    -0.141 NA 
HETATM   15  C   UNL     1     -11.612   9.461  71.666  1.00  0.00    -0.466 A  
HETATM   16  C   UNL     1      -8.245  10.724  68.843  1.00  0.00    -0.149 C  
HETATM   17  C   UNL     1      -8.118  10.326  65.747  1.00  0.00    -0.149 C  
HETATM   18  C   UNL     1      -9.849  10.950  65.849  1.00  0.00    -0.285 C  
ENDROOT
BRANCH   9  19
HETATM   19  O   UNL     1     -10.294   6.057  72.350  1.00  0.00    -0.188 OA 
HETATM   20  C   UNL     1     -11.296   5.190  72.861  1.00  0.00    -0.282 C  
ENDBRANCH   9  19
TORSDOF 1
ENDMDL
MODEL       42
REMARK 921   NORMALIZED FREE ENERGY PREDICTED BY IDOCK:   -4.78 KCAL/MOL
REMARK 922        TOTAL FREE ENERGY PREDICTED BY IDOCK:   -5.12 KCAL/MOL
REMARK 923 INTER-LIGAND FREE ENERGY PREDICTED BY IDOCK:   -5.06 KCAL/MOL
REMARK 924 INTRA-LIGAND FREE ENERGY PREDICTED BY IDOCK:   -0.06 KCAL/MOL
REMARK 927      BINDING AFFINITY PREDICTED BY RF-SCORE:    0.00 PKD
ROOT
HETATM    1  C   UNL     1      -7.734   9.194  69.366  1.00  0.00    -0.080 C  
HETATM    2  C   UNL     1      -8.105   8.851  70.834  1.00  0.00    -0.196 C  
HETATM    3  C   UNL     1      -9.542   8.974  71.282  1.00  0.00    -0.361 A  
HETATM    4  C   UNL     1     -10.460   9.672  70.501  1.00  0.00    -0.367 A  
HETATM    5  C   UNL     1     -11.827   9.595  70.792  1.00  0.00    -0.378 A  
HETATM    6  C   UNL     1      -9.976  10.285  69.240  1.00  0.00    -0.244 C  
HETATM    7  C   UNL     1     -10.892   9.476  67.762  1.00  0.00    -0.258 C  
HETATM    8  C   UNL     1     -10.241  11.643  68.915  1.00  0.00    -0.143 C  
HETATM    9  C   UNL     1     -12.289   8.866  71.885  1.00  0.00    -0.376 A  
HETATM   10  C   UNL     1     -10.008   9.460  66.139  1.00  0.00    -0.351 C  
HETATM   11  C   UNL     1     -11.363   8.278  72.744  1.00  0.00    -0.332 A  
HETATM   12  C   UNL     1      -9.430  11.039  67.784  1.00  0.00    -0.169 C  
HETATM   13  C   UNL     1      -8.013  10.538  69.092  1.00  0.00    -0.145 C  
HETATM   14  N   UNL     1      -8.603   9.263  68.127  1.00  0.00    -0.124 NA 
HETATM   15  C   UNL     1      -9.995   8.340  72.447  1.00  0.00    -0.379 A  
HETATM   16  C   UNL     1      -9.000   7.823  68.014  1.00  0.00    -0.126 C  
HETATM   17  C   UNL     1      -8.296  10.066  65.956  1.00  0.00    -0.126 C  
HETATM   18  C   UNL     1      -7.217  10.643  67.334  1.00  0.00    -0.092 C  
ENDROOT
BRANCH   9  19
HETATM   19  O   UNL     1     -13.652   8.789  71.977  1.00  0.00    -0.372 OA 
HETATM   20  C   UNL     1     -14.267   7.602  71.497  1.00  0.00    -0.439 C  
ENDBRANCH   9  19
TORSDOF 1
ENDMDL
MODEL       43
REMARK 921   NORMALIZED FREE ENERGY PREDICTED BY IDOCK:   -4.77 KCAL/MOL
REMARK 922        TOTAL FREE ENERGY PREDICTED BY IDOCK:   -5.11 KCAL/MOL
REMARK 923 INTER-LIGAND FREE ENERGY PREDICTED BY IDOCK:   -5.05 KCAL/MOL
REMARK 924 INTRA-LIGAND FREE ENERGY PREDICTED BY IDOCK:   -0.06 KCAL/MOL
REMARK 927      BINDING AFFINITY PREDICTED BY RF-SCORE:    0.00 PKD
ROOT
HETATM    1  C   UNL     1     -10.796   5.864  70.272  1.00  0.00    -0.320 C  
HETATM    2  C   UNL     1     -11.819   6.661  71.125  1.00  0.00    -0.414 C  
HETATM    3  C   UNL     1     -11.824   8.170  71.054  1.00  0.00    -0.279 A  
HETATM    4  C   UNL     1     -10.747   8.846  70.489  1.00  0.00    -0.271 A  
HETATM    5  C   UNL     1     -10.847  10.216  70.215  1.00  0.00    -0.370 A  
HETATM    6  C   UNL     1      -9.611   8.041  69.976  1.00  0.00    -0.171 C  
HETATM    7  C   UNL     1      -9.453   8.322  68.086  1.00  0.00    -0.148 C  
HETATM    8  C   UNL     1      -8.266   8.330  70.331  1.00  0.00    -0.114 C  
HETATM    9  C   UNL     1     -11.995  10.932  70.544  1.00  0.00    -0.371 A  
HETATM   10  C   UNL     1      -8.698   6.953  67.099  1.00  0.00    -0.120 C  
HETATM   11  C   UNL     1     -13.021  10.285  71.230  1.00  0.00    -0.517 A  
HETATM   12  C   UNL     1      -8.260   7.129  69.403  1.00  0.00    -0.132 C  
HETATM   13  C   UNL     1      -9.487   6.180  70.654  1.00  0.00    -0.185 C  
HETATM   14  N   UNL     1     -10.019   6.275  69.038  1.00  0.00    -0.141 NA 
HETATM   15  C   UNL     1     -12.930   8.911  71.492  1.00  0.00    -0.379 A  
HETATM   16  C   UNL     1     -11.150   6.452  68.073  1.00  0.00    -0.267 C  
HETATM   17  C   UNL     1      -8.233   5.354  67.847  1.00  0.00    -0.099 C  
HETATM   18  C   UNL     1      -8.552   4.862  69.594  1.00  0.00    -0.098 C  
ENDROOT
BRANCH   9  19
HETATM   19  O   UNL     1     -11.992  12.231  70.115  1.00  0.00    -0.334 OA 
HETATM   20  C   UNL     1     -12.533  13.205  70.995  1.00  0.00    -0.318 C  
ENDBRANCH   9  19
TORSDOF 1
ENDMDL
MODEL       44
REMARK 921   NORMALIZED FREE ENERGY PREDICTED BY IDOCK:   -4.72 KCAL/MOL
REMARK 922        TOTAL FREE ENERGY PREDICTED BY IDOCK:   -5.06 KCAL/MOL
REMARK 923 INTER-LIGAND FREE ENERGY PREDICTED BY IDOCK:   -4.99 KCAL/MOL
REMARK 924 INTRA-LIGAND FREE ENERGY PREDICTED BY IDOCK:   -0.07 KCAL/MOL
REMARK 927      BINDING AFFINITY PREDICTED BY RF-SCORE:    0.00 PKD
ROOT
HETATM    1  C   UNL     1     -10.847   8.003  71.861  1.00  0.00    -0.257 C  
HETATM    2  C   UNL     1     -11.654   9.313  71.648  1.00  0.00    -0.463 C  
HETATM    3  C   UNL     1     -11.275  10.238  70.517  1.00  0.00    -0.408 A  
HETATM    4  C   UNL     1     -10.049  10.091  69.874  1.00  0.00    -0.289 A  
HETATM    5  C   UNL     1      -9.792  10.790  68.688  1.00  0.00    -0.187 A  
HETATM    6  C   UNL     1      -9.143   9.014  70.343  1.00  0.00    -0.242 C  
HETATM    7  C   UNL     1      -8.875   7.762  68.915  1.00  0.00    -0.135 C  
HETATM    8  C   UNL     1      -7.776   9.261  70.645  1.00  0.00    -0.170 C  
HETATM    9  C   UNL     1     -10.728  11.675  68.159  1.00  0.00    -0.213 A  
HETATM   10  C   UNL     1      -8.469   6.023  69.395  1.00  0.00    -0.115 C  
HETATM   11  C   UNL     1     -11.900  11.923  68.871  1.00  0.00    -0.366 A  
HETATM   12  C   UNL     1      -8.054   7.790  70.892  1.00  0.00    -0.102 C  
HETATM   13  C   UNL     1      -9.510   8.294  72.155  1.00  0.00    -0.328 C  
HETATM   14  N   UNL     1      -9.963   7.231  70.903  1.00  0.00    -0.185 NA 
HETATM   15  C   UNL     1     -12.167  11.213  70.049  1.00  0.00    -0.402 A  
HETATM   16  C   UNL     1     -10.990   6.798  69.903  1.00  0.00    -0.291 C  
HETATM   17  C   UNL     1      -8.442   5.474  71.135  1.00  0.00    -0.126 C  
HETATM   18  C   UNL     1      -8.915   6.507  72.586  1.00  0.00    -0.134 C  
ENDROOT
BRANCH   9  19
HETATM   19  O   UNL     1     -10.387  12.196  66.941  1.00  0.00    -0.211 OA 
HETATM   20  C   UNL     1     -11.442  12.682  66.125  1.00  0.00    -0.365 C  
ENDBRANCH   9  19
TORSDOF 1
ENDMDL
MODEL       45
REMARK 921   NORMALIZED FREE ENERGY PREDICTED BY IDOCK:   -4.71 KCAL/MOL
REMARK 922        TOTAL FREE ENERGY PREDICTED BY IDOCK:   -5.05 KCAL/MOL
REMARK 923 INTER-LIGAND FREE ENERGY PREDICTED BY IDOCK:   -4.99 KCAL/MOL
REMARK 924 INTRA-LIGAND FREE ENERGY PREDICTED BY IDOCK:   -0.06 KCAL/MOL
REMARK 927      BINDING AFFINITY PREDICTED BY RF-SCORE:    0.00 PKD
ROOT
HETATM    1  C   UNL     1      -9.703   6.139  69.469  1.00  0.00    -0.146 C  
HETATM    2  C   UNL     1      -9.956   6.960  68.176  1.00  0.00    -0.170 C  
HETATM    3  C   UNL     1     -10.481   8.372  68.287  1.00  0.00    -0.214 A  
HETATM    4  C   UNL     1     -11.020   8.824  69.488  1.00  0.00    -0.080 A  
HETATM    5  C   UNL     1     -11.295  10.185  69.663  1.00  0.00    -0.289 A  
HETATM    6  C   UNL     1     -11.067   7.877  70.630  1.00  0.00    -0.263 C  
HETATM    7  C   UNL     1      -9.978   8.564  72.052  1.00  0.00    -0.383 C  
HETATM    8  C   UNL     1     -12.255   7.663  71.379  1.00  0.00    -0.351 C  
HETATM    9  C   UNL     1     -11.081  11.099  68.634  1.00  0.00    -0.239 A  
HETATM   10  C   UNL     1      -9.248   7.328  73.216  1.00  0.00    -0.216 C  
HETATM   11  C   UNL     1     -10.667  10.629  67.390  1.00  0.00    -0.326 A  
HETATM   12  C   UNL     1     -11.165   6.785  71.965  1.00  0.00    -0.297 C  
HETATM   13  C   UNL     1     -10.897   5.953  70.174  1.00  0.00    -0.402 C  
HETATM   14  N   UNL     1      -9.497   6.601  70.898  1.00  0.00    -0.165 NA 
HETATM   15  C   UNL     1     -10.377   9.269  67.216  1.00  0.00    -0.332 A  
HETATM   16  C   UNL     1      -8.202   7.336  70.743  1.00  0.00    -0.112 C  
HETATM   17  C   UNL     1      -9.438   5.529  72.972  1.00  0.00    -0.154 C  
HETATM   18  C   UNL     1     -10.248   4.730  71.522  1.00  0.00    -0.246 C  
ENDROOT
BRANCH   9  19
HETATM   19  O   UNL     1     -11.285  12.405  68.987  1.00  0.00    -0.248 OA 
HETATM   20  C   UNL     1     -11.836  13.265  68.000  1.00  0.00    -0.355 C  
ENDBRANCH   9  19
TORSDOF 1
ENDMDL
MODEL       46
REMARK 921   NORMALIZED FREE ENERGY PREDICTED BY IDOCK:   -4.65 KCAL/MOL
REMARK 922        TOTAL FREE ENERGY PREDICTED BY IDOCK:   -4.98 KCAL/MOL
REMARK 923 INTER-LIGAND FREE ENERGY PREDICTED BY IDOCK:   -4.92 KCAL/MOL
REMARK 924 INTRA-LIGAND FREE ENERGY PREDICTED BY IDOCK:   -0.06 KCAL/MOL
REMARK 927      BINDING AFFINITY PREDICTED BY RF-SCORE:    0.00 PKD
ROOT
HETATM    1  C   UNL     1     -11.262  14.120  65.902  1.00  0.00    -0.313 C  
HETATM    2  C   UNL     1     -11.259  12.576  65.731  1.00  0.00    -0.356 C  
HETATM    3  C   UNL     1     -10.505  11.724  66.724  1.00  0.00    -0.260 A  
HETATM    4  C   UNL     1      -9.581  12.308  67.586  1.00  0.00    -0.191 A  
HETATM    5  C   UNL     1      -9.054  11.569  68.652  1.00  0.00    -0.124 A  
HETATM    6  C   UNL     1      -9.364  13.772  67.485  1.00  0.00    -0.222 C  
HETATM    7  C   UNL     1      -9.879  14.593  69.140  1.00  0.00    -0.130 C  
HETATM    8  C   UNL     1      -8.062  14.333  67.385  1.00  0.00    -0.213 C  
HETATM    9  C   UNL     1      -9.403  10.233  68.841  1.00  0.00    -0.178 A  
HETATM   10  C   UNL     1     -10.436  16.353  69.061  1.00  0.00    -0.288 C  
HETATM   11  C   UNL     1     -10.223   9.611  67.903  1.00  0.00    -0.242 A  
HETATM   12  C   UNL     1      -9.067  15.470  67.365  1.00  0.00    -0.207 C  
HETATM   13  C   UNL     1      -9.962  14.627  65.797  1.00  0.00    -0.365 C  
HETATM   14  N   UNL     1     -10.977  14.970  67.123  1.00  0.00    -0.323 NA 
HETATM   15  C   UNL     1     -10.764  10.352  66.844  1.00  0.00    -0.272 A  
HETATM   16  C   UNL     1     -12.127  14.563  67.991  1.00  0.00    -0.198 C  
HETATM   17  C   UNL     1     -10.614  17.249  67.481  1.00  0.00    -0.329 C  
HETATM   18  C   UNL     1     -10.388  16.513  65.807  1.00  0.00    -0.359 C  
ENDROOT
BRANCH   9  19
HETATM   19  O   UNL     1      -8.900   9.676  69.985  1.00  0.00    -0.202 OA 
HETATM   20  C   UNL     1      -9.159   8.296  70.201  1.00  0.00    -0.147 C  
ENDBRANCH   9  19
TORSDOF 1
ENDMDL
MODEL       47
REMARK 921   NORMALIZED FREE ENERGY PREDICTED BY IDOCK:   -4.58 KCAL/MOL
REMARK 922        TOTAL FREE ENERGY PREDICTED BY IDOCK:   -4.91 KCAL/MOL
REMARK 923 INTER-LIGAND FREE ENERGY PREDICTED BY IDOCK:   -4.85 KCAL/MOL
REMARK 924 INTRA-LIGAND FREE ENERGY PREDICTED BY IDOCK:   -0.06 KCAL/MOL
REMARK 927      BINDING AFFINITY PREDICTED BY RF-SCORE:    0.00 PKD
ROOT
HETATM    1  C   UNL     1      -8.476  13.393  67.319  1.00  0.00    -0.200 C  
HETATM    2  C   UNL     1      -7.997  12.275  68.285  1.00  0.00    -0.163 C  
HETATM    3  C   UNL     1      -9.020  11.488  69.069  1.00  0.00     0.135 A  
HETATM    4  C   UNL     1     -10.329  11.948  69.169  1.00  0.00     0.028 A  
HETATM    5  C   UNL     1     -11.325  11.116  69.695  1.00  0.00    -0.366 A  
HETATM    6  C   UNL     1     -10.671  13.225  68.494  1.00  0.00    -0.280 C  
HETATM    7  C   UNL     1     -11.987  12.880  67.143  1.00  0.00    -0.374 C  
HETATM    8  C   UNL     1     -11.354  14.272  69.171  1.00  0.00    -0.312 C  
HETATM    9  C   UNL     1     -11.020   9.842  70.169  1.00  0.00    -0.301 A  
HETATM   10  C   UNL     1     -12.029  14.040  65.704  1.00  0.00    -0.408 C  
HETATM   11  C   UNL     1      -9.689   9.431  70.191  1.00  0.00    -0.274 A  
HETATM   12  C   UNL     1     -11.087  14.726  67.748  1.00  0.00    -0.306 C  
HETATM   13  C   UNL     1      -9.142  14.400  68.026  1.00  0.00    -0.188 C  
HETATM   14  N   UNL     1      -9.829  13.618  66.677  1.00  0.00    -0.276 NA 
HETATM   15  C   UNL     1      -8.693  10.255  69.651  1.00  0.00    -0.125 A  
HETATM   16  C   UNL     1      -9.901  12.406  65.802  1.00  0.00    -0.240 C  
HETATM   17  C   UNL     1     -10.807  15.380  65.497  1.00  0.00    -0.384 C  
HETATM   18  C   UNL     1      -9.351  15.672  66.587  1.00  0.00    -0.291 C  
ENDROOT
BRANCH   9  19
HETATM   19  O   UNL     1     -12.109   9.106  70.546  1.00  0.00    -0.141 OA 
HETATM   20  C   UNL     1     -12.448   9.109  71.925  1.00  0.00    -0.387 C  
ENDBRANCH   9  19
TORSDOF 1
ENDMDL
MODEL       48
REMARK 921   NORMALIZED FREE ENERGY PREDICTED BY IDOCK:   -4.57 KCAL/MOL
REMARK 922        TOTAL FREE ENERGY PREDICTED BY IDOCK:   -4.90 KCAL/MOL
REMARK 923 INTER-LIGAND FREE ENERGY PREDICTED BY IDOCK:   -4.83 KCAL/MOL
REMARK 924 INTRA-LIGAND FREE ENERGY PREDICTED BY IDOCK:   -0.07 KCAL/MOL
REMARK 927      BINDING AFFINITY PREDICTED BY RF-SCORE:    0.00 PKD
ROOT
HETATM    1  C   UNL     1      -8.133  10.712  68.564  1.00  0.00    -0.125 C  
HETATM    2  C   UNL     1      -8.630  12.159  68.297  1.00  0.00    -0.175 C  
HETATM    3  C   UNL     1      -9.688  12.394  67.246  1.00  0.00    -0.201 A  
HETATM    4  C   UNL     1      -9.988  11.398  66.321  1.00  0.00    -0.259 A  
HETATM    5  C   UNL     1     -11.114  11.523  65.498  1.00  0.00    -0.254 A  
HETATM    6  C   UNL     1      -9.235  10.123  66.404  1.00  0.00    -0.190 C  
HETATM    7  C   UNL     1     -10.461   8.700  66.789  1.00  0.00    -0.298 C  
HETATM    8  C   UNL     1      -8.613   9.543  65.264  1.00  0.00    -0.175 C  
HETATM    9  C   UNL     1     -11.921  12.657  65.554  1.00  0.00    -0.456 A  
HETATM   10  C   UNL     1      -9.779   7.227  67.673  1.00  0.00    -0.173 C  
HETATM   11  C   UNL     1     -11.547  13.712  66.383  1.00  0.00    -0.375 A  
HETATM   12  C   UNL     1      -8.348   8.641  66.455  1.00  0.00    -0.108 C  
HETATM   13  C   UNL     1      -7.530  10.182  67.418  1.00  0.00    -0.094 C  
HETATM   14  N   UNL     1      -8.782   9.380  68.250  1.00  0.00    -0.124 NA 
HETATM   15  C   UNL     1     -10.429  13.583  67.219  1.00  0.00    -0.248 A  
HETATM   16  C   UNL     1      -9.978   9.463  69.147  1.00  0.00    -0.182 C  
HETATM   17  C   UNL     1      -8.056   7.160  68.271  1.00  0.00    -0.124 C  
HETATM   18  C   UNL     1      -6.844   8.546  68.184  1.00  0.00    -0.069 C  
ENDROOT
BRANCH   9  19
HETATM   19  O   UNL     1     -13.045  12.588  64.777  1.00  0.00    -0.853 OA 
HETATM   20  C   UNL     1     -12.891  12.085  63.458  1.00  0.00    -0.341 C  
ENDBRANCH   9  19
TORSDOF 1
ENDMDL
MODEL       49
REMARK 921   NORMALIZED FREE ENERGY PREDICTED BY IDOCK:   -4.53 KCAL/MOL
REMARK 922        TOTAL FREE ENERGY PREDICTED BY IDOCK:   -4.85 KCAL/MOL
REMARK 923 INTER-LIGAND FREE ENERGY PREDICTED BY IDOCK:   -4.77 KCAL/MOL
REMARK 924 INTRA-LIGAND FREE ENERGY PREDICTED BY IDOCK:   -0.08 KCAL/MOL
REMARK 927      BINDING AFFINITY PREDICTED BY RF-SCORE:    0.00 PKD
ROOT
HETATM    1  C   UNL     1      -8.877  10.501  65.863  1.00  0.00    -0.165 C  
HETATM    2  C   UNL     1      -9.895  11.617  66.224  1.00  0.00    -0.245 C  
HETATM    3  C   UNL     1     -10.749  11.466  67.460  1.00  0.00    -0.266 A  
HETATM    4  C   UNL     1     -10.855  10.230  68.090  1.00  0.00    -0.312 A  
HETATM    5  C   UNL     1     -11.454  10.137  69.352  1.00  0.00    -0.202 A  
HETATM    6  C   UNL     1     -10.115   9.085  67.504  1.00  0.00    -0.285 C  
HETATM    7  C   UNL     1      -8.819   8.466  68.775  1.00  0.00    -0.140 C  
HETATM    8  C   UNL     1     -10.746   7.838  67.243  1.00  0.00    -0.326 C  
HETATM    9  C   UNL     1     -11.993  11.259  69.976  1.00  0.00    -0.368 A  
HETATM   10  C   UNL     1      -7.317   7.631  68.095  1.00  0.00    -0.099 C  
HETATM   11  C   UNL     1     -12.007  12.471  69.289  1.00  0.00    -0.304 A  
HETATM   12  C   UNL     1      -9.292   7.728  66.822  1.00  0.00    -0.227 C  
HETATM   13  C   UNL     1      -9.541   9.294  65.616  1.00  0.00    -0.324 C  
HETATM   14  N   UNL     1      -8.257   9.424  66.729  1.00  0.00    -0.112 NA 
HETATM   15  C   UNL     1     -11.395  12.571  68.033  1.00  0.00    -0.339 A  
HETATM   16  C   UNL     1      -7.457  10.278  67.663  1.00  0.00    -0.089 C  
HETATM   17  C   UNL     1      -7.000   7.502  66.302  1.00  0.00    -0.066 C  
HETATM   18  C   UNL     1      -8.035   8.263  64.980  1.00  0.00    -0.141 C  
ENDROOT
BRANCH   9  19
HETATM   19  O   UNL     1     -12.441  11.037  71.249  1.00  0.00    -0.370 OA 
HETATM   20  C   UNL     1     -12.348   9.709  71.746  1.00  0.00    -0.392 C  
ENDBRANCH   9  19
TORSDOF 1
ENDMDL
MODEL       50
REMARK 921   NORMALIZED FREE ENERGY PREDICTED BY IDOCK:   -4.51 KCAL/MOL
REMARK 922        TOTAL FREE ENERGY PREDICTED BY IDOCK:   -4.84 KCAL/MOL
REMARK 923 INTER-LIGAND FREE ENERGY PREDICTED BY IDOCK:   -4.76 KCAL/MOL
REMARK 924 INTRA-LIGAND FREE ENERGY PREDICTED BY IDOCK:   -0.08 KCAL/MOL
REMARK 927      BINDING AFFINITY PREDICTED BY RF-SCORE:    0.00 PKD
ROOT
HETATM    1  C   UNL     1      -8.231  11.529  66.923  1.00  0.00    -0.167 C  
HETATM    2  C   UNL     1      -7.837  13.022  67.084  1.00  0.00    -0.073 C  
HETATM    3  C   UNL     1      -8.746  13.947  67.858  1.00  0.00    -0.184 A  
HETATM    4  C   UNL     1     -10.049  13.559  68.155  1.00  0.00    -0.250 A  
HETATM    5  C   UNL     1     -10.814  14.306  69.059  1.00  0.00    -0.274 A  
HETATM    6  C   UNL     1     -10.504  12.228  67.680  1.00  0.00    -0.230 C  
HETATM    7  C   UNL     1     -10.931  11.138  69.199  1.00  0.00    -0.295 C  
HETATM    8  C   UNL     1     -11.724  12.061  66.970  1.00  0.00    -0.341 C  
HETATM    9  C   UNL     1     -10.308  15.467  69.638  1.00  0.00    -0.283 A  
HETATM   10  C   UNL     1     -10.777   9.309  68.984  1.00  0.00    -0.189 C  
HETATM   11  C   UNL     1      -9.055  15.929  69.241  1.00  0.00    -0.253 A  
HETATM   12  C   UNL     1     -11.070  10.699  67.109  1.00  0.00    -0.267 C  
HETATM   13  C   UNL     1      -9.436  11.412  66.220  1.00  0.00    -0.229 C  
HETATM   14  N   UNL     1      -9.182  10.674  67.735  1.00  0.00    -0.145 NA 
HETATM   15  C   UNL     1      -8.282  15.175  68.348  1.00  0.00    -0.145 A  
HETATM   16  C   UNL     1      -8.457  10.660  69.044  1.00  0.00    -0.145 C  
HETATM   17  C   UNL     1     -10.132   8.559  67.449  1.00  0.00    -0.298 C  
HETATM   18  C   UNL     1      -9.461   9.492  66.008  1.00  0.00    -0.294 C  
ENDROOT
BRANCH   9  19
HETATM   19  O   UNL     1     -11.122  16.026  70.585  1.00  0.00    -0.348 OA 
HETATM   20  C   UNL     1     -11.979  15.149  71.302  1.00  0.00    -0.344 C  
ENDBRANCH   9  19
TORSDOF 1
ENDMDL
MODEL       51
REMARK 921   NORMALIZED FREE ENERGY PREDICTED BY IDOCK:   -4.48 KCAL/MOL
REMARK 922        TOTAL FREE ENERGY PREDICTED BY IDOCK:   -4.81 KCAL/MOL
REMARK 923 INTER-LIGAND FREE ENERGY PREDICTED BY IDOCK:   -4.73 KCAL/MOL
REMARK 924 INTRA-LIGAND FREE ENERGY PREDICTED BY IDOCK:   -0.08 KCAL/MOL
REMARK 927      BINDING AFFINITY PREDICTED BY RF-SCORE:    0.00 PKD
ROOT
HETATM    1  C   UNL     1     -10.771   8.865  71.883  1.00  0.00    -0.356 C  
HETATM    2  C   UNL     1     -11.229   7.733  72.842  1.00  0.00    -0.434 C  
HETATM    3  C   UNL     1     -10.914   6.298  72.495  1.00  0.00    -0.286 A  
HETATM    4  C   UNL     1     -10.504   5.964  71.207  1.00  0.00    -0.289 A  
HETATM    5  C   UNL     1      -9.996   4.686  70.944  1.00  0.00    -0.273 A  
HETATM    6  C   UNL     1     -10.400   7.054  70.206  1.00  0.00    -0.219 C  
HETATM    7  C   UNL     1      -8.575   7.204  69.637  1.00  0.00    -0.137 C  
HETATM    8  C   UNL     1     -10.998   6.952  68.920  1.00  0.00    -0.217 C  
HETATM    9  C   UNL     1      -9.935   3.718  71.943  1.00  0.00    -0.160 A  
HETATM   10  C   UNL     1      -8.021   8.863  69.038  1.00  0.00    -0.106 C  
HETATM   11  C   UNL     1     -10.467   4.008  73.197  1.00  0.00    -0.251 A  
HETATM   12  C   UNL     1     -10.305   8.299  69.012  1.00  0.00    -0.233 C  
HETATM   13  C   UNL     1     -11.383   8.725  70.632  1.00  0.00    -0.289 C  
HETATM   14  N   UNL     1      -9.695   8.869  70.817  1.00  0.00    -0.207 NA 
HETATM   15  C   UNL     1     -10.963   5.290  73.468  1.00  0.00    -0.353 A  
HETATM   16  C   UNL     1      -8.484   8.689  71.678  1.00  0.00    -0.167 C  
HETATM   17  C   UNL     1      -9.105  10.331  69.093  1.00  0.00    -0.199 C  
HETATM   18  C   UNL     1     -10.791  10.383  69.835  1.00  0.00    -0.353 C  
ENDROOT
BRANCH   9  19
HETATM   19  O   UNL     1      -9.312   2.559  71.568  1.00  0.00    -0.101 OA 
HETATM   20  C   UNL     1      -8.998   2.408  70.191  1.00  0.00    -0.094 C  
ENDBRANCH   9  19
TORSDOF 1
ENDMDL
MODEL       52
REMARK 921   NORMALIZED FREE ENERGY PREDICTED BY IDOCK:   -4.46 KCAL/MOL
REMARK 922        TOTAL FREE ENERGY PREDICTED BY IDOCK:   -4.78 KCAL/MOL
REMARK 923 INTER-LIGAND FREE ENERGY PREDICTED BY IDOCK:   -4.72 KCAL/MOL
REMARK 924 INTRA-LIGAND FREE ENERGY PREDICTED BY IDOCK:   -0.06 KCAL/MOL
REMARK 927      BINDING AFFINITY PREDICTED BY RF-SCORE:    0.00 PKD
ROOT
HETATM    1  C   UNL     1     -11.275  15.120  66.437  1.00  0.00    -0.277 C  
HETATM    2  C   UNL     1     -10.356  15.786  67.497  1.00  0.00    -0.280 C  
HETATM    3  C   UNL     1      -9.239  14.981  68.116  1.00  0.00    -0.183 A  
HETATM    4  C   UNL     1      -9.218  13.596  67.982  1.00  0.00    -0.197 A  
HETATM    5  C   UNL     1      -8.077  12.874  68.353  1.00  0.00    -0.130 A  
HETATM    6  C   UNL     1     -10.322  12.953  67.228  1.00  0.00    -0.234 C  
HETATM    7  C   UNL     1      -9.595  12.081  65.682  1.00  0.00    -0.205 C  
HETATM    8  C   UNL     1     -11.047  11.848  67.753  1.00  0.00    -0.295 C  
HETATM    9  C   UNL     1      -6.969  13.514  68.902  1.00  0.00    -0.108 A  
HETATM   10  C   UNL     1     -10.720  11.884  64.229  1.00  0.00    -0.388 C  
HETATM   11  C   UNL     1      -7.039  14.882  69.160  1.00  0.00    -0.148 A  
HETATM   12  C   UNL     1     -11.615  12.176  66.385  1.00  0.00    -0.429 C  
HETATM   13  C   UNL     1     -11.967  14.040  66.996  1.00  0.00    -0.472 C  
HETATM   14  N   UNL     1     -11.045  13.899  65.570  1.00  0.00    -0.300 NA 
HETATM   15  C   UNL     1      -8.174  15.609  68.776  1.00  0.00    -0.183 A  
HETATM   16  C   UNL     1      -9.913  14.396  64.725  1.00  0.00     0.058 C  
HETATM   17  C   UNL     1     -12.405  12.586  64.198  1.00  0.00    -0.548 C  
HETATM   18  C   UNL     1     -13.140  13.649  65.511  1.00  0.00    -0.162 C  
ENDROOT
BRANCH   9  19
HETATM   19  O   UNL     1      -5.890  12.699  69.108  1.00  0.00    -0.071 OA 
HETATM   20  C   UNL     1      -5.687  12.213  70.428  1.00  0.00    -0.169 C  
ENDBRANCH   9  19
TORSDOF 1
ENDMDL
MODEL       53
REMARK 921   NORMALIZED FREE ENERGY PREDICTED BY IDOCK:   -4.41 KCAL/MOL
REMARK 922        TOTAL FREE ENERGY PREDICTED BY IDOCK:   -4.73 KCAL/MOL
REMARK 923 INTER-LIGAND FREE ENERGY PREDICTED BY IDOCK:   -4.67 KCAL/MOL
REMARK 924 INTRA-LIGAND FREE ENERGY PREDICTED BY IDOCK:   -0.06 KCAL/MOL
REMARK 927      BINDING AFFINITY PREDICTED BY RF-SCORE:    0.00 PKD
ROOT
HETATM    1  C   UNL     1      -8.193   7.594  70.355  1.00  0.00    -0.122 C  
HETATM    2  C   UNL     1      -7.802   8.695  69.331  1.00  0.00    -0.096 C  
HETATM    3  C   UNL     1      -8.890   9.473  68.631  1.00  0.00    -0.132 A  
HETATM    4  C   UNL     1     -10.204   9.016  68.658  1.00  0.00    -0.226 A  
HETATM    5  C   UNL     1     -11.242   9.843  68.211  1.00  0.00    -0.137 A  
HETATM    6  C   UNL     1     -10.486   7.752  69.382  1.00  0.00    -0.221 C  
HETATM    7  C   UNL     1     -11.673   8.122  70.842  1.00  0.00    -0.259 C  
HETATM    8  C   UNL     1     -11.231   6.697  68.787  1.00  0.00    -0.256 C  
HETATM    9  C   UNL     1     -10.979  11.108  67.692  1.00  0.00    -0.269 A  
HETATM   10  C   UNL     1     -11.586   6.985  72.297  1.00  0.00    -0.307 C  
HETATM   11  C   UNL     1      -9.655  11.514  67.541  1.00  0.00    -0.179 A  
HETATM   12  C   UNL     1     -10.836   6.264  70.187  1.00  0.00    -0.375 C  
HETATM   13  C   UNL     1      -8.923   6.579  69.727  1.00  0.00    -0.142 C  
HETATM   14  N   UNL     1      -9.483   7.384  71.121  1.00  0.00    -0.156 NA 
HETATM   15  C   UNL     1      -8.615  10.695  68.001  1.00  0.00    -0.122 A  
HETATM   16  C   UNL     1      -9.472   8.610  71.979  1.00  0.00    -0.300 C  
HETATM   17  C   UNL     1     -10.354   5.644  72.413  1.00  0.00    -0.245 C  
HETATM   18  C   UNL     1      -9.003   5.330  71.200  1.00  0.00    -0.159 C  
ENDROOT
BRANCH   9  19
HETATM   19  O   UNL     1     -12.096  11.843  67.403  1.00  0.00    -0.577 OA 
HETATM   20  C   UNL     1     -11.897  13.131  66.838  1.00  0.00    -0.386 C  
ENDBRANCH   9  19
TORSDOF 1
ENDMDL
MODEL       54
REMARK 921   NORMALIZED FREE ENERGY PREDICTED BY IDOCK:   -4.38 KCAL/MOL
REMARK 922        TOTAL FREE ENERGY PREDICTED BY IDOCK:   -4.70 KCAL/MOL
REMARK 923 INTER-LIGAND FREE ENERGY PREDICTED BY IDOCK:   -4.63 KCAL/MOL
REMARK 924 INTRA-LIGAND FREE ENERGY PREDICTED BY IDOCK:   -0.07 KCAL/MOL
REMARK 927      BINDING AFFINITY PREDICTED BY RF-SCORE:    0.00 PKD
ROOT
HETATM    1  C   UNL     1      -8.822   6.253  68.040  1.00  0.00    -0.112 C  
HETATM    2  C   UNL     1      -9.283   5.591  69.367  1.00  0.00    -0.145 C  
HETATM    3  C   UNL     1     -10.069   6.406  70.365  1.00  0.00    -0.221 A  
HETATM    4  C   UNL     1     -10.116   7.793  70.253  1.00  0.00    -0.195 A  
HETATM    5  C   UNL     1     -11.020   8.528  71.030  1.00  0.00    -0.296 A  
HETATM    6  C   UNL     1      -9.368   8.426  69.139  1.00  0.00    -0.151 C  
HETATM    7  C   UNL     1     -10.610   9.323  67.986  1.00  0.00    -0.262 C  
HETATM    8  C   UNL     1      -8.480   9.515  69.355  1.00  0.00    -0.146 C  
HETATM    9  C   UNL     1     -11.849   7.898  71.956  1.00  0.00    -0.318 A  
HETATM   10  C   UNL     1     -10.115   9.517  66.216  1.00  0.00    -0.327 C  
HETATM   11  C   UNL     1     -11.709   6.528  72.164  1.00  0.00    -0.353 A  
HETATM   12  C   UNL     1      -8.477   9.191  67.872  1.00  0.00    -0.117 C  
HETATM   13  C   UNL     1      -7.952   7.318  68.300  1.00  0.00    -0.124 C  
HETATM   14  N   UNL     1      -9.342   7.485  67.328  1.00  0.00    -0.136 NA 
HETATM   15  C   UNL     1     -10.817   5.787  71.377  1.00  0.00    -0.316 A  
HETATM   16  C   UNL     1     -10.717   7.012  66.973  1.00  0.00    -0.353 C  
HETATM   17  C   UNL     1      -8.580   8.790  65.548  1.00  0.00    -0.198 C  
HETATM   18  C   UNL     1      -7.420   7.705  66.483  1.00  0.00    -0.092 C  
ENDROOT
BRANCH   9  19
HETATM   19  O   UNL     1     -12.755   8.727  72.557  1.00  0.00    -0.396 OA 
HETATM   20  C   UNL     1     -13.775   9.278  71.735  1.00  0.00    -0.377 C  
ENDBRANCH   9  19
TORSDOF 1
ENDMDL
MODEL       55
REMARK 921   NORMALIZED FREE ENERGY PREDICTED BY IDOCK:   -4.36 KCAL/MOL
REMARK 922        TOTAL FREE ENERGY PREDICTED BY IDOCK:   -4.68 KCAL/MOL
REMARK 923 INTER-LIGAND FREE ENERGY PREDICTED BY IDOCK:   -4.59 KCAL/MOL
REMARK 924 INTRA-LIGAND FREE ENERGY PREDICTED BY IDOCK:   -0.08 KCAL/MOL
REMARK 927      BINDING AFFINITY PREDICTED BY RF-SCORE:    0.00 PKD
ROOT
HETATM    1  C   UNL     1      -9.578   7.524  70.168  1.00  0.00    -0.168 C  
HETATM    2  C   UNL     1      -8.566   6.347  70.110  1.00  0.00    -0.135 C  
HETATM    3  C   UNL     1      -8.766   5.156  71.016  1.00  0.00    -0.139 A  
HETATM    4  C   UNL     1      -9.644   5.236  72.093  1.00  0.00    -0.183 A  
HETATM    5  C   UNL     1     -10.003   4.077  72.792  1.00  0.00    -0.206 A  
HETATM    6  C   UNL     1     -10.356   6.519  72.316  1.00  0.00    -0.212 C  
HETATM    7  C   UNL     1     -12.241   6.225  72.128  1.00  0.00    -0.255 C  
HETATM    8  C   UNL     1     -10.382   7.152  73.589  1.00  0.00    -0.411 C  
HETATM    9  C   UNL     1      -9.457   2.840  72.458  1.00  0.00    -0.108 A  
HETATM   10  C   UNL     1     -13.263   7.672  71.600  1.00  0.00    -0.395 C  
HETATM   11  C   UNL     1      -8.479   2.779  71.468  1.00  0.00    -0.090 A  
HETATM   12  C   UNL     1     -11.170   8.012  72.619  1.00  0.00    -0.462 C  
HETATM   13  C   UNL     1      -9.570   8.115  71.436  1.00  0.00    -0.212 C  
HETATM   14  N   UNL     1     -11.000   7.568  70.688  1.00  0.00    -0.245 NA 
HETATM   15  C   UNL     1      -8.129   3.934  70.756  1.00  0.00    -0.065 A  
HETATM   16  C   UNL     1     -11.658   6.646  69.708  1.00  0.00    -0.293 C  
HETATM   17  C   UNL     1     -12.520   9.279  71.153  1.00  0.00    -0.341 C  
HETATM   18  C   UNL     1     -10.713   9.627  71.055  1.00  0.00    -0.393 C  
ENDROOT
BRANCH   9  19
HETATM   19  O   UNL     1      -9.986   1.785  73.150  1.00  0.00    -0.087 OA 
HETATM   20  C   UNL     1     -11.268   1.970  73.733  1.00  0.00    -0.195 C  
ENDBRANCH   9  19
TORSDOF 1
ENDMDL
MODEL       56
REMARK 921   NORMALIZED FREE ENERGY PREDICTED BY IDOCK:   -4.34 KCAL/MOL
REMARK 922        TOTAL FREE ENERGY PREDICTED BY IDOCK:   -4.65 KCAL/MOL
REMARK 923 INTER-LIGAND FREE ENERGY PREDICTED BY IDOCK:   -4.59 KCAL/MOL
REMARK 924 INTRA-LIGAND FREE ENERGY PREDICTED BY IDOCK:   -0.07 KCAL/MOL
REMARK 927      BINDING AFFINITY PREDICTED BY RF-SCORE:    0.00 PKD
ROOT
HETATM    1  C   UNL     1     -11.722  15.360  68.595  1.00  0.00    -0.354 C  
HETATM    2  C   UNL     1     -12.275  13.910  68.643  1.00  0.00    -0.213 C  
HETATM    3  C   UNL     1     -11.316  12.749  68.530  1.00  0.00    -0.326 A  
HETATM    4  C   UNL     1     -10.015  12.958  68.083  1.00  0.00    -0.234 A  
HETATM    5  C   UNL     1      -9.064  11.936  68.194  1.00  0.00    -0.190 A  
HETATM    6  C   UNL     1      -9.618  14.341  67.720  1.00  0.00    -0.221 C  
HETATM    7  C   UNL     1      -8.209  14.911  68.890  1.00  0.00    -0.171 C  
HETATM    8  C   UNL     1      -8.980  14.639  66.485  1.00  0.00    -0.236 C  
HETATM    9  C   UNL     1      -9.409  10.687  68.703  1.00  0.00    -0.177 A  
HETATM   10  C   UNL     1      -8.057  16.729  69.189  1.00  0.00    -0.109 C  
HETATM   11  C   UNL     1     -10.741  10.434  69.027  1.00  0.00    -0.260 A  
HETATM   12  C   UNL     1      -9.141  15.936  67.258  1.00  0.00    -0.218 C  
HETATM   13  C   UNL     1     -11.103  15.609  67.365  1.00  0.00    -0.260 C  
HETATM   14  N   UNL     1     -10.324  15.884  68.856  1.00  0.00    -0.217 NA 
HETATM   15  C   UNL     1     -11.691  11.460  68.932  1.00  0.00    -0.409 A  
HETATM   16  C   UNL     1     -10.196  15.554  70.310  1.00  0.00    -0.119 C  
HETATM   17  C   UNL     1      -9.254  17.931  68.514  1.00  0.00    -0.288 C  
HETATM   18  C   UNL     1     -10.784  17.503  67.581  1.00  0.00    -0.306 C  
ENDROOT
BRANCH   9  19
HETATM   19  O   UNL     1      -8.355   9.829  68.857  1.00  0.00    -0.110 OA 
HETATM   20  C   UNL     1      -7.598   9.941  70.054  1.00  0.00    -0.172 C  
ENDBRANCH   9  19
TORSDOF 1
ENDMDL
MODEL       57
REMARK 921   NORMALIZED FREE ENERGY PREDICTED BY IDOCK:   -4.29 KCAL/MOL
REMARK 922        TOTAL FREE ENERGY PREDICTED BY IDOCK:   -4.60 KCAL/MOL
REMARK 923 INTER-LIGAND FREE ENERGY PREDICTED BY IDOCK:   -4.53 KCAL/MOL
REMARK 924 INTRA-LIGAND FREE ENERGY PREDICTED BY IDOCK:   -0.07 KCAL/MOL
REMARK 927      BINDING AFFINITY PREDICTED BY RF-SCORE:    0.00 PKD
ROOT
HETATM    1  C   UNL     1      -8.995  13.429  67.878  1.00  0.00    -0.201 C  
HETATM    2  C   UNL     1      -7.754  12.565  67.529  1.00  0.00    -0.165 C  
HETATM    3  C   UNL     1      -7.913  11.383  66.603  1.00  0.00    -0.148 A  
HETATM    4  C   UNL     1      -9.181  10.887  66.314  1.00  0.00    -0.197 A  
HETATM    5  C   UNL     1      -9.350   9.949  65.289  1.00  0.00    -0.309 A  
HETATM    6  C   UNL     1     -10.348  11.549  66.950  1.00  0.00    -0.258 C  
HETATM    7  C   UNL     1     -11.459  12.301  65.579  1.00  0.00    -0.408 C  
HETATM    8  C   UNL     1     -11.352  10.808  67.631  1.00  0.00    -0.328 C  
HETATM    9  C   UNL     1      -8.257   9.462  64.575  1.00  0.00    -0.147 A  
HETATM   10  C   UNL     1     -12.488  13.763  66.049  1.00  0.00    -0.491 C  
HETATM   11  C   UNL     1      -6.975   9.857  64.951  1.00  0.00    -0.131 A  
HETATM   12  C   UNL     1     -11.720  12.278  67.704  1.00  0.00    -0.403 C  
HETATM   13  C   UNL     1      -9.956  12.661  68.546  1.00  0.00    -0.166 C  
HETATM   14  N   UNL     1     -10.319  13.579  67.156  1.00  0.00    -0.249 NA 
HETATM   15  C   UNL     1      -6.805  10.807  65.967  1.00  0.00    -0.107 A  
HETATM   16  C   UNL     1      -9.846  14.220  65.889  1.00  0.00    -0.298 C  
HETATM   17  C   UNL     1     -12.376  14.546  67.694  1.00  0.00     0.033 C  
HETATM   18  C   UNL     1     -11.182  14.079  69.017  1.00  0.00    -0.311 C  
ENDROOT
BRANCH   9  19
HETATM   19  O   UNL     1      -8.586   8.641  63.532  1.00  0.00    -0.126 OA 
HETATM   20  C   UNL     1      -7.691   8.603  62.430  1.00  0.00    -0.120 C  
ENDBRANCH   9  19
TORSDOF 1
ENDMDL
MODEL       58
REMARK 921   NORMALIZED FREE ENERGY PREDICTED BY IDOCK:   -4.28 KCAL/MOL
REMARK 922        TOTAL FREE ENERGY PREDICTED BY IDOCK:   -4.60 KCAL/MOL
REMARK 923 INTER-LIGAND FREE ENERGY PREDICTED BY IDOCK:   -4.54 KCAL/MOL
REMARK 924 INTRA-LIGAND FREE ENERGY PREDICTED BY IDOCK:   -0.06 KCAL/MOL
REMARK 927      BINDING AFFINITY PREDICTED BY RF-SCORE:    0.00 PKD
ROOT
HETATM    1  C   UNL     1      -9.571   7.502  69.300  1.00  0.00    -0.158 C  
HETATM    2  C   UNL     1     -10.489   8.081  70.411  1.00  0.00    -0.218 C  
HETATM    3  C   UNL     1     -10.901   9.533  70.346  1.00  0.00    -0.338 A  
HETATM    4  C   UNL     1     -10.234  10.411  69.498  1.00  0.00    -0.258 A  
HETATM    5  C   UNL     1     -10.754  11.691  69.266  1.00  0.00    -0.144 A  
HETATM    6  C   UNL     1      -9.116   9.877  68.682  1.00  0.00    -0.132 C  
HETATM    7  C   UNL     1      -9.562  10.051  66.825  1.00  0.00    -0.228 C  
HETATM    8  C   UNL     1      -7.846  10.514  68.639  1.00  0.00    -0.116 C  
HETATM    9  C   UNL     1     -11.911  12.123  69.909  1.00  0.00    -0.309 A  
HETATM   10  C   UNL     1      -8.783   8.843  65.663  1.00  0.00    -0.213 C  
HETATM   11  C   UNL     1     -12.505  11.294  70.858  1.00  0.00    -0.493 A  
HETATM   12  C   UNL     1      -7.788   9.287  67.747  1.00  0.00    -0.092 C  
HETATM   13  C   UNL     1      -8.335   8.158  69.294  1.00  0.00    -0.130 C  
HETATM   14  N   UNL     1      -9.297   8.001  67.896  1.00  0.00    -0.138 NA 
HETATM   15  C   UNL     1     -11.996  10.007  71.081  1.00  0.00    -0.484 A  
HETATM   16  C   UNL     1     -10.656   7.824  67.294  1.00  0.00    -0.306 C  
HETATM   17  C   UNL     1      -7.735   7.467  66.245  1.00  0.00    -0.093 C  
HETATM   18  C   UNL     1      -7.422   7.039  68.010  1.00  0.00    -0.099 C  
ENDROOT
BRANCH   9  19
HETATM   19  O   UNL     1     -12.361  13.347  69.498  1.00  0.00    -0.238 OA 
HETATM   20  C   UNL     1     -12.633  14.310  70.507  1.00  0.00    -0.353 C  
ENDBRANCH   9  19
TORSDOF 1
ENDMDL
MODEL       59
REMARK 921   NORMALIZED FREE ENERGY PREDICTED BY IDOCK:   -4.28 KCAL/MOL
REMARK 922        TOTAL FREE ENERGY PREDICTED BY IDOCK:   -4.60 KCAL/MOL
REMARK 923 INTER-LIGAND FREE ENERGY PREDICTED BY IDOCK:   -4.52 KCAL/MOL
REMARK 924 INTRA-LIGAND FREE ENERGY PREDICTED BY IDOCK:   -0.08 KCAL/MOL
REMARK 927      BINDING AFFINITY PREDICTED BY RF-SCORE:    0.00 PKD
ROOT
HETATM    1  C   UNL     1     -10.973  10.171  68.816  1.00  0.00    -0.223 C  
HETATM    2  C   UNL     1     -11.687  11.229  67.932  1.00  0.00    -0.289 C  
HETATM    3  C   UNL     1     -11.075  11.622  66.609  1.00  0.00    -0.364 A  
HETATM    4  C   UNL     1      -9.755  11.287  66.323  1.00  0.00    -0.246 A  
HETATM    5  C   UNL     1      -9.259  11.445  65.023  1.00  0.00    -0.093 A  
HETATM    6  C   UNL     1      -8.985  10.551  67.355  1.00  0.00    -0.139 C  
HETATM    7  C   UNL     1      -8.487   8.836  66.656  1.00  0.00    -0.111 C  
HETATM    8  C   UNL     1      -7.693  10.974  67.773  1.00  0.00    -0.108 C  
HETATM    9  C   UNL     1     -10.053  11.979  64.011  1.00  0.00    -0.335 A  
HETATM   10  C   UNL     1      -8.229   7.477  67.882  1.00  0.00    -0.123 C  
HETATM   11  C   UNL     1     -11.330  12.437  64.327  1.00  0.00    -0.420 A  
HETATM   12  C   UNL     1      -8.055   9.725  68.554  1.00  0.00    -0.104 C  
HETATM   13  C   UNL     1      -9.708  10.629  69.202  1.00  0.00    -0.205 C  
HETATM   14  N   UNL     1      -9.946   9.119  68.447  1.00  0.00    -0.174 NA 
HETATM   15  C   UNL     1     -11.835  12.266  65.623  1.00  0.00    -0.423 A  
HETATM   16  C   UNL     1     -10.777   8.257  67.549  1.00  0.00    -0.147 C  
HETATM   17  C   UNL     1      -8.547   7.701  69.665  1.00  0.00    -0.136 C  
HETATM   18  C   UNL     1      -9.256   9.215  70.440  1.00  0.00    -0.271 C  
ENDROOT
BRANCH   9  19
HETATM   19  O   UNL     1      -9.473  11.966  62.773  1.00  0.00    -0.315 OA 
HETATM   20  C   UNL     1      -8.676  10.838  62.442  1.00  0.00    -0.289 C  
ENDBRANCH   9  19
TORSDOF 1
ENDMDL
MODEL       60
REMARK 921   NORMALIZED FREE ENERGY PREDICTED BY IDOCK:   -4.26 KCAL/MOL
REMARK 922        TOTAL FREE ENERGY PREDICTED BY IDOCK:   -4.58 KCAL/MOL
REMARK 923 INTER-LIGAND FREE ENERGY PREDICTED BY IDOCK:   -4.52 KCAL/MOL
REMARK 924 INTRA-LIGAND FREE ENERGY PREDICTED BY IDOCK:   -0.06 KCAL/MOL
REMARK 927      BINDING AFFINITY PREDICTED BY RF-SCORE:    0.00 PKD
ROOT
HETATM    1  C   UNL     1     -10.794   9.741  69.458  1.00  0.00    -0.240 C  
HETATM    2  C   UNL     1     -11.586  11.077  69.430  1.00  0.00    -0.383 C  
HETATM    3  C   UNL     1     -11.056  12.233  68.617  1.00  0.00    -0.291 A  
HETATM    4  C   UNL     1      -9.743  12.220  68.156  1.00  0.00    -0.213 A  
HETATM    5  C   UNL     1      -9.320  13.171  67.219  1.00  0.00    -0.225 A  
HETATM    6  C   UNL     1      -8.897  11.049  68.497  1.00  0.00    -0.159 C  
HETATM    7  C   UNL     1      -8.386  10.158  66.878  1.00  0.00    -0.122 C  
HETATM    8  C   UNL     1      -7.599  11.198  69.057  1.00  0.00    -0.119 C  
HETATM    9  C   UNL     1     -10.182  14.168  66.769  1.00  0.00    -0.262 A  
HETATM   10  C   UNL     1      -8.023   8.350  66.999  1.00  0.00    -0.100 C  
HETATM   11  C   UNL     1     -11.454  14.263  67.329  1.00  0.00    -0.371 A  
HETATM   12  C   UNL     1      -7.882   9.714  68.910  1.00  0.00    -0.081 C  
HETATM   13  C   UNL     1      -9.525   9.935  70.015  1.00  0.00    -0.246 C  
HETATM   14  N   UNL     1      -9.757   9.198  68.496  1.00  0.00    -0.152 NA 
HETATM   15  C   UNL     1     -11.885  13.304  68.256  1.00  0.00    -0.389 A  
HETATM   16  C   UNL     1     -10.608   9.025  67.276  1.00  0.00    -0.231 C  
HETATM   17  C   UNL     1      -8.254   7.411  68.548  1.00  0.00    -0.125 C  
HETATM   18  C   UNL     1      -8.966   8.087  70.108  1.00  0.00    -0.150 C  
ENDROOT
BRANCH   9  19
HETATM   19  O   UNL     1      -9.668  14.952  65.774  1.00  0.00    -0.323 OA 
HETATM   20  C   UNL     1      -8.793  16.001  66.161  1.00  0.00    -0.331 C  
ENDBRANCH   9  19
TORSDOF 1
ENDMDL
MODEL       61
REMARK 921   NORMALIZED FREE ENERGY PREDICTED BY IDOCK:   -4.25 KCAL/MOL
REMARK 922        TOTAL FREE ENERGY PREDICTED BY IDOCK:   -4.56 KCAL/MOL
REMARK 923 INTER-LIGAND FREE ENERGY PREDICTED BY IDOCK:   -4.50 KCAL/MOL
REMARK 924 INTRA-LIGAND FREE ENERGY PREDICTED BY IDOCK:   -0.06 KCAL/MOL
REMARK 927      BINDING AFFINITY PREDICTED BY RF-SCORE:    0.00 PKD
ROOT
HETATM    1  C   UNL     1      -8.232   6.545  70.896  1.00  0.00    -0.125 C  
HETATM    2  C   UNL     1      -7.562   7.059  69.594  1.00  0.00    -0.104 C  
HETATM    3  C   UNL     1      -8.353   7.934  68.650  1.00  0.00    -0.128 A  
HETATM    4  C   UNL     1      -9.736   8.026  68.777  1.00  0.00    -0.157 A  
HETATM    5  C   UNL     1     -10.441   9.001  68.061  1.00  0.00    -0.270 A  
HETATM    6  C   UNL     1     -10.390   7.237  69.850  1.00  0.00    -0.226 C  
HETATM    7  C   UNL     1     -11.232   8.441  71.082  1.00  0.00    -0.307 C  
HETATM    8  C   UNL     1     -11.513   6.405  69.591  1.00  0.00    -0.446 C  
HETATM    9  C   UNL     1      -9.786   9.859  67.180  1.00  0.00    -0.186 A  
HETATM   10  C   UNL     1     -11.434   7.850  72.821  1.00  0.00    -0.428 C  
HETATM   11  C   UNL     1      -8.423   9.681  66.953  1.00  0.00    -0.121 A  
HETATM   12  C   UNL     1     -11.181   6.302  71.068  1.00  0.00    -0.372 C  
HETATM   13  C   UNL     1      -9.331   5.733  70.595  1.00  0.00    -0.186 C  
HETATM   14  N   UNL     1      -9.440   7.068  71.648  1.00  0.00    -0.157 NA 
HETATM   15  C   UNL     1      -7.712   8.716  67.680  1.00  0.00    -0.102 A  
HETATM   16  C   UNL     1      -8.913   8.401  72.080  1.00  0.00    -0.223 C  
HETATM   17  C   UNL     1     -10.762   6.251  73.391  1.00  0.00    -0.281 C  
HETATM   18  C   UNL     1      -9.727   5.109  72.381  1.00  0.00    -0.188 C  
ENDROOT
BRANCH   9  19
HETATM   19  O   UNL     1     -10.584  10.830  66.641  1.00  0.00    -0.245 OA 
HETATM   20  C   UNL     1     -10.520  11.014  65.234  1.00  0.00    -0.251 C  
ENDBRANCH   9  19
TORSDOF 1
ENDMDL
MODEL       62
REMARK 921   NORMALIZED FREE ENERGY PREDICTED BY IDOCK:   -4.21 KCAL/MOL
REMARK 922        TOTAL FREE ENERGY PREDICTED BY IDOCK:   -4.52 KCAL/MOL
REMARK 923 INTER-LIGAND FREE ENERGY PREDICTED BY IDOCK:   -4.44 KCAL/MOL
REMARK 924 INTRA-LIGAND FREE ENERGY PREDICTED BY IDOCK:   -0.08 KCAL/MOL
REMARK 927      BINDING AFFINITY PREDICTED BY RF-SCORE:    0.00 PKD
ROOT
HETATM    1  C   UNL     1     -11.646  11.768  66.371  1.00  0.00    -0.162 C  
HETATM    2  C   UNL     1     -11.969  13.287  66.401  1.00  0.00    -0.465 C  
HETATM    3  C   UNL     1     -10.841  14.280  66.544  1.00  0.00    -0.304 A  
HETATM    4  C   UNL     1      -9.580  13.852  66.950  1.00  0.00    -0.271 A  
HETATM    5  C   UNL     1      -8.485  14.720  66.864  1.00  0.00    -0.230 A  
HETATM    6  C   UNL     1      -9.396  12.409  67.241  1.00  0.00    -0.184 C  
HETATM    7  C   UNL     1      -8.111  11.686  66.015  1.00  0.00     0.216 C  
HETATM    8  C   UNL     1      -8.792  11.958  68.446  1.00  0.00    -0.159 C  
HETATM    9  C   UNL     1      -8.641  16.031  66.419  1.00  0.00    -0.334 A  
HETATM   10  C   UNL     1      -8.247   9.883  65.631  1.00  0.00    -0.138 C  
HETATM   11  C   UNL     1      -9.922  16.500  66.138  1.00  0.00    -0.363 A  
HETATM   12  C   UNL     1      -9.163  10.740  67.621  1.00  0.00    -0.152 C  
HETATM   13  C   UNL     1     -11.053  11.369  67.574  1.00  0.00    -0.339 C  
HETATM   14  N   UNL     1     -10.350  11.050  66.055  1.00  0.00    -0.251 NA 
HETATM   15  C   UNL     1     -11.018  15.630  66.209  1.00  0.00    -0.201 A  
HETATM   16  C   UNL     1     -10.196  11.425  64.614  1.00  0.00    -0.294 C  
HETATM   17  C   UNL     1      -9.603   8.848  66.279  1.00  0.00    -0.328 C  
HETATM   18  C   UNL     1     -11.034   9.461  67.266  1.00  0.00    -0.022 C  
ENDROOT
BRANCH   9  19
HETATM   19  O   UNL     1      -7.469  16.722  66.279  1.00  0.00    -0.284 OA 
HETATM   20  C   UNL     1      -6.394  16.354  67.131  1.00  0.00    -0.180 C  
ENDBRANCH   9  19
TORSDOF 1
ENDMDL
MODEL       63
REMARK 921   NORMALIZED FREE ENERGY PREDICTED BY IDOCK:   -4.20 KCAL/MOL
REMARK 922        TOTAL FREE ENERGY PREDICTED BY IDOCK:   -4.51 KCAL/MOL
REMARK 923 INTER-LIGAND FREE ENERGY PREDICTED BY IDOCK:   -4.45 KCAL/MOL
REMARK 924 INTRA-LIGAND FREE ENERGY PREDICTED BY IDOCK:   -0.07 KCAL/MOL
REMARK 927      BINDING AFFINITY PREDICTED BY RF-SCORE:    0.00 PKD
ROOT
HETATM    1  C   UNL     1      -7.511   9.526  68.999  1.00  0.00    -0.074 C  
HETATM    2  C   UNL     1      -7.018   9.364  70.463  1.00  0.00    -0.105 C  
HETATM    3  C   UNL     1      -7.962   8.810  71.503  1.00  0.00    -0.160 A  
HETATM    4  C   UNL     1      -9.327   8.739  71.241  1.00  0.00    -0.319 A  
HETATM    5  C   UNL     1     -10.169   8.024  72.101  1.00  0.00    -0.308 A  
HETATM    6  C   UNL     1      -9.809   9.229  69.926  1.00  0.00    -0.219 C  
HETATM    7  C   UNL     1     -10.597   7.765  68.968  1.00  0.00    -0.179 C  
HETATM    8  C   UNL     1     -10.893  10.141  69.816  1.00  0.00    -0.320 C  
HETATM    9  C   UNL     1      -9.671   7.415  73.251  1.00  0.00    -0.251 A  
HETATM   10  C   UNL     1     -10.573   7.866  67.123  1.00  0.00    -0.383 C  
HETATM   11  C   UNL     1      -8.330   7.598  73.584  1.00  0.00    -0.230 A  
HETATM   12  C   UNL     1     -10.401   9.824  68.416  1.00  0.00    -0.230 C  
HETATM   13  C   UNL     1      -8.577  10.431  68.939  1.00  0.00    -0.149 C  
HETATM   14  N   UNL     1      -8.665   8.864  68.275  1.00  0.00    -0.134 NA 
HETATM   15  C   UNL     1      -7.482   8.300  72.717  1.00  0.00    -0.152 A  
HETATM   16  C   UNL     1      -8.188   7.445  68.282  1.00  0.00    -0.125 C  
HETATM   17  C   UNL     1      -9.737   9.222  66.231  1.00  0.00    -0.340 C  
HETATM   18  C   UNL     1      -8.738  10.557  67.017  1.00  0.00    -0.132 C  
ENDROOT
BRANCH   9  19
HETATM   19  O   UNL     1     -10.586   6.659  73.930  1.00  0.00    -0.331 OA 
HETATM   20  C   UNL     1     -11.004   5.446  73.321  1.00  0.00    -0.307 C  
ENDBRANCH   9  19
TORSDOF 1
ENDMDL
MODEL       64
REMARK 921   NORMALIZED FREE ENERGY PREDICTED BY IDOCK:   -4.19 KCAL/MOL
REMARK 922        TOTAL FREE ENERGY PREDICTED BY IDOCK:   -4.50 KCAL/MOL
REMARK 923 INTER-LIGAND FREE ENERGY PREDICTED BY IDOCK:   -4.44 KCAL/MOL
REMARK 924 INTRA-LIGAND FREE ENERGY PREDICTED BY IDOCK:   -0.06 KCAL/MOL
REMARK 927      BINDING AFFINITY PREDICTED BY RF-SCORE:    0.00 PKD
ROOT
HETATM    1  C   UNL     1      -8.114   7.500  66.825  1.00  0.00    -0.123 C  
HETATM    2  C   UNL     1      -8.742   8.333  65.675  1.00  0.00    -0.188 C  
HETATM    3  C   UNL     1      -9.742   9.415  66.008  1.00  0.00    -0.345 A  
HETATM    4  C   UNL     1     -10.325   9.463  67.270  1.00  0.00    -0.325 A  
HETATM    5  C   UNL     1     -11.071  10.584  67.655  1.00  0.00    -0.375 A  
HETATM    6  C   UNL     1      -9.939   8.422  68.255  1.00  0.00    -0.214 C  
HETATM    7  C   UNL     1      -9.086   9.267  69.750  1.00  0.00    -0.186 C  
HETATM    8  C   UNL     1     -10.910   7.677  68.979  1.00  0.00    -0.059 C  
HETATM    9  C   UNL     1     -11.281  11.643  66.774  1.00  0.00    -0.308 A  
HETATM   10  C   UNL     1      -7.872   8.249  70.702  1.00  0.00    -0.092 C  
HETATM   11  C   UNL     1     -10.810  11.537  65.467  1.00  0.00    -0.313 A  
HETATM   12  C   UNL     1      -9.534   7.202  69.409  1.00  0.00    -0.153 C  
HETATM   13  C   UNL     1      -9.103   6.784  67.509  1.00  0.00    -0.117 C  
HETATM   14  N   UNL     1      -7.994   7.806  68.304  1.00  0.00    -0.121 NA 
HETATM   15  C   UNL     1     -10.051  10.423  65.084  1.00  0.00    -0.379 A  
HETATM   16  C   UNL     1      -7.077   8.987  68.246  1.00  0.00    -0.077 C  
HETATM   17  C   UNL     1      -7.400   6.562  70.189  1.00  0.00    -0.089 C  
HETATM   18  C   UNL     1      -7.957   5.723  68.646  1.00  0.00    -0.101 C  
ENDROOT
BRANCH   9  19
HETATM   19  O   UNL     1     -11.928  12.715  67.325  1.00  0.00    -0.424 OA 
HETATM   20  C   UNL     1     -12.122  13.851  66.495  1.00  0.00    -0.449 C  
ENDBRANCH   9  19
TORSDOF 1
ENDMDL
MODEL       65
REMARK 921   NORMALIZED FREE ENERGY PREDICTED BY IDOCK:   -4.19 KCAL/MOL
REMARK 922        TOTAL FREE ENERGY PREDICTED BY IDOCK:   -4.50 KCAL/MOL
REMARK 923 INTER-LIGAND FREE ENERGY PREDICTED BY IDOCK:   -4.43 KCAL/MOL
REMARK 924 INTRA-LIGAND FREE ENERGY PREDICTED BY IDOCK:   -0.07 KCAL/MOL
REMARK 927      BINDING AFFINITY PREDICTED BY RF-SCORE:    0.00 PKD
ROOT
HETATM    1  C   UNL     1      -7.942   5.849  69.521  1.00  0.00    -0.105 C  
HETATM    2  C   UNL     1      -8.117   6.270  71.005  1.00  0.00    -0.121 C  
HETATM    3  C   UNL     1      -9.355   7.031  71.416  1.00  0.00    -0.155 A  
HETATM    4  C   UNL     1     -10.169   7.616  70.450  1.00  0.00    -0.203 A  
HETATM    5  C   UNL     1     -11.425   8.120  70.806  1.00  0.00    -0.272 A  
HETATM    6  C   UNL     1      -9.774   7.471  69.027  1.00  0.00    -0.162 C  
HETATM    7  C   UNL     1     -11.135   6.489  68.100  1.00  0.00    -0.332 C  
HETATM    8  C   UNL     1      -9.705   8.587  68.150  1.00  0.00    -0.175 C  
HETATM    9  C   UNL     1     -11.862   8.092  72.128  1.00  0.00    -0.349 A  
HETATM   10  C   UNL     1     -10.606   5.529  66.612  1.00  0.00    -0.365 C  
HETATM   11  C   UNL     1     -10.996   7.628  73.115  1.00  0.00    -0.411 A  
HETATM   12  C   UNL     1      -9.317   7.347  67.365  1.00  0.00    -0.154 C  
HETATM   13  C   UNL     1      -7.880   6.977  68.695  1.00  0.00    -0.119 C  
HETATM   14  N   UNL     1      -8.970   5.696  68.418  1.00  0.00    -0.114 NA 
HETATM   15  C   UNL     1      -9.743   7.109  72.760  1.00  0.00    -0.190 A  
HETATM   16  C   UNL     1      -9.766   4.554  68.969  1.00  0.00    -0.165 C  
HETATM   17  C   UNL     1      -8.857   5.406  66.104  1.00  0.00    -0.139 C  
HETATM   18  C   UNL     1      -7.425   6.095  67.037  1.00  0.00    -0.087 C  
ENDROOT
BRANCH   9  19
HETATM   19  O   UNL     1     -13.151   8.513  72.305  1.00  0.00    -0.350 OA 
HETATM   20  C   UNL     1     -14.169   7.791  71.627  1.00  0.00    -0.457 C  
ENDBRANCH   9  19
TORSDOF 1
ENDMDL
MODEL       66
REMARK 921   NORMALIZED FREE ENERGY PREDICTED BY IDOCK:   -4.18 KCAL/MOL
REMARK 922        TOTAL FREE ENERGY PREDICTED BY IDOCK:   -4.49 KCAL/MOL
REMARK 923 INTER-LIGAND FREE ENERGY PREDICTED BY IDOCK:   -4.41 KCAL/MOL
REMARK 924 INTRA-LIGAND FREE ENERGY PREDICTED BY IDOCK:   -0.08 KCAL/MOL
REMARK 927      BINDING AFFINITY PREDICTED BY RF-SCORE:    0.00 PKD
ROOT
HETATM    1  C   UNL     1      -9.944   8.447  69.058  1.00  0.00    -0.190 C  
HETATM    2  C   UNL     1     -10.756   9.747  69.307  1.00  0.00    -0.246 C  
HETATM    3  C   UNL     1     -10.787  10.815  68.240  1.00  0.00    -0.276 A  
HETATM    4  C   UNL     1      -9.869  10.785  67.194  1.00  0.00    -0.216 A  
HETATM    5  C   UNL     1     -10.036  11.631  66.091  1.00  0.00    -0.259 A  
HETATM    6  C   UNL     1      -8.871   9.687  67.176  1.00  0.00    -0.141 C  
HETATM    7  C   UNL     1      -9.141   8.627  65.601  1.00  0.00    -0.221 C  
HETATM    8  C   UNL     1      -7.482   9.938  67.008  1.00  0.00    -0.091 C  
HETATM    9  C   UNL     1     -11.087  12.544  66.039  1.00  0.00    -0.294 A  
HETATM   10  C   UNL     1      -8.617   6.856  65.687  1.00  0.00    -0.119 C  
HETATM   11  C   UNL     1     -11.928  12.667  67.142  1.00  0.00    -0.326 A  
HETATM   12  C   UNL     1      -7.676   8.439  67.151  1.00  0.00    -0.097 C  
HETATM   13  C   UNL     1      -8.585   8.741  68.898  1.00  0.00    -0.136 C  
HETATM   14  N   UNL     1      -9.466   7.825  67.762  1.00  0.00    -0.142 NA 
HETATM   15  C   UNL     1     -11.773  11.812  68.241  1.00  0.00    -0.377 A  
HETATM   16  C   UNL     1     -10.785   7.485  67.141  1.00  0.00    -0.309 C  
HETATM   17  C   UNL     1      -7.985   6.100  67.224  1.00  0.00    -0.102 C  
HETATM   18  C   UNL     1      -7.902   6.934  68.865  1.00  0.00    -0.111 C  
ENDROOT
BRANCH   9  19
HETATM   19  O   UNL     1     -11.189  13.220  64.854  1.00  0.00    -0.302 OA 
HETATM   20  C   UNL     1     -10.968  12.477  63.664  1.00  0.00    -0.456 C  
ENDBRANCH   9  19
TORSDOF 1
ENDMDL
MODEL       67
REMARK 921   NORMALIZED FREE ENERGY PREDICTED BY IDOCK:   -4.18 KCAL/MOL
REMARK 922        TOTAL FREE ENERGY PREDICTED BY IDOCK:   -4.49 KCAL/MOL
REMARK 923 INTER-LIGAND FREE ENERGY PREDICTED BY IDOCK:   -4.43 KCAL/MOL
REMARK 924 INTRA-LIGAND FREE ENERGY PREDICTED BY IDOCK:   -0.06 KCAL/MOL
REMARK 927      BINDING AFFINITY PREDICTED BY RF-SCORE:    0.00 PKD
ROOT
HETATM    1  C   UNL     1     -10.075   8.306  66.694  1.00  0.00    -0.281 C  
HETATM    2  C   UNL     1     -10.738   7.132  67.464  1.00  0.00    -0.344 C  
HETATM    3  C   UNL     1     -10.646   7.091  68.971  1.00  0.00    -0.234 A  
HETATM    4  C   UNL     1      -9.733   7.903  69.638  1.00  0.00    -0.173 A  
HETATM    5  C   UNL     1      -9.801   8.036  71.030  1.00  0.00    -0.200 A  
HETATM    6  C   UNL     1      -8.863   8.787  68.823  1.00  0.00    -0.134 C  
HETATM    7  C   UNL     1      -9.243  10.613  69.265  1.00  0.00    -0.121 C  
HETATM    8  C   UNL     1      -7.454   8.830  69.006  1.00  0.00    -0.081 C  
HETATM    9  C   UNL     1     -10.743   7.330  71.774  1.00  0.00    -0.218 A  
HETATM   10  C   UNL     1      -8.920  11.875  67.954  1.00  0.00    -0.179 C  
HETATM   11  C   UNL     1     -11.570   6.417  71.123  1.00  0.00    -0.378 A  
HETATM   12  C   UNL     1      -7.814   9.799  67.896  1.00  0.00    -0.090 C  
HETATM   13  C   UNL     1      -8.691   8.310  66.904  1.00  0.00    -0.141 C  
HETATM   14  N   UNL     1      -9.664   9.683  67.173  1.00  0.00    -0.166 NA 
HETATM   15  C   UNL     1     -11.515   6.293  69.728  1.00  0.00    -0.449 A  
HETATM   16  C   UNL     1     -11.010  10.252  67.498  1.00  0.00    -0.280 C  
HETATM   17  C   UNL     1      -8.382  11.415  66.271  1.00  0.00    -0.111 C  
HETATM   18  C   UNL     1      -8.213   9.692  65.640  1.00  0.00    -0.121 C  
ENDROOT
BRANCH   9  19
HETATM   19  O   UNL     1     -10.765   7.647  73.104  1.00  0.00    -0.365 OA 
HETATM   20  C   UNL     1     -10.208   6.702  74.005  1.00  0.00    -0.369 C  
ENDBRANCH   9  19
TORSDOF 1
ENDMDL
MODEL       68
REMARK 921   NORMALIZED FREE ENERGY PREDICTED BY IDOCK:   -4.18 KCAL/MOL
REMARK 922        TOTAL FREE ENERGY PREDICTED BY IDOCK:   -4.48 KCAL/MOL
REMARK 923 INTER-LIGAND FREE ENERGY PREDICTED BY IDOCK:   -4.42 KCAL/MOL
REMARK 924 INTRA-LIGAND FREE ENERGY PREDICTED BY IDOCK:   -0.07 KCAL/MOL
REMARK 927      BINDING AFFINITY PREDICTED BY RF-SCORE:    0.00 PKD
ROOT
HETATM    1  C   UNL     1      -8.982   9.340  69.738  1.00  0.00    -0.172 C  
HETATM    2  C   UNL     1      -8.890  10.762  69.122  1.00  0.00    -0.098 C  
HETATM    3  C   UNL     1      -9.259  10.965  67.672  1.00  0.00    -0.155 A  
HETATM    4  C   UNL     1      -9.377   9.870  66.821  1.00  0.00    -0.187 A  
HETATM    5  C   UNL     1      -9.936  10.029  65.548  1.00  0.00    -0.367 A  
HETATM    6  C   UNL     1      -9.122   8.521  67.385  1.00  0.00    -0.148 C  
HETATM    7  C   UNL     1     -10.729   7.482  67.264  1.00  0.00    -0.365 C  
HETATM    8  C   UNL     1      -8.244   7.598  66.754  1.00  0.00    -0.124 C  
HETATM    9  C   UNL     1     -10.337  11.283  65.092  1.00  0.00    -0.295 A  
HETATM   10  C   UNL     1     -10.946   6.133  68.509  1.00  0.00    -0.404 C  
HETATM   11  C   UNL     1     -10.097  12.400  65.890  1.00  0.00    -0.272 A  
HETATM   12  C   UNL     1      -8.796   6.942  68.007  1.00  0.00    -0.123 C  
HETATM   13  C   UNL     1      -8.104   8.466  69.087  1.00  0.00    -0.119 C  
HETATM   14  N   UNL     1      -9.762   8.124  69.282  1.00  0.00    -0.168 NA 
HETATM   15  C   UNL     1      -9.552  12.241  67.171  1.00  0.00    -0.200 A  
HETATM   16  C   UNL     1     -11.158   8.630  69.472  1.00  0.00     0.033 C  
HETATM   17  C   UNL     1      -9.761   5.864  69.871  1.00  0.00    -0.208 C  
HETATM   18  C   UNL     1      -8.309   6.934  70.248  1.00  0.00    -0.134 C  
ENDROOT
BRANCH   9  19
HETATM   19  O   UNL     1     -10.968  11.267  63.878  1.00  0.00    -0.386 OA 
HETATM   20  C   UNL     1     -11.846  12.345  63.590  1.00  0.00    -0.526 C  
ENDBRANCH   9  19
TORSDOF 1
ENDMDL
MODEL       69
REMARK 921   NORMALIZED FREE ENERGY PREDICTED BY IDOCK:   -4.17 KCAL/MOL
REMARK 922        TOTAL FREE ENERGY PREDICTED BY IDOCK:   -4.48 KCAL/MOL
REMARK 923 INTER-LIGAND FREE ENERGY PREDICTED BY IDOCK:   -4.42 KCAL/MOL
REMARK 924 INTRA-LIGAND FREE ENERGY PREDICTED BY IDOCK:   -0.06 KCAL/MOL
REMARK 927      BINDING AFFINITY PREDICTED BY RF-SCORE:    0.00 PKD
ROOT
HETATM    1  C   UNL     1     -10.545   5.443  71.859  1.00  0.00    -0.226 C  
HETATM    2  C   UNL     1     -11.655   6.460  72.240  1.00  0.00    -0.341 C  
HETATM    3  C   UNL     1     -11.535   7.893  71.779  1.00  0.00    -0.313 A  
HETATM    4  C   UNL     1     -10.321   8.372  71.295  1.00  0.00    -0.272 A  
HETATM    5  C   UNL     1     -10.264   9.618  70.659  1.00  0.00    -0.346 A  
HETATM    6  C   UNL     1      -9.169   7.437  71.260  1.00  0.00    -0.153 C  
HETATM    7  C   UNL     1      -8.621   7.194  69.438  1.00  0.00    -0.134 C  
HETATM    8  C   UNL     1      -7.902   7.788  71.800  1.00  0.00    -0.098 C  
HETATM    9  C   UNL     1     -11.399  10.416  70.541  1.00  0.00    -0.341 A  
HETATM   10  C   UNL     1      -7.789   5.596  69.024  1.00  0.00    -0.096 C  
HETATM   11  C   UNL     1     -12.584   9.997  71.142  1.00  0.00    -0.480 A  
HETATM   12  C   UNL     1      -7.802   6.381  71.241  1.00  0.00    -0.104 C  
HETATM   13  C   UNL     1      -9.318   5.827  72.411  1.00  0.00    -0.152 C  
HETATM   14  N   UNL     1      -9.512   5.491  70.751  1.00  0.00    -0.162 NA 
HETATM   15  C   UNL     1     -12.648   8.744  71.765  1.00  0.00    -0.409 A  
HETATM   16  C   UNL     1     -10.415   5.420  69.559  1.00  0.00    -0.273 C  
HETATM   17  C   UNL     1      -7.599   4.251  70.243  1.00  0.00    -0.046 C  
HETATM   18  C   UNL     1      -8.291   4.256  71.951  1.00  0.00    -0.103 C  
ENDROOT
BRANCH   9  19
HETATM   19  O   UNL     1     -11.216  11.550  69.798  1.00  0.00    -0.240 OA 
HETATM   20  C   UNL     1     -12.276  12.496  69.788  1.00  0.00    -0.132 C  
ENDBRANCH   9  19
TORSDOF 1
ENDMDL
MODEL       70
REMARK 921   NORMALIZED FREE ENERGY PREDICTED BY IDOCK:   -4.16 KCAL/MOL
REMARK 922        TOTAL FREE ENERGY PREDICTED BY IDOCK:   -4.47 KCAL/MOL
REMARK 923 INTER-LIGAND FREE ENERGY PREDICTED BY IDOCK:   -4.41 KCAL/MOL
REMARK 924 INTRA-LIGAND FREE ENERGY PREDICTED BY IDOCK:   -0.06 KCAL/MOL
REMARK 927      BINDING AFFINITY PREDICTED BY RF-SCORE:    0.00 PKD
ROOT
HETATM    1  C   UNL     1      -8.668   8.251  70.307  1.00  0.00    -0.139 C  
HETATM    2  C   UNL     1      -7.947   7.964  68.962  1.00  0.00    -0.122 C  
HETATM    3  C   UNL     1      -8.507   6.913  68.033  1.00  0.00    -0.124 A  
HETATM    4  C   UNL     1      -9.455   6.005  68.496  1.00  0.00    -0.127 A  
HETATM    5  C   UNL     1     -10.139   5.185  67.590  1.00  0.00    -0.204 A  
HETATM    6  C   UNL     1      -9.879   6.104  69.914  1.00  0.00    -0.205 C  
HETATM    7  C   UNL     1     -11.751   6.516  69.976  1.00  0.00    -0.388 C  
HETATM    8  C   UNL     1      -9.899   4.972  70.773  1.00  0.00    -0.279 C  
HETATM    9  C   UNL     1      -9.853   5.226  66.228  1.00  0.00    -0.182 A  
HETATM   10  C   UNL     1     -12.358   7.421  71.470  1.00  0.00    -0.385 C  
HETATM   11  C   UNL     1      -8.813   6.037  65.780  1.00  0.00    -0.143 A  
HETATM   12  C   UNL     1     -10.365   6.176  71.571  1.00  0.00    -0.253 C  
HETATM   13  C   UNL     1      -8.664   7.111  71.118  1.00  0.00    -0.133 C  
HETATM   14  N   UNL     1     -10.092   7.961  70.736  1.00  0.00    -0.192 NA 
HETATM   15  C   UNL     1      -8.137   6.870  66.682  1.00  0.00    -0.110 A  
HETATM   16  C   UNL     1     -10.830   8.860  69.795  1.00  0.00    -0.200 C  
HETATM   17  C   UNL     1     -11.228   8.013  72.776  1.00  0.00    -0.448 C  
HETATM   18  C   UNL     1      -9.390   7.900  72.727  1.00  0.00    -0.297 C  
ENDROOT
BRANCH   9  19
HETATM   19  O   UNL     1     -10.677   4.454  65.455  1.00  0.00    -0.256 OA 
HETATM   20  C   UNL     1     -10.099   3.823  64.321  1.00  0.00    -0.218 C  
ENDBRANCH   9  19
TORSDOF 1
ENDMDL
MODEL       71
REMARK 921   NORMALIZED FREE ENERGY PREDICTED BY IDOCK:   -4.15 KCAL/MOL
REMARK 922        TOTAL FREE ENERGY PREDICTED BY IDOCK:   -4.46 KCAL/MOL
REMARK 923 INTER-LIGAND FREE ENERGY PREDICTED BY IDOCK:   -4.39 KCAL/MOL
REMARK 924 INTRA-LIGAND FREE ENERGY PREDICTED BY IDOCK:   -0.07 KCAL/MOL
REMARK 927      BINDING AFFINITY PREDICTED BY RF-SCORE:    0.00 PKD
ROOT
HETATM    1  C   UNL     1     -10.004   8.384  69.987  1.00  0.00    -0.188 C  
HETATM    2  C   UNL     1      -8.645   7.660  69.784  1.00  0.00    -0.135 C  
HETATM    3  C   UNL     1      -8.329   6.437  70.612  1.00  0.00    -0.133 A  
HETATM    4  C   UNL     1      -9.086   6.143  71.742  1.00  0.00    -0.145 A  
HETATM    5  C   UNL     1      -8.946   4.902  72.375  1.00  0.00    -0.140 A  
HETATM    6  C   UNL     1     -10.191   7.067  72.099  1.00  0.00    -0.206 C  
HETATM    7  C   UNL     1     -11.853   6.117  72.003  1.00  0.00    -0.336 C  
HETATM    8  C   UNL     1     -10.338   7.587  73.414  1.00  0.00    -0.405 C  
HETATM    9  C   UNL     1      -8.022   3.964  71.920  1.00  0.00    -0.075 A  
HETATM   10  C   UNL     1     -13.366   7.116  71.643  1.00  0.00    -0.397 C  
HETATM   11  C   UNL     1      -7.171   4.309  70.872  1.00  0.00    -0.041 A  
HETATM   12  C   UNL     1     -11.460   8.146  72.558  1.00  0.00    -0.470 C  
HETATM   13  C   UNL     1     -10.106   8.878  71.292  1.00  0.00    -0.365 C  
HETATM   14  N   UNL     1     -11.300   7.883  70.593  1.00  0.00    -0.273 NA 
HETATM   15  C   UNL     1      -7.319   5.544  70.227  1.00  0.00    -0.068 A  
HETATM   16  C   UNL     1     -11.660   6.832  69.589  1.00  0.00    -0.176 C  
HETATM   17  C   UNL     1     -13.289   8.901  71.271  1.00  0.00    -0.227 C  
HETATM   18  C   UNL     1     -11.742   9.886  71.092  1.00  0.00    -0.478 C  
ENDROOT
BRANCH   9  19
HETATM   19  O   UNL     1      -8.077   2.759  72.564  1.00  0.00    -0.054 OA 
HETATM   20  C   UNL     1      -8.298   2.783  73.967  1.00  0.00    -0.072 C  
ENDBRANCH   9  19
TORSDOF 1
ENDMDL
MODEL       72
REMARK 921   NORMALIZED FREE ENERGY PREDICTED BY IDOCK:   -4.12 KCAL/MOL
REMARK 922        TOTAL FREE ENERGY PREDICTED BY IDOCK:   -4.42 KCAL/MOL
REMARK 923 INTER-LIGAND FREE ENERGY PREDICTED BY IDOCK:   -4.34 KCAL/MOL
REMARK 924 INTRA-LIGAND FREE ENERGY PREDICTED BY IDOCK:   -0.08 KCAL/MOL
REMARK 927      BINDING AFFINITY PREDICTED BY RF-SCORE:    0.00 PKD
ROOT
HETATM    1  C   UNL     1     -10.657   8.094  70.612  1.00  0.00    -0.215 C  
HETATM    2  C   UNL     1     -10.699   8.041  69.061  1.00  0.00    -0.107 C  
HETATM    3  C   UNL     1     -10.236   6.791  68.351  1.00  0.00    -0.193 A  
HETATM    4  C   UNL     1      -9.501   5.829  69.037  1.00  0.00    -0.152 A  
HETATM    5  C   UNL     1      -9.269   4.577  68.454  1.00  0.00    -0.178 A  
HETATM    6  C   UNL     1      -9.188   6.081  70.466  1.00  0.00    -0.168 C  
HETATM    7  C   UNL     1     -10.018   4.722  71.534  1.00  0.00    -0.263 C  
HETATM    8  C   UNL     1      -7.868   5.954  70.979  1.00  0.00    -0.110 C  
HETATM    9  C   UNL     1      -9.724   4.289  67.170  1.00  0.00    -0.196 A  
HETATM   10  C   UNL     1     -10.447   5.174  73.274  1.00  0.00    -0.261 C  
HETATM   11  C   UNL     1     -10.343   5.294  66.431  1.00  0.00    -0.315 A  
HETATM   12  C   UNL     1      -8.780   6.366  72.120  1.00  0.00    -0.132 C  
HETATM   13  C   UNL     1      -9.342   7.965  71.072  1.00  0.00    -0.167 C  
HETATM   14  N   UNL     1     -10.610   6.971  71.629  1.00  0.00    -0.205 NA 
HETATM   15  C   UNL     1     -10.590   6.543  67.018  1.00  0.00    -0.402 A  
HETATM   16  C   UNL     1     -11.946   6.345  71.380  1.00  0.00    -0.247 C  
HETATM   17  C   UNL     1     -10.214   6.862  73.928  1.00  0.00    -0.401 C  
HETATM   18  C   UNL     1      -9.656   8.318  72.946  1.00  0.00    -0.320 C  
ENDROOT
BRANCH   9  19
HETATM   19  O   UNL     1      -9.524   2.993  66.779  1.00  0.00    -0.138 OA 
HETATM   20  C   UNL     1      -9.250   2.043  67.798  1.00  0.00    -0.171 C  
ENDBRANCH   9  19
TORSDOF 1
ENDMDL
MODEL       73
REMARK 921   NORMALIZED FREE ENERGY PREDICTED BY IDOCK:   -4.10 KCAL/MOL
REMARK 922        TOTAL FREE ENERGY PREDICTED BY IDOCK:   -4.40 KCAL/MOL
REMARK 923 INTER-LIGAND FREE ENERGY PREDICTED BY IDOCK:   -4.34 KCAL/MOL
REMARK 924 INTRA-LIGAND FREE ENERGY PREDICTED BY IDOCK:   -0.07 KCAL/MOL
REMARK 927      BINDING AFFINITY PREDICTED BY RF-SCORE:    0.00 PKD
ROOT
HETATM    1  C   UNL     1      -9.769   9.557  65.922  1.00  0.00    -0.282 C  
HETATM    2  C   UNL     1     -10.520  10.802  65.377  1.00  0.00    -0.272 C  
HETATM    3  C   UNL     1     -10.735  11.990  66.283  1.00  0.00    -0.302 A  
HETATM    4  C   UNL     1     -10.548  11.865  67.656  1.00  0.00    -0.241 A  
HETATM    5  C   UNL     1     -10.523  13.007  68.466  1.00  0.00    -0.261 A  
HETATM    6  C   UNL     1     -10.146  10.539  68.186  1.00  0.00    -0.180 C  
HETATM    7  C   UNL     1      -8.420  10.694  69.007  1.00  0.00    -0.148 C  
HETATM    8  C   UNL     1     -10.826   9.927  69.274  1.00  0.00    -0.255 C  
HETATM    9  C   UNL     1     -10.729  14.275  67.927  1.00  0.00    -0.240 A  
HETATM   10  C   UNL     1      -7.376   9.169  69.050  1.00  0.00    -0.073 C  
HETATM   11  C   UNL     1     -11.047  14.389  66.576  1.00  0.00    -0.331 A  
HETATM   12  C   UNL     1      -9.712   8.996  68.832  1.00  0.00    -0.166 C  
HETATM   13  C   UNL     1     -10.472   8.988  66.990  1.00  0.00    -0.316 C  
HETATM   14  N   UNL     1      -8.827   9.420  67.102  1.00  0.00    -0.127 NA 
HETATM   15  C   UNL     1     -11.058  13.250  65.760  1.00  0.00    -0.296 A  
HETATM   16  C   UNL     1      -7.696  10.276  66.624  1.00  0.00    -0.113 C  
HETATM   17  C   UNL     1      -7.891   7.612  68.246  1.00  0.00    -0.121 C  
HETATM   18  C   UNL     1      -9.406   7.393  67.221  1.00  0.00    -0.159 C  
ENDROOT
BRANCH   9  19
HETATM   19  O   UNL     1     -10.562  15.300  68.817  1.00  0.00    -0.227 OA 
HETATM   20  C   UNL     1      -9.701  16.361  68.429  1.00  0.00    -0.229 C  
ENDBRANCH   9  19
TORSDOF 1
ENDMDL
MODEL       74
REMARK 921   NORMALIZED FREE ENERGY PREDICTED BY IDOCK:   -4.10 KCAL/MOL
REMARK 922        TOTAL FREE ENERGY PREDICTED BY IDOCK:   -4.40 KCAL/MOL
REMARK 923 INTER-LIGAND FREE ENERGY PREDICTED BY IDOCK:   -4.34 KCAL/MOL
REMARK 924 INTRA-LIGAND FREE ENERGY PREDICTED BY IDOCK:   -0.06 KCAL/MOL
REMARK 927      BINDING AFFINITY PREDICTED BY RF-SCORE:    0.00 PKD
ROOT
HETATM    1  C   UNL     1      -9.659   5.914  67.435  1.00  0.00    -0.113 C  
HETATM    2  C   UNL     1     -10.900   6.427  68.215  1.00  0.00    -0.384 C  
HETATM    3  C   UNL     1     -11.085   6.021  69.658  1.00  0.00    -0.474 A  
HETATM    4  C   UNL     1     -10.343   4.970  70.189  1.00  0.00    -0.306 A  
HETATM    5  C   UNL     1     -10.343   4.741  71.570  1.00  0.00    -0.203 A  
HETATM    6  C   UNL     1      -9.387   4.271  69.294  1.00  0.00    -0.231 C  
HETATM    7  C   UNL     1      -7.610   4.509  69.975  1.00  0.00    -0.054 C  
HETATM    8  C   UNL     1      -9.366   2.855  69.179  1.00  0.00    -0.211 C  
HETATM    9  C   UNL     1     -11.114   5.522  72.428  1.00  0.00    -0.256 A  
HETATM   10  C   UNL     1      -6.230   4.440  68.747  1.00  0.00    -0.032 C  
HETATM   11  C   UNL     1     -11.959   6.488  71.884  1.00  0.00    -0.389 A  
HETATM   12  C   UNL     1      -8.294   3.418  68.264  1.00  0.00    -0.097 C  
HETATM   13  C   UNL     1      -9.679   4.518  67.346  1.00  0.00    -0.218 C  
HETATM   14  N   UNL     1      -8.335   5.380  67.942  1.00  0.00    -0.099 NA 
HETATM   15  C   UNL     1     -11.949   6.730  70.504  1.00  0.00    -0.385 A  
HETATM   16  C   UNL     1      -7.797   6.615  68.595  1.00  0.00    -0.114 C  
HETATM   17  C   UNL     1      -6.529   4.278  66.954  1.00  0.00    -0.041 C  
HETATM   18  C   UNL     1      -8.184   4.284  66.144  1.00  0.00    -0.105 C  
ENDROOT
BRANCH   9  19
HETATM   19  O   UNL     1     -10.926   5.256  73.756  1.00  0.00    -0.295 OA 
HETATM   20  C   UNL     1     -10.022   6.095  74.463  1.00  0.00    -0.330 C  
ENDBRANCH   9  19
TORSDOF 1
ENDMDL
MODEL       75
REMARK 921   NORMALIZED FREE ENERGY PREDICTED BY IDOCK:   -4.09 KCAL/MOL
REMARK 922        TOTAL FREE ENERGY PREDICTED BY IDOCK:   -4.40 KCAL/MOL
REMARK 923 INTER-LIGAND FREE ENERGY PREDICTED BY IDOCK:   -4.33 KCAL/MOL
REMARK 924 INTRA-LIGAND FREE ENERGY PREDICTED BY IDOCK:   -0.07 KCAL/MOL
REMARK 927      BINDING AFFINITY PREDICTED BY RF-SCORE:    0.00 PKD
ROOT
HETATM    1  C   UNL     1     -10.465  14.086  65.691  1.00  0.00    -0.318 C  
HETATM    2  C   UNL     1      -9.824  15.480  65.456  1.00  0.00    -0.348 C  
HETATM    3  C   UNL     1      -9.037  16.129  66.569  1.00  0.00    -0.311 A  
HETATM    4  C   UNL     1      -9.140  15.647  67.871  1.00  0.00    -0.185 A  
HETATM    5  C   UNL     1      -8.249  16.092  68.855  1.00  0.00    -0.229 A  
HETATM    6  C   UNL     1     -10.044  14.496  68.117  1.00  0.00    -0.227 C  
HETATM    7  C   UNL     1      -9.006  13.013  68.748  1.00  0.00     0.172 C  
HETATM    8  C   UNL     1     -11.014  14.513  69.156  1.00  0.00    -0.286 C  
HETATM    9  C   UNL     1      -7.282  17.052  68.566  1.00  0.00    -0.209 A  
HETATM   10  C   UNL     1      -9.674  11.323  68.411  1.00  0.00    -0.194 C  
HETATM   11  C   UNL     1      -7.264  17.632  67.300  1.00  0.00    -0.203 A  
HETATM   12  C   UNL     1     -11.117  13.180  68.437  1.00  0.00    -0.298 C  
HETATM   13  C   UNL     1     -11.411  14.149  66.721  1.00  0.00    -0.383 C  
HETATM   14  N   UNL     1     -10.137  13.017  66.714  1.00  0.00    -0.242 NA 
HETATM   15  C   UNL     1      -8.144  17.178  66.309  1.00  0.00    -0.325 A  
HETATM   16  C   UNL     1      -8.759  12.647  66.262  1.00  0.00     0.196 C  
HETATM   17  C   UNL     1     -11.183  11.051  67.419  1.00  0.00    -0.355 C  
HETATM   18  C   UNL     1     -12.139  12.366  66.552  1.00  0.00    -0.179 C  
ENDROOT
BRANCH   9  19
HETATM   19  O   UNL     1      -6.413  17.304  69.592  1.00  0.00    -0.243 OA 
HETATM   20  C   UNL     1      -5.430  16.316  69.866  1.00  0.00    -0.162 C  
ENDBRANCH   9  19
TORSDOF 1
ENDMDL
MODEL       76
REMARK 921   NORMALIZED FREE ENERGY PREDICTED BY IDOCK:   -3.93 KCAL/MOL
REMARK 922        TOTAL FREE ENERGY PREDICTED BY IDOCK:   -4.23 KCAL/MOL
REMARK 923 INTER-LIGAND FREE ENERGY PREDICTED BY IDOCK:   -4.15 KCAL/MOL
REMARK 924 INTRA-LIGAND FREE ENERGY PREDICTED BY IDOCK:   -0.08 KCAL/MOL
REMARK 927      BINDING AFFINITY PREDICTED BY RF-SCORE:    0.00 PKD
ROOT
HETATM    1  C   UNL     1      -7.042  10.143  66.869  1.00  0.00    -0.091 C  
HETATM    2  C   UNL     1      -6.728  11.601  67.302  1.00  0.00    -0.124 C  
HETATM    3  C   UNL     1      -7.866  12.569  67.520  1.00  0.00    -0.168 A  
HETATM    4  C   UNL     1      -9.140  12.267  67.048  1.00  0.00    -0.201 A  
HETATM    5  C   UNL     1     -10.235  13.045  67.442  1.00  0.00    -0.231 A  
HETATM    6  C   UNL     1      -9.329  10.984  66.327  1.00  0.00    -0.206 C  
HETATM    7  C   UNL     1     -10.558   9.892  67.314  1.00  0.00    -0.316 C  
HETATM    8  C   UNL     1      -9.980  10.920  65.065  1.00  0.00    -0.356 C  
HETATM    9  C   UNL     1     -10.067  14.154  68.268  1.00  0.00    -0.241 A  
HETATM   10  C   UNL     1     -10.398   8.062  67.110  1.00  0.00    -0.395 C  
HETATM   11  C   UNL     1      -8.778  14.535  68.633  1.00  0.00    -0.172 A  
HETATM   12  C   UNL     1      -9.569   9.512  65.454  1.00  0.00    -0.342 C  
HETATM   13  C   UNL     1      -7.682  10.129  65.624  1.00  0.00    -0.143 C  
HETATM   14  N   UNL     1      -8.320   9.339  66.993  1.00  0.00    -0.119 NA 
HETATM   15  C   UNL     1      -7.681  13.750  68.252  1.00  0.00    -0.138 A  
HETATM   16  C   UNL     1      -8.417   9.243  68.484  1.00  0.00    -0.123 C  
HETATM   17  C   UNL     1      -9.064   7.304  66.120  1.00  0.00    -0.160 C  
HETATM   18  C   UNL     1      -7.679   8.220  65.321  1.00  0.00    -0.106 C  
ENDROOT
BRANCH   9  19
HETATM   19  O   UNL     1     -11.236  14.747  68.661  1.00  0.00    -0.249 OA 
HETATM   20  C   UNL     1     -12.278  13.892  69.108  1.00  0.00    -0.267 C  
ENDBRANCH   9  19
TORSDOF 1
ENDMDL
MODEL       77
REMARK 921   NORMALIZED FREE ENERGY PREDICTED BY IDOCK:   -3.90 KCAL/MOL
REMARK 922        TOTAL FREE ENERGY PREDICTED BY IDOCK:   -4.20 KCAL/MOL
REMARK 923 INTER-LIGAND FREE ENERGY PREDICTED BY IDOCK:   -4.12 KCAL/MOL
REMARK 924 INTRA-LIGAND FREE ENERGY PREDICTED BY IDOCK:   -0.08 KCAL/MOL
REMARK 927      BINDING AFFINITY PREDICTED BY RF-SCORE:    0.00 PKD
ROOT
HETATM    1  C   UNL     1      -9.089   8.693  70.475  1.00  0.00    -0.165 C  
HETATM    2  C   UNL     1      -9.193   8.595  72.021  1.00  0.00    -0.338 C  
HETATM    3  C   UNL     1      -9.832   7.376  72.643  1.00  0.00    -0.224 A  
HETATM    4  C   UNL     1     -10.588   6.507  71.862  1.00  0.00    -0.239 A  
HETATM    5  C   UNL     1     -10.986   5.268  72.377  1.00  0.00    -0.273 A  
HETATM    6  C   UNL     1     -10.745   6.826  70.421  1.00  0.00    -0.281 C  
HETATM    7  C   UNL     1      -9.951   5.423  69.382  1.00  0.00    -0.280 C  
HETATM    8  C   UNL     1     -12.019   6.840  69.790  1.00  0.00    -0.000 C  
HETATM    9  C   UNL     1     -10.679   4.903  73.686  1.00  0.00    -0.292 A  
HETATM   10  C   UNL     1      -9.326   5.879  67.704  1.00  0.00    -0.107 C  
HETATM   11  C   UNL     1     -10.038   5.825  74.511  1.00  0.00    -0.301 A  
HETATM   12  C   UNL     1     -10.974   7.193  68.748  1.00  0.00    -0.094 C  
HETATM   13  C   UNL     1     -10.364   8.702  69.898  1.00  0.00    -0.213 C  
HETATM   14  N   UNL     1      -9.148   7.608  69.419  1.00  0.00    -0.143 NA 
HETATM   15  C   UNL     1      -9.625   7.059  73.993  1.00  0.00    -0.308 A  
HETATM   16  C   UNL     1      -7.903   6.851  69.763  1.00  0.00    -0.115 C  
HETATM   17  C   UNL     1      -9.341   7.599  67.092  1.00  0.00    -0.180 C  
HETATM   18  C   UNL     1      -9.849   9.074  68.072  1.00  0.00    -0.197 C  
ENDROOT
BRANCH   9  19
HETATM   19  O   UNL     1     -11.032   3.622  74.012  1.00  0.00    -0.208 OA 
HETATM   20  C   UNL     1     -10.565   2.584  73.162  1.00  0.00    -0.163 C  
ENDBRANCH   9  19
TORSDOF 1
ENDMDL
MODEL       78
REMARK 921   NORMALIZED FREE ENERGY PREDICTED BY IDOCK:   -3.88 KCAL/MOL
REMARK 922        TOTAL FREE ENERGY PREDICTED BY IDOCK:   -4.17 KCAL/MOL
REMARK 923 INTER-LIGAND FREE ENERGY PREDICTED BY IDOCK:   -4.11 KCAL/MOL
REMARK 924 INTRA-LIGAND FREE ENERGY PREDICTED BY IDOCK:   -0.06 KCAL/MOL
REMARK 927      BINDING AFFINITY PREDICTED BY RF-SCORE:    0.00 PKD
ROOT
HETATM    1  C   UNL     1     -10.638   9.780  70.261  1.00  0.00    -0.292 C  
HETATM    2  C   UNL     1     -11.108   8.406  70.812  1.00  0.00    -0.286 C  
HETATM    3  C   UNL     1     -10.729   7.145  70.074  1.00  0.00    -0.268 A  
HETATM    4  C   UNL     1     -10.241   7.216  68.772  1.00  0.00    -0.184 A  
HETATM    5  C   UNL     1      -9.679   6.083  68.172  1.00  0.00    -0.137 A  
HETATM    6  C   UNL     1     -10.120   8.557  68.148  1.00  0.00    -0.240 C  
HETATM    7  C   UNL     1      -8.273   8.898  67.760  1.00  0.00    -0.110 C  
HETATM    8  C   UNL     1     -10.646   8.834  66.856  1.00  0.00    -0.263 C  
HETATM    9  C   UNL     1      -9.639   4.862  68.841  1.00  0.00    -0.158 A  
HETATM   10  C   UNL     1      -7.743  10.668  67.714  1.00  0.00    -0.100 C  
HETATM   11  C   UNL     1     -10.246   4.757  70.090  1.00  0.00    -0.259 A  
HETATM   12  C   UNL     1     -10.002  10.102  67.385  1.00  0.00    -0.238 C  
HETATM   13  C   UNL     1     -11.178  10.010  68.991  1.00  0.00    -0.180 C  
HETATM   14  N   UNL     1      -9.507  10.118  69.311  1.00  0.00    -0.208 NA 
HETATM   15  C   UNL     1     -10.796   5.892  70.700  1.00  0.00    -0.363 A  
HETATM   16  C   UNL     1      -8.338   9.708  70.151  1.00  0.00    -0.198 C  
HETATM   17  C   UNL     1      -8.875  12.036  68.137  1.00  0.00    -0.182 C  
HETATM   18  C   UNL     1     -10.599  11.839  68.759  1.00  0.00    -0.234 C  
ENDROOT
BRANCH   9  19
HETATM   19  O   UNL     1      -8.960   3.878  68.177  1.00  0.00    -0.104 OA 
HETATM   20  C   UNL     1      -8.872   2.610  68.811  1.00  0.00    -0.105 C  
ENDBRANCH   9  19
TORSDOF 1
ENDMDL
MODEL       79
REMARK 921   NORMALIZED FREE ENERGY PREDICTED BY IDOCK:   -3.88 KCAL/MOL
REMARK 922        TOTAL FREE ENERGY PREDICTED BY IDOCK:   -4.17 KCAL/MOL
REMARK 923 INTER-LIGAND FREE ENERGY PREDICTED BY IDOCK:   -4.09 KCAL/MOL
REMARK 924 INTRA-LIGAND FREE ENERGY PREDICTED BY IDOCK:   -0.08 KCAL/MOL
REMARK 927      BINDING AFFINITY PREDICTED BY RF-SCORE:    0.00 PKD
ROOT
HETATM    1  C   UNL     1      -8.936   8.678  66.515  1.00  0.00    -0.154 C  
HETATM    2  C   UNL     1      -9.860   9.734  67.179  1.00  0.00    -0.238 C  
HETATM    3  C   UNL     1     -10.507   9.419  68.507  1.00  0.00    -0.239 A  
HETATM    4  C   UNL     1     -10.533   8.110  68.979  1.00  0.00    -0.211 A  
HETATM    5  C   UNL     1     -10.923   7.849  70.298  1.00  0.00    -0.249 A  
HETATM    6  C   UNL     1      -9.920   7.054  68.136  1.00  0.00    -0.169 C  
HETATM    7  C   UNL     1      -8.448   6.275  69.087  1.00  0.00    -0.120 C  
HETATM    8  C   UNL     1     -10.608   5.851  67.820  1.00  0.00    -0.331 C  
HETATM    9  C   UNL     1     -11.333   8.878  71.142  1.00  0.00    -0.291 A  
HETATM   10  C   UNL     1      -7.091   5.542  68.070  1.00  0.00    -0.067 C  
HETATM   11  C   UNL     1     -11.434  10.170  70.632  1.00  0.00    -0.432 A  
HETATM   12  C   UNL     1      -9.243   5.801  67.158  1.00  0.00    -0.115 C  
HETATM   13  C   UNL     1      -9.653   7.512  66.223  1.00  0.00    -0.134 C  
HETATM   14  N   UNL     1      -8.205   7.497  67.121  1.00  0.00    -0.113 NA 
HETATM   15  C   UNL     1     -11.031  10.437  69.316  1.00  0.00    -0.287 A  
HETATM   16  C   UNL     1      -7.248   8.222  68.016  1.00  0.00    -0.094 C  
HETATM   17  C   UNL     1      -7.070   5.652  66.248  1.00  0.00    -0.072 C  
HETATM   18  C   UNL     1      -8.290   6.578  65.222  1.00  0.00    -0.121 C  
ENDROOT
BRANCH   9  19
HETATM   19  O   UNL     1     -11.573   8.488  72.431  1.00  0.00    -0.372 OA 
HETATM   20  C   UNL     1     -11.225   7.156  72.781  1.00  0.00    -0.275 C  
ENDBRANCH   9  19
TORSDOF 1
ENDMDL
MODEL       80
REMARK 921   NORMALIZED FREE ENERGY PREDICTED BY IDOCK:   -3.86 KCAL/MOL
REMARK 922        TOTAL FREE ENERGY PREDICTED BY IDOCK:   -4.15 KCAL/MOL
REMARK 923 INTER-LIGAND FREE ENERGY PREDICTED BY IDOCK:   -4.07 KCAL/MOL
REMARK 924 INTRA-LIGAND FREE ENERGY PREDICTED BY IDOCK:   -0.08 KCAL/MOL
REMARK 927      BINDING AFFINITY PREDICTED BY RF-SCORE:    0.00 PKD
ROOT
HETATM    1  C   UNL     1     -11.473   8.480  70.879  1.00  0.00    -0.267 C  
HETATM    2  C   UNL     1     -11.400   9.465  69.681  1.00  0.00    -0.023 C  
HETATM    3  C   UNL     1     -10.336   9.270  68.628  1.00  0.00    -0.229 A  
HETATM    4  C   UNL     1      -9.254   8.428  68.874  1.00  0.00    -0.147 A  
HETATM    5  C   UNL     1      -8.395   8.069  67.828  1.00  0.00    -0.129 A  
HETATM    6  C   UNL     1      -9.186   7.751  70.192  1.00  0.00    -0.153 C  
HETATM    7  C   UNL     1      -9.278   5.854  69.922  1.00  0.00    -0.163 C  
HETATM    8  C   UNL     1      -8.011   7.778  70.990  1.00  0.00    -0.090 C  
HETATM    9  C   UNL     1      -8.575   8.578  66.544  1.00  0.00    -0.121 A  
HETATM   10  C   UNL     1      -9.967   4.846  71.309  1.00  0.00    -0.271 C  
HETATM   11  C   UNL     1      -9.575   9.522  66.326  1.00  0.00    -0.287 A  
HETATM   12  C   UNL     1      -9.065   6.977  71.732  1.00  0.00    -0.140 C  
HETATM   13  C   UNL     1     -10.297   8.540  71.635  1.00  0.00    -0.333 C  
HETATM   14  N   UNL     1     -10.922   7.076  71.027  1.00  0.00    -0.244 NA 
HETATM   15  C   UNL     1     -10.446   9.873  67.367  1.00  0.00    -0.325 A  
HETATM   16  C   UNL     1     -11.749   6.369  69.999  1.00  0.00    -0.275 C  
HETATM   17  C   UNL     1     -10.648   5.607  72.822  1.00  0.00    -0.266 C  
HETATM   18  C   UNL     1     -10.845   7.417  73.109  1.00  0.00    -0.435 C  
ENDROOT
BRANCH   9  19
HETATM   19  O   UNL     1      -7.731   8.050  65.606  1.00  0.00    -0.086 OA 
HETATM   20  C   UNL     1      -7.444   6.662  65.699  1.00  0.00    -0.082 C  
ENDBRANCH   9  19
TORSDOF 1
ENDMDL
MODEL       81
REMARK 921   NORMALIZED FREE ENERGY PREDICTED BY IDOCK:   -3.82 KCAL/MOL
REMARK 922        TOTAL FREE ENERGY PREDICTED BY IDOCK:   -4.11 KCAL/MOL
REMARK 923 INTER-LIGAND FREE ENERGY PREDICTED BY IDOCK:   -4.02 KCAL/MOL
REMARK 924 INTRA-LIGAND FREE ENERGY PREDICTED BY IDOCK:   -0.08 KCAL/MOL
REMARK 927      BINDING AFFINITY PREDICTED BY RF-SCORE:    0.00 PKD
ROOT
HETATM    1  C   UNL     1     -11.370  13.355  68.937  1.00  0.00    -0.287 C  
HETATM    2  C   UNL     1     -11.402  11.961  69.620  1.00  0.00    -0.266 C  
HETATM    3  C   UNL     1     -10.905  10.755  68.860  1.00  0.00    -0.269 A  
HETATM    4  C   UNL     1     -10.715  10.825  67.483  1.00  0.00    -0.312 A  
HETATM    5  C   UNL     1     -10.045   9.794  66.815  1.00  0.00    -0.295 A  
HETATM    6  C   UNL     1     -11.024  12.108  66.803  1.00  0.00    -0.325 C  
HETATM    7  C   UNL     1      -9.415  12.801  66.022  1.00  0.00    -0.127 C  
HETATM    8  C   UNL     1     -11.845  12.164  65.644  1.00  0.00    -0.343 C  
HETATM    9  C   UNL     1      -9.600   8.665  67.499  1.00  0.00    -0.157 A  
HETATM   10  C   UNL     1      -9.314  14.634  65.807  1.00  0.00    -0.058 C  
HETATM   11  C   UNL     1      -9.907   8.532  68.852  1.00  0.00    -0.181 A  
HETATM   12  C   UNL     1     -11.409  13.578  65.982  1.00  0.00    -0.327 C  
HETATM   13  C   UNL     1     -12.189  13.365  67.803  1.00  0.00    -0.171 C  
HETATM   14  N   UNL     1     -10.556  13.850  67.758  1.00  0.00    -0.244 NA 
HETATM   15  C   UNL     1     -10.564   9.570  69.527  1.00  0.00    -0.238 A  
HETATM   16  C   UNL     1      -9.181  13.764  68.344  1.00  0.00    -0.182 C  
HETATM   17  C   UNL     1     -10.616  15.759  66.415  1.00  0.00    -0.307 C  
HETATM   18  C   UNL     1     -12.092  15.251  67.394  1.00  0.00     0.320 C  
ENDROOT
BRANCH   9  19
HETATM   19  O   UNL     1      -8.865   7.798  66.740  1.00  0.00    -0.128 OA 
HETATM   20  C   UNL     1      -8.641   8.154  65.383  1.00  0.00    -0.129 C  
ENDBRANCH   9  19
TORSDOF 1
ENDMDL
MODEL       82
REMARK 921   NORMALIZED FREE ENERGY PREDICTED BY IDOCK:   -3.81 KCAL/MOL
REMARK 922        TOTAL FREE ENERGY PREDICTED BY IDOCK:   -4.10 KCAL/MOL
REMARK 923 INTER-LIGAND FREE ENERGY PREDICTED BY IDOCK:   -4.02 KCAL/MOL
REMARK 924 INTRA-LIGAND FREE ENERGY PREDICTED BY IDOCK:   -0.08 KCAL/MOL
REMARK 927      BINDING AFFINITY PREDICTED BY RF-SCORE:    0.00 PKD
ROOT
HETATM    1  C   UNL     1     -11.375   5.869  71.130  1.00  0.00    -0.159 C  
HETATM    2  C   UNL     1     -11.596   7.066  70.165  1.00  0.00    -0.273 C  
HETATM    3  C   UNL     1     -10.564   8.167  70.105  1.00  0.00    -0.237 A  
HETATM    4  C   UNL     1      -9.600   8.277  71.103  1.00  0.00    -0.206 A  
HETATM    5  C   UNL     1      -8.514   9.145  70.935  1.00  0.00    -0.251 A  
HETATM    6  C   UNL     1      -9.631   7.291  72.211  1.00  0.00    -0.173 C  
HETATM    7  C   UNL     1      -8.006   6.273  72.185  1.00  0.00    -0.108 C  
HETATM    8  C   UNL     1      -9.589   7.692  73.574  1.00  0.00    -0.348 C  
HETATM    9  C   UNL     1      -8.403   9.944  69.799  1.00  0.00    -0.183 A  
HETATM   10  C   UNL     1      -8.079   4.565  72.888  1.00  0.00    -0.096 C  
HETATM   11  C   UNL     1      -9.435   9.933  68.863  1.00  0.00    -0.170 A  
HETATM   12  C   UNL     1      -9.667   6.177  73.532  1.00  0.00    -0.169 C  
HETATM   13  C   UNL     1     -11.339   6.310  72.457  1.00  0.00    -0.313 C  
HETATM   14  N   UNL     1     -10.104   5.354  71.775  1.00  0.00    -0.190 NA 
HETATM   15  C   UNL     1     -10.515   9.054  69.021  1.00  0.00    -0.235 A  
HETATM   16  C   UNL     1      -9.363   4.904  70.555  1.00  0.00    -0.154 C  
HETATM   17  C   UNL     1      -9.638   3.817  73.471  1.00  0.00    -0.135 C  
HETATM   18  C   UNL     1     -11.307   4.587  73.332  1.00  0.00    -0.376 C  
ENDROOT
BRANCH   9  19
HETATM   19  O   UNL     1      -7.237  10.653  69.721  1.00  0.00    -0.149 OA 
HETATM   20  C   UNL     1      -6.089  10.083  70.334  1.00  0.00    -0.093 C  
ENDBRANCH   9  19
TORSDOF 1
ENDMDL
MODEL       83
REMARK 921   NORMALIZED FREE ENERGY PREDICTED BY IDOCK:   -3.77 KCAL/MOL
REMARK 922        TOTAL FREE ENERGY PREDICTED BY IDOCK:   -4.06 KCAL/MOL
REMARK 923 INTER-LIGAND FREE ENERGY PREDICTED BY IDOCK:   -3.99 KCAL/MOL
REMARK 924 INTRA-LIGAND FREE ENERGY PREDICTED BY IDOCK:   -0.07 KCAL/MOL
REMARK 927      BINDING AFFINITY PREDICTED BY RF-SCORE:    0.00 PKD
ROOT
HETATM    1  C   UNL     1     -11.261   6.115  70.007  1.00  0.00    -0.401 C  
HETATM    2  C   UNL     1     -11.308   6.718  68.577  1.00  0.00    -0.056 C  
HETATM    3  C   UNL     1     -10.288   7.759  68.180  1.00  0.00    -0.248 A  
HETATM    4  C   UNL     1      -9.521   8.393  69.153  1.00  0.00    -0.155 A  
HETATM    5  C   UNL     1      -8.427   9.182  68.779  1.00  0.00    -0.130 A  
HETATM    6  C   UNL     1      -9.749   8.019  70.571  1.00  0.00    -0.179 C  
HETATM    7  C   UNL     1      -8.142   7.247  71.277  1.00  0.00    -0.102 C  
HETATM    8  C   UNL     1      -9.957   8.997  71.582  1.00  0.00    -0.383 C  
HETATM    9  C   UNL     1      -8.115   9.385  67.437  1.00  0.00    -0.110 A  
HETATM   10  C   UNL     1      -8.334   6.045  72.668  1.00  0.00    -0.118 C  
HETATM   11  C   UNL     1      -8.959   8.861  66.460  1.00  0.00    -0.187 A  
HETATM   12  C   UNL     1     -10.019   7.627  72.232  1.00  0.00    -0.242 C  
HETATM   13  C   UNL     1     -11.469   7.111  70.967  1.00  0.00    -0.331 C  
HETATM   14  N   UNL     1     -10.127   6.061  71.010  1.00  0.00    -0.186 NA 
HETATM   15  C   UNL     1     -10.046   8.058  66.832  1.00  0.00    -0.362 A  
HETATM   16  C   UNL     1      -9.174   5.174  70.271  1.00  0.00    -0.146 C  
HETATM   17  C   UNL     1      -9.970   5.509  73.274  1.00  0.00    -0.188 C  
HETATM   18  C   UNL     1     -11.589   5.982  72.531  1.00  0.00    -0.315 C  
ENDROOT
BRANCH   9  19
HETATM   19  O   UNL     1      -6.956  10.081  67.226  1.00  0.00    -0.082 OA 
HETATM   20  C   UNL     1      -6.261   9.832  66.013  1.00  0.00    -0.071 C  
ENDBRANCH   9  19
TORSDOF 1
ENDMDL
MODEL       84
REMARK 921   NORMALIZED FREE ENERGY PREDICTED BY IDOCK:   -3.75 KCAL/MOL
REMARK 922        TOTAL FREE ENERGY PREDICTED BY IDOCK:   -4.04 KCAL/MOL
REMARK 923 INTER-LIGAND FREE ENERGY PREDICTED BY IDOCK:   -3.95 KCAL/MOL
REMARK 924 INTRA-LIGAND FREE ENERGY PREDICTED BY IDOCK:   -0.08 KCAL/MOL
REMARK 927      BINDING AFFINITY PREDICTED BY RF-SCORE:    0.00 PKD
ROOT
HETATM    1  C   UNL     1      -8.828  18.315  68.954  1.00  0.00    -0.121 C  
HETATM    2  C   UNL     1     -10.066  17.615  69.575  1.00  0.00     0.088 C  
HETATM    3  C   UNL     1     -10.354  16.174  69.225  1.00  0.00    -0.265 A  
HETATM    4  C   UNL     1      -9.717  15.578  68.141  1.00  0.00    -0.208 A  
HETATM    5  C   UNL     1      -9.804  14.193  67.953  1.00  0.00    -0.224 A  
HETATM    6  C   UNL     1      -8.769  16.402  67.351  1.00  0.00    -0.195 C  
HETATM    7  C   UNL     1      -7.017  15.635  67.483  1.00  0.00    -0.218 C  
HETATM    8  C   UNL     1      -8.843  16.480  65.934  1.00  0.00    -0.148 C  
HETATM    9  C   UNL     1     -10.561  13.398  68.810  1.00  0.00    -0.210 A  
HETATM   10  C   UNL     1      -5.585  16.785  67.282  1.00  0.00    -0.184 C  
HETATM   11  C   UNL     1     -11.305  14.010  69.816  1.00  0.00    -0.239 A  
HETATM   12  C   UNL     1      -7.688  17.351  66.394  1.00  0.00    -0.343 C  
HETATM   13  C   UNL     1      -8.942  18.369  67.560  1.00  0.00    -0.271 C  
HETATM   14  N   UNL     1      -7.572  17.725  68.344  1.00  0.00    -0.260 NA 
HETATM   15  C   UNL     1     -11.208  15.394  70.017  1.00  0.00    -0.314 A  
HETATM   16  C   UNL     1      -6.982  17.076  69.556  1.00  0.00    -0.052 C  
HETATM   17  C   UNL     1      -5.801  18.587  67.090  1.00  0.00    -0.156 C  
HETATM   18  C   UNL     1      -7.408  19.484  67.188  1.00  0.00    -0.242 C  
ENDROOT
BRANCH   9  19
HETATM   19  O   UNL     1     -10.460  12.055  68.571  1.00  0.00    -0.218 OA 
HETATM   20  C   UNL     1      -9.314  11.608  67.860  1.00  0.00    -0.174 C  
ENDBRANCH   9  19
TORSDOF 1
ENDMDL
MODEL       85
REMARK 921   NORMALIZED FREE ENERGY PREDICTED BY IDOCK:   -3.75 KCAL/MOL
REMARK 922        TOTAL FREE ENERGY PREDICTED BY IDOCK:   -4.03 KCAL/MOL
REMARK 923 INTER-LIGAND FREE ENERGY PREDICTED BY IDOCK:   -3.97 KCAL/MOL
REMARK 924 INTRA-LIGAND FREE ENERGY PREDICTED BY IDOCK:   -0.06 KCAL/MOL
REMARK 927      BINDING AFFINITY PREDICTED BY RF-SCORE:    0.00 PKD
ROOT
HETATM    1  C   UNL     1      -9.206   3.621  70.882  1.00  0.00    -0.129 C  
HETATM    2  C   UNL     1      -9.711   4.400  69.638  1.00  0.00    -0.289 C  
HETATM    3  C   UNL     1     -10.298   5.780  69.817  1.00  0.00    -0.332 A  
HETATM    4  C   UNL     1     -10.668   6.222  71.084  1.00  0.00    -0.301 A  
HETATM    5  C   UNL     1     -10.995   7.568  71.287  1.00  0.00    -0.262 A  
HETATM    6  C   UNL     1     -10.474   5.297  72.228  1.00  0.00    -0.273 C  
HETATM    7  C   UNL     1      -9.219   6.076  73.451  1.00  0.00    -0.131 C  
HETATM    8  C   UNL     1     -11.514   5.027  73.159  1.00  0.00    -0.362 C  
HETATM    9  C   UNL     1     -11.003   8.473  70.228  1.00  0.00    -0.235 A  
HETATM   10  C   UNL     1      -8.239   4.908  74.497  1.00  0.00    -0.098 C  
HETATM   11  C   UNL     1     -10.763   8.004  68.938  1.00  0.00    -0.091 A  
HETATM   12  C   UNL     1     -10.292   4.227  73.572  1.00  0.00    -0.242 C  
HETATM   13  C   UNL     1     -10.260   3.378  71.770  1.00  0.00    -0.038 C  
HETATM   14  N   UNL     1      -8.805   4.122  72.255  1.00  0.00    -0.106 NA 
HETATM   15  C   UNL     1     -10.420   6.661  68.734  1.00  0.00    -0.241 A  
HETATM   16  C   UNL     1      -7.599   4.931  71.889  1.00  0.00    -0.097 C  
HETATM   17  C   UNL     1      -8.353   3.096  74.303  1.00  0.00    -0.070 C  
HETATM   18  C   UNL     1      -9.331   2.222  73.010  1.00  0.00    -0.110 C  
ENDROOT
BRANCH   9  19
HETATM   19  O   UNL     1     -11.230   9.771  70.596  1.00  0.00    -0.280 OA 
HETATM   20  C   UNL     1     -11.846  10.618  69.638  1.00  0.00    -0.286 C  
ENDBRANCH   9  19
TORSDOF 1
ENDMDL
MODEL       86
REMARK 921   NORMALIZED FREE ENERGY PREDICTED BY IDOCK:   -3.72 KCAL/MOL
REMARK 922        TOTAL FREE ENERGY PREDICTED BY IDOCK:   -4.00 KCAL/MOL
REMARK 923 INTER-LIGAND FREE ENERGY PREDICTED BY IDOCK:   -3.92 KCAL/MOL
REMARK 924 INTRA-LIGAND FREE ENERGY PREDICTED BY IDOCK:   -0.07 KCAL/MOL
REMARK 927      BINDING AFFINITY PREDICTED BY RF-SCORE:    0.00 PKD
ROOT
HETATM    1  C   UNL     1     -10.575   6.151  68.547  1.00  0.00    -0.271 C  
HETATM    2  C   UNL     1     -11.181   6.001  69.969  1.00  0.00    -0.425 C  
HETATM    3  C   UNL     1     -10.413   6.526  71.159  1.00  0.00    -0.257 A  
HETATM    4  C   UNL     1      -9.067   6.853  71.032  1.00  0.00    -0.155 A  
HETATM    5  C   UNL     1      -8.416   7.548  72.059  1.00  0.00    -0.123 A  
HETATM    6  C   UNL     1      -8.425   6.660  69.708  1.00  0.00    -0.132 C  
HETATM    7  C   UNL     1      -7.839   8.362  69.047  1.00  0.00    -0.102 C  
HETATM    8  C   UNL     1      -7.196   5.960  69.564  1.00  0.00    -0.070 C  
HETATM    9  C   UNL     1      -9.083   7.881  73.235  1.00  0.00    -0.278 A  
HETATM   10  C   UNL     1      -7.726   8.550  67.212  1.00  0.00    -0.097 C  
HETATM   11  C   UNL     1     -10.391   7.438  73.418  1.00  0.00    -0.411 A  
HETATM   12  C   UNL     1      -7.645   6.411  68.187  1.00  0.00    -0.103 C  
HETATM   13  C   UNL     1      -9.369   5.448  68.451  1.00  0.00    -0.138 C  
HETATM   14  N   UNL     1      -9.507   7.094  68.033  1.00  0.00    -0.131 NA 
HETATM   15  C   UNL     1     -11.050   6.756  72.386  1.00  0.00    -0.292 A  
HETATM   16  C   UNL     1     -10.218   8.401  68.202  1.00  0.00    -0.208 C  
HETATM   17  C   UNL     1      -8.261   7.237  66.062  1.00  0.00    -0.138 C  
HETATM   18  C   UNL     1      -9.066   5.653  66.554  1.00  0.00    -0.140 C  
ENDROOT
BRANCH   9  19
HETATM   19  O   UNL     1      -8.355   8.656  74.096  1.00  0.00    -0.297 OA 
HETATM   20  C   UNL     1      -6.983   8.329  74.260  1.00  0.00    -0.156 C  
ENDBRANCH   9  19
TORSDOF 1
ENDMDL
MODEL       87
REMARK 921   NORMALIZED FREE ENERGY PREDICTED BY IDOCK:   -3.72 KCAL/MOL
REMARK 922        TOTAL FREE ENERGY PREDICTED BY IDOCK:   -4.00 KCAL/MOL
REMARK 923 INTER-LIGAND FREE ENERGY PREDICTED BY IDOCK:   -3.92 KCAL/MOL
REMARK 924 INTRA-LIGAND FREE ENERGY PREDICTED BY IDOCK:   -0.08 KCAL/MOL
REMARK 927      BINDING AFFINITY PREDICTED BY RF-SCORE:    0.00 PKD
ROOT
HETATM    1  C   UNL     1     -10.515   8.780  69.366  1.00  0.00    -0.222 C  
HETATM    2  C   UNL     1      -9.333   8.599  68.377  1.00  0.00    -0.141 C  
HETATM    3  C   UNL     1      -8.180   7.701  68.759  1.00  0.00    -0.128 A  
HETATM    4  C   UNL     1      -8.022   7.292  70.080  1.00  0.00    -0.117 A  
HETATM    5  C   UNL     1      -7.100   6.286  70.395  1.00  0.00    -0.071 A  
HETATM    6  C   UNL     1      -9.007   7.772  71.080  1.00  0.00    -0.147 C  
HETATM    7  C   UNL     1      -9.941   6.263  71.807  1.00  0.00    -0.193 C  
HETATM    8  C   UNL     1      -8.603   8.363  72.308  1.00  0.00    -0.263 C  
HETATM    9  C   UNL     1      -6.297   5.714  69.411  1.00  0.00    -0.037 A  
HETATM   10  C   UNL     1     -11.650   6.567  72.443  1.00  0.00    -0.292 C  
HETATM   11  C   UNL     1      -6.360   6.215  68.113  1.00  0.00    -0.043 A  
HETATM   12  C   UNL     1     -10.120   8.345  72.270  1.00  0.00    -0.382 C  
HETATM   13  C   UNL     1     -10.072   9.363  70.558  1.00  0.00    -0.335 C  
HETATM   14  N   UNL     1     -10.966   7.912  70.523  1.00  0.00    -0.246 NA 
HETATM   15  C   UNL     1      -7.293   7.211  67.791  1.00  0.00    -0.097 A  
HETATM   16  C   UNL     1     -11.378   6.684  69.774  1.00  0.00    -0.354 C  
HETATM   17  C   UNL     1     -12.475   8.187  72.284  1.00  0.00    -0.345 C  
HETATM   18  C   UNL     1     -11.791   9.649  71.395  1.00  0.00    -0.484 C  
ENDROOT
BRANCH   9  19
HETATM   19  O   UNL     1      -5.530   4.669  69.846  1.00  0.00    -0.007 OA 
HETATM   20  C   UNL     1      -5.496   4.428  71.246  1.00  0.00    -0.011 C  
ENDBRANCH   9  19
TORSDOF 1
ENDMDL
MODEL       88
REMARK 921   NORMALIZED FREE ENERGY PREDICTED BY IDOCK:   -3.68 KCAL/MOL
REMARK 922        TOTAL FREE ENERGY PREDICTED BY IDOCK:   -3.96 KCAL/MOL
REMARK 923 INTER-LIGAND FREE ENERGY PREDICTED BY IDOCK:   -3.90 KCAL/MOL
REMARK 924 INTRA-LIGAND FREE ENERGY PREDICTED BY IDOCK:   -0.07 KCAL/MOL
REMARK 927      BINDING AFFINITY PREDICTED BY RF-SCORE:    0.00 PKD
ROOT
HETATM    1  C   UNL     1     -11.158   9.482  69.474  1.00  0.00    -0.142 C  
HETATM    2  C   UNL     1     -11.368  10.352  68.205  1.00  0.00    -0.292 C  
HETATM    3  C   UNL     1     -10.237  10.502  67.216  1.00  0.00    -0.260 A  
HETATM    4  C   UNL     1      -8.943  10.135  67.572  1.00  0.00    -0.136 A  
HETATM    5  C   UNL     1      -7.943  10.057  66.596  1.00  0.00    -0.115 A  
HETATM    6  C   UNL     1      -8.722   9.608  68.942  1.00  0.00    -0.132 C  
HETATM    7  C   UNL     1      -8.097   7.799  68.820  1.00  0.00    -0.126 C  
HETATM    8  C   UNL     1      -7.695  10.114  69.784  1.00  0.00    -0.176 C  
HETATM    9  C   UNL     1      -8.208  10.388  65.269  1.00  0.00    -0.162 A  
HETATM   10  C   UNL     1      -8.463   6.691  70.253  1.00  0.00    -0.135 C  
HETATM   11  C   UNL     1      -9.467  10.882  64.935  1.00  0.00    -0.277 A  
HETATM   12  C   UNL     1      -8.432   9.025  70.542  1.00  0.00    -0.226 C  
HETATM   13  C   UNL     1     -10.139  10.015  70.271  1.00  0.00    -0.228 C  
HETATM   14  N   UNL     1     -10.144   8.391  69.756  1.00  0.00    -0.193 NA 
HETATM   15  C   UNL     1     -10.474  10.947  65.908  1.00  0.00    -0.285 A  
HETATM   16  C   UNL     1     -10.584   7.370  68.753  1.00  0.00    -0.168 C  
HETATM   17  C   UNL     1      -9.476   7.234  71.671  1.00  0.00    -0.161 C  
HETATM   18  C   UNL     1     -10.338   8.857  71.805  1.00  0.00    -0.426 C  
ENDROOT
BRANCH   9  19
HETATM   19  O   UNL     1      -7.169  10.154  64.411  1.00  0.00    -0.138 OA 
HETATM   20  C   UNL     1      -7.498   9.766  63.085  1.00  0.00    -0.120 C  
ENDBRANCH   9  19
TORSDOF 1
ENDMDL
MODEL       89
REMARK 921   NORMALIZED FREE ENERGY PREDICTED BY IDOCK:   -3.67 KCAL/MOL
REMARK 922        TOTAL FREE ENERGY PREDICTED BY IDOCK:   -3.95 KCAL/MOL
REMARK 923 INTER-LIGAND FREE ENERGY PREDICTED BY IDOCK:   -3.88 KCAL/MOL
REMARK 924 INTRA-LIGAND FREE ENERGY PREDICTED BY IDOCK:   -0.07 KCAL/MOL
REMARK 927      BINDING AFFINITY PREDICTED BY RF-SCORE:    0.00 PKD
ROOT
HETATM    1  C   UNL     1     -11.600   6.733  70.433  1.00  0.00    -0.367 C  
HETATM    2  C   UNL     1     -11.653   6.413  68.914  1.00  0.00     0.059 C  
HETATM    3  C   UNL     1     -10.394   6.534  68.089  1.00  0.00    -0.223 A  
HETATM    4  C   UNL     1      -9.288   7.211  68.596  1.00  0.00    -0.134 A  
HETATM    5  C   UNL     1      -8.055   7.130  67.938  1.00  0.00    -0.119 A  
HETATM    6  C   UNL     1      -9.398   7.805  69.952  1.00  0.00    -0.157 C  
HETATM    7  C   UNL     1      -8.119   6.964  71.106  1.00  0.00    -0.110 C  
HETATM    8  C   UNL     1      -9.037   9.156  70.210  1.00  0.00    -0.247 C  
HETATM    9  C   UNL     1      -7.922   6.418  66.749  1.00  0.00    -0.109 A  
HETATM   10  C   UNL     1      -8.520   6.925  72.909  1.00  0.00    -0.127 C  
HETATM   11  C   UNL     1      -9.056   5.851  66.171  1.00  0.00    -0.160 A  
HETATM   12  C   UNL     1      -9.512   8.537  71.513  1.00  0.00    -0.290 C  
HETATM   13  C   UNL     1     -11.241   8.069  70.640  1.00  0.00    -0.266 C  
HETATM   14  N   UNL     1     -10.422   6.773  71.385  1.00  0.00    -0.214 NA 
HETATM   15  C   UNL     1     -10.288   5.917  66.835  1.00  0.00    -0.304 A  
HETATM   16  C   UNL     1     -10.026   5.329  71.361  1.00  0.00    -0.185 C  
HETATM   17  C   UNL     1     -10.108   7.540  73.568  1.00  0.00    -0.378 C  
HETATM   18  C   UNL     1     -11.519   8.149  72.551  1.00  0.00    -0.470 C  
ENDROOT
BRANCH   9  19
HETATM   19  O   UNL     1      -6.639   6.332  66.283  1.00  0.00    -0.045 OA 
HETATM   20  C   UNL     1      -6.199   5.062  65.824  1.00  0.00    -0.034 C  
ENDBRANCH   9  19
TORSDOF 1
ENDMDL
MODEL       90
REMARK 921   NORMALIZED FREE ENERGY PREDICTED BY IDOCK:   -3.66 KCAL/MOL
REMARK 922        TOTAL FREE ENERGY PREDICTED BY IDOCK:   -3.94 KCAL/MOL
REMARK 923 INTER-LIGAND FREE ENERGY PREDICTED BY IDOCK:   -3.86 KCAL/MOL
REMARK 924 INTRA-LIGAND FREE ENERGY PREDICTED BY IDOCK:   -0.08 KCAL/MOL
REMARK 927      BINDING AFFINITY PREDICTED BY RF-SCORE:    0.00 PKD
ROOT
HETATM    1  C   UNL     1      -9.038   6.150  71.819  1.00  0.00    -0.144 C  
HETATM    2  C   UNL     1      -7.791   5.706  71.007  1.00  0.00    -0.105 C  
HETATM    3  C   UNL     1      -7.643   6.158  69.573  1.00  0.00    -0.094 A  
HETATM    4  C   UNL     1      -8.733   6.693  68.893  1.00  0.00    -0.128 A  
HETATM    5  C   UNL     1      -8.547   7.318  67.654  1.00  0.00    -0.126 A  
HETATM    6  C   UNL     1     -10.024   6.792  69.618  1.00  0.00    -0.184 C  
HETATM    7  C   UNL     1     -10.517   8.640  69.760  1.00  0.00    -0.220 C  
HETATM    8  C   UNL     1     -11.238   6.308  69.058  1.00  0.00    -0.415 C  
HETATM    9  C   UNL     1      -7.288   7.374  67.060  1.00  0.00    -0.097 A  
HETATM   10  C   UNL     1     -11.588   9.110  71.192  1.00  0.00    -0.386 C  
HETATM   11  C   UNL     1      -6.222   6.722  67.676  1.00  0.00    -0.040 A  
HETATM   12  C   UNL     1     -11.548   6.886  70.427  1.00  0.00    -0.385 C  
HETATM   13  C   UNL     1     -10.207   5.653  71.233  1.00  0.00    -0.279 C  
HETATM   14  N   UNL     1      -9.993   7.305  71.593  1.00  0.00    -0.180 NA 
HETATM   15  C   UNL     1      -6.402   6.110  68.924  1.00  0.00    -0.041 A  
HETATM   16  C   UNL     1      -9.059   8.454  71.813  1.00  0.00    -0.218 C  
HETATM   17  C   UNL     1     -12.062   7.915  72.488  1.00  0.00    -0.298 C  
HETATM   18  C   UNL     1     -11.462   6.176  72.605  1.00  0.00    -0.277 C  
ENDROOT
BRANCH   9  19
HETATM   19  O   UNL     1      -7.240   8.112  65.910  1.00  0.00    -0.070 OA 
HETATM   20  C   UNL     1      -8.474   8.386  65.263  1.00  0.00    -0.171 C  
ENDBRANCH   9  19
TORSDOF 1
ENDMDL
MODEL       91
REMARK 921   NORMALIZED FREE ENERGY PREDICTED BY IDOCK:   -3.63 KCAL/MOL
REMARK 922        TOTAL FREE ENERGY PREDICTED BY IDOCK:   -3.91 KCAL/MOL
REMARK 923 INTER-LIGAND FREE ENERGY PREDICTED BY IDOCK:   -3.85 KCAL/MOL
REMARK 924 INTRA-LIGAND FREE ENERGY PREDICTED BY IDOCK:   -0.06 KCAL/MOL
REMARK 927      BINDING AFFINITY PREDICTED BY RF-SCORE:    0.00 PKD
ROOT
HETATM    1  C   UNL     1      -9.053   4.310  68.823  1.00  0.00    -0.128 C  
HETATM    2  C   UNL     1      -9.661   5.206  67.710  1.00  0.00    -0.182 C  
HETATM    3  C   UNL     1     -10.085   6.616  68.045  1.00  0.00    -0.175 A  
HETATM    4  C   UNL     1     -10.223   7.007  69.373  1.00  0.00    -0.197 A  
HETATM    5  C   UNL     1     -10.390   8.360  69.691  1.00  0.00    -0.218 A  
HETATM    6  C   UNL     1      -9.949   5.999  70.427  1.00  0.00    -0.233 C  
HETATM    7  C   UNL     1      -8.462   6.590  71.483  1.00  0.00    -0.125 C  
HETATM    8  C   UNL     1     -10.861   5.759  71.491  1.00  0.00    -0.316 C  
HETATM    9  C   UNL     1     -10.471   9.328  68.692  1.00  0.00    -0.209 A  
HETATM   10  C   UNL     1      -7.451   5.281  72.308  1.00  0.00    -0.095 C  
HETATM   11  C   UNL     1     -10.467   8.923  67.359  1.00  0.00    -0.347 A  
HETATM   12  C   UNL     1      -9.671   4.835  71.673  1.00  0.00    -0.230 C  
HETATM   13  C   UNL     1      -9.983   4.101  69.847  1.00  0.00    -0.116 C  
HETATM   14  N   UNL     1      -8.410   4.689  70.142  1.00  0.00    -0.070 NA 
HETATM   15  C   UNL     1     -10.283   7.571  67.038  1.00  0.00    -0.368 A  
HETATM   16  C   UNL     1      -7.202   5.414  69.638  1.00  0.00    -0.064 C  
HETATM   17  C   UNL     1      -7.759   3.501  72.045  1.00  0.00    -0.058 C  
HETATM   18  C   UNL     1      -8.994   2.796  70.872  1.00  0.00    -0.163 C  
ENDROOT
BRANCH   9  19
HETATM   19  O   UNL     1     -10.519  10.614  69.154  1.00  0.00    -0.199 OA 
HETATM   20  C   UNL     1     -11.804  11.204  69.295  1.00  0.00    -0.352 C  
ENDBRANCH   9  19
TORSDOF 1
ENDMDL
MODEL       92
REMARK 921   NORMALIZED FREE ENERGY PREDICTED BY IDOCK:   -3.62 KCAL/MOL
REMARK 922        TOTAL FREE ENERGY PREDICTED BY IDOCK:   -3.90 KCAL/MOL
REMARK 923 INTER-LIGAND FREE ENERGY PREDICTED BY IDOCK:   -3.83 KCAL/MOL
REMARK 924 INTRA-LIGAND FREE ENERGY PREDICTED BY IDOCK:   -0.07 KCAL/MOL
REMARK 927      BINDING AFFINITY PREDICTED BY RF-SCORE:    0.00 PKD
ROOT
HETATM    1  C   UNL     1      -7.623   7.327  68.529  1.00  0.00    -0.118 C  
HETATM    2  C   UNL     1      -7.223   5.984  67.861  1.00  0.00    -0.082 C  
HETATM    3  C   UNL     1      -8.233   5.252  67.009  1.00  0.00    -0.108 A  
HETATM    4  C   UNL     1      -9.579   5.600  67.068  1.00  0.00    -0.143 A  
HETATM    5  C   UNL     1     -10.476   5.087  66.123  1.00  0.00    -0.334 A  
HETATM    6  C   UNL     1      -9.976   6.692  67.991  1.00  0.00    -0.157 C  
HETATM    7  C   UNL     1     -10.710   8.137  66.967  1.00  0.00    -0.247 C  
HETATM    8  C   UNL     1     -11.047   6.542  68.914  1.00  0.00    -0.371 C  
HETATM    9  C   UNL     1     -10.054   4.191  65.145  1.00  0.00    -0.209 A  
HETATM   10  C   UNL     1     -10.571   9.830  67.694  1.00  0.00    -0.333 C  
HETATM   11  C   UNL     1      -8.736   3.740  65.166  1.00  0.00    -0.116 A  
HETATM   12  C   UNL     1     -10.470   7.935  69.084  1.00  0.00    -0.218 C  
HETATM   13  C   UNL     1      -8.679   7.133  69.427  1.00  0.00    -0.134 C  
HETATM   14  N   UNL     1      -8.734   8.299  68.185  1.00  0.00    -0.136 NA 
HETATM   15  C   UNL     1      -7.832   4.263  66.101  1.00  0.00    -0.095 A  
HETATM   16  C   UNL     1      -8.265   8.754  66.838  1.00  0.00    -0.108 C  
HETATM   17  C   UNL     1      -9.675  10.152  69.251  1.00  0.00    -0.238 C  
HETATM   18  C   UNL     1      -8.720   8.900  70.209  1.00  0.00    -0.183 C  
ENDROOT
BRANCH   9  19
HETATM   19  O   UNL     1     -11.013   3.866  64.225  1.00  0.00    -0.292 OA 
HETATM   20  C   UNL     1     -10.569   3.507  62.924  1.00  0.00    -0.209 C  
ENDBRANCH   9  19
TORSDOF 1
ENDMDL
MODEL       93
REMARK 921   NORMALIZED FREE ENERGY PREDICTED BY IDOCK:   -3.61 KCAL/MOL
REMARK 922        TOTAL FREE ENERGY PREDICTED BY IDOCK:   -3.89 KCAL/MOL
REMARK 923 INTER-LIGAND FREE ENERGY PREDICTED BY IDOCK:   -3.82 KCAL/MOL
REMARK 924 INTRA-LIGAND FREE ENERGY PREDICTED BY IDOCK:   -0.06 KCAL/MOL
REMARK 927      BINDING AFFINITY PREDICTED BY RF-SCORE:    0.00 PKD
ROOT
HETATM    1  C   UNL     1      -7.777  11.471  66.706  1.00  0.00    -0.136 C  
HETATM    2  C   UNL     1      -7.194  10.082  66.329  1.00  0.00    -0.106 C  
HETATM    3  C   UNL     1      -8.036   8.846  66.540  1.00  0.00    -0.107 A  
HETATM    4  C   UNL     1      -9.176   8.904  67.337  1.00  0.00    -0.157 A  
HETATM    5  C   UNL     1     -10.076   7.832  67.351  1.00  0.00    -0.288 A  
HETATM    6  C   UNL     1      -9.519  10.204  67.966  1.00  0.00    -0.156 C  
HETATM    7  C   UNL     1     -11.215  10.792  67.291  1.00  0.00    -0.272 C  
HETATM    8  C   UNL     1      -9.811  10.313  69.353  1.00  0.00    -0.247 C  
HETATM    9  C   UNL     1      -9.828   6.677  66.613  1.00  0.00    -0.149 A  
HETATM   10  C   UNL     1     -11.521  12.615  67.278  1.00  0.00    -0.402 C  
HETATM   11  C   UNL     1      -8.624   6.564  65.921  1.00  0.00    -0.153 A  
HETATM   12  C   UNL     1      -9.922  11.696  68.738  1.00  0.00    -0.147 C  
HETATM   13  C   UNL     1      -8.049  11.533  68.077  1.00  0.00    -0.136 C  
HETATM   14  N   UNL     1      -9.214  11.913  66.892  1.00  0.00    -0.187 NA 
HETATM   15  C   UNL     1      -7.729   7.642  65.892  1.00  0.00    -0.098 A  
HETATM   16  C   UNL     1      -9.717  11.739  65.493  1.00  0.00    -0.224 C  
HETATM   17  C   UNL     1     -10.239  13.822  67.762  1.00  0.00    -0.241 C  
HETATM   18  C   UNL     1      -8.497  13.409  68.197  1.00  0.00    -0.172 C  
ENDROOT
BRANCH   9  19
HETATM   19  O   UNL     1     -10.847   5.765  66.634  1.00  0.00    -0.297 OA 
HETATM   20  C   UNL     1     -10.781   4.698  65.699  1.00  0.00    -0.148 C  
ENDBRANCH   9  19
TORSDOF 1
ENDMDL
MODEL       94
REMARK 921   NORMALIZED FREE ENERGY PREDICTED BY IDOCK:   -3.61 KCAL/MOL
REMARK 922        TOTAL FREE ENERGY PREDICTED BY IDOCK:   -3.88 KCAL/MOL
REMARK 923 INTER-LIGAND FREE ENERGY PREDICTED BY IDOCK:   -3.81 KCAL/MOL
REMARK 924 INTRA-LIGAND FREE ENERGY PREDICTED BY IDOCK:   -0.07 KCAL/MOL
REMARK 927      BINDING AFFINITY PREDICTED BY RF-SCORE:    0.00 PKD
ROOT
HETATM    1  C   UNL     1     -10.549   8.656  70.478  1.00  0.00    -0.217 C  
HETATM    2  C   UNL     1     -10.240   9.241  69.073  1.00  0.00    -0.217 C  
HETATM    3  C   UNL     1      -9.508   8.389  68.063  1.00  0.00    -0.157 A  
HETATM    4  C   UNL     1      -8.851   7.232  68.470  1.00  0.00    -0.129 A  
HETATM    5  C   UNL     1      -8.370   6.328  67.515  1.00  0.00    -0.113 A  
HETATM    6  C   UNL     1      -8.889   6.880  69.911  1.00  0.00    -0.142 C  
HETATM    7  C   UNL     1      -9.795   5.202  70.117  1.00  0.00    -0.300 C  
HETATM    8  C   UNL     1      -7.711   6.557  70.636  1.00  0.00    -0.105 C  
HETATM    9  C   UNL     1      -8.497   6.587  66.153  1.00  0.00    -0.137 A  
HETATM   10  C   UNL     1     -10.642   4.904  71.732  1.00  0.00    -0.164 C  
HETATM   11  C   UNL     1      -9.035   7.806  65.745  1.00  0.00    -0.109 A  
HETATM   12  C   UNL     1      -8.889   6.466  71.588  1.00  0.00    -0.136 C  
HETATM   13  C   UNL     1      -9.363   8.352  71.155  1.00  0.00    -0.223 C  
HETATM   14  N   UNL     1     -10.616   7.216  70.946  1.00  0.00    -0.218 NA 
HETATM   15  C   UNL     1      -9.531   8.706  66.698  1.00  0.00    -0.267 A  
HETATM   16  C   UNL     1     -11.794   6.745  70.152  1.00  0.00    -0.262 C  
HETATM   17  C   UNL     1     -10.732   6.179  73.036  1.00  0.00    -0.276 C  
HETATM   18  C   UNL     1     -10.119   7.910  72.877  1.00  0.00    -0.376 C  
ENDROOT
BRANCH   9  19
HETATM   19  O   UNL     1      -8.086   5.565  65.343  1.00  0.00    -0.111 OA 
HETATM   20  C   UNL     1      -9.079   4.654  64.893  1.00  0.00    -0.154 C  
ENDBRANCH   9  19
TORSDOF 1
ENDMDL
MODEL       95
REMARK 921   NORMALIZED FREE ENERGY PREDICTED BY IDOCK:   -3.59 KCAL/MOL
REMARK 922        TOTAL FREE ENERGY PREDICTED BY IDOCK:   -3.87 KCAL/MOL
REMARK 923 INTER-LIGAND FREE ENERGY PREDICTED BY IDOCK:   -3.80 KCAL/MOL
REMARK 924 INTRA-LIGAND FREE ENERGY PREDICTED BY IDOCK:   -0.06 KCAL/MOL
REMARK 927      BINDING AFFINITY PREDICTED BY RF-SCORE:    0.00 PKD
ROOT
HETATM    1  C   UNL     1      -7.221   9.821  68.276  1.00  0.00    -0.078 C  
HETATM    2  C   UNL     1      -7.594   9.894  69.781  1.00  0.00    -0.151 C  
HETATM    3  C   UNL     1      -8.783   9.112  70.287  1.00  0.00    -0.223 A  
HETATM    4  C   UNL     1      -9.709   8.589  69.389  1.00  0.00    -0.177 A  
HETATM    5  C   UNL     1     -10.676   7.679  69.832  1.00  0.00    -0.253 A  
HETATM    6  C   UNL     1      -9.489   8.834  67.942  1.00  0.00    -0.160 C  
HETATM    7  C   UNL     1      -9.227   7.153  67.059  1.00  0.00    -0.167 C  
HETATM    8  C   UNL     1     -10.519   9.338  67.102  1.00  0.00    -0.319 C  
HETATM    9  C   UNL     1     -10.762   7.318  71.174  1.00  0.00    -0.228 A  
HETATM   10  C   UNL     1      -8.216   7.172  65.511  1.00  0.00    -0.139 C  
HETATM   11  C   UNL     1      -9.922   7.941  72.095  1.00  0.00    -0.266 A  
HETATM   12  C   UNL     1      -9.277   9.135  66.254  1.00  0.00    -0.246 C  
HETATM   13  C   UNL     1      -8.262  10.326  67.488  1.00  0.00    -0.114 C  
HETATM   14  N   UNL     1      -7.578   8.787  67.228  1.00  0.00    -0.089 NA 
HETATM   15  C   UNL     1      -8.943   8.841  71.653  1.00  0.00    -0.301 A  
HETATM   16  C   UNL     1      -6.850   7.602  67.782  1.00  0.00    -0.068 C  
HETATM   17  C   UNL     1      -7.395   8.684  64.902  1.00  0.00    -0.090 C  
HETATM   18  C   UNL     1      -7.363  10.305  65.777  1.00  0.00    -0.140 C  
ENDROOT
BRANCH   9  19
HETATM   19  O   UNL     1     -11.678   6.337  71.438  1.00  0.00    -0.309 OA 
HETATM   20  C   UNL     1     -11.513   5.603  72.643  1.00  0.00    -0.285 C  
ENDBRANCH   9  19
TORSDOF 1
ENDMDL
MODEL       96
REMARK 921   NORMALIZED FREE ENERGY PREDICTED BY IDOCK:   -3.57 KCAL/MOL
REMARK 922        TOTAL FREE ENERGY PREDICTED BY IDOCK:   -3.84 KCAL/MOL
REMARK 923 INTER-LIGAND FREE ENERGY PREDICTED BY IDOCK:   -3.77 KCAL/MOL
REMARK 924 INTRA-LIGAND FREE ENERGY PREDICTED BY IDOCK:   -0.07 KCAL/MOL
REMARK 927      BINDING AFFINITY PREDICTED BY RF-SCORE:    0.00 PKD
ROOT
HETATM    1  C   UNL     1      -9.030   5.707  66.475  1.00  0.00    -0.126 C  
HETATM    2  C   UNL     1      -8.910   4.381  67.273  1.00  0.00    -0.114 C  
HETATM    3  C   UNL     1      -9.020   4.413  68.779  1.00  0.00    -0.152 A  
HETATM    4  C   UNL     1      -8.919   5.621  69.462  1.00  0.00    -0.129 A  
HETATM    5  C   UNL     1      -9.246   5.686  70.822  1.00  0.00    -0.175 A  
HETATM    6  C   UNL     1      -8.693   6.853  68.666  1.00  0.00    -0.122 C  
HETATM    7  C   UNL     1     -10.190   8.029  68.902  1.00  0.00    -0.220 C  
HETATM    8  C   UNL     1      -7.664   7.778  68.991  1.00  0.00    -0.109 C  
HETATM    9  C   UNL     1      -9.629   4.545  71.523  1.00  0.00    -0.163 A  
HETATM   10  C   UNL     1     -10.551   9.206  67.524  1.00  0.00    -0.317 C  
HETATM   11  C   UNL     1      -9.603   3.313  70.874  1.00  0.00    -0.234 A  
HETATM   12  C   UNL     1      -8.395   8.297  67.767  1.00  0.00    -0.128 C  
HETATM   13  C   UNL     1      -8.000   6.586  66.826  1.00  0.00    -0.108 C  
HETATM   14  N   UNL     1      -9.643   7.036  66.869  1.00  0.00    -0.161 NA 
HETATM   15  C   UNL     1      -9.291   3.247  69.509  1.00  0.00    -0.235 A  
HETATM   16  C   UNL     1     -11.077   6.625  66.999  1.00  0.00    -0.325 C  
HETATM   17  C   UNL     1      -9.620   9.184  65.954  1.00  0.00    -0.343 C  
HETATM   18  C   UNL     1      -8.324   7.955  65.500  1.00  0.00    -0.152 C  
ENDROOT
BRANCH   9  19
HETATM   19  O   UNL     1     -10.027   4.781  72.810  1.00  0.00    -0.153 OA 
HETATM   20  C   UNL     1     -11.389   5.128  73.014  1.00  0.00    -0.309 C  
ENDBRANCH   9  19
TORSDOF 1
ENDMDL
MODEL       97
REMARK 921   NORMALIZED FREE ENERGY PREDICTED BY IDOCK:   -3.56 KCAL/MOL
REMARK 922        TOTAL FREE ENERGY PREDICTED BY IDOCK:   -3.84 KCAL/MOL
REMARK 923 INTER-LIGAND FREE ENERGY PREDICTED BY IDOCK:   -3.78 KCAL/MOL
REMARK 924 INTRA-LIGAND FREE ENERGY PREDICTED BY IDOCK:   -0.06 KCAL/MOL
REMARK 927      BINDING AFFINITY PREDICTED BY RF-SCORE:    0.00 PKD
ROOT
HETATM    1  C   UNL     1     -11.337  12.936  65.386  1.00  0.00    -0.303 C  
HETATM    2  C   UNL     1     -10.733  12.039  64.271  1.00  0.00    -0.382 C  
HETATM    3  C   UNL     1      -9.531  11.180  64.585  1.00  0.00    -0.245 A  
HETATM    4  C   UNL     1      -8.789  11.412  65.739  1.00  0.00    -0.115 A  
HETATM    5  C   UNL     1      -7.822  10.484  66.147  1.00  0.00    -0.145 A  
HETATM    6  C   UNL     1      -9.213  12.521  66.628  1.00  0.00    -0.223 C  
HETATM    7  C   UNL     1      -9.711  11.797  68.332  1.00  0.00    -0.197 C  
HETATM    8  C   UNL     1      -8.296  13.503  67.092  1.00  0.00    -0.151 C  
HETATM    9  C   UNL     1      -7.553   9.347  65.389  1.00  0.00    -0.100 A  
HETATM   10  C   UNL     1     -10.944  12.757  69.319  1.00  0.00    -0.126 C  
HETATM   11  C   UNL     1      -8.201   9.182  64.167  1.00  0.00    -0.162 A  
HETATM   12  C   UNL     1      -9.664  13.830  67.662  1.00  0.00    -0.227 C  
HETATM   13  C   UNL     1     -10.402  13.885  65.812  1.00  0.00    -0.326 C  
HETATM   14  N   UNL     1     -11.211  12.844  66.893  1.00  0.00    -0.279 NA 
HETATM   15  C   UNL     1      -9.179  10.100  63.763  1.00  0.00    -0.321 A  
HETATM   16  C   UNL     1     -11.916  11.545  67.129  1.00  0.00     0.313 C  
HETATM   17  C   UNL     1     -11.755  14.258  68.670  1.00  0.00    -0.380 C  
HETATM   18  C   UNL     1     -11.553  14.926  66.964  1.00  0.00    -0.314 C  
ENDROOT
BRANCH   9  19
HETATM   19  O   UNL     1      -6.669   8.479  65.969  1.00  0.00    -0.056 OA 
HETATM   20  C   UNL     1      -5.557   8.067  65.187  1.00  0.00    -0.040 C  
ENDBRANCH   9  19
TORSDOF 1
ENDMDL
MODEL       98
REMARK 921   NORMALIZED FREE ENERGY PREDICTED BY IDOCK:   -3.51 KCAL/MOL
REMARK 922        TOTAL FREE ENERGY PREDICTED BY IDOCK:   -3.78 KCAL/MOL
REMARK 923 INTER-LIGAND FREE ENERGY PREDICTED BY IDOCK:   -3.72 KCAL/MOL
REMARK 924 INTRA-LIGAND FREE ENERGY PREDICTED BY IDOCK:   -0.06 KCAL/MOL
REMARK 927      BINDING AFFINITY PREDICTED BY RF-SCORE:    0.00 PKD
ROOT
HETATM    1  C   UNL     1      -8.404  12.550  67.772  1.00  0.00    -0.170 C  
HETATM    2  C   UNL     1      -7.603  12.011  68.989  1.00  0.00     0.056 C  
HETATM    3  C   UNL     1      -7.804  10.581  69.430  1.00  0.00    -0.151 A  
HETATM    4  C   UNL     1      -8.896   9.853  68.968  1.00  0.00    -0.156 A  
HETATM    5  C   UNL     1      -8.962   8.472  69.188  1.00  0.00    -0.146 A  
HETATM    6  C   UNL     1      -9.844  10.530  68.048  1.00  0.00    -0.166 C  
HETATM    7  C   UNL     1      -9.832   9.618  66.361  1.00  0.00    -0.309 C  
HETATM    8  C   UNL     1     -11.248  10.512  68.271  1.00  0.00    -0.354 C  
HETATM    9  C   UNL     1      -7.969   7.812  69.909  1.00  0.00    -0.110 A  
HETATM   10  C   UNL     1     -10.273  10.617  64.870  1.00  0.00    -0.395 C  
HETATM   11  C   UNL     1      -6.944   8.559  70.485  1.00  0.00    -0.040 A  
HETATM   12  C   UNL     1     -10.982  11.306  67.005  1.00  0.00    -0.352 C  
HETATM   13  C   UNL     1      -9.778  12.514  68.035  1.00  0.00    -0.215 C  
HETATM   14  N   UNL     1      -9.091  11.806  66.645  1.00  0.00    -0.189 NA 
HETATM   15  C   UNL     1      -6.867   9.939  70.253  1.00  0.00    -0.138 A  
HETATM   16  C   UNL     1      -7.897  11.195  65.979  1.00  0.00    -0.020 C  
HETATM   17  C   UNL     1     -10.587  12.413  64.958  1.00  0.00    -0.330 C  
HETATM   18  C   UNL     1     -10.396  13.456  66.465  1.00  0.00    -0.284 C  
ENDROOT
BRANCH   9  19
HETATM   19  O   UNL     1      -8.108   6.452  69.945  1.00  0.00    -0.116 OA 
HETATM   20  C   UNL     1      -8.770   5.898  71.074  1.00  0.00    -0.135 C  
ENDBRANCH   9  19
TORSDOF 1
ENDMDL
MODEL       99
REMARK 921   NORMALIZED FREE ENERGY PREDICTED BY IDOCK:   -3.49 KCAL/MOL
REMARK 922        TOTAL FREE ENERGY PREDICTED BY IDOCK:   -3.76 KCAL/MOL
REMARK 923 INTER-LIGAND FREE ENERGY PREDICTED BY IDOCK:   -3.68 KCAL/MOL
REMARK 924 INTRA-LIGAND FREE ENERGY PREDICTED BY IDOCK:   -0.08 KCAL/MOL
REMARK 927      BINDING AFFINITY PREDICTED BY RF-SCORE:    0.00 PKD
ROOT
HETATM    1  C   UNL     1      -8.059   6.665  73.590  1.00  0.00    -0.102 C  
HETATM    2  C   UNL     1      -7.469   7.816  72.732  1.00  0.00    -0.121 C  
HETATM    3  C   UNL     1      -7.991   8.036  71.332  1.00  0.00    -0.109 A  
HETATM    4  C   UNL     1      -8.752   7.052  70.707  1.00  0.00    -0.148 A  
HETATM    5  C   UNL     1      -9.424   7.340  69.513  1.00  0.00    -0.155 A  
HETATM    6  C   UNL     1      -9.017   5.798  71.455  1.00  0.00    -0.147 C  
HETATM    7  C   UNL     1     -10.907   5.628  71.735  1.00  0.00    -0.301 C  
HETATM    8  C   UNL     1      -8.789   4.519  70.879  1.00  0.00    -0.151 C  
HETATM    9  C   UNL     1      -9.307   8.588  68.906  1.00  0.00    -0.146 A  
HETATM   10  C   UNL     1     -11.448   4.657  73.212  1.00  0.00    -0.346 C  
HETATM   11  C   UNL     1      -8.441   9.529  69.459  1.00  0.00    -0.156 A  
HETATM   12  C   UNL     1      -9.311   4.314  72.290  1.00  0.00    -0.168 C  
HETATM   13  C   UNL     1      -7.812   5.426  72.987  1.00  0.00    -0.098 C  
HETATM   14  N   UNL     1      -9.373   5.921  73.461  1.00  0.00    -0.134 NA 
HETATM   15  C   UNL     1      -7.780   9.249  70.663  1.00  0.00    -0.170 A  
HETATM   16  C   UNL     1     -10.327   7.038  73.749  1.00  0.00    -0.369 C  
HETATM   17  C   UNL     1     -10.260   3.988  74.426  1.00  0.00    -0.248 C  
HETATM   18  C   UNL     1      -8.441   4.282  74.411  1.00  0.00    -0.093 C  
ENDROOT
BRANCH   9  19
HETATM   19  O   UNL     1     -10.108   8.760  67.811  1.00  0.00    -0.183 OA 
HETATM   20  C   UNL     1     -10.508   7.591  67.110  1.00  0.00    -0.336 C  
ENDBRANCH   9  19
TORSDOF 1
ENDMDL
MODEL      100
REMARK 921   NORMALIZED FREE ENERGY PREDICTED BY IDOCK:   -3.49 KCAL/MOL
REMARK 922        TOTAL FREE ENERGY PREDICTED BY IDOCK:   -3.76 KCAL/MOL
REMARK 923 INTER-LIGAND FREE ENERGY PREDICTED BY IDOCK:   -3.70 KCAL/MOL
REMARK 924 INTRA-LIGAND FREE ENERGY PREDICTED BY IDOCK:   -0.06 KCAL/MOL
REMARK 927      BINDING AFFINITY PREDICTED BY RF-SCORE:    0.00 PKD
ROOT
HETATM    1  C   UNL     1      -9.677   8.634  70.551  1.00  0.00    -0.180 C  
HETATM    2  C   UNL     1     -10.625   9.787  70.124  1.00  0.00    -0.337 C  
HETATM    3  C   UNL     1     -10.494  10.378  68.741  1.00  0.00    -0.219 A  
HETATM    4  C   UNL     1      -9.361  10.120  67.975  1.00  0.00    -0.149 A  
HETATM    5  C   UNL     1      -9.337  10.471  66.620  1.00  0.00    -0.186 A  
HETATM    6  C   UNL     1      -8.302   9.266  68.566  1.00  0.00    -0.119 C  
HETATM    7  C   UNL     1      -8.117   7.679  67.505  1.00  0.00    -0.120 C  
HETATM    8  C   UNL     1      -6.936   9.659  68.570  1.00  0.00    -0.065 C  
HETATM    9  C   UNL     1     -10.417  11.122  66.028  1.00  0.00    -0.256 A  
HETATM   10  C   UNL     1      -7.488   6.169  68.364  1.00  0.00    -0.087 C  
HETATM   11  C   UNL     1     -11.497  11.499  66.823  1.00  0.00    -0.233 A  
HETATM   12  C   UNL     1      -7.038   8.303  69.245  1.00  0.00    -0.060 C  
HETATM   13  C   UNL     1      -8.346   9.065  70.540  1.00  0.00    -0.205 C  
HETATM   14  N   UNL     1      -8.866   7.671  69.709  1.00  0.00    -0.140 NA 
HETATM   15  C   UNL     1     -11.530  11.135  68.176  1.00  0.00    -0.373 A  
HETATM   16  C   UNL     1      -9.976   6.923  69.038  1.00  0.00    -0.158 C  
HETATM   17  C   UNL     1      -7.169   6.131  70.161  1.00  0.00    -0.076 C  
HETATM   18  C   UNL     1      -7.532   7.503  71.336  1.00  0.00    -0.079 C  
ENDROOT
BRANCH   9  19
HETATM   19  O   UNL     1     -10.297  11.299  64.677  1.00  0.00    -0.274 OA 
HETATM   20  C   UNL     1     -10.789  12.516  64.136  1.00  0.00    -0.382 C  
ENDBRANCH   9  19
TORSDOF 1
ENDMDL
MODEL      101
REMARK 921   NORMALIZED FREE ENERGY PREDICTED BY IDOCK:   -3.48 KCAL/MOL
REMARK 922        TOTAL FREE ENERGY PREDICTED BY IDOCK:   -3.75 KCAL/MOL
REMARK 923 INTER-LIGAND FREE ENERGY PREDICTED BY IDOCK:   -3.69 KCAL/MOL
REMARK 924 INTRA-LIGAND FREE ENERGY PREDICTED BY IDOCK:   -0.06 KCAL/MOL
REMARK 927      BINDING AFFINITY PREDICTED BY RF-SCORE:    0.00 PKD
ROOT
HETATM    1  C   UNL     1      -7.667   6.869  68.987  1.00  0.00    -0.110 C  
HETATM    2  C   UNL     1      -7.170   6.405  67.592  1.00  0.00    -0.086 C  
HETATM    3  C   UNL     1      -8.077   5.563  66.726  1.00  0.00    -0.105 A  
HETATM    4  C   UNL     1      -9.201   4.954  67.277  1.00  0.00    -0.133 A  
HETATM    5  C   UNL     1     -10.160   4.369  66.442  1.00  0.00    -0.235 A  
HETATM    6  C   UNL     1      -9.462   5.155  68.724  1.00  0.00    -0.181 C  
HETATM    7  C   UNL     1     -11.130   6.076  68.934  1.00  0.00    -0.349 C  
HETATM    8  C   UNL     1      -9.729   4.065  69.596  1.00  0.00    -0.245 C  
HETATM    9  C   UNL     1      -9.988   4.342  65.060  1.00  0.00    -0.188 A  
HETATM   10  C   UNL     1     -11.332   7.100  70.460  1.00  0.00    -0.333 C  
HETATM   11  C   UNL     1      -8.802   4.832  64.518  1.00  0.00    -0.147 A  
HETATM   12  C   UNL     1      -9.769   5.343  70.414  1.00  0.00    -0.254 C  
HETATM   13  C   UNL     1      -7.917   5.766  69.811  1.00  0.00    -0.100 C  
HETATM   14  N   UNL     1      -9.074   6.987  69.536  1.00  0.00    -0.146 NA 
HETATM   15  C   UNL     1      -7.847   5.432  65.350  1.00  0.00    -0.095 A  
HETATM   16  C   UNL     1      -9.605   8.068  68.646  1.00  0.00    -0.148 C  
HETATM   17  C   UNL     1      -9.978   7.336  71.661  1.00  0.00    -0.192 C  
HETATM   18  C   UNL     1      -8.256   6.711  71.463  1.00  0.00    -0.112 C  
ENDROOT
BRANCH   9  19
HETATM   19  O   UNL     1     -11.056   3.841  64.368  1.00  0.00    -0.291 OA 
HETATM   20  C   UNL     1     -10.779   2.908  63.334  1.00  0.00    -0.242 C  
ENDBRANCH   9  19
TORSDOF 1
ENDMDL
MODEL      102
REMARK 921   NORMALIZED FREE ENERGY PREDICTED BY IDOCK:   -3.38 KCAL/MOL
REMARK 922        TOTAL FREE ENERGY PREDICTED BY IDOCK:   -3.64 KCAL/MOL
REMARK 923 INTER-LIGAND FREE ENERGY PREDICTED BY IDOCK:   -3.58 KCAL/MOL
REMARK 924 INTRA-LIGAND FREE ENERGY PREDICTED BY IDOCK:   -0.06 KCAL/MOL
REMARK 927      BINDING AFFINITY PREDICTED BY RF-SCORE:    0.00 PKD
ROOT
HETATM    1  C   UNL     1      -9.905   6.215  68.323  1.00  0.00    -0.125 C  
HETATM    2  C   UNL     1     -10.217   7.721  68.109  1.00  0.00    -0.244 C  
HETATM    3  C   UNL     1      -9.672   8.423  66.888  1.00  0.00    -0.292 A  
HETATM    4  C   UNL     1      -8.662   7.832  66.135  1.00  0.00    -0.177 A  
HETATM    5  C   UNL     1      -8.317   8.364  64.887  1.00  0.00    -0.159 A  
HETATM    6  C   UNL     1      -8.146   6.513  66.577  1.00  0.00    -0.111 C  
HETATM    7  C   UNL     1      -8.507   5.214  65.213  1.00  0.00    -0.144 C  
HETATM    8  C   UNL     1      -6.754   6.262  66.723  1.00  0.00    -0.061 C  
HETATM    9  C   UNL     1      -8.937   9.513  64.400  1.00  0.00    -0.212 A  
HETATM   10  C   UNL     1      -8.687   3.458  65.759  1.00  0.00    -0.123 C  
HETATM   11  C   UNL     1      -9.852  10.180  65.210  1.00  0.00    -0.388 A  
HETATM   12  C   UNL     1      -7.503   4.994  67.090  1.00  0.00    -0.087 C  
HETATM   13  C   UNL     1      -8.527   6.015  68.460  1.00  0.00    -0.113 C  
HETATM   14  N   UNL     1      -9.470   5.155  67.331  1.00  0.00    -0.126 NA 
HETATM   15  C   UNL     1     -10.211   9.641  66.453  1.00  0.00    -0.288 A  
HETATM   16  C   UNL     1     -10.694   5.095  66.471  1.00  0.00    -0.193 C  
HETATM   17  C   UNL     1      -8.651   2.976  67.520  1.00  0.00    -0.120 C  
HETATM   18  C   UNL     1      -8.554   4.144  68.942  1.00  0.00    -0.110 C  
ENDROOT
BRANCH   9  19
HETATM   19  O   UNL     1      -8.579   9.848  63.123  1.00  0.00    -0.163 OA 
HETATM   20  C   UNL     1      -9.114  11.054  62.596  1.00  0.00    -0.343 C  
ENDBRANCH   9  19
TORSDOF 1
ENDMDL
MODEL      103
REMARK 921   NORMALIZED FREE ENERGY PREDICTED BY IDOCK:   -3.31 KCAL/MOL
REMARK 922        TOTAL FREE ENERGY PREDICTED BY IDOCK:   -3.57 KCAL/MOL
REMARK 923 INTER-LIGAND FREE ENERGY PREDICTED BY IDOCK:   -3.48 KCAL/MOL
REMARK 924 INTRA-LIGAND FREE ENERGY PREDICTED BY IDOCK:   -0.08 KCAL/MOL
REMARK 927      BINDING AFFINITY PREDICTED BY RF-SCORE:    0.00 PKD
ROOT
HETATM    1  C   UNL     1      -8.380   7.867  67.996  1.00  0.00    -0.123 C  
HETATM    2  C   UNL     1      -8.169   6.332  68.085  1.00  0.00    -0.115 C  
HETATM    3  C   UNL     1      -8.630   5.592  69.318  1.00  0.00    -0.106 A  
HETATM    4  C   UNL     1      -8.950   6.295  70.476  1.00  0.00    -0.151 A  
HETATM    5  C   UNL     1      -9.590   5.643  71.536  1.00  0.00    -0.184 A  
HETATM    6  C   UNL     1      -8.813   7.773  70.452  1.00  0.00    -0.146 C  
HETATM    7  C   UNL     1     -10.539   8.561  70.732  1.00  0.00    -0.244 C  
HETATM    8  C   UNL     1      -8.109   8.477  71.467  1.00  0.00    -0.191 C  
HETATM    9  C   UNL     1      -9.873   4.280  71.475  1.00  0.00    -0.189 A  
HETATM   10  C   UNL     1     -10.812  10.244  70.018  1.00  0.00    -0.364 C  
HETATM   11  C   UNL     1      -9.435   3.549  70.374  1.00  0.00    -0.254 A  
HETATM   12  C   UNL     1      -8.629   9.490  70.463  1.00  0.00    -0.231 C  
HETATM   13  C   UNL     1      -7.670   8.519  69.012  1.00  0.00    -0.096 C  
HETATM   14  N   UNL     1      -9.336   8.769  68.750  1.00  0.00    -0.141 NA 
HETATM   15  C   UNL     1      -8.808   4.202  69.304  1.00  0.00    -0.142 A  
HETATM   16  C   UNL     1     -10.639   8.250  68.228  1.00  0.00    -0.103 C  
HETATM   17  C   UNL     1      -9.559  11.082  68.988  1.00  0.00    -0.136 C  
HETATM   18  C   UNL     1      -7.962  10.343  68.442  1.00  0.00    -0.110 C  
ENDROOT
BRANCH   9  19
HETATM   19  O   UNL     1     -10.600   3.808  72.533  1.00  0.00    -0.136 OA 
HETATM   20  C   UNL     1     -11.315   4.761  73.306  1.00  0.00    -0.322 C  
ENDBRANCH   9  19
TORSDOF 1
ENDMDL
MODEL      104
REMARK 921   NORMALIZED FREE ENERGY PREDICTED BY IDOCK:   -3.30 KCAL/MOL
REMARK 922        TOTAL FREE ENERGY PREDICTED BY IDOCK:   -3.55 KCAL/MOL
REMARK 923 INTER-LIGAND FREE ENERGY PREDICTED BY IDOCK:   -3.49 KCAL/MOL
REMARK 924 INTRA-LIGAND FREE ENERGY PREDICTED BY IDOCK:   -0.06 KCAL/MOL
REMARK 927      BINDING AFFINITY PREDICTED BY RF-SCORE:    0.00 PKD
ROOT
HETATM    1  C   UNL     1     -10.275   7.476  69.054  1.00  0.00    -0.205 C  
HETATM    2  C   UNL     1     -10.889   6.341  68.190  1.00  0.00    -0.401 C  
HETATM    3  C   UNL     1     -10.219   5.954  66.893  1.00  0.00    -0.262 A  
HETATM    4  C   UNL     1      -9.262   6.790  66.325  1.00  0.00    -0.161 A  
HETATM    5  C   UNL     1      -8.481   6.334  65.256  1.00  0.00    -0.113 A  
HETATM    6  C   UNL     1      -8.940   8.057  67.027  1.00  0.00    -0.156 C  
HETATM    7  C   UNL     1      -7.098   8.021  67.560  1.00  0.00    -0.080 C  
HETATM    8  C   UNL     1      -8.924   9.307  66.350  1.00  0.00    -0.185 C  
HETATM    9  C   UNL     1      -8.675   5.065  64.715  1.00  0.00    -0.149 A  
HETATM   10  C   UNL     1      -6.637   9.031  69.037  1.00  0.00    -0.048 C  
HETATM   11  C   UNL     1      -9.721   4.280  65.195  1.00  0.00    -0.199 A  
HETATM   12  C   UNL     1      -8.571   9.554  67.805  1.00  0.00    -0.115 C  
HETATM   13  C   UNL     1     -10.280   8.685  68.349  1.00  0.00    -0.232 C  
HETATM   14  N   UNL     1      -8.872   8.047  69.067  1.00  0.00    -0.144 NA 
HETATM   15  C   UNL     1     -10.494   4.727  66.275  1.00  0.00    -0.311 A  
HETATM   16  C   UNL     1      -8.115   6.849  69.552  1.00  0.00    -0.130 C  
HETATM   17  C   UNL     1      -7.879   9.928  70.031  1.00  0.00    -0.192 C  
HETATM   18  C   UNL     1      -9.703   9.853  69.777  1.00  0.00    -0.266 C  
ENDROOT
BRANCH   9  19
HETATM   19  O   UNL     1      -7.765   4.716  63.755  1.00  0.00    -0.069 OA 
HETATM   20  C   UNL     1      -8.263   4.055  62.600  1.00  0.00    -0.077 C  
ENDBRANCH   9  19
TORSDOF 1
ENDMDL
MODEL      105
REMARK 921   NORMALIZED FREE ENERGY PREDICTED BY IDOCK:   -3.29 KCAL/MOL
REMARK 922        TOTAL FREE ENERGY PREDICTED BY IDOCK:   -3.55 KCAL/MOL
REMARK 923 INTER-LIGAND FREE ENERGY PREDICTED BY IDOCK:   -3.48 KCAL/MOL
REMARK 924 INTRA-LIGAND FREE ENERGY PREDICTED BY IDOCK:   -0.07 KCAL/MOL
REMARK 927      BINDING AFFINITY PREDICTED BY RF-SCORE:    0.00 PKD
ROOT
HETATM    1  C   UNL     1      -7.834  18.537  66.062  1.00  0.00    -0.148 C  
HETATM    2  C   UNL     1      -8.920  17.450  65.836  1.00  0.00     0.036 C  
HETATM    3  C   UNL     1      -9.378  16.610  67.004  1.00  0.00    -0.236 A  
HETATM    4  C   UNL     1      -8.636  16.585  68.181  1.00  0.00    -0.193 A  
HETATM    5  C   UNL     1      -9.170  15.997  69.334  1.00  0.00    -0.202 A  
HETATM    6  C   UNL     1      -7.394  17.396  68.238  1.00  0.00    -0.214 C  
HETATM    7  C   UNL     1      -7.584  18.731  69.601  1.00  0.00     0.342 C  
HETATM    8  C   UNL     1      -6.158  16.846  68.673  1.00  0.00    -0.148 C  
HETATM    9  C   UNL     1     -10.423  15.387  69.314  1.00  0.00    -0.251 A  
HETATM   10  C   UNL     1      -6.602  20.283  69.391  1.00  0.00    -0.234 C  
HETATM   11  C   UNL     1     -11.109  15.294  68.105  1.00  0.00    -0.309 A  
HETATM   12  C   UNL     1      -5.926  18.303  68.317  1.00  0.00    -0.175 C  
HETATM   13  C   UNL     1      -6.637  17.951  66.489  1.00  0.00    -0.249 C  
HETATM   14  N   UNL     1      -7.388  19.226  67.335  1.00  0.00    -0.227 NA 
HETATM   15  C   UNL     1     -10.583  15.896  66.954  1.00  0.00    -0.309 A  
HETATM   16  C   UNL     1      -8.641  19.972  67.672  1.00  0.00    -0.326 C  
HETATM   17  C   UNL     1      -5.590  20.603  67.906  1.00  0.00    -0.287 C  
HETATM   18  C   UNL     1      -5.508  19.519  66.419  1.00  0.00    -0.161 C  
ENDROOT
BRANCH   9  19
HETATM   19  O   UNL     1     -10.860  14.958  70.537  1.00  0.00    -0.168 OA 
HETATM   20  C   UNL     1     -11.142  15.953  71.510  1.00  0.00    -0.022 C  
ENDBRANCH   9  19
TORSDOF 1
ENDMDL
MODEL      106
REMARK 921   NORMALIZED FREE ENERGY PREDICTED BY IDOCK:   -3.18 KCAL/MOL
REMARK 922        TOTAL FREE ENERGY PREDICTED BY IDOCK:   -3.43 KCAL/MOL
REMARK 923 INTER-LIGAND FREE ENERGY PREDICTED BY IDOCK:   -3.37 KCAL/MOL
REMARK 924 INTRA-LIGAND FREE ENERGY PREDICTED BY IDOCK:   -0.07 KCAL/MOL
REMARK 927      BINDING AFFINITY PREDICTED BY RF-SCORE:    0.00 PKD
ROOT
HETATM    1  C   UNL     1      -9.138   3.712  67.876  1.00  0.00    -0.155 C  
HETATM    2  C   UNL     1      -9.763   3.860  69.289  1.00  0.00    -0.157 C  
HETATM    3  C   UNL     1      -9.789   5.219  69.947  1.00  0.00    -0.282 A  
HETATM    4  C   UNL     1      -9.002   6.253  69.448  1.00  0.00    -0.126 A  
HETATM    5  C   UNL     1      -9.193   7.562  69.906  1.00  0.00    -0.147 A  
HETATM    6  C   UNL     1      -8.145   5.968  68.270  1.00  0.00    -0.110 C  
HETATM    7  C   UNL     1      -8.708   7.074  66.809  1.00  0.00    -0.124 C  
HETATM    8  C   UNL     1      -6.764   6.303  68.249  1.00  0.00    -0.068 C  
HETATM    9  C   UNL     1     -10.131   7.847  70.895  1.00  0.00    -0.190 A  
HETATM   10  C   UNL     1      -8.384   6.434  65.105  1.00  0.00    -0.109 C  
HETATM   11  C   UNL     1     -10.825   6.796  71.490  1.00  0.00    -0.265 A  
HETATM   12  C   UNL     1      -7.112   5.653  66.922  1.00  0.00    -0.070 C  
HETATM   13  C   UNL     1      -7.781   4.052  67.902  1.00  0.00    -0.067 C  
HETATM   14  N   UNL     1      -8.881   4.753  66.805  1.00  0.00    -0.110 NA 
HETATM   15  C   UNL     1     -10.648   5.486  71.022  1.00  0.00    -0.300 A  
HETATM   16  C   UNL     1     -10.291   5.135  66.478  1.00  0.00    -0.291 C  
HETATM   17  C   UNL     1      -7.677   4.778  64.804  1.00  0.00    -0.078 C  
HETATM   18  C   UNL     1      -7.317   3.521  66.102  1.00  0.00    -0.072 C  
ENDROOT
BRANCH   9  19
HETATM   19  O   UNL     1     -10.285   9.180  71.158  1.00  0.00    -0.262 OA 
HETATM   20  C   UNL     1     -11.610   9.694  71.149  1.00  0.00    -0.381 C  
ENDBRANCH   9  19
TORSDOF 1
ENDMDL
MODEL      107
REMARK 921   NORMALIZED FREE ENERGY PREDICTED BY IDOCK:   -3.18 KCAL/MOL
REMARK 922        TOTAL FREE ENERGY PREDICTED BY IDOCK:   -3.43 KCAL/MOL
REMARK 923 INTER-LIGAND FREE ENERGY PREDICTED BY IDOCK:   -3.36 KCAL/MOL
REMARK 924 INTRA-LIGAND FREE ENERGY PREDICTED BY IDOCK:   -0.06 KCAL/MOL
REMARK 927      BINDING AFFINITY PREDICTED BY RF-SCORE:    0.00 PKD
ROOT
HETATM    1  C   UNL     1      -8.784   7.462  72.720  1.00  0.00    -0.126 C  
HETATM    2  C   UNL     1      -7.543   8.249  72.218  1.00  0.00    -0.160 C  
HETATM    3  C   UNL     1      -7.409   8.556  70.745  1.00  0.00    -0.066 A  
HETATM    4  C   UNL     1      -8.204   7.890  69.817  1.00  0.00    -0.121 A  
HETATM    5  C   UNL     1      -8.246   8.328  68.489  1.00  0.00    -0.131 A  
HETATM    6  C   UNL     1      -9.165   6.878  70.323  1.00  0.00    -0.156 C  
HETATM    7  C   UNL     1     -10.947   7.447  69.901  1.00  0.00    -0.239 C  
HETATM    8  C   UNL     1      -9.239   5.571  69.769  1.00  0.00    -0.168 C  
HETATM    9  C   UNL     1      -7.465   9.400  68.061  1.00  0.00    -0.080 A  
HETATM   10  C   UNL     1     -12.299   6.848  71.010  1.00  0.00    -0.401 C  
HETATM   11  C   UNL     1      -6.570   9.982  68.957  1.00  0.00    -0.052 A  
HETATM   12  C   UNL     1     -10.266   5.671  70.883  1.00  0.00    -0.286 C  
HETATM   13  C   UNL     1      -8.817   6.184  72.150  1.00  0.00    -0.138 C  
HETATM   14  N   UNL     1     -10.140   7.257  72.076  1.00  0.00    -0.184 NA 
HETATM   15  C   UNL     1      -6.537   9.555  70.291  1.00  0.00    -0.077 A  
HETATM   16  C   UNL     1     -10.645   8.666  72.091  1.00  0.00    -0.341 C  
HETATM   17  C   UNL     1     -11.964   5.865  72.511  1.00  0.00    -0.173 C  
HETATM   18  C   UNL     1     -10.291   5.455  73.165  1.00  0.00    -0.231 C  
ENDROOT
BRANCH   9  19
HETATM   19  O   UNL     1      -7.695   9.786  66.770  1.00  0.00    -0.098 OA 
HETATM   20  C   UNL     1      -6.808  10.744  66.212  1.00  0.00    -0.135 C  
ENDBRANCH   9  19
TORSDOF 1
ENDMDL
MODEL      108
REMARK 921   NORMALIZED FREE ENERGY PREDICTED BY IDOCK:   -3.18 KCAL/MOL
REMARK 922        TOTAL FREE ENERGY PREDICTED BY IDOCK:   -3.42 KCAL/MOL
REMARK 923 INTER-LIGAND FREE ENERGY PREDICTED BY IDOCK:   -3.35 KCAL/MOL
REMARK 924 INTRA-LIGAND FREE ENERGY PREDICTED BY IDOCK:   -0.08 KCAL/MOL
REMARK 927      BINDING AFFINITY PREDICTED BY RF-SCORE:    0.00 PKD
ROOT
HETATM    1  C   UNL     1     -10.750   9.424  67.849  1.00  0.00    -0.210 C  
HETATM    2  C   UNL     1     -10.107   9.307  66.441  1.00  0.00    -0.337 C  
HETATM    3  C   UNL     1      -8.719   8.727  66.309  1.00  0.00    -0.169 A  
HETATM    4  C   UNL     1      -7.909   8.588  67.432  1.00  0.00    -0.098 A  
HETATM    5  C   UNL     1      -6.724   7.848  67.354  1.00  0.00    -0.069 A  
HETATM    6  C   UNL     1      -8.451   9.034  68.740  1.00  0.00    -0.131 C  
HETATM    7  C   UNL     1      -8.571   7.521  69.912  1.00  0.00    -0.139 C  
HETATM    8  C   UNL     1      -7.718   9.893  69.603  1.00  0.00    -0.149 C  
HETATM    9  C   UNL     1      -6.310   7.281  66.151  1.00  0.00    -0.041 A  
HETATM   10  C   UNL     1      -9.854   7.595  71.241  1.00  0.00    -0.187 C  
HETATM   11  C   UNL     1      -7.050   7.530  64.997  1.00  0.00    -0.060 A  
HETATM   12  C   UNL     1      -9.045   9.578  70.268  1.00  0.00    -0.296 C  
HETATM   13  C   UNL     1      -9.997  10.277  68.663  1.00  0.00    -0.183 C  
HETATM   14  N   UNL     1     -10.425   8.697  69.138  1.00  0.00    -0.221 NA 
HETATM   15  C   UNL     1      -8.245   8.258  65.076  1.00  0.00    -0.160 A  
HETATM   16  C   UNL     1     -10.800   7.302  68.745  1.00  0.00    -0.086 C  
HETATM   17  C   UNL     1     -11.042   8.974  71.374  1.00  0.00    -0.399 C  
HETATM   18  C   UNL     1     -11.197  10.366  70.176  1.00  0.00    -0.393 C  
ENDROOT
BRANCH   9  19
HETATM   19  O   UNL     1      -5.196   6.493  66.252  1.00  0.00    -0.012 OA 
HETATM   20  C   UNL     1      -5.135   5.596  67.351  1.00  0.00    -0.004 C  
ENDBRANCH   9  19
TORSDOF 1
ENDMDL
MODEL      109
REMARK 921   NORMALIZED FREE ENERGY PREDICTED BY IDOCK:   -3.09 KCAL/MOL
REMARK 922        TOTAL FREE ENERGY PREDICTED BY IDOCK:   -3.33 KCAL/MOL
REMARK 923 INTER-LIGAND FREE ENERGY PREDICTED BY IDOCK:   -3.25 KCAL/MOL
REMARK 924 INTRA-LIGAND FREE ENERGY PREDICTED BY IDOCK:   -0.08 KCAL/MOL
REMARK 927      BINDING AFFINITY PREDICTED BY RF-SCORE:    0.00 PKD
ROOT
HETATM    1  C   UNL     1      -6.865   7.276  68.630  1.00  0.00    -0.076 C  
HETATM    2  C   UNL     1      -6.688   7.610  67.124  1.00  0.00    -0.067 C  
HETATM    3  C   UNL     1      -7.736   8.441  66.423  1.00  0.00    -0.094 A  
HETATM    4  C   UNL     1      -8.979   8.644  67.016  1.00  0.00    -0.152 A  
HETATM    5  C   UNL     1      -9.862   9.591  66.484  1.00  0.00    -0.305 A  
HETATM    6  C   UNL     1      -9.231   8.013  68.335  1.00  0.00    -0.135 C  
HETATM    7  C   UNL     1      -9.539   9.390  69.634  1.00  0.00    -0.199 C  
HETATM    8  C   UNL     1     -10.398   7.242  68.587  1.00  0.00    -0.208 C  
HETATM    9  C   UNL     1      -9.538  10.309  65.336  1.00  0.00    -0.251 A  
HETATM   10  C   UNL     1      -9.125   8.988  71.390  1.00  0.00    -0.271 C  
HETATM   11  C   UNL     1      -8.352  10.013  64.667  1.00  0.00    -0.167 A  
HETATM   12  C   UNL     1      -9.563   7.261  69.855  1.00  0.00    -0.163 C  
HETATM   13  C   UNL     1      -8.024   6.518  68.831  1.00  0.00    -0.111 C  
HETATM   14  N   UNL     1      -7.707   7.955  69.691  1.00  0.00    -0.101 NA 
HETATM   15  C   UNL     1      -7.460   9.077  65.205  1.00  0.00    -0.097 A  
HETATM   16  C   UNL     1      -7.018   9.283  69.751  1.00  0.00    -0.058 C  
HETATM   17  C   UNL     1      -8.344   7.409  71.871  1.00  0.00    -0.115 C  
HETATM   18  C   UNL     1      -7.775   6.103  70.702  1.00  0.00    -0.105 C  
ENDROOT
BRANCH   9  19
HETATM   19  O   UNL     1     -10.445  11.277  65.001  1.00  0.00    -0.278 OA 
HETATM   20  C   UNL     1     -11.235  11.816  66.051  1.00  0.00    -0.296 C  
ENDBRANCH   9  19
TORSDOF 1
ENDMDL
MODEL      110
REMARK 921   NORMALIZED FREE ENERGY PREDICTED BY IDOCK:   -3.07 KCAL/MOL
REMARK 922        TOTAL FREE ENERGY PREDICTED BY IDOCK:   -3.31 KCAL/MOL
REMARK 923 INTER-LIGAND FREE ENERGY PREDICTED BY IDOCK:   -3.24 KCAL/MOL
REMARK 924 INTRA-LIGAND FREE ENERGY PREDICTED BY IDOCK:   -0.07 KCAL/MOL
REMARK 927      BINDING AFFINITY PREDICTED BY RF-SCORE:    0.00 PKD
ROOT
HETATM    1  C   UNL     1      -9.612   6.666  66.083  1.00  0.00     0.036 C  
HETATM    2  C   UNL     1     -10.753   6.252  67.051  1.00  0.00    -0.435 C  
HETATM    3  C   UNL     1     -10.474   6.181  68.534  1.00  0.00    -0.284 A  
HETATM    4  C   UNL     1      -9.162   6.179  68.999  1.00  0.00    -0.126 A  
HETATM    5  C   UNL     1      -8.904   6.344  70.366  1.00  0.00    -0.151 A  
HETATM    6  C   UNL     1      -8.069   6.239  67.998  1.00  0.00    -0.115 C  
HETATM    7  C   UNL     1      -7.070   7.855  68.263  1.00  0.00    -0.088 C  
HETATM    8  C   UNL     1      -6.978   5.328  68.023  1.00  0.00    -0.062 C  
HETATM    9  C   UNL     1      -9.945   6.463  71.284  1.00  0.00    -0.182 A  
HETATM   10  C   UNL     1      -6.206   8.554  66.786  1.00  0.00    -0.055 C  
HETATM   11  C   UNL     1     -11.258   6.332  70.836  1.00  0.00    -0.386 A  
HETATM   12  C   UNL     1      -6.777   6.273  66.852  1.00  0.00    -0.061 C  
HETATM   13  C   UNL     1      -8.561   5.743  66.140  1.00  0.00    -0.135 C  
HETATM   14  N   UNL     1      -8.324   7.418  66.351  1.00  0.00    -0.121 NA 
HETATM   15  C   UNL     1     -11.520   6.183  69.467  1.00  0.00    -0.299 A  
HETATM   16  C   UNL     1      -8.885   8.747  66.750  1.00  0.00    -0.129 C  
HETATM   17  C   UNL     1      -6.382   7.828  65.120  1.00  0.00    -0.038 C  
HETATM   18  C   UNL     1      -7.496   6.428  64.680  1.00  0.00    -0.091 C  
ENDROOT
BRANCH   9  19
HETATM   19  O   UNL     1      -9.541   6.732  72.562  1.00  0.00    -0.153 OA 
HETATM   20  C   UNL     1     -10.472   7.386  73.412  1.00  0.00    -0.368 C  
ENDBRANCH   9  19
TORSDOF 1
ENDMDL
MODEL      111
REMARK 921   NORMALIZED FREE ENERGY PREDICTED BY IDOCK:   -3.05 KCAL/MOL
REMARK 922        TOTAL FREE ENERGY PREDICTED BY IDOCK:   -3.29 KCAL/MOL
REMARK 923 INTER-LIGAND FREE ENERGY PREDICTED BY IDOCK:   -3.23 KCAL/MOL
REMARK 924 INTRA-LIGAND FREE ENERGY PREDICTED BY IDOCK:   -0.06 KCAL/MOL
REMARK 927      BINDING AFFINITY PREDICTED BY RF-SCORE:    0.00 PKD
ROOT
HETATM    1  C   UNL     1     -10.723  11.628  64.874  1.00  0.00    -0.296 C  
HETATM    2  C   UNL     1      -9.847  10.382  65.178  1.00  0.00    -0.378 C  
HETATM    3  C   UNL     1      -9.010  10.357  66.435  1.00  0.00    -0.166 A  
HETATM    4  C   UNL     1      -8.780  11.530  67.146  1.00  0.00    -0.160 A  
HETATM    5  C   UNL     1      -8.204  11.475  68.421  1.00  0.00    -0.152 A  
HETATM    6  C   UNL     1      -9.372  12.787  66.624  1.00  0.00    -0.242 C  
HETATM    7  C   UNL     1     -10.619  13.469  67.912  1.00  0.00    -0.255 C  
HETATM    8  C   UNL     1      -8.599  13.968  66.456  1.00  0.00     0.156 C  
HETATM    9  C   UNL     1      -7.809  10.262  68.978  1.00  0.00    -0.114 A  
HETATM   10  C   UNL     1     -12.002  14.510  67.264  1.00  0.00    -0.375 C  
HETATM   11  C   UNL     1      -7.916   9.102  68.214  1.00  0.00    -0.103 A  
HETATM   12  C   UNL     1     -10.021  14.270  66.019  1.00  0.00    -0.337 C  
HETATM   13  C   UNL     1      -9.922  12.764  64.717  1.00  0.00    -0.158 C  
HETATM   14  N   UNL     1     -11.238  12.712  65.799  1.00  0.00    -0.300 NA 
HETATM   15  C   UNL     1      -8.507   9.151  66.944  1.00  0.00    -0.124 A  
HETATM   16  C   UNL     1     -12.151  11.898  66.662  1.00  0.00     0.363 C  
HETATM   17  C   UNL     1     -12.260  14.787  65.478  1.00  0.00    -0.101 C  
HETATM   18  C   UNL     1     -11.287  13.999  64.126  1.00  0.00    -0.173 C  
ENDROOT
BRANCH   9  19
HETATM   19  O   UNL     1      -7.370  10.351  70.270  1.00  0.00    -0.215 OA 
HETATM   20  C   UNL     1      -6.922   9.152  70.887  1.00  0.00    -0.101 C  
ENDBRANCH   9  19
TORSDOF 1
ENDMDL
MODEL      112
REMARK 921   NORMALIZED FREE ENERGY PREDICTED BY IDOCK:   -3.03 KCAL/MOL
REMARK 922        TOTAL FREE ENERGY PREDICTED BY IDOCK:   -3.27 KCAL/MOL
REMARK 923 INTER-LIGAND FREE ENERGY PREDICTED BY IDOCK:   -3.21 KCAL/MOL
REMARK 924 INTRA-LIGAND FREE ENERGY PREDICTED BY IDOCK:   -0.06 KCAL/MOL
REMARK 927      BINDING AFFINITY PREDICTED BY RF-SCORE:    0.00 PKD
ROOT
HETATM    1  C   UNL     1      -8.445   7.847  67.572  1.00  0.00    -0.123 C  
HETATM    2  C   UNL     1      -9.691   8.583  68.135  1.00  0.00    -0.175 C  
HETATM    3  C   UNL     1      -9.938  10.021  67.743  1.00  0.00    -0.203 A  
HETATM    4  C   UNL     1      -8.925  10.768  67.151  1.00  0.00    -0.145 A  
HETATM    5  C   UNL     1      -9.215  12.015  66.584  1.00  0.00    -0.211 A  
HETATM    6  C   UNL     1      -7.613  10.111  66.933  1.00  0.00    -0.100 C  
HETATM    7  C   UNL     1      -7.255  10.048  65.050  1.00  0.00    -0.139 C  
HETATM    8  C   UNL     1      -6.393  10.715  67.344  1.00  0.00    -0.058 C  
HETATM    9  C   UNL     1     -10.500  12.548  66.642  1.00  0.00    -0.233 A  
HETATM   10  C   UNL     1      -6.158   8.685  64.454  1.00  0.00    -0.066 C  
HETATM   11  C   UNL     1     -11.485  11.862  67.349  1.00  0.00    -0.393 A  
HETATM   12  C   UNL     1      -6.065   9.381  66.699  1.00  0.00    -0.064 C  
HETATM   13  C   UNL     1      -7.270   8.474  68.001  1.00  0.00    -0.087 C  
HETATM   14  N   UNL     1      -7.591   8.153  66.358  1.00  0.00    -0.090 NA 
HETATM   15  C   UNL     1     -11.201  10.607  67.905  1.00  0.00    -0.376 A  
HETATM   16  C   UNL     1      -8.598   7.922  65.275  1.00  0.00    -0.060 C  
HETATM   17  C   UNL     1      -5.535   7.378  65.566  1.00  0.00    -0.029 C  
HETATM   18  C   UNL     1      -5.995   7.180  67.340  1.00  0.00    -0.029 C  
ENDROOT
BRANCH   9  19
HETATM   19  O   UNL     1     -10.658  13.716  65.948  1.00  0.00    -0.280 OA 
HETATM   20  C   UNL     1     -11.530  14.689  66.505  1.00  0.00    -0.351 C  
ENDBRANCH   9  19
TORSDOF 1
ENDMDL
MODEL      113
REMARK 921   NORMALIZED FREE ENERGY PREDICTED BY IDOCK:   -2.98 KCAL/MOL
REMARK 922        TOTAL FREE ENERGY PREDICTED BY IDOCK:   -3.21 KCAL/MOL
REMARK 923 INTER-LIGAND FREE ENERGY PREDICTED BY IDOCK:   -3.15 KCAL/MOL
REMARK 924 INTRA-LIGAND FREE ENERGY PREDICTED BY IDOCK:   -0.07 KCAL/MOL
REMARK 927      BINDING AFFINITY PREDICTED BY RF-SCORE:    0.00 PKD
ROOT
HETATM    1  C   UNL     1      -9.086  10.832  69.045  1.00  0.00    -0.143 C  
HETATM    2  C   UNL     1      -7.769  10.012  68.991  1.00  0.00    -0.094 C  
HETATM    3  C   UNL     1      -7.203   9.611  67.649  1.00  0.00    -0.089 A  
HETATM    4  C   UNL     1      -7.989   9.697  66.505  1.00  0.00    -0.112 A  
HETATM    5  C   UNL     1      -7.405   9.548  65.241  1.00  0.00    -0.104 A  
HETATM    6  C   UNL     1      -9.384  10.181  66.654  1.00  0.00    -0.195 C  
HETATM    7  C   UNL     1      -9.586  11.812  65.666  1.00  0.00    -0.240 C  
HETATM    8  C   UNL     1     -10.486   9.477  66.097  1.00  0.00    -0.077 C  
HETATM    9  C   UNL     1      -6.048   9.265  65.106  1.00  0.00    -0.064 A  
HETATM   10  C   UNL     1     -10.882  12.991  66.257  1.00  0.00    -0.295 C  
HETATM   11  C   UNL     1      -5.287   9.047  66.253  1.00  0.00    -0.037 A  
HETATM   12  C   UNL     1     -11.023  10.707  66.805  1.00  0.00    -0.182 C  
HETATM   13  C   UNL     1     -10.142  10.102  68.487  1.00  0.00    -0.186 C  
HETATM   14  N   UNL     1      -9.753  11.684  67.984  1.00  0.00    -0.177 NA 
HETATM   15  C   UNL     1      -5.866   9.211  67.519  1.00  0.00    -0.046 A  
HETATM   16  C   UNL     1      -8.726  12.763  67.842  1.00  0.00    -0.185 C  
HETATM   17  C   UNL     1     -11.849  12.694  67.777  1.00  0.00    -0.381 C  
HETATM   18  C   UNL     1     -11.591  11.295  68.948  1.00  0.00    -0.386 C  
ENDROOT
BRANCH   9  19
HETATM   19  O   UNL     1      -5.598   9.260  63.815  1.00  0.00    -0.068 OA 
HETATM   20  C   UNL     1      -6.196   8.329  62.924  1.00  0.00    -0.086 C  
ENDBRANCH   9  19
TORSDOF 1
ENDMDL
MODEL      114
REMARK 921   NORMALIZED FREE ENERGY PREDICTED BY IDOCK:   -2.96 KCAL/MOL
REMARK 922        TOTAL FREE ENERGY PREDICTED BY IDOCK:   -3.20 KCAL/MOL
REMARK 923 INTER-LIGAND FREE ENERGY PREDICTED BY IDOCK:   -3.12 KCAL/MOL
REMARK 924 INTRA-LIGAND FREE ENERGY PREDICTED BY IDOCK:   -0.08 KCAL/MOL
REMARK 927      BINDING AFFINITY PREDICTED BY RF-SCORE:    0.00 PKD
ROOT
HETATM    1  C   UNL     1     -10.961   7.227  69.349  1.00  0.00    -0.136 C  
HETATM    2  C   UNL     1     -11.389   6.503  68.043  1.00  0.00    -0.102 C  
HETATM    3  C   UNL     1     -10.329   5.899  67.153  1.00  0.00    -0.286 A  
HETATM    4  C   UNL     1      -8.992   6.244  67.324  1.00  0.00    -0.113 A  
HETATM    5  C   UNL     1      -7.992   5.522  66.661  1.00  0.00    -0.101 A  
HETATM    6  C   UNL     1      -8.657   7.220  68.390  1.00  0.00    -0.124 C  
HETATM    7  C   UNL     1      -7.531   6.363  69.685  1.00  0.00    -0.085 C  
HETATM    8  C   UNL     1      -7.838   8.354  68.140  1.00  0.00    -0.111 C  
HETATM    9  C   UNL     1      -8.314   4.485  65.789  1.00  0.00    -0.114 A  
HETATM   10  C   UNL     1      -7.590   7.024  71.410  1.00  0.00    -0.086 C  
HETATM   11  C   UNL     1      -9.655   4.225  65.515  1.00  0.00    -0.188 A  
HETATM   12  C   UNL     1      -8.243   8.380  69.602  1.00  0.00    -0.117 C  
HETATM   13  C   UNL     1     -10.158   8.335  69.055  1.00  0.00    -0.208 C  
HETATM   14  N   UNL     1      -9.682   7.122  70.153  1.00  0.00    -0.172 NA 
HETATM   15  C   UNL     1     -10.658   4.936  66.188  1.00  0.00    -0.322 A  
HETATM   16  C   UNL     1      -9.785   5.700  70.611  1.00  0.00    -0.180 C  
HETATM   17  C   UNL     1      -8.747   8.346  71.908  1.00  0.00    -0.258 C  
HETATM   18  C   UNL     1     -10.045   9.088  70.831  1.00  0.00    -0.329 C  
ENDROOT
BRANCH   9  19
HETATM   19  O   UNL     1      -7.234   3.799  65.305  1.00  0.00    -0.065 OA 
HETATM   20  C   UNL     1      -6.011   4.512  65.193  1.00  0.00    -0.022 C  
ENDBRANCH   9  19
TORSDOF 1
ENDMDL
MODEL      115
REMARK 921   NORMALIZED FREE ENERGY PREDICTED BY IDOCK:   -2.95 KCAL/MOL
REMARK 922        TOTAL FREE ENERGY PREDICTED BY IDOCK:   -3.18 KCAL/MOL
REMARK 923 INTER-LIGAND FREE ENERGY PREDICTED BY IDOCK:   -3.11 KCAL/MOL
REMARK 924 INTRA-LIGAND FREE ENERGY PREDICTED BY IDOCK:   -0.07 KCAL/MOL
REMARK 927      BINDING AFFINITY PREDICTED BY RF-SCORE:    0.00 PKD
ROOT
HETATM    1  C   UNL     1      -9.955   8.751  67.390  1.00  0.00    -0.208 C  
HETATM    2  C   UNL     1      -9.236   8.941  66.027  1.00  0.00    -0.287 C  
HETATM    3  C   UNL     1      -8.288   7.872  65.536  1.00  0.00    -0.152 A  
HETATM    4  C   UNL     1      -7.826   6.893  66.410  1.00  0.00    -0.103 A  
HETATM    5  C   UNL     1      -7.137   5.779  65.913  1.00  0.00    -0.070 A  
HETATM    6  C   UNL     1      -8.285   6.946  67.820  1.00  0.00    -0.117 C  
HETATM    7  C   UNL     1      -9.287   5.358  68.208  1.00  0.00    -0.135 C  
HETATM    8  C   UNL     1      -7.374   6.874  68.909  1.00  0.00    -0.094 C  
HETATM    9  C   UNL     1      -6.863   5.653  64.554  1.00  0.00    -0.050 A  
HETATM   10  C   UNL     1     -10.568   5.483  69.535  1.00  0.00    -0.366 C  
HETATM   11  C   UNL     1      -7.208   6.695  63.696  1.00  0.00    -0.065 A  
HETATM   12  C   UNL     1      -8.776   7.006  69.475  1.00  0.00    -0.134 C  
HETATM   13  C   UNL     1      -9.022   8.685  68.431  1.00  0.00    -0.142 C  
HETATM   14  N   UNL     1     -10.216   7.492  68.192  1.00  0.00    -0.183 NA 
HETATM   15  C   UNL     1      -7.911   7.804  64.188  1.00  0.00    -0.133 A  
HETATM   16  C   UNL     1     -11.143   6.782  67.256  1.00  0.00    -0.324 C  
HETATM   17  C   UNL     1     -10.963   7.061  70.363  1.00  0.00    -0.301 C  
HETATM   18  C   UNL     1     -10.252   8.703  69.921  1.00  0.00    -0.206 C  
ENDROOT
BRANCH   9  19
HETATM   19  O   UNL     1      -6.287   4.463  64.203  1.00  0.00    -0.032 OA 
HETATM   20  C   UNL     1      -5.171   4.032  64.968  1.00  0.00    -0.009 C  
ENDBRANCH   9  19
TORSDOF 1
ENDMDL
MODEL      116
REMARK 921   NORMALIZED FREE ENERGY PREDICTED BY IDOCK:   -2.90 KCAL/MOL
REMARK 922        TOTAL FREE ENERGY PREDICTED BY IDOCK:   -3.14 KCAL/MOL
REMARK 923 INTER-LIGAND FREE ENERGY PREDICTED BY IDOCK:   -3.07 KCAL/MOL
REMARK 924 INTRA-LIGAND FREE ENERGY PREDICTED BY IDOCK:   -0.07 KCAL/MOL
REMARK 927      BINDING AFFINITY PREDICTED BY RF-SCORE:    0.00 PKD
ROOT
HETATM    1  C   UNL     1     -10.305   5.115  69.365  1.00  0.00    -0.195 C  
HETATM    2  C   UNL     1     -10.474   6.330  70.317  1.00  0.00    -0.276 C  
HETATM    3  C   UNL     1      -9.820   7.644  69.961  1.00  0.00    -0.180 A  
HETATM    4  C   UNL     1      -8.837   7.691  68.977  1.00  0.00    -0.135 A  
HETATM    5  C   UNL     1      -8.396   8.927  68.487  1.00  0.00    -0.125 A  
HETATM    6  C   UNL     1      -8.458   6.421  68.310  1.00  0.00    -0.115 C  
HETATM    7  C   UNL     1      -8.878   6.548  66.444  1.00  0.00    -0.149 C  
HETATM    8  C   UNL     1      -7.101   6.018  68.179  1.00  0.00    -0.078 C  
HETATM    9  C   UNL     1      -8.892  10.122  69.003  1.00  0.00    -0.166 A  
HETATM   10  C   UNL     1      -9.235   4.965  65.559  1.00  0.00    -0.160 C  
HETATM   11  C   UNL     1      -9.776  10.077  70.078  1.00  0.00    -0.224 A  
HETATM   12  C   UNL     1      -7.973   4.951  67.544  1.00  0.00    -0.095 C  
HETATM   13  C   UNL     1      -8.957   4.754  69.265  1.00  0.00    -0.134 C  
HETATM   14  N   UNL     1      -9.927   5.065  67.899  1.00  0.00    -0.153 NA 
HETATM   15  C   UNL     1     -10.231   8.843  70.560  1.00  0.00    -0.247 A  
HETATM   16  C   UNL     1     -11.115   5.756  67.306  1.00  0.00     0.097 C  
HETATM   17  C   UNL     1      -9.312   3.360  66.425  1.00  0.00    -0.164 C  
HETATM   18  C   UNL     1      -9.170   3.125  68.247  1.00  0.00    -0.247 C  
ENDROOT
BRANCH   9  19
HETATM   19  O   UNL     1      -8.455  11.242  68.351  1.00  0.00    -0.141 OA 
HETATM   20  C   UNL     1      -9.421  11.988  67.625  1.00  0.00    -0.185 C  
ENDBRANCH   9  19
TORSDOF 1
ENDMDL
MODEL      117
REMARK 921   NORMALIZED FREE ENERGY PREDICTED BY IDOCK:   -2.86 KCAL/MOL
REMARK 922        TOTAL FREE ENERGY PREDICTED BY IDOCK:   -3.09 KCAL/MOL
REMARK 923 INTER-LIGAND FREE ENERGY PREDICTED BY IDOCK:   -3.02 KCAL/MOL
REMARK 924 INTRA-LIGAND FREE ENERGY PREDICTED BY IDOCK:   -0.06 KCAL/MOL
REMARK 927      BINDING AFFINITY PREDICTED BY RF-SCORE:    0.00 PKD
ROOT
HETATM    1  C   UNL     1      -9.763   6.556  72.182  1.00  0.00    -0.151 C  
HETATM    2  C   UNL     1      -9.687   8.091  71.963  1.00  0.00    -0.264 C  
HETATM    3  C   UNL     1      -9.039   8.628  70.710  1.00  0.00    -0.214 A  
HETATM    4  C   UNL     1      -8.253   7.796  69.918  1.00  0.00    -0.125 A  
HETATM    5  C   UNL     1      -7.842   8.221  68.649  1.00  0.00    -0.120 A  
HETATM    6  C   UNL     1      -8.073   6.389  70.353  1.00  0.00    -0.117 C  
HETATM    7  C   UNL     1      -8.822   5.227  69.024  1.00  0.00    -0.111 C  
HETATM    8  C   UNL     1      -6.788   5.787  70.437  1.00  0.00    -0.049 C  
HETATM    9  C   UNL     1      -8.168   9.490  68.176  1.00  0.00    -0.114 A  
HETATM   10  C   UNL     1      -9.423   3.577  69.601  1.00  0.00    -0.235 C  
HETATM   11  C   UNL     1      -8.841  10.372  69.019  1.00  0.00    -0.176 A  
HETATM   12  C   UNL     1      -7.819   4.755  70.855  1.00  0.00    -0.081 C  
HETATM   13  C   UNL     1      -8.478   6.007  72.258  1.00  0.00    -0.117 C  
HETATM   14  N   UNL     1      -9.665   5.419  71.185  1.00  0.00    -0.167 NA 
HETATM   15  C   UNL     1      -9.266   9.944  70.284  1.00  0.00    -0.123 A  
HETATM   16  C   UNL     1     -10.903   5.676  70.383  1.00  0.00    -0.256 C  
HETATM   17  C   UNL     1      -9.427   3.103  71.364  1.00  0.00    -0.219 C  
HETATM   18  C   UNL     1      -8.964   4.207  72.765  1.00  0.00    -0.118 C  
ENDROOT
BRANCH   9  19
HETATM   19  O   UNL     1      -7.798   9.721  66.880  1.00  0.00    -0.101 OA 
HETATM   20  C   UNL     1      -8.211  10.949  66.297  1.00  0.00    -0.165 C  
ENDBRANCH   9  19
TORSDOF 1
ENDMDL
MODEL      118
REMARK 921   NORMALIZED FREE ENERGY PREDICTED BY IDOCK:   -2.83 KCAL/MOL
REMARK 922        TOTAL FREE ENERGY PREDICTED BY IDOCK:   -3.06 KCAL/MOL
REMARK 923 INTER-LIGAND FREE ENERGY PREDICTED BY IDOCK:   -2.98 KCAL/MOL
REMARK 924 INTRA-LIGAND FREE ENERGY PREDICTED BY IDOCK:   -0.07 KCAL/MOL
REMARK 927      BINDING AFFINITY PREDICTED BY RF-SCORE:    0.00 PKD
ROOT
HETATM    1  C   UNL     1      -7.005   9.503  67.735  1.00  0.00    -0.080 C  
HETATM    2  C   UNL     1      -6.320   8.112  67.654  1.00  0.00    -0.053 C  
HETATM    3  C   UNL     1      -7.021   6.982  66.937  1.00  0.00    -0.070 A  
HETATM    4  C   UNL     1      -8.373   7.085  66.627  1.00  0.00    -0.118 A  
HETATM    5  C   UNL     1      -8.967   6.151  65.770  1.00  0.00    -0.099 A  
HETATM    6  C   UNL     1      -9.088   8.321  67.030  1.00  0.00    -0.172 C  
HETATM    7  C   UNL     1      -9.716   9.217  65.455  1.00  0.00    -0.247 C  
HETATM    8  C   UNL     1     -10.321   8.279  67.736  1.00  0.00    -0.296 C  
HETATM    9  C   UNL     1      -8.236   5.083  65.253  1.00  0.00    -0.123 A  
HETATM   10  C   UNL     1      -9.932  11.050  65.568  1.00  0.00    -0.308 C  
HETATM   11  C   UNL     1      -6.918   4.905  65.668  1.00  0.00    -0.063 A  
HETATM   12  C   UNL     1      -9.952   9.735  67.518  1.00  0.00    -0.230 C  
HETATM   13  C   UNL     1      -8.213   9.414  68.436  1.00  0.00    -0.117 C  
HETATM   14  N   UNL     1      -8.104  10.103  66.881  1.00  0.00    -0.120 NA 
HETATM   15  C   UNL     1      -6.317   5.847  66.514  1.00  0.00    -0.038 A  
HETATM   16  C   UNL     1      -7.389  10.190  65.569  1.00  0.00    -0.143 C  
HETATM   17  C   UNL     1      -9.460  11.997  67.055  1.00  0.00    -0.199 C  
HETATM   18  C   UNL     1      -8.624  11.300  68.541  1.00  0.00    -0.156 C  
ENDROOT
BRANCH   9  19
HETATM   19  O   UNL     1      -8.916   4.322  64.343  1.00  0.00    -0.136 OA 
HETATM   20  C   UNL     1     -10.265   3.997  64.649  1.00  0.00    -0.214 C  
ENDBRANCH   9  19
TORSDOF 1
ENDMDL
MODEL      119
REMARK 921   NORMALIZED FREE ENERGY PREDICTED BY IDOCK:   -2.78 KCAL/MOL
REMARK 922        TOTAL FREE ENERGY PREDICTED BY IDOCK:   -3.01 KCAL/MOL
REMARK 923 INTER-LIGAND FREE ENERGY PREDICTED BY IDOCK:   -2.93 KCAL/MOL
REMARK 924 INTRA-LIGAND FREE ENERGY PREDICTED BY IDOCK:   -0.07 KCAL/MOL
REMARK 927      BINDING AFFINITY PREDICTED BY RF-SCORE:    0.00 PKD
ROOT
HETATM    1  C   UNL     1      -8.517   8.406  70.172  1.00  0.00    -0.126 C  
HETATM    2  C   UNL     1      -7.489   9.494  69.759  1.00  0.00    -0.098 C  
HETATM    3  C   UNL     1      -7.060   9.594  68.314  1.00  0.00    -0.078 A  
HETATM    4  C   UNL     1      -7.329   8.553  67.431  1.00  0.00    -0.089 A  
HETATM    5  C   UNL     1      -7.139   8.735  66.056  1.00  0.00    -0.084 A  
HETATM    6  C   UNL     1      -8.034   7.358  67.959  1.00  0.00    -0.119 C  
HETATM    7  C   UNL     1      -9.718   7.183  67.060  1.00  0.00    -0.222 C  
HETATM    8  C   UNL     1      -7.552   6.041  67.730  1.00  0.00    -0.096 C  
HETATM    9  C   UNL     1      -6.638   9.933  65.553  1.00  0.00    -0.092 A  
HETATM   10  C   UNL     1     -11.071   6.324  67.981  1.00  0.00    -0.365 C  
HETATM   11  C   UNL     1      -6.243  10.927  66.445  1.00  0.00    -0.130 A  
HETATM   12  C   UNL     1      -8.822   5.941  68.555  1.00  0.00    -0.111 C  
HETATM   13  C   UNL     1      -8.002   7.128  69.930  1.00  0.00    -0.122 C  
HETATM   14  N   UNL     1      -9.516   7.634  69.334  1.00  0.00    -0.153 NA 
HETATM   15  C   UNL     1      -6.446  10.754  67.821  1.00  0.00    -0.059 A  
HETATM   16  C   UNL     1     -10.412   8.756  68.909  1.00  0.00    -0.197 C  
HETATM   17  C   UNL     1     -10.874   5.772  69.710  1.00  0.00    -0.419 C  
HETATM   18  C   UNL     1      -9.400   6.090  70.769  1.00  0.00    -0.169 C  
ENDROOT
BRANCH   9  19
HETATM   19  O   UNL     1      -6.615  10.005  64.187  1.00  0.00    -0.123 OA 
HETATM   20  C   UNL     1      -6.039   8.910  63.490  1.00  0.00    -0.084 C  
ENDBRANCH   9  19
TORSDOF 1
ENDMDL
MODEL      120
REMARK 921   NORMALIZED FREE ENERGY PREDICTED BY IDOCK:   -2.75 KCAL/MOL
REMARK 922        TOTAL FREE ENERGY PREDICTED BY IDOCK:   -2.98 KCAL/MOL
REMARK 923 INTER-LIGAND FREE ENERGY PREDICTED BY IDOCK:   -2.91 KCAL/MOL
REMARK 924 INTRA-LIGAND FREE ENERGY PREDICTED BY IDOCK:   -0.07 KCAL/MOL
REMARK 927      BINDING AFFINITY PREDICTED BY RF-SCORE:    0.00 PKD
ROOT
HETATM    1  C   UNL     1      -9.676   5.065  65.872  1.00  0.00    -0.166 C  
HETATM    2  C   UNL     1     -10.750   5.368  66.953  1.00  0.00    -0.264 C  
HETATM    3  C   UNL     1     -10.352   5.370  68.410  1.00  0.00    -0.216 A  
HETATM    4  C   UNL     1      -9.139   4.812  68.804  1.00  0.00    -0.151 A  
HETATM    5  C   UNL     1      -8.666   5.013  70.106  1.00  0.00    -0.130 A  
HETATM    6  C   UNL     1      -8.273   4.218  67.755  1.00  0.00    -0.095 C  
HETATM    7  C   UNL     1      -6.623   5.193  67.686  1.00  0.00    -0.053 C  
HETATM    8  C   UNL     1      -7.725   2.913  67.885  1.00  0.00    -0.056 C  
HETATM    9  C   UNL     1      -9.414   5.728  71.039  1.00  0.00    -0.165 A  
HETATM   10  C   UNL     1      -5.727   5.202  66.069  1.00  0.00    -0.018 C  
HETATM   11  C   UNL     1     -10.686   6.173  70.686  1.00  0.00    -0.336 A  
HETATM   12  C   UNL     1      -7.263   3.489  66.559  1.00  0.00    -0.067 C  
HETATM   13  C   UNL     1      -9.165   3.773  66.038  1.00  0.00    -0.161 C  
HETATM   14  N   UNL     1      -8.165   5.150  65.942  1.00  0.00    -0.113 NA 
HETATM   15  C   UNL     1     -11.156   5.986  69.378  1.00  0.00    -0.445 A  
HETATM   16  C   UNL     1      -8.002   6.627  66.131  1.00  0.00    -0.110 C  
HETATM   17  C   UNL     1      -6.420   4.433  64.566  1.00  0.00    -0.039 C  
HETATM   18  C   UNL     1      -8.096   3.678  64.431  1.00  0.00    -0.086 C  
ENDROOT
BRANCH   9  19
HETATM   19  O   UNL     1      -8.776   5.940  72.230  1.00  0.00    -0.128 OA 
HETATM   20  C   UNL     1      -8.571   4.810  73.066  1.00  0.00    -0.114 C  
ENDBRANCH   9  19
TORSDOF 1
ENDMDL
MODEL      121
REMARK 921   NORMALIZED FREE ENERGY PREDICTED BY IDOCK:   -2.75 KCAL/MOL
REMARK 922        TOTAL FREE ENERGY PREDICTED BY IDOCK:   -2.97 KCAL/MOL
REMARK 923 INTER-LIGAND FREE ENERGY PREDICTED BY IDOCK:   -2.91 KCAL/MOL
REMARK 924 INTRA-LIGAND FREE ENERGY PREDICTED BY IDOCK:   -0.06 KCAL/MOL
REMARK 927      BINDING AFFINITY PREDICTED BY RF-SCORE:    0.00 PKD
ROOT
HETATM    1  C   UNL     1      -6.779   7.201  68.816  1.00  0.00    -0.067 C  
HETATM    2  C   UNL     1      -6.622   8.745  68.767  1.00  0.00    -0.054 C  
HETATM    3  C   UNL     1      -7.768   9.589  68.262  1.00  0.00    -0.086 A  
HETATM    4  C   UNL     1      -8.818   8.997  67.567  1.00  0.00    -0.128 A  
HETATM    5  C   UNL     1      -9.982   9.729  67.299  1.00  0.00    -0.242 A  
HETATM    6  C   UNL     1      -8.762   7.532  67.337  1.00  0.00    -0.124 C  
HETATM    7  C   UNL     1     -10.248   6.706  68.226  1.00  0.00    -0.190 C  
HETATM    8  C   UNL     1      -8.965   6.966  66.049  1.00  0.00    -0.131 C  
HETATM    9  C   UNL     1     -10.092  11.065  67.678  1.00  0.00    -0.182 A  
HETATM   10  C   UNL     1     -10.031   4.949  68.755  1.00  0.00    -0.206 C  
HETATM   11  C   UNL     1      -8.993  11.696  68.255  1.00  0.00    -0.185 A  
HETATM   12  C   UNL     1      -8.705   5.834  67.026  1.00  0.00    -0.109 C  
HETATM   13  C   UNL     1      -6.976   6.688  67.529  1.00  0.00    -0.082 C  
HETATM   14  N   UNL     1      -8.028   6.344  68.825  1.00  0.00    -0.109 NA 
HETATM   15  C   UNL     1      -7.833  10.962  68.538  1.00  0.00    -0.126 A  
HETATM   16  C   UNL     1      -8.607   6.752  70.144  1.00  0.00    -0.140 C  
HETATM   17  C   UNL     1      -8.447   4.061  68.564  1.00  0.00    -0.106 C  
HETATM   18  C   UNL     1      -6.876   4.805  67.952  1.00  0.00    -0.056 C  
ENDROOT
BRANCH   9  19
HETATM   19  O   UNL     1     -11.324  11.614  67.453  1.00  0.00    -0.280 OA 
HETATM   20  C   UNL     1     -11.595  12.084  66.140  1.00  0.00    -0.304 C  
ENDBRANCH   9  19
TORSDOF 1
ENDMDL
MODEL      122
REMARK 921   NORMALIZED FREE ENERGY PREDICTED BY IDOCK:   -2.74 KCAL/MOL
REMARK 922        TOTAL FREE ENERGY PREDICTED BY IDOCK:   -2.96 KCAL/MOL
REMARK 923 INTER-LIGAND FREE ENERGY PREDICTED BY IDOCK:   -2.90 KCAL/MOL
REMARK 924 INTRA-LIGAND FREE ENERGY PREDICTED BY IDOCK:   -0.07 KCAL/MOL
REMARK 927      BINDING AFFINITY PREDICTED BY RF-SCORE:    0.00 PKD
ROOT
HETATM    1  C   UNL     1      -7.490   5.964  70.280  1.00  0.00    -0.089 C  
HETATM    2  C   UNL     1      -6.344   6.010  69.234  1.00  0.00    -0.041 C  
HETATM    3  C   UNL     1      -6.678   5.897  67.766  1.00  0.00    -0.058 A  
HETATM    4  C   UNL     1      -7.935   5.451  67.368  1.00  0.00    -0.101 A  
HETATM    5  C   UNL     1      -8.325   5.562  66.027  1.00  0.00    -0.122 A  
HETATM    6  C   UNL     1      -8.912   5.089  68.424  1.00  0.00    -0.123 C  
HETATM    7  C   UNL     1     -10.426   6.260  68.300  1.00  0.00    -0.277 C  
HETATM    8  C   UNL     1      -9.616   3.855  68.404  1.00  0.00    -0.179 C  
HETATM    9  C   UNL     1      -7.455   6.071  65.066  1.00  0.00    -0.084 A  
HETATM   10  C   UNL     1     -11.379   6.560  69.855  1.00  0.00    -0.469 C  
HETATM   11  C   UNL     1      -6.152   6.393  65.439  1.00  0.00    -0.030 A  
HETATM   12  C   UNL     1     -10.055   4.627  69.634  1.00  0.00    -0.232 C  
HETATM   13  C   UNL     1      -8.155   4.734  70.225  1.00  0.00    -0.072 C  
HETATM   14  N   UNL     1      -8.974   6.225  70.119  1.00  0.00    -0.148 NA 
HETATM   15  C   UNL     1      -5.764   6.299  66.782  1.00  0.00    -0.016 A  
HETATM   16  C   UNL     1      -8.940   7.679  69.767  1.00  0.00    -0.140 C  
HETATM   17  C   UNL     1     -10.851   5.885  71.467  1.00  0.00    -0.325 C  
HETATM   18  C   UNL     1      -9.292   4.951  71.772  1.00  0.00    -0.185 C  
ENDROOT
BRANCH   9  19
HETATM   19  O   UNL     1      -8.011   6.224  63.826  1.00  0.00    -0.110 OA 
HETATM   20  C   UNL     1      -7.949   7.518  63.244  1.00  0.00    -0.093 C  
ENDBRANCH   9  19
TORSDOF 1
ENDMDL
MODEL      123
REMARK 921   NORMALIZED FREE ENERGY PREDICTED BY IDOCK:   -2.65 KCAL/MOL
REMARK 922        TOTAL FREE ENERGY PREDICTED BY IDOCK:   -2.87 KCAL/MOL
REMARK 923 INTER-LIGAND FREE ENERGY PREDICTED BY IDOCK:   -2.79 KCAL/MOL
REMARK 924 INTRA-LIGAND FREE ENERGY PREDICTED BY IDOCK:   -0.08 KCAL/MOL
REMARK 927      BINDING AFFINITY PREDICTED BY RF-SCORE:    0.00 PKD
ROOT
HETATM    1  C   UNL     1      -7.278   5.572  66.629  1.00  0.00    -0.074 C  
HETATM    2  C   UNL     1      -7.930   6.616  65.682  1.00  0.00    -0.115 C  
HETATM    3  C   UNL     1      -8.815   7.692  66.266  1.00  0.00    -0.182 A  
HETATM    4  C   UNL     1      -9.291   7.575  67.568  1.00  0.00    -0.157 A  
HETATM    5  C   UNL     1      -9.915   8.665  68.186  1.00  0.00    -0.210 A  
HETATM    6  C   UNL     1      -8.908   6.368  68.343  1.00  0.00    -0.119 C  
HETATM    7  C   UNL     1      -7.876   6.908  69.866  1.00  0.00    -0.115 C  
HETATM    8  C   UNL     1      -9.872   5.580  69.029  1.00  0.00    -0.220 C  
HETATM    9  C   UNL     1     -10.114   9.861  67.501  1.00  0.00    -0.197 A  
HETATM   10  C   UNL     1      -6.671   5.678  70.537  1.00  0.00    -0.048 C  
HETATM   11  C   UNL     1      -9.758   9.936  66.156  1.00  0.00    -0.297 A  
HETATM   12  C   UNL     1      -8.506   4.957  69.254  1.00  0.00    -0.092 C  
HETATM   13  C   UNL     1      -8.261   4.821  67.281  1.00  0.00    -0.106 C  
HETATM   14  N   UNL     1      -7.018   5.631  68.120  1.00  0.00    -0.064 NA 
HETATM   15  C   UNL     1      -9.119   8.852  65.540  1.00  0.00    -0.248 A  
HETATM   16  C   UNL     1      -6.021   6.746  68.161  1.00  0.00    -0.031 C  
HETATM   17  C   UNL     1      -6.372   4.067  69.731  1.00  0.00    -0.028 C  
HETATM   18  C   UNL     1      -7.112   3.522  68.134  1.00  0.00    -0.051 C  
ENDROOT
BRANCH   9  19
HETATM   19  O   UNL     1     -10.631  10.870  68.266  1.00  0.00    -0.170 OA 
HETATM   20  C   UNL     1     -11.057  10.535  69.579  1.00  0.00    -0.268 C  
ENDBRANCH   9  19
TORSDOF 1
ENDMDL
MODEL      124
REMARK 921   NORMALIZED FREE ENERGY PREDICTED BY IDOCK:   -2.58 KCAL/MOL
REMARK 922        TOTAL FREE ENERGY PREDICTED BY IDOCK:   -2.79 KCAL/MOL
REMARK 923 INTER-LIGAND FREE ENERGY PREDICTED BY IDOCK:   -2.71 KCAL/MOL
REMARK 924 INTRA-LIGAND FREE ENERGY PREDICTED BY IDOCK:   -0.08 KCAL/MOL
REMARK 927      BINDING AFFINITY PREDICTED BY RF-SCORE:    0.00 PKD
ROOT
HETATM    1  C   UNL     1      -6.497  10.145  69.951  1.00  0.00    -0.086 C  
HETATM    2  C   UNL     1      -7.326   9.213  70.875  1.00  0.00    -0.129 C  
HETATM    3  C   UNL     1      -8.512   8.471  70.306  1.00  0.00    -0.128 A  
HETATM    4  C   UNL     1      -9.044   8.844  69.075  1.00  0.00    -0.137 A  
HETATM    5  C   UNL     1      -9.986   8.024  68.443  1.00  0.00    -0.204 A  
HETATM    6  C   UNL     1      -8.416   9.984  68.362  1.00  0.00    -0.112 C  
HETATM    7  C   UNL     1      -7.695   9.358  66.700  1.00  0.00    -0.097 C  
HETATM    8  C   UNL     1      -9.186  11.063  67.848  1.00  0.00    -0.155 C  
HETATM    9  C   UNL     1     -10.442   6.855  69.048  1.00  0.00    -0.208 A  
HETATM   10  C   UNL     1      -6.264  10.297  66.004  1.00  0.00    -0.097 C  
HETATM   11  C   UNL     1     -10.010   6.550  70.337  1.00  0.00    -0.202 A  
HETATM   12  C   UNL     1      -7.726  11.331  67.528  1.00  0.00    -0.122 C  
HETATM   13  C   UNL     1      -7.293  11.190  69.468  1.00  0.00    -0.023 C  
HETATM   14  N   UNL     1      -6.386  10.178  68.440  1.00  0.00    -0.049 NA 
HETATM   15  C   UNL     1      -9.055   7.361  70.966  1.00  0.00    -0.152 A  
HETATM   16  C   UNL     1      -5.731   8.853  68.204  1.00  0.00    -0.039 C  
HETATM   17  C   UNL     1      -5.478  11.680  66.899  1.00  0.00    -0.129 C  
HETATM   18  C   UNL     1      -5.911  12.229  68.604  1.00  0.00    -0.055 C  
ENDROOT
BRANCH   9  19
HETATM   19  O   UNL     1     -11.272   6.101  68.265  1.00  0.00    -0.323 OA 
HETATM   20  C   UNL     1     -10.986   6.055  66.874  1.00  0.00    -0.266 C  
ENDBRANCH   9  19
TORSDOF 1
ENDMDL
MODEL      125
REMARK 921   NORMALIZED FREE ENERGY PREDICTED BY IDOCK:   -2.57 KCAL/MOL
REMARK 922        TOTAL FREE ENERGY PREDICTED BY IDOCK:   -2.79 KCAL/MOL
REMARK 923 INTER-LIGAND FREE ENERGY PREDICTED BY IDOCK:   -2.72 KCAL/MOL
REMARK 924 INTRA-LIGAND FREE ENERGY PREDICTED BY IDOCK:   -0.07 KCAL/MOL
REMARK 927      BINDING AFFINITY PREDICTED BY RF-SCORE:    0.00 PKD
ROOT
HETATM    1  C   UNL     1      -9.995   4.472  70.521  1.00  0.00    -0.208 C  
HETATM    2  C   UNL     1     -10.732   5.637  69.808  1.00  0.00    -0.401 C  
HETATM    3  C   UNL     1     -10.008   6.430  68.746  1.00  0.00    -0.165 A  
HETATM    4  C   UNL     1      -8.625   6.333  68.623  1.00  0.00    -0.121 A  
HETATM    5  C   UNL     1      -7.982   6.881  67.507  1.00  0.00    -0.112 A  
HETATM    6  C   UNL     1      -7.904   5.443  69.565  1.00  0.00    -0.085 C  
HETATM    7  C   UNL     1      -7.057   4.039  68.570  1.00  0.00    -0.055 C  
HETATM    8  C   UNL     1      -6.764   5.884  70.291  1.00  0.00    -0.048 C  
HETATM    9  C   UNL     1      -8.699   7.570  66.531  1.00  0.00    -0.140 A  
HETATM   10  C   UNL     1      -6.768   2.444  69.458  1.00  0.00    -0.033 C  
HETATM   11  C   UNL     1     -10.063   7.782  66.720  1.00  0.00    -0.341 A  
HETATM   12  C   UNL     1      -7.036   4.440  70.673  1.00  0.00    -0.037 C  
HETATM   13  C   UNL     1      -8.882   4.951  71.221  1.00  0.00    -0.154 C  
HETATM   14  N   UNL     1      -8.778   3.676  70.095  1.00  0.00    -0.065 NA 
HETATM   15  C   UNL     1     -10.712   7.222  67.828  1.00  0.00    -0.267 A  
HETATM   16  C   UNL     1      -9.333   2.992  68.884  1.00  0.00    -0.160 C  
HETATM   17  C   UNL     1      -7.363   2.154  71.159  1.00  0.00    -0.033 C  
HETATM   18  C   UNL     1      -8.397   3.322  72.141  1.00  0.00    -0.077 C  
ENDROOT
BRANCH   9  19
HETATM   19  O   UNL     1      -7.956   7.948  65.447  1.00  0.00    -0.107 OA 
HETATM   20  C   UNL     1      -7.903   7.047  64.350  1.00  0.00    -0.111 C  
ENDBRANCH   9  19
TORSDOF 1
ENDMDL
MODEL      126
REMARK 921   NORMALIZED FREE ENERGY PREDICTED BY IDOCK:   -2.47 KCAL/MOL
REMARK 922        TOTAL FREE ENERGY PREDICTED BY IDOCK:   -2.68 KCAL/MOL
REMARK 923 INTER-LIGAND FREE ENERGY PREDICTED BY IDOCK:   -2.61 KCAL/MOL
REMARK 924 INTRA-LIGAND FREE ENERGY PREDICTED BY IDOCK:   -0.07 KCAL/MOL
REMARK 927      BINDING AFFINITY PREDICTED BY RF-SCORE:    0.00 PKD
ROOT
HETATM    1  C   UNL     1      -9.531   3.727  72.776  1.00  0.00    -0.118 C  
HETATM    2  C   UNL     1     -10.685   4.738  72.541  1.00  0.00    -0.240 C  
HETATM    3  C   UNL     1     -10.406   6.017  71.788  1.00  0.00    -0.259 A  
HETATM    4  C   UNL     1      -9.095   6.433  71.579  1.00  0.00    -0.144 A  
HETATM    5  C   UNL     1      -8.826   7.484  70.694  1.00  0.00    -0.146 A  
HETATM    6  C   UNL     1      -8.002   5.590  72.124  1.00  0.00    -0.107 C  
HETATM    7  C   UNL     1      -6.936   4.936  70.670  1.00  0.00    -0.041 C  
HETATM    8  C   UNL     1      -6.950   6.138  72.907  1.00  0.00    -0.076 C  
HETATM    9  C   UNL     1      -9.859   8.160  70.047  1.00  0.00    -0.182 A  
HETATM   10  C   UNL     1      -6.048   3.338  70.939  1.00  0.00    -0.018 C  
HETATM   11  C   UNL     1     -11.177   7.832  70.357  1.00  0.00    -0.246 A  
HETATM   12  C   UNL     1      -6.713   4.645  72.779  1.00  0.00    -0.060 C  
HETATM   13  C   UNL     1      -8.519   4.308  73.549  1.00  0.00    -0.093 C  
HETATM   14  N   UNL     1      -8.212   3.561  72.048  1.00  0.00    -0.070 NA 
HETATM   15  C   UNL     1     -11.448   6.771  71.231  1.00  0.00    -0.347 A  
HETATM   16  C   UNL     1      -8.715   3.144  70.702  1.00  0.00    -0.075 C  
HETATM   17  C   UNL     1      -6.258   2.350  72.460  1.00  0.00    -0.010 C  
HETATM   18  C   UNL     1      -7.431   2.736  73.828  1.00  0.00    -0.050 C  
ENDROOT
BRANCH   9  19
HETATM   19  O   UNL     1      -9.441   9.083  69.129  1.00  0.00    -0.151 OA 
HETATM   20  C   UNL     1      -8.501  10.054  69.568  1.00  0.00    -0.176 C  
ENDBRANCH   9  19
TORSDOF 1
ENDMDL
MODEL      127
REMARK 921   NORMALIZED FREE ENERGY PREDICTED BY IDOCK:   -2.39 KCAL/MOL
REMARK 922        TOTAL FREE ENERGY PREDICTED BY IDOCK:   -2.60 KCAL/MOL
REMARK 923 INTER-LIGAND FREE ENERGY PREDICTED BY IDOCK:   -2.51 KCAL/MOL
REMARK 924 INTRA-LIGAND FREE ENERGY PREDICTED BY IDOCK:   -0.08 KCAL/MOL
REMARK 927      BINDING AFFINITY PREDICTED BY RF-SCORE:    0.00 PKD
ROOT
HETATM    1  C   UNL     1      -9.581   7.207  71.623  1.00  0.00    -0.155 C  
HETATM    2  C   UNL     1      -8.725   7.861  70.505  1.00  0.00    -0.136 C  
HETATM    3  C   UNL     1      -7.677   7.034  69.797  1.00  0.00    -0.109 A  
HETATM    4  C   UNL     1      -7.268   5.817  70.333  1.00  0.00    -0.071 A  
HETATM    5  C   UNL     1      -6.476   4.948  69.573  1.00  0.00    -0.038 A  
HETATM    6  C   UNL     1      -7.884   5.376  71.609  1.00  0.00    -0.111 C  
HETATM    7  C   UNL     1      -8.846   3.745  71.306  1.00  0.00    -0.143 C  
HETATM    8  C   UNL     1      -7.099   4.939  72.710  1.00  0.00    -0.079 C  
HETATM    9  C   UNL     1      -6.045   5.301  68.296  1.00  0.00    -0.026 A  
HETATM   10  C   UNL     1     -10.271   3.395  72.429  1.00  0.00    -0.199 C  
HETATM   11  C   UNL     1      -6.343   6.573  67.812  1.00  0.00    -0.043 A  
HETATM   12  C   UNL     1      -8.560   4.857  73.112  1.00  0.00    -0.106 C  
HETATM   13  C   UNL     1      -8.769   6.792  72.684  1.00  0.00    -0.130 C  
HETATM   14  N   UNL     1      -9.869   5.747  71.908  1.00  0.00    -0.162 NA 
HETATM   15  C   UNL     1      -7.149   7.438  68.564  1.00  0.00    -0.084 A  
HETATM   16  C   UNL     1     -10.650   5.397  70.679  1.00  0.00    -0.232 C  
HETATM   17  C   UNL     1     -10.833   4.587  73.692  1.00  0.00    -0.371 C  
HETATM   18  C   UNL     1     -10.157   6.285  73.929  1.00  0.00    -0.283 C  
ENDROOT
BRANCH   9  19
HETATM   19  O   UNL     1      -5.377   4.310  67.632  1.00  0.00    -0.011 OA 
HETATM   20  C   UNL     1      -5.817   2.976  67.845  1.00  0.00    -0.023 C  
ENDBRANCH   9  19
TORSDOF 1
ENDMDL
MODEL      128
REMARK 921   NORMALIZED FREE ENERGY PREDICTED BY IDOCK:   -2.36 KCAL/MOL
REMARK 922        TOTAL FREE ENERGY PREDICTED BY IDOCK:   -2.56 KCAL/MOL
REMARK 923 INTER-LIGAND FREE ENERGY PREDICTED BY IDOCK:   -2.49 KCAL/MOL
REMARK 924 INTRA-LIGAND FREE ENERGY PREDICTED BY IDOCK:   -0.07 KCAL/MOL
REMARK 927      BINDING AFFINITY PREDICTED BY RF-SCORE:    0.00 PKD
ROOT
HETATM    1  C   UNL     1      -8.435   4.931  69.260  1.00  0.00    -0.087 C  
HETATM    2  C   UNL     1      -8.260   4.285  67.860  1.00  0.00    -0.094 C  
HETATM    3  C   UNL     1      -8.270   5.165  66.633  1.00  0.00    -0.108 A  
HETATM    4  C   UNL     1      -8.734   6.474  66.716  1.00  0.00    -0.123 A  
HETATM    5  C   UNL     1      -8.535   7.357  65.648  1.00  0.00    -0.137 A  
HETATM    6  C   UNL     1      -9.218   6.958  68.033  1.00  0.00    -0.121 C  
HETATM    7  C   UNL     1      -8.105   8.409  68.610  1.00  0.00    -0.122 C  
HETATM    8  C   UNL     1     -10.475   7.606  68.179  1.00  0.00    -0.233 C  
HETATM    9  C   UNL     1      -7.917   6.935  64.473  1.00  0.00    -0.106 A  
HETATM   10  C   UNL     1      -7.967   8.681  70.433  1.00  0.00    -0.101 C  
HETATM   11  C   UNL     1      -7.572   5.592  64.338  1.00  0.00    -0.083 A  
HETATM   12  C   UNL     1      -9.820   7.536  69.546  1.00  0.00    -0.169 C  
HETATM   13  C   UNL     1      -9.683   5.557  69.359  1.00  0.00    -0.216 C  
HETATM   14  N   UNL     1      -8.223   6.362  69.712  1.00  0.00    -0.124 NA 
HETATM   15  C   UNL     1      -7.756   4.710  65.411  1.00  0.00    -0.089 A  
HETATM   16  C   UNL     1      -6.745   6.478  69.504  1.00  0.00    -0.053 C  
HETATM   17  C   UNL     1      -8.744   7.561  71.647  1.00  0.00    -0.126 C  
HETATM   18  C   UNL     1      -9.635   6.001  71.239  1.00  0.00    -0.189 C  
ENDROOT
BRANCH   9  19
HETATM   19  O   UNL     1      -7.689   7.932  63.566  1.00  0.00    -0.123 OA 
HETATM   20  C   UNL     1      -6.661   8.864  63.870  1.00  0.00    -0.087 C  
ENDBRANCH   9  19
TORSDOF 1
ENDMDL
MODEL      129
REMARK 921   NORMALIZED FREE ENERGY PREDICTED BY IDOCK:   -2.34 KCAL/MOL
REMARK 922        TOTAL FREE ENERGY PREDICTED BY IDOCK:   -2.54 KCAL/MOL
REMARK 923 INTER-LIGAND FREE ENERGY PREDICTED BY IDOCK:   -2.48 KCAL/MOL
REMARK 924 INTRA-LIGAND FREE ENERGY PREDICTED BY IDOCK:   -0.06 KCAL/MOL
REMARK 927      BINDING AFFINITY PREDICTED BY RF-SCORE:    0.00 PKD
ROOT
HETATM    1  C   UNL     1      -7.263   9.315  69.848  1.00  0.00    -0.071 C  
HETATM    2  C   UNL     1      -6.243   9.340  68.678  1.00  0.00    -0.045 C  
HETATM    3  C   UNL     1      -6.564   8.597  67.402  1.00  0.00    -0.058 A  
HETATM    4  C   UNL     1      -7.592   7.660  67.379  1.00  0.00    -0.109 A  
HETATM    5  C   UNL     1      -8.040   7.142  66.158  1.00  0.00    -0.121 A  
HETATM    6  C   UNL     1      -8.341   7.417  68.637  1.00  0.00    -0.129 C  
HETATM    7  C   UNL     1     -10.176   7.911  68.374  1.00  0.00    -0.232 C  
HETATM    8  C   UNL     1      -8.561   6.106  69.138  1.00  0.00    -0.119 C  
HETATM    9  C   UNL     1      -7.439   7.514  64.957  1.00  0.00    -0.084 A  
HETATM   10  C   UNL     1     -11.121   8.437  69.873  1.00  0.00    -0.109 C  
HETATM   11  C   UNL     1      -6.325   8.349  64.990  1.00  0.00    -0.052 A  
HETATM   12  C   UNL     1      -9.206   7.090  70.097  1.00  0.00    -0.152 C  
HETATM   13  C   UNL     1      -7.449   8.007  70.309  1.00  0.00    -0.072 C  
HETATM   14  N   UNL     1      -8.747   9.010  69.848  1.00  0.00    -0.145 NA 
HETATM   15  C   UNL     1      -5.884   8.881  66.210  1.00  0.00    -0.050 A  
HETATM   16  C   UNL     1      -9.244  10.164  69.033  1.00  0.00    -0.185 C  
HETATM   17  C   UNL     1     -10.335   8.605  71.512  1.00  0.00    -0.341 C  
HETATM   18  C   UNL     1      -8.537   8.398  71.857  1.00  0.00    -0.248 C  
ENDROOT
BRANCH   9  19
HETATM   19  O   UNL     1      -8.055   7.017  63.841  1.00  0.00    -0.093 OA 
HETATM   20  C   UNL     1      -7.278   6.935  62.655  1.00  0.00    -0.062 C  
ENDBRANCH   9  19
TORSDOF 1
ENDMDL
MODEL      130
REMARK 921   NORMALIZED FREE ENERGY PREDICTED BY IDOCK:   -2.30 KCAL/MOL
REMARK 922        TOTAL FREE ENERGY PREDICTED BY IDOCK:   -2.50 KCAL/MOL
REMARK 923 INTER-LIGAND FREE ENERGY PREDICTED BY IDOCK:   -2.43 KCAL/MOL
REMARK 924 INTRA-LIGAND FREE ENERGY PREDICTED BY IDOCK:   -0.07 KCAL/MOL
REMARK 927      BINDING AFFINITY PREDICTED BY RF-SCORE:    0.00 PKD
ROOT
HETATM    1  C   UNL     1      -7.515  11.289  66.588  1.00  0.00    -0.133 C  
HETATM    2  C   UNL     1      -6.322  10.463  66.035  1.00  0.00    -0.111 C  
HETATM    3  C   UNL     1      -6.240   8.987  66.343  1.00  0.00    -0.064 A  
HETATM    4  C   UNL     1      -7.031   8.437  67.347  1.00  0.00    -0.071 A  
HETATM    5  C   UNL     1      -7.127   7.046  67.480  1.00  0.00    -0.085 A  
HETATM    6  C   UNL     1      -7.935   9.344  68.095  1.00  0.00    -0.091 C  
HETATM    7  C   UNL     1      -9.750   8.803  67.793  1.00  0.00    -0.194 C  
HETATM    8  C   UNL     1      -7.971   9.364  69.516  1.00  0.00    -0.098 C  
HETATM    9  C   UNL     1      -6.402   6.194  66.650  1.00  0.00    -0.045 A  
HETATM   10  C   UNL     1     -11.046  10.114  67.932  1.00  0.00    -0.303 C  
HETATM   11  C   UNL     1      -5.509   6.743  65.733  1.00  0.00    -0.026 A  
HETATM   12  C   UNL     1      -8.971  10.385  69.006  1.00  0.00    -0.184 C  
HETATM   13  C   UNL     1      -7.511  11.280  67.987  1.00  0.00    -0.095 C  
HETATM   14  N   UNL     1      -8.878  10.837  67.071  1.00  0.00    -0.134 NA 
HETATM   15  C   UNL     1      -5.423   8.135  65.587  1.00  0.00    -0.032 A  
HETATM   16  C   UNL     1      -9.440  10.308  65.789  1.00  0.00    -0.203 C  
HETATM   17  C   UNL     1     -10.631  11.868  68.220  1.00  0.00    -0.236 C  
HETATM   18  C   UNL     1      -8.926  12.562  68.287  1.00  0.00    -0.178 C  
ENDROOT
BRANCH   9  19
HETATM   19  O   UNL     1      -6.683   4.866  66.821  1.00  0.00    -0.051 OA 
HETATM   20  C   UNL     1      -7.953   4.410  66.376  1.00  0.00    -0.099 C  
ENDBRANCH   9  19
TORSDOF 1
ENDMDL
MODEL      131
REMARK 921   NORMALIZED FREE ENERGY PREDICTED BY IDOCK:   -2.30 KCAL/MOL
REMARK 922        TOTAL FREE ENERGY PREDICTED BY IDOCK:   -2.50 KCAL/MOL
REMARK 923 INTER-LIGAND FREE ENERGY PREDICTED BY IDOCK:   -2.44 KCAL/MOL
REMARK 924 INTRA-LIGAND FREE ENERGY PREDICTED BY IDOCK:   -0.06 KCAL/MOL
REMARK 927      BINDING AFFINITY PREDICTED BY RF-SCORE:    0.00 PKD
ROOT
HETATM    1  C   UNL     1      -7.587   7.709  69.454  1.00  0.00    -0.095 C  
HETATM    2  C   UNL     1      -6.482   6.674  69.797  1.00  0.00    -0.044 C  
HETATM    3  C   UNL     1      -6.716   5.687  70.916  1.00  0.00    -0.049 A  
HETATM    4  C   UNL     1      -7.752   5.890  71.822  1.00  0.00    -0.101 A  
HETATM    5  C   UNL     1      -8.113   4.872  72.712  1.00  0.00    -0.101 A  
HETATM    6  C   UNL     1      -8.597   7.099  71.653  1.00  0.00    -0.114 C  
HETATM    7  C   UNL     1     -10.399   6.552  71.292  1.00  0.00    -0.234 C  
HETATM    8  C   UNL     1      -8.872   7.979  72.735  1.00  0.00    -0.277 C  
HETATM    9  C   UNL     1      -7.419   3.664  72.742  1.00  0.00    -0.060 A  
HETATM   10  C   UNL     1     -11.448   7.724  70.321  1.00  0.00    -0.117 C  
HETATM   11  C   UNL     1      -6.299   3.510  71.928  1.00  0.00    -0.015 A  
HETATM   12  C   UNL     1      -9.573   8.516  71.501  1.00  0.00    -0.297 C  
HETATM   13  C   UNL     1      -7.825   8.553  70.545  1.00  0.00    -0.086 C  
HETATM   14  N   UNL     1      -9.071   7.695  69.760  1.00  0.00    -0.147 NA 
HETATM   15  C   UNL     1      -5.945   4.522  71.025  1.00  0.00    -0.017 A  
HETATM   16  C   UNL     1      -9.489   6.516  68.937  1.00  0.00    -0.129 C  
HETATM   17  C   UNL     1     -10.785   9.275  69.623  1.00  0.00    -0.244 C  
HETATM   18  C   UNL     1      -9.021   9.804  69.686  1.00  0.00    -0.229 C  
ENDROOT
BRANCH   9  19
HETATM   19  O   UNL     1      -7.956   2.726  73.580  1.00  0.00    -0.058 OA 
HETATM   20  C   UNL     1      -7.061   2.047  74.450  1.00  0.00    -0.028 C  
ENDBRANCH   9  19
TORSDOF 1
ENDMDL
MODEL      132
REMARK 921   NORMALIZED FREE ENERGY PREDICTED BY IDOCK:   -2.26 KCAL/MOL
REMARK 922        TOTAL FREE ENERGY PREDICTED BY IDOCK:   -2.46 KCAL/MOL
REMARK 923 INTER-LIGAND FREE ENERGY PREDICTED BY IDOCK:   -2.38 KCAL/MOL
REMARK 924 INTRA-LIGAND FREE ENERGY PREDICTED BY IDOCK:   -0.08 KCAL/MOL
REMARK 927      BINDING AFFINITY PREDICTED BY RF-SCORE:    0.00 PKD
ROOT
HETATM    1  C   UNL     1      -7.851   3.832  67.486  1.00  0.00    -0.082 C  
HETATM    2  C   UNL     1      -8.610   4.692  68.532  1.00  0.00    -0.106 C  
HETATM    3  C   UNL     1      -8.980   6.116  68.190  1.00  0.00    -0.114 A  
HETATM    4  C   UNL     1      -8.392   6.748  67.099  1.00  0.00    -0.121 A  
HETATM    5  C   UNL     1      -8.895   7.973  66.645  1.00  0.00    -0.166 A  
HETATM    6  C   UNL     1      -7.398   5.983  66.305  1.00  0.00    -0.081 C  
HETATM    7  C   UNL     1      -8.059   5.773  64.517  1.00  0.00    -0.132 C  
HETATM    8  C   UNL     1      -6.123   6.521  65.980  1.00  0.00    -0.033 C  
HETATM    9  C   UNL     1      -9.952   8.602  67.298  1.00  0.00    -0.219 A  
HETATM   10  C   UNL     1      -7.464   4.298  63.576  1.00  0.00    -0.055 C  
HETATM   11  C   UNL     1     -10.454   8.036  68.468  1.00  0.00    -0.200 A  
HETATM   12  C   UNL     1      -6.212   5.128  65.385  1.00  0.00    -0.034 C  
HETATM   13  C   UNL     1      -6.605   4.398  67.197  1.00  0.00    -0.046 C  
HETATM   14  N   UNL     1      -7.733   3.996  65.984  1.00  0.00    -0.089 NA 
HETATM   15  C   UNL     1      -9.963   6.802  68.916  1.00  0.00    -0.159 A  
HETATM   16  C   UNL     1      -9.160   3.770  65.590  1.00  0.00    -0.147 C  
HETATM   17  C   UNL     1      -6.398   3.023  64.332  1.00  0.00    -0.023 C  
HETATM   18  C   UNL     1      -5.889   2.974  66.103  1.00  0.00    -0.023 C  
ENDROOT
BRANCH   9  19
HETATM   19  O   UNL     1     -10.408   9.731  66.676  1.00  0.00    -0.235 OA 
HETATM   20  C   UNL     1      -9.895  10.010  65.381  1.00  0.00    -0.314 C  
ENDBRANCH   9  19
TORSDOF 1
ENDMDL
MODEL      133
REMARK 921   NORMALIZED FREE ENERGY PREDICTED BY IDOCK:   -2.19 KCAL/MOL
REMARK 922        TOTAL FREE ENERGY PREDICTED BY IDOCK:   -2.38 KCAL/MOL
REMARK 923 INTER-LIGAND FREE ENERGY PREDICTED BY IDOCK:   -2.30 KCAL/MOL
REMARK 924 INTRA-LIGAND FREE ENERGY PREDICTED BY IDOCK:   -0.08 KCAL/MOL
REMARK 927      BINDING AFFINITY PREDICTED BY RF-SCORE:    0.00 PKD
ROOT
HETATM    1  C   UNL     1      -9.424   5.901  71.565  1.00  0.00    -0.152 C  
HETATM    2  C   UNL     1     -10.325   6.815  70.692  1.00  0.00    -0.225 C  
HETATM    3  C   UNL     1      -9.794   8.150  70.228  1.00  0.00    -0.184 A  
HETATM    4  C   UNL     1      -8.655   8.692  70.816  1.00  0.00    -0.197 A  
HETATM    5  C   UNL     1      -8.033   9.806  70.240  1.00  0.00    -0.185 A  
HETATM    6  C   UNL     1      -8.001   7.923  71.904  1.00  0.00    -0.125 C  
HETATM    7  C   UNL     1      -6.230   7.443  71.348  1.00  0.00    -0.036 C  
HETATM    8  C   UNL     1      -7.661   8.523  73.147  1.00  0.00    -0.041 C  
HETATM    9  C   UNL     1      -8.563  10.419  69.107  1.00  0.00    -0.164 A  
HETATM   10  C   UNL     1      -5.504   5.919  72.101  1.00  0.00    -0.022 C  
HETATM   11  C   UNL     1      -9.774   9.959  68.595  1.00  0.00    -0.163 A  
HETATM   12  C   UNL     1      -7.241   7.066  73.197  1.00  0.00    -0.073 C  
HETATM   13  C   UNL     1      -9.114   6.530  72.776  1.00  0.00    -0.142 C  
HETATM   14  N   UNL     1      -7.919   5.890  71.742  1.00  0.00    -0.110 NA 
HETATM   15  C   UNL     1     -10.391   8.834  69.160  1.00  0.00    -0.227 A  
HETATM   16  C   UNL     1      -7.503   5.499  70.359  1.00  0.00    -0.079 C  
HETATM   17  C   UNL     1      -6.453   4.840  73.227  1.00  0.00    -0.055 C  
HETATM   18  C   UNL     1      -8.234   5.050  73.653  1.00  0.00    -0.106 C  
ENDROOT
BRANCH   9  19
HETATM   19  O   UNL     1      -7.787  11.421  68.593  1.00  0.00    -0.128 OA 
HETATM   20  C   UNL     1      -6.961  12.133  69.503  1.00  0.00     0.113 C  
ENDBRANCH   9  19
TORSDOF 1
ENDMDL
MODEL      134
REMARK 921   NORMALIZED FREE ENERGY PREDICTED BY IDOCK:   -2.00 KCAL/MOL
REMARK 922        TOTAL FREE ENERGY PREDICTED BY IDOCK:   -2.18 KCAL/MOL
REMARK 923 INTER-LIGAND FREE ENERGY PREDICTED BY IDOCK:   -2.12 KCAL/MOL
REMARK 924 INTRA-LIGAND FREE ENERGY PREDICTED BY IDOCK:   -0.06 KCAL/MOL
REMARK 927      BINDING AFFINITY PREDICTED BY RF-SCORE:    0.00 PKD
ROOT
HETATM    1  C   UNL     1      -8.133  10.141  68.277  1.00  0.00    -0.102 C  
HETATM    2  C   UNL     1      -8.972   9.375  69.335  1.00  0.00    -0.157 C  
HETATM    3  C   UNL     1      -9.022   7.866  69.287  1.00  0.00    -0.145 A  
HETATM    4  C   UNL     1      -8.591   7.188  68.151  1.00  0.00    -0.129 A  
HETATM    5  C   UNL     1      -8.422   5.799  68.187  1.00  0.00    -0.109 A  
HETATM    6  C   UNL     1      -8.098   7.993  67.006  1.00  0.00    -0.116 C  
HETATM    7  C   UNL     1      -6.253   7.572  66.699  1.00  0.00    -0.045 C  
HETATM    8  C   UNL     1      -8.570   7.782  65.682  1.00  0.00    -0.147 C  
HETATM    9  C   UNL     1      -8.724   5.068  69.334  1.00  0.00    -0.091 A  
HETATM   10  C   UNL     1      -5.216   8.888  65.916  1.00  0.00    -0.036 C  
HETATM   11  C   UNL     1      -9.280   5.728  70.427  1.00  0.00    -0.175 A  
HETATM   12  C   UNL     1      -7.552   8.908  65.646  1.00  0.00    -0.086 C  
HETATM   13  C   UNL     1      -8.632   9.905  66.991  1.00  0.00    -0.130 C  
HETATM   14  N   UNL     1      -6.995   9.665  67.398  1.00  0.00    -0.083 NA 
HETATM   15  C   UNL     1      -9.437   7.121  70.400  1.00  0.00    -0.162 A  
HETATM   16  C   UNL     1      -5.969   9.371  68.448  1.00  0.00    -0.044 C  
HETATM   17  C   UNL     1      -5.865  10.556  65.558  1.00  0.00    -0.131 C  
HETATM   18  C   UNL     1      -7.540  11.170  66.021  1.00  0.00     0.023 C  
ENDROOT
BRANCH   9  19
HETATM   19  O   UNL     1      -8.401   3.741  69.258  1.00  0.00    -0.063 OA 
HETATM   20  C   UNL     1      -9.228   2.918  68.448  1.00  0.00    -0.189 C  
ENDBRANCH   9  19
TORSDOF 1
ENDMDL
MODEL      135
REMARK 921   NORMALIZED FREE ENERGY PREDICTED BY IDOCK:   -1.94 KCAL/MOL
REMARK 922        TOTAL FREE ENERGY PREDICTED BY IDOCK:   -2.12 KCAL/MOL
REMARK 923 INTER-LIGAND FREE ENERGY PREDICTED BY IDOCK:   -2.06 KCAL/MOL
REMARK 924 INTRA-LIGAND FREE ENERGY PREDICTED BY IDOCK:   -0.06 KCAL/MOL
REMARK 927      BINDING AFFINITY PREDICTED BY RF-SCORE:    0.00 PKD
ROOT
HETATM    1  C   UNL     1      -8.694   8.302  70.463  1.00  0.00    -0.140 C  
HETATM    2  C   UNL     1      -9.151   9.480  69.560  1.00  0.00    -0.193 C  
HETATM    3  C   UNL     1      -8.659   9.551  68.134  1.00  0.00    -0.120 A  
HETATM    4  C   UNL     1      -7.584   8.768  67.725  1.00  0.00    -0.097 A  
HETATM    5  C   UNL     1      -7.273   8.661  66.364  1.00  0.00    -0.080 A  
HETATM    6  C   UNL     1      -6.946   7.883  68.731  1.00  0.00    -0.066 C  
HETATM    7  C   UNL     1      -7.155   6.059  68.177  1.00  0.00    -0.078 C  
HETATM    8  C   UNL     1      -5.539   7.867  68.932  1.00  0.00    -0.030 C  
HETATM    9  C   UNL     1      -7.997   9.366  65.405  1.00  0.00    -0.105 A  
HETATM   10  C   UNL     1      -7.169   4.778  69.509  1.00  0.00    -0.055 C  
HETATM   11  C   UNL     1      -8.987  10.252  65.823  1.00  0.00    -0.185 A  
HETATM   12  C   UNL     1      -6.163   6.870  69.891  1.00  0.00    -0.031 C  
HETATM   13  C   UNL     1      -7.305   8.325  70.633  1.00  0.00    -0.057 C  
HETATM   14  N   UNL     1      -8.141   6.941  70.092  1.00  0.00    -0.125 NA 
HETATM   15  C   UNL     1      -9.310  10.350  67.184  1.00  0.00    -0.177 A  
HETATM   16  C   UNL     1      -9.338   6.357  69.410  1.00  0.00    -0.141 C  
HETATM   17  C   UNL     1      -7.112   5.214  71.281  1.00  0.00    -0.057 C  
HETATM   18  C   UNL     1      -7.154   6.927  71.959  1.00  0.00    -0.074 C  
ENDROOT
BRANCH   9  19
HETATM   19  O   UNL     1      -7.654   9.074  64.114  1.00  0.00    -0.109 OA 
HETATM   20  C   UNL     1      -7.423  10.171  63.241  1.00  0.00    -0.139 C  
ENDBRANCH   9  19
TORSDOF 1
ENDMDL
MODEL      136
REMARK 921   NORMALIZED FREE ENERGY PREDICTED BY IDOCK:   -1.88 KCAL/MOL
REMARK 922        TOTAL FREE ENERGY PREDICTED BY IDOCK:   -2.06 KCAL/MOL
REMARK 923 INTER-LIGAND FREE ENERGY PREDICTED BY IDOCK:   -1.99 KCAL/MOL
REMARK 924 INTRA-LIGAND FREE ENERGY PREDICTED BY IDOCK:   -0.07 KCAL/MOL
REMARK 927      BINDING AFFINITY PREDICTED BY RF-SCORE:    0.00 PKD
ROOT
HETATM    1  C   UNL     1      -8.319   3.243  66.266  1.00  0.00    -0.100 C  
HETATM    2  C   UNL     1      -8.263   4.371  67.331  1.00  0.00    -0.100 C  
HETATM    3  C   UNL     1      -8.030   5.796  66.887  1.00  0.00    -0.102 A  
HETATM    4  C   UNL     1      -7.567   6.060  65.601  1.00  0.00    -0.084 A  
HETATM    5  C   UNL     1      -7.568   7.372  65.113  1.00  0.00    -0.104 A  
HETATM    6  C   UNL     1      -7.308   4.907  64.704  1.00  0.00    -0.063 C  
HETATM    7  C   UNL     1      -8.482   5.018  63.192  1.00  0.00    -0.118 C  
HETATM    8  C   UNL     1      -6.085   4.769  63.993  1.00  0.00    -0.022 C  
HETATM    9  C   UNL     1      -7.983   8.435  65.912  1.00  0.00    -0.099 A  
HETATM   10  C   UNL     1      -8.924   3.428  62.360  1.00  0.00    -0.084 C  
HETATM   11  C   UNL     1      -8.320   8.189  67.241  1.00  0.00    -0.121 A  
HETATM   12  C   UNL     1      -6.964   3.580  63.652  1.00  0.00    -0.045 C  
HETATM   13  C   UNL     1      -7.097   3.144  65.591  1.00  0.00    -0.065 C  
HETATM   14  N   UNL     1      -8.584   3.315  64.776  1.00  0.00    -0.098 NA 
HETATM   15  C   UNL     1      -8.335   6.875  67.728  1.00  0.00    -0.120 A  
HETATM   16  C   UNL     1     -10.003   3.792  64.792  1.00  0.00    -0.187 C  
HETATM   17  C   UNL     1      -8.382   1.808  63.003  1.00  0.00    -0.068 C  
HETATM   18  C   UNL     1      -7.458   1.540  64.575  1.00  0.00    -0.054 C  
ENDROOT
BRANCH   9  19
HETATM   19  O   UNL     1      -8.038   9.639  65.265  1.00  0.00    -0.117 OA 
HETATM   20  C   UNL     1      -9.035   9.793  64.265  1.00  0.00    -0.237 C  
ENDBRANCH   9  19
TORSDOF 1
ENDMDL
MODEL      137
REMARK 921   NORMALIZED FREE ENERGY PREDICTED BY IDOCK:   -1.35 KCAL/MOL
REMARK 922        TOTAL FREE ENERGY PREDICTED BY IDOCK:   -1.49 KCAL/MOL
REMARK 923 INTER-LIGAND FREE ENERGY PREDICTED BY IDOCK:   -1.42 KCAL/MOL
REMARK 924 INTRA-LIGAND FREE ENERGY PREDICTED BY IDOCK:   -0.07 KCAL/MOL
REMARK 927      BINDING AFFINITY PREDICTED BY RF-SCORE:    0.00 PKD
ROOT
HETATM    1  C   UNL     1      -6.970  14.594  68.450  1.00  0.00    -0.113 C  
HETATM    2  C   UNL     1      -6.126  13.302  68.280  1.00  0.00    -0.093 C  
HETATM    3  C   UNL     1      -6.771  12.070  67.690  1.00  0.00    -0.109 A  
HETATM    4  C   UNL     1      -8.156  11.987  67.588  1.00  0.00    -0.155 A  
HETATM    5  C   UNL     1      -8.742  10.959  66.840  1.00  0.00    -0.144 A  
HETATM    6  C   UNL     1      -8.960  13.133  68.082  1.00  0.00    -0.195 C  
HETATM    7  C   UNL     1      -9.929  13.892  66.612  1.00  0.00    -0.279 C  
HETATM    8  C   UNL     1     -10.057  12.953  68.968  1.00  0.00     0.169 C  
HETATM    9  C   UNL     1      -7.962   9.980  66.230  1.00  0.00    -0.111 A  
HETATM   10  C   UNL     1     -10.366  15.684  66.737  1.00  0.00    -0.287 C  
HETATM   11  C   UNL     1      -6.585   9.986  66.442  1.00  0.00    -0.080 A  
HETATM   12  C   UNL     1      -9.920  14.438  68.681  1.00  0.00    -0.241 C  
HETATM   13  C   UNL     1      -8.037  14.372  69.328  1.00  0.00     0.092 C  
HETATM   14  N   UNL     1      -8.253  15.022  67.767  1.00  0.00    -0.144 NA 
HETATM   15  C   UNL     1      -5.994  11.023  67.176  1.00  0.00    -0.072 A  
HETATM   16  C   UNL     1      -7.760  15.160  66.361  1.00  0.00     0.893 C  
HETATM   17  C   UNL     1      -9.807  16.729  68.125  1.00  0.00    -0.264 C  
HETATM   18  C   UNL     1      -8.673  16.191  69.474  1.00  0.00     0.033 C  
ENDROOT
BRANCH   9  19
HETATM   19  O   UNL     1      -8.663   9.110  65.442  1.00  0.00    -0.163 OA 
HETATM   20  C   UNL     1      -8.159   8.866  64.136  1.00  0.00    -0.160 C  
ENDBRANCH   9  19
TORSDOF 1
ENDMDL
MODEL      138
REMARK 921   NORMALIZED FREE ENERGY PREDICTED BY IDOCK:   -0.98 KCAL/MOL
REMARK 922        TOTAL FREE ENERGY PREDICTED BY IDOCK:   -1.10 KCAL/MOL
REMARK 923 INTER-LIGAND FREE ENERGY PREDICTED BY IDOCK:   -1.01 KCAL/MOL
REMARK 924 INTRA-LIGAND FREE ENERGY PREDICTED BY IDOCK:   -0.08 KCAL/MOL
REMARK 927      BINDING AFFINITY PREDICTED BY RF-SCORE:    0.00 PKD
ROOT
HETATM    1  C   UNL     1      -7.886   6.186  66.130  1.00  0.00    -0.105 C  
HETATM    2  C   UNL     1      -8.936   7.053  66.875  1.00  0.00    -0.135 C  
HETATM    3  C   UNL     1      -9.394   8.352  66.255  1.00  0.00    -0.283 A  
HETATM    4  C   UNL     1      -8.675   8.918  65.207  1.00  0.00    -0.220 A  
HETATM    5  C   UNL     1      -9.216   9.989  64.485  1.00  0.00    -0.313 A  
HETATM    6  C   UNL     1      -7.458   8.211  64.736  1.00  0.00    -0.094 C  
HETATM    7  C   UNL     1      -7.714   7.680  62.911  1.00  0.00    -0.124 C  
HETATM    8  C   UNL     1      -6.216   8.883  64.573  1.00  0.00    -0.066 C  
HETATM    9  C   UNL     1     -10.450  10.536  64.829  1.00  0.00    -0.128 A  
HETATM   10  C   UNL     1      -6.772   6.199  62.334  1.00  0.00    -0.037 C  
HETATM   11  C   UNL     1     -11.109  10.058  65.959  1.00  0.00     0.678 A  
HETATM   12  C   UNL     1      -6.018   7.427  64.193  1.00  0.00    -0.041 C  
HETATM   13  C   UNL     1      -6.682   6.885  65.992  1.00  0.00    -0.052 C  
HETATM   14  N   UNL     1      -7.485   6.171  64.669  1.00  0.00    -0.079 NA 
HETATM   15  C   UNL     1     -10.578   8.976  66.674  1.00  0.00    -0.158 A  
HETATM   16  C   UNL     1      -8.766   5.692  64.059  1.00  0.00     0.164 C  
HETATM   17  C   UNL     1      -5.739   5.200  63.460  1.00  0.00    -0.017 C  
HETATM   18  C   UNL     1      -5.597   5.452  65.280  1.00  0.00    -0.013 C  
ENDROOT
BRANCH   9  19
HETATM   19  O   UNL     1     -10.900  11.498  63.967  1.00  0.00    -0.340 OA 
HETATM   20  C   UNL     1     -10.350  11.504  62.657  1.00  0.00     0.351 C  
ENDBRANCH   9  19
TORSDOF 1
ENDMDL
MODEL      139
REMARK 921   NORMALIZED FREE ENERGY PREDICTED BY IDOCK:   -0.85 KCAL/MOL
REMARK 922        TOTAL FREE ENERGY PREDICTED BY IDOCK:   -0.97 KCAL/MOL
REMARK 923 INTER-LIGAND FREE ENERGY PREDICTED BY IDOCK:   -0.90 KCAL/MOL
REMARK 924 INTRA-LIGAND FREE ENERGY PREDICTED BY IDOCK:   -0.06 KCAL/MOL
REMARK 927      BINDING AFFINITY PREDICTED BY RF-SCORE:    0.00 PKD
ROOT
HETATM    1  C   UNL     1      -8.390  15.706  68.327  1.00  0.00    -0.154 C  
HETATM    2  C   UNL     1      -9.907  15.919  68.576  1.00  0.00    -0.210 C  
HETATM    3  C   UNL     1     -10.763  14.742  68.979  1.00  0.00    -0.251 A  
HETATM    4  C   UNL     1     -10.281  13.445  68.831  1.00  0.00    -0.050 A  
HETATM    5  C   UNL     1     -10.970  12.372  69.409  1.00  0.00    -0.072 A  
HETATM    6  C   UNL     1      -8.922  13.268  68.262  1.00  0.00    -0.176 C  
HETATM    7  C   UNL     1      -7.803  12.431  69.576  1.00  0.00     0.921 C  
HETATM    8  C   UNL     1      -8.668  12.372  67.189  1.00  0.00    -0.195 C  
HETATM    9  C   UNL     1     -12.165  12.573  70.097  1.00  0.00    -0.234 A  
HETATM   10  C   UNL     1      -5.990  12.774  69.467  1.00  0.00    -0.112 C  
HETATM   11  C   UNL     1     -12.716  13.852  70.132  1.00  0.00    -0.182 A  
HETATM   12  C   UNL     1      -7.357  13.033  67.571  1.00  0.00    -0.154 C  
HETATM   13  C   UNL     1      -8.187  14.818  67.264  1.00  0.00    -0.237 C  
HETATM   14  N   UNL     1      -7.467  14.598  68.794  1.00  0.00    -0.128 NA 
HETATM   15  C   UNL     1     -12.021  14.930  69.567  1.00  0.00    -0.347 A  
HETATM   16  C   UNL     1      -7.505  14.841  70.270  1.00  0.00     0.464 C  
HETATM   17  C   UNL     1      -5.290  13.946  68.255  1.00  0.00    -0.111 C  
HETATM   18  C   UNL     1      -6.270  14.997  67.101  1.00  0.00     0.489 C  
ENDROOT
BRANCH   9  19
HETATM   19  O   UNL     1     -12.663  11.452  70.703  1.00  0.00    -0.272 OA 
HETATM   20  C   UNL     1     -13.624  11.643  71.730  1.00  0.00     0.107 C  
ENDBRANCH   9  19
TORSDOF 1
ENDMDL
MODEL      140
REMARK 921   NORMALIZED FREE ENERGY PREDICTED BY IDOCK:   -0.01 KCAL/MOL
REMARK 922        TOTAL FREE ENERGY PREDICTED BY IDOCK:   -0.08 KCAL/MOL
REMARK 923 INTER-LIGAND FREE ENERGY PREDICTED BY IDOCK:   -0.00 KCAL/MOL
REMARK 924 INTRA-LIGAND FREE ENERGY PREDICTED BY IDOCK:   -0.08 KCAL/MOL
REMARK 927      BINDING AFFINITY PREDICTED BY RF-SCORE:    0.00 PKD
ROOT
HETATM    1  C   UNL     1      -7.890  16.402  66.415  1.00  0.00    -0.262 C  
HETATM    2  C   UNL     1      -8.782  15.448  65.575  1.00  0.00     1.209 C  
HETATM    3  C   UNL     1      -9.534  14.337  66.269  1.00  0.00    -0.277 A  
HETATM    4  C   UNL     1      -9.201  13.975  67.571  1.00  0.00    -0.197 A  
HETATM    5  C   UNL     1     -10.035  13.112  68.292  1.00  0.00    -0.236 A  
HETATM    6  C   UNL     1      -8.092  14.705  68.234  1.00  0.00    -0.143 C  
HETATM    7  C   UNL     1      -8.783  15.628  69.766  1.00  0.00     0.043 C  
HETATM    8  C   UNL     1      -7.026  14.023  68.881  1.00  0.00    -0.110 C  
HETATM    9  C   UNL     1     -11.178  12.567  67.712  1.00  0.00    -0.269 A  
HETATM   10  C   UNL     1      -7.881  17.150  70.300  1.00  0.00     2.572 C  
HETATM   11  C   UNL     1     -11.440  12.823  66.368  1.00  0.00    -0.409 A  
HETATM   12  C   UNL     1      -6.782  15.514  69.016  1.00  0.00    -0.131 C  
HETATM   13  C   UNL     1      -6.856  15.689  67.033  1.00  0.00    -0.009 C  
HETATM   14  N   UNL     1      -7.912  16.710  67.898  1.00  0.00    -0.168 NA 
HETATM   15  C   UNL     1     -10.616  13.698  65.648  1.00  0.00    -0.294 A  
HETATM   16  C   UNL     1      -9.250  17.372  68.001  1.00  0.00    -0.266 C  
HETATM   17  C   UNL     1      -6.473  17.830  69.358  1.00  0.00    -0.226 C  
HETATM   18  C   UNL     1      -5.860  17.185  67.744  1.00  0.00    -0.137 C  
ENDROOT
BRANCH   9  19
HETATM   19  O   UNL     1     -11.953  11.837  68.571  1.00  0.00    -0.406 OA 
HETATM   20  C   UNL     1     -11.306  11.261  69.697  1.00  0.00    -0.287 C  
ENDBRANCH   9  19
TORSDOF 1
ENDMDL
MODEL      141
REMARK 921   NORMALIZED FREE ENERGY PREDICTED BY IDOCK:    0.36 KCAL/MOL
REMARK 922        TOTAL FREE ENERGY PREDICTED BY IDOCK:    0.31 KCAL/MOL
REMARK 923 INTER-LIGAND FREE ENERGY PREDICTED BY IDOCK:    0.38 KCAL/MOL
REMARK 924 INTRA-LIGAND FREE ENERGY PREDICTED BY IDOCK:   -0.06 KCAL/MOL
REMARK 927      BINDING AFFINITY PREDICTED BY RF-SCORE:    0.00 PKD
ROOT
HETATM    1  C   UNL     1      -8.789  17.000  66.531  1.00  0.00    -0.264 C  
HETATM    2  C   UNL     1     -10.307  16.734  66.719  1.00  0.00    -0.293 C  
HETATM    3  C   UNL     1     -10.835  16.406  68.096  1.00  0.00    -0.346 A  
HETATM    4  C   UNL     1      -9.957  16.043  69.112  1.00  0.00    -0.246 A  
HETATM    5  C   UNL     1     -10.412  15.962  70.434  1.00  0.00    -0.096 A  
HETATM    6  C   UNL     1      -8.509  15.982  68.793  1.00  0.00    -0.228 C  
HETATM    7  C   UNL     1      -7.582  17.277  69.862  1.00  0.00     1.154 C  
HETATM    8  C   UNL     1      -7.714  14.851  69.122  1.00  0.00    -0.164 C  
HETATM    9  C   UNL     1     -11.749  16.194  70.749  1.00  0.00    -0.302 A  
HETATM   10  C   UNL     1      -6.003  17.948  69.175  1.00  0.00    -0.224 C  
HETATM   11  C   UNL     1     -12.654  16.427  69.717  1.00  0.00     1.379 A  
HETATM   12  C   UNL     1      -6.822  15.870  68.438  1.00  0.00    -0.116 C  
HETATM   13  C   UNL     1      -8.047  15.862  66.867  1.00  0.00    -0.285 C  
HETATM   14  N   UNL     1      -7.731  17.395  67.542  1.00  0.00    -0.190 NA 
HETATM   15  C   UNL     1     -12.199  16.524  68.394  1.00  0.00     1.086 A  
HETATM   16  C   UNL     1      -8.236  18.753  67.920  1.00  0.00    -0.269 C  
HETATM   17  C   UNL     1      -5.399  17.509  67.509  1.00  0.00    -0.143 C  
HETATM   18  C   UNL     1      -6.307  16.472  66.286  1.00  0.00     0.667 C  
ENDROOT
BRANCH   9  19
HETATM   19  O   UNL     1     -12.021  16.192  72.089  1.00  0.00    -0.480 OA 
HETATM   20  C   UNL     1     -12.125  14.927  72.727  1.00  0.00    -0.264 C  
ENDBRANCH   9  19
TORSDOF 1
ENDMDL
MODEL      142
REMARK 921   NORMALIZED FREE ENERGY PREDICTED BY IDOCK:    0.39 KCAL/MOL
REMARK 922        TOTAL FREE ENERGY PREDICTED BY IDOCK:    0.35 KCAL/MOL
REMARK 923 INTER-LIGAND FREE ENERGY PREDICTED BY IDOCK:    0.43 KCAL/MOL
REMARK 924 INTRA-LIGAND FREE ENERGY PREDICTED BY IDOCK:   -0.08 KCAL/MOL
REMARK 927      BINDING AFFINITY PREDICTED BY RF-SCORE:    0.00 PKD
ROOT
HETATM    1  C   UNL     1      -7.833  19.767  67.471  1.00  0.00    -0.282 C  
HETATM    2  C   UNL     1      -9.074  19.945  68.387  1.00  0.00    -0.280 C  
HETATM    3  C   UNL     1      -9.824  18.723  68.862  1.00  0.00    -0.415 A  
HETATM    4  C   UNL     1      -9.609  17.491  68.252  1.00  0.00    -0.299 A  
HETATM    5  C   UNL     1     -10.123  16.324  68.831  1.00  0.00    -0.251 A  
HETATM    6  C   UNL     1      -8.638  17.429  67.132  1.00  0.00    -0.233 C  
HETATM    7  C   UNL     1      -7.188  16.276  67.628  1.00  0.00    -0.162 C  
HETATM    8  C   UNL     1      -8.961  16.814  65.892  1.00  0.00    -0.103 C  
HETATM    9  C   UNL     1     -10.893  16.377  69.991  1.00  0.00    -0.305 A  
HETATM   10  C   UNL     1      -5.554  16.598  66.825  1.00  0.00    -0.027 C  
HETATM   11  C   UNL     1     -11.220  17.621  70.527  1.00  0.00     2.120 A  
HETATM   12  C   UNL     1      -7.539  17.336  65.802  1.00  0.00     0.170 C  
HETATM   13  C   UNL     1      -8.197  19.159  66.265  1.00  0.00    -0.309 C  
HETATM   14  N   UNL     1      -6.943  18.560  67.252  1.00  0.00    -0.202 NA 
HETATM   15  C   UNL     1     -10.694  18.789  69.959  1.00  0.00     1.833 A  
HETATM   16  C   UNL     1      -6.338  18.440  68.615  1.00  0.00    -0.219 C  
HETATM   17  C   UNL     1      -5.280  18.014  65.706  1.00  0.00    -0.234 C  
HETATM   18  C   UNL     1      -6.512  19.333  65.335  1.00  0.00    -0.310 C  
ENDROOT
BRANCH   9  19
HETATM   19  O   UNL     1     -11.229  15.154  70.502  1.00  0.00    -0.266 OA 
HETATM   20  C   UNL     1     -10.752  14.009  69.809  1.00  0.00     0.203 C  
ENDBRANCH   9  19
TORSDOF 1
ENDMDL
MODEL      143
REMARK 921   NORMALIZED FREE ENERGY PREDICTED BY IDOCK:    6.19 KCAL/MOL
REMARK 922        TOTAL FREE ENERGY PREDICTED BY IDOCK:    6.49 KCAL/MOL
REMARK 923 INTER-LIGAND FREE ENERGY PREDICTED BY IDOCK:    6.57 KCAL/MOL
REMARK 924 INTRA-LIGAND FREE ENERGY PREDICTED BY IDOCK:   -0.08 KCAL/MOL
REMARK 927      BINDING AFFINITY PREDICTED BY RF-SCORE:    0.00 PKD
ROOT
HETATM    1  C   UNL     1      -6.105  15.626  67.863  1.00  0.00    -0.147 C  
HETATM    2  C   UNL     1      -6.794  16.726  67.011  1.00  0.00    -0.246 C  
HETATM    3  C   UNL     1      -8.302  16.778  66.951  1.00  0.00    -0.241 A  
HETATM    4  C   UNL     1      -9.057  15.692  67.385  1.00  0.00    -0.203 A  
HETATM    5  C   UNL     1     -10.442  15.821  67.544  1.00  0.00    -0.288 A  
HETATM    6  C   UNL     1      -8.333  14.500  67.892  1.00  0.00    -0.159 C  
HETATM    7  C   UNL     1      -8.785  14.235  69.736  1.00  0.00     0.892 C  
HETATM    8  C   UNL     1      -8.627  13.189  67.428  1.00  0.00    -0.204 C  
HETATM    9  C   UNL     1     -11.093  17.011  67.228  1.00  0.00     0.113 A  
HETATM   10  C   UNL     1      -7.532  13.375  70.788  1.00  0.00     3.394 C  
HETATM   11  C   UNL     1     -10.359  18.054  66.669  1.00  0.00    -0.375 A  
HETATM   12  C   UNL     1      -7.514  13.086  68.454  1.00  0.00    -0.128 C  
HETATM   13  C   UNL     1      -6.423  14.355  67.372  1.00  0.00     0.092 C  
HETATM   14  N   UNL     1      -6.646  14.789  69.005  1.00  0.00    -0.094 NA 
HETATM   15  C   UNL     1      -8.970  17.933  66.523  1.00  0.00    -0.278 A  
HETATM   16  C   UNL     1      -6.877  15.864  70.021  1.00  0.00     0.105 C  
HETATM   17  C   UNL     1      -5.886  12.903  70.154  1.00  0.00    -0.155 C  
HETATM   18  C   UNL     1      -5.232  13.312  68.480  1.00  0.00    -0.076 C  
ENDROOT
BRANCH   9  19
HETATM   19  O   UNL     1     -12.424  17.026  67.542  1.00  0.00     2.269 OA 
HETATM   20  C   UNL     1     -12.842  16.219  68.634  1.00  0.00     2.300 C  
ENDBRANCH   9  19
TORSDOF 1
ENDMDL
MODEL      144
REMARK 921   NORMALIZED FREE ENERGY PREDICTED BY IDOCK:    6.97 KCAL/MOL
REMARK 922        TOTAL FREE ENERGY PREDICTED BY IDOCK:    7.32 KCAL/MOL
REMARK 923 INTER-LIGAND FREE ENERGY PREDICTED BY IDOCK:    7.40 KCAL/MOL
REMARK 924 INTRA-LIGAND FREE ENERGY PREDICTED BY IDOCK:   -0.08 KCAL/MOL
REMARK 927      BINDING AFFINITY PREDICTED BY RF-SCORE:    0.00 PKD
ROOT
HETATM    1  C   UNL     1      -9.301  18.020  67.705  1.00  0.00    -0.259 C  
HETATM    2  C   UNL     1      -9.672  18.914  68.918  1.00  0.00    -0.420 C  
HETATM    3  C   UNL     1     -10.552  18.352  70.009  1.00  0.00     1.468 A  
HETATM    4  C   UNL     1     -11.269  17.179  69.794  1.00  0.00     0.669 A  
HETATM    5  C   UNL     1     -11.899  16.537  70.867  1.00  0.00     0.222 A  
HETATM    6  C   UNL     1     -11.145  16.521  68.470  1.00  0.00    -0.335 C  
HETATM    7  C   UNL     1     -10.370  14.783  68.710  1.00  0.00    -0.248 C  
HETATM    8  C   UNL     1     -12.284  16.125  67.719  1.00  0.00     1.124 C  
HETATM    9  C   UNL     1     -11.861  17.078  72.150  1.00  0.00     0.774 A  
HETATM   10  C   UNL     1      -9.423  14.087  67.283  1.00  0.00    -0.231 C  
HETATM   11  C   UNL     1     -11.257  18.318  72.342  1.00  0.00     3.098 A  
HETATM   12  C   UNL     1     -11.045  15.753  66.926  1.00  0.00    -0.133 C  
HETATM   13  C   UNL     1     -10.451  17.654  66.996  1.00  0.00    -0.305 C  
HETATM   14  N   UNL     1      -9.318  16.512  67.558  1.00  0.00    -0.218 NA 
HETATM   15  C   UNL     1     -10.613  18.956  71.273  1.00  0.00     2.976 A  
HETATM   16  C   UNL     1      -8.252  16.149  68.544  1.00  0.00    -0.186 C  
HETATM   17  C   UNL     1      -9.123  15.040  65.755  1.00  0.00     0.127 C  
HETATM   18  C   UNL     1      -9.599  16.800  65.486  1.00  0.00     0.220 C  
ENDROOT
BRANCH   9  19
HETATM   19  O   UNL     1     -12.420  16.284  73.113  1.00  0.00    -0.470 OA 
HETATM   20  C   UNL     1     -13.372  15.320  72.687  1.00  0.00    -0.478 C  
ENDBRANCH   9  19
TORSDOF 1
ENDMDL
MODEL      145
REMARK 921   NORMALIZED FREE ENERGY PREDICTED BY IDOCK:   12.53 KCAL/MOL
REMARK 922        TOTAL FREE ENERGY PREDICTED BY IDOCK:   13.20 KCAL/MOL
REMARK 923 INTER-LIGAND FREE ENERGY PREDICTED BY IDOCK:   13.27 KCAL/MOL
REMARK 924 INTRA-LIGAND FREE ENERGY PREDICTED BY IDOCK:   -0.08 KCAL/MOL
REMARK 927      BINDING AFFINITY PREDICTED BY RF-SCORE:    0.00 PKD
ROOT
HETATM    1  C   UNL     1      -7.340   8.591  67.385  1.00  0.00    -0.089 C  
HETATM    2  C   UNL     1      -8.308   7.735  68.245  1.00  0.00    -0.125 C  
HETATM    3  C   UNL     1      -9.599   8.348  68.735  1.00  0.00    -0.150 A  
HETATM    4  C   UNL     1      -9.780   9.727  68.688  1.00  0.00    -0.162 A  
HETATM    5  C   UNL     1     -11.047  10.275  68.923  1.00  0.00    -0.278 A  
HETATM    6  C   UNL     1      -8.671  10.556  68.156  1.00  0.00    -0.130 C  
HETATM    7  C   UNL     1      -9.273  11.460  66.575  1.00  0.00    -0.200 C  
HETATM    8  C   UNL     1      -8.180  11.692  68.856  1.00  0.00     0.017 C  
HETATM    9  C   UNL     1     -12.130   9.463  69.253  1.00  0.00     1.212 A  
HETATM   10  C   UNL     1      -7.984  11.909  65.328  1.00  0.00     1.502 C  
HETATM   11  C   UNL     1     -11.921   8.098  69.430  1.00  0.00     1.464 A  
HETATM   12  C   UNL     1      -7.382  11.548  67.573  1.00  0.00    -0.112 C  
HETATM   13  C   UNL     1      -6.883   9.695  68.112  1.00  0.00    -0.069 C  
HETATM   14  N   UNL     1      -7.598   9.843  66.572  1.00  0.00    -0.102 NA 
HETATM   15  C   UNL     1     -10.658   7.544  69.180  1.00  0.00    -0.204 A  
HETATM   16  C   UNL     1      -8.521   9.286  65.533  1.00  0.00    -0.140 C  
HETATM   17  C   UNL     1      -6.236  11.417  65.513  1.00  0.00     0.717 C  
HETATM   18  C   UNL     1      -5.567  10.344  66.854  1.00  0.00    -0.047 C  
ENDROOT
BRANCH   9  19
HETATM   19  O   UNL     1     -13.324  10.125  69.341  1.00  0.00     0.806 OA 
HETATM   20  C   UNL     1     -13.737  10.872  68.206  1.00  0.00     9.362 C  
ENDBRANCH   9  19
TORSDOF 1
ENDMDL
MODEL      146
REMARK 921   NORMALIZED FREE ENERGY PREDICTED BY IDOCK:   14.97 KCAL/MOL
REMARK 922        TOTAL FREE ENERGY PREDICTED BY IDOCK:   15.78 KCAL/MOL
REMARK 923 INTER-LIGAND FREE ENERGY PREDICTED BY IDOCK:   15.85 KCAL/MOL
REMARK 924 INTRA-LIGAND FREE ENERGY PREDICTED BY IDOCK:   -0.08 KCAL/MOL
REMARK 927      BINDING AFFINITY PREDICTED BY RF-SCORE:    0.00 PKD
ROOT
HETATM    1  C   UNL     1      -9.463   8.783  66.740  1.00  0.00    -0.191 C  
HETATM    2  C   UNL     1      -8.152   9.161  67.480  1.00  0.00    -0.104 C  
HETATM    3  C   UNL     1      -7.751   8.389  68.715  1.00  0.00    -0.102 A  
HETATM    4  C   UNL     1      -8.676   7.572  69.359  1.00  0.00    -0.137 A  
HETATM    5  C   UNL     1      -8.252   6.687  70.357  1.00  0.00    -0.125 A  
HETATM    6  C   UNL     1     -10.048   7.498  68.798  1.00  0.00    -0.191 C  
HETATM    7  C   UNL     1     -10.394   5.697  68.236  1.00  0.00    -0.253 C  
HETATM    8  C   UNL     1     -11.201   7.675  69.610  1.00  0.00     0.009 C  
HETATM    9  C   UNL     1      -6.918   6.640  70.757  1.00  0.00    -0.067 A  
HETATM   10  C   UNL     1     -11.622   5.470  66.874  1.00  0.00     1.616 C  
HETATM   11  C   UNL     1      -6.018   7.550  70.207  1.00  0.00    -0.023 A  
HETATM   12  C   UNL     1     -11.662   7.421  68.187  1.00  0.00     1.370 C  
HETATM   13  C   UNL     1     -10.570   8.971  67.575  1.00  0.00    -0.306 C  
HETATM   14  N   UNL     1     -10.269   7.500  66.769  1.00  0.00    -0.269 NA 
HETATM   15  C   UNL     1      -6.436   8.426  69.197  1.00  0.00    -0.043 A  
HETATM   16  C   UNL     1      -9.282   6.565  66.142  1.00  0.00    -0.096 C  
HETATM   17  C   UNL     1     -12.388   6.882  66.006  1.00  0.00     7.403 C  
HETATM   18  C   UNL     1     -11.967   8.655  66.278  1.00  0.00     7.448 C  
ENDROOT
BRANCH   9  19
HETATM   19  O   UNL     1      -6.633   5.651  71.657  1.00  0.00    -0.049 OA 
HETATM   20  C   UNL     1      -6.967   4.321  71.286  1.00  0.00    -0.036 C  
ENDBRANCH   9  19
TORSDOF 1
ENDMDL
MODEL      147
REMARK 921   NORMALIZED FREE ENERGY PREDICTED BY IDOCK:   20.28 KCAL/MOL
REMARK 922        TOTAL FREE ENERGY PREDICTED BY IDOCK:   21.40 KCAL/MOL
REMARK 923 INTER-LIGAND FREE ENERGY PREDICTED BY IDOCK:   21.47 KCAL/MOL
REMARK 924 INTRA-LIGAND FREE ENERGY PREDICTED BY IDOCK:   -0.08 KCAL/MOL
REMARK 927      BINDING AFFINITY PREDICTED BY RF-SCORE:    0.00 PKD
ROOT
HETATM    1  C   UNL     1      -9.408  19.195  67.621  1.00  0.00    -0.303 C  
HETATM    2  C   UNL     1      -9.563  20.345  68.653  1.00  0.00     0.102 C  
HETATM    3  C   UNL     1      -9.873  20.009  70.092  1.00  0.00     0.605 A  
HETATM    4  C   UNL     1     -10.318  18.735  70.432  1.00  0.00     1.656 A  
HETATM    5  C   UNL     1     -10.387  18.353  71.778  1.00  0.00     3.941 A  
HETATM    6  C   UNL     1     -10.481  17.741  69.342  1.00  0.00     0.157 C  
HETATM    7  C   UNL     1      -9.278  16.280  69.647  1.00  0.00     0.159 C  
HETATM    8  C   UNL     1     -11.675  16.984  69.190  1.00  0.00     1.029 C  
HETATM    9  C   UNL     1     -10.060  19.246  72.795  1.00  0.00     3.849 A  
HETATM   10  C   UNL     1      -8.716  15.337  68.160  1.00  0.00    -0.162 C  
HETATM   11  C   UNL     1      -9.742  20.561  72.462  1.00  0.00     3.327 A  
HETATM   12  C   UNL     1     -10.714  16.576  68.088  1.00  0.00    -0.343 C  
HETATM   13  C   UNL     1     -10.604  18.478  67.503  1.00  0.00    -0.461 C  
HETATM   14  N   UNL     1      -9.111  17.725  67.830  1.00  0.00    -0.254 NA 
HETATM   15  C   UNL     1      -9.658  20.942  71.116  1.00  0.00     2.503 A  
HETATM   16  C   UNL     1      -7.725  17.823  68.389  1.00  0.00    -0.278 C  
HETATM   17  C   UNL     1      -9.171  15.832  66.463  1.00  0.00    -0.314 C  
HETATM   18  C   UNL     1     -10.117  17.348  66.013  1.00  0.00    -0.273 C  
ENDROOT
BRANCH   9  19
HETATM   19  O   UNL     1     -10.064  18.700  74.049  1.00  0.00     3.223 OA 
HETATM   20  C   UNL     1     -10.833  17.520  74.239  1.00  0.00     3.313 C  
ENDBRANCH   9  19
TORSDOF 1
ENDMDL
MODEL      148
REMARK 921   NORMALIZED FREE ENERGY PREDICTED BY IDOCK:   23.13 KCAL/MOL
REMARK 922        TOTAL FREE ENERGY PREDICTED BY IDOCK:   24.42 KCAL/MOL
REMARK 923 INTER-LIGAND FREE ENERGY PREDICTED BY IDOCK:   24.50 KCAL/MOL
REMARK 924 INTRA-LIGAND FREE ENERGY PREDICTED BY IDOCK:   -0.08 KCAL/MOL
REMARK 927      BINDING AFFINITY PREDICTED BY RF-SCORE:    0.00 PKD
ROOT
HETATM    1  C   UNL     1     -11.110  19.975  68.962  1.00  0.00     1.588 C  
HETATM    2  C   UNL     1     -10.561  20.750  70.190  1.00  0.00     1.316 C  
HETATM    3  C   UNL     1      -9.269  20.301  70.830  1.00  0.00     1.748 A  
HETATM    4  C   UNL     1      -8.741  19.048  70.534  1.00  0.00     2.665 A  
HETATM    5  C   UNL     1      -7.442  18.722  70.941  1.00  0.00     3.192 A  
HETATM    6  C   UNL     1      -9.490  18.183  69.589  1.00  0.00     0.651 C  
HETATM    7  C   UNL     1      -8.403  17.865  68.042  1.00  0.00    -0.258 C  
HETATM    8  C   UNL     1      -9.798  16.829  69.894  1.00  0.00     0.458 C  
HETATM    9  C   UNL     1      -6.676  19.617  71.684  1.00  0.00     0.875 A  
HETATM   10  C   UNL     1      -9.289  17.511  66.458  1.00  0.00    -0.281 C  
HETATM   11  C   UNL     1      -7.251  20.818  72.094  1.00  0.00     2.452 A  
HETATM   12  C   UNL     1     -10.360  17.142  68.520  1.00  0.00    -0.364 C  
HETATM   13  C   UNL     1     -11.398  18.650  69.307  1.00  0.00     2.953 C  
HETATM   14  N   UNL     1     -10.401  19.058  67.986  1.00  0.00    -0.394 NA 
HETATM   15  C   UNL     1      -8.546  21.154  71.675  1.00  0.00     3.787 A  
HETATM   16  C   UNL     1      -9.475  20.040  67.339  1.00  0.00    -0.382 C  
HETATM   17  C   UNL     1     -11.108  17.578  66.323  1.00  0.00     0.496 C  
HETATM   18  C   UNL     1     -12.257  18.105  67.663  1.00  0.00     3.636 C  
ENDROOT
BRANCH   9  19
HETATM   19  O   UNL     1      -5.391  19.208  71.911  1.00  0.00    -0.476 OA 
HETATM   20  C   UNL     1      -5.160  17.809  71.985  1.00  0.00     0.835 C  
ENDBRANCH   9  19
TORSDOF 1
ENDMDL
MODEL      149
REMARK 921   NORMALIZED FREE ENERGY PREDICTED BY IDOCK:   33.97 KCAL/MOL
REMARK 922        TOTAL FREE ENERGY PREDICTED BY IDOCK:   35.89 KCAL/MOL
REMARK 923 INTER-LIGAND FREE ENERGY PREDICTED BY IDOCK:   35.96 KCAL/MOL
REMARK 924 INTRA-LIGAND FREE ENERGY PREDICTED BY IDOCK:   -0.07 KCAL/MOL
REMARK 927      BINDING AFFINITY PREDICTED BY RF-SCORE:    0.00 PKD
ROOT
HETATM    1  C   UNL     1      -8.851  17.591  70.763  1.00  0.00     5.480 C  
HETATM    2  C   UNL     1      -7.653  17.808  69.799  1.00  0.00     0.877 C  
HETATM    3  C   UNL     1      -7.547  16.964  68.551  1.00  0.00    -0.221 A  
HETATM    4  C   UNL     1      -8.317  15.813  68.418  1.00  0.00    -0.164 A  
HETATM    5  C   UNL     1      -8.392  15.159  67.183  1.00  0.00    -0.247 A  
HETATM    6  C   UNL     1      -9.225  15.450  69.535  1.00  0.00    -0.240 C  
HETATM    7  C   UNL     1     -11.035  15.493  68.905  1.00  0.00    -0.266 C  
HETATM    8  C   UNL     1      -9.242  14.143  70.094  1.00  0.00     1.897 C  
HETATM    9  C   UNL     1      -7.666  15.615  66.084  1.00  0.00     1.016 A  
HETATM   10  C   UNL     1     -12.347  15.841  70.159  1.00  0.00    -0.309 C  
HETATM   11  C   UNL     1      -6.792  16.687  66.251  1.00  0.00     0.169 A  
HETATM   12  C   UNL     1     -10.263  14.987  70.836  1.00  0.00     0.648 C  
HETATM   13  C   UNL     1      -8.829  16.294  71.288  1.00  0.00     5.609 C  
HETATM   14  N   UNL     1     -10.201  16.949  70.518  1.00  0.00     0.968 NA 
HETATM   15  C   UNL     1      -6.727  17.353  67.483  1.00  0.00    -0.170 A  
HETATM   16  C   UNL     1     -10.772  17.924  69.536  1.00  0.00     0.709 C  
HETATM   17  C   UNL     1     -11.954  16.249  71.894  1.00  0.00    -0.513 C  
HETATM   18  C   UNL     1     -10.257  16.480  72.576  1.00  0.00     5.691 C  
ENDROOT
BRANCH   9  19
HETATM   19  O   UNL     1      -7.926  14.947  64.920  1.00  0.00     5.745 OA 
HETATM   20  C   UNL     1      -7.663  13.551  64.900  1.00  0.00     9.278 C  
ENDBRANCH   9  19
TORSDOF 1
ENDMDL
MODEL      150
REMARK 921   NORMALIZED FREE ENERGY PREDICTED BY IDOCK:   64.55 KCAL/MOL
REMARK 922        TOTAL FREE ENERGY PREDICTED BY IDOCK:   68.26 KCAL/MOL
REMARK 923 INTER-LIGAND FREE ENERGY PREDICTED BY IDOCK:   68.33 KCAL/MOL
REMARK 924 INTRA-LIGAND FREE ENERGY PREDICTED BY IDOCK:   -0.07 KCAL/MOL
REMARK 927      BINDING AFFINITY PREDICTED BY RF-SCORE:    0.00 PKD
ROOT
HETATM    1  C   UNL     1      -9.918  17.434  68.622  1.00  0.00    -0.340 C  
HETATM    2  C   UNL     1     -10.256  16.913  70.045  1.00  0.00     0.344 C  
HETATM    3  C   UNL     1      -9.165  16.844  71.086  1.00  0.00     5.943 A  
HETATM    4  C   UNL     1      -7.830  16.944  70.706  1.00  0.00     4.464 A  
HETATM    5  C   UNL     1      -6.836  17.110  71.679  1.00  0.00     5.211 A  
HETATM    6  C   UNL     1      -7.527  17.109  69.263  1.00  0.00    -0.061 C  
HETATM    7  C   UNL     1      -6.658  18.798  68.998  1.00  0.00    -0.306 C  
HETATM    8  C   UNL     1      -6.574  16.291  68.598  1.00  0.00    -0.135 C  
HETATM    9  C   UNL     1      -7.154  17.130  73.034  1.00  0.00    10.262 A  
HETATM   10  C   UNL     1      -6.857  19.587  67.339  1.00  0.00    -0.223 C  
HETATM   11  C   UNL     1      -8.472  16.897  73.422  1.00  0.00    19.002 A  
HETATM   12  C   UNL     1      -7.147  17.266  67.585  1.00  0.00    -0.179 C  
HETATM   13  C   UNL     1      -8.977  16.601  68.006  1.00  0.00    -0.211 C  
HETATM   14  N   UNL     1      -8.761  18.286  68.141  1.00  0.00    -0.274 NA 
HETATM   15  C   UNL     1      -9.471  16.746  72.450  1.00  0.00    10.692 A  
HETATM   16  C   UNL     1      -9.063  19.559  68.869  1.00  0.00    -0.285 C  
HETATM   17  C   UNL     1      -7.924  18.874  66.041  1.00  0.00    -0.186 C  
HETATM   18  C   UNL     1      -9.002  17.393  66.243  1.00  0.00    -0.239 C  
ENDROOT
BRANCH   9  19
HETATM   19  O   UNL     1      -6.099  17.412  73.857  1.00  0.00     4.708 OA 
HETATM   20  C   UNL     1      -5.565  18.727  73.798  1.00  0.00    10.146 C  
ENDBRANCH   9  19
TORSDOF 1
ENDMDL
