MODEL        1
REMARK 921   NORMALIZED FREE ENERGY PREDICTED BY IDOCK:   -7.52 KCAL/MOL
REMARK 922        TOTAL FREE ENERGY PREDICTED BY IDOCK:  -11.23 KCAL/MOL
REMARK 923 INTER-LIGAND FREE ENERGY PREDICTED BY IDOCK:  -10.60 KCAL/MOL
REMARK 924 INTRA-LIGAND FREE ENERGY PREDICTED BY IDOCK:   -0.64 KCAL/MOL
REMARK 927      BINDING AFFINITY PREDICTED BY RF-SCORE:    0.00 PKD
ROOT
HETATM    1  C   UNL     1     -10.770   9.424  66.954  1.00  0.00    -0.174 C  
HETATM    2  C   UNL     1     -10.720  10.926  67.099  1.00  0.00    -0.320 C  
HETATM    3  C   UNL     1     -11.769  11.986  66.885  1.00  0.00    -0.342 C  
HETATM    4  C   UNL     1     -10.753  13.240  66.614  1.00  0.00    -0.280 C  
HETATM    5  O   UNL     1     -12.059  14.859  67.890  1.00  0.00    -0.257 OA 
HETATM    6  C   UNL     1      -9.266  12.657  67.313  1.00  0.00    -0.195 C  
HETATM    7  C   UNL     1      -9.930  11.575  68.228  1.00  0.00    -0.202 C  
HETATM    8  C   UNL     1      -9.662  15.629  65.117  1.00  0.00     0.104 C  
HETATM    9  C   UNL     1      -7.993  12.966  68.211  1.00  0.00    -0.151 C  
HETATM   10  C   UNL     1      -6.948  14.047  68.098  1.00  0.00    -0.120 C  
HETATM   11  C   UNL     1     -11.221  14.673  67.006  1.00  0.00    -0.344 C  
HETATM   12  C   UNL     1      -7.574  19.014  69.029  1.00  0.00    -0.310 C  
HETATM   13  C   UNL     1     -10.590  15.872  66.276  1.00  0.00    -0.301 C  
HETATM   14  C   UNL     1     -10.015  19.527  68.917  1.00  0.00    -0.529 C  
HETATM   15  C   UNL     1      -8.909  18.646  68.405  1.00  0.00    -0.367 C  
HETATM   16  C   UNL     1      -7.297  15.295  68.852  1.00  0.00    -0.146 C  
HETATM   17  C   UNL     1      -5.702  13.930  67.602  1.00  0.00    -0.009 C  
HETATM   18  C   UNL     1     -10.649  17.070  66.923  1.00  0.00    -0.208 C  
HETATM   19  C   UNL     1      -9.399  17.889  67.132  1.00  0.00    -0.265 C  
HETATM   20  C   UNL     1      -7.686  16.315  67.830  1.00  0.00    -0.151 C  
HETATM   21  C   UNL     1      -8.837  17.149  68.295  1.00  0.00    -0.245 C  
ENDROOT
BRANCH   4  22
HETATM   22  O   UNL     1     -10.781  13.189  65.118  1.00  0.00    -0.295 OA 
BRANCH  22  23
HETATM   23  C   UNL     1     -12.029  12.971  64.559  1.00  0.00    -0.394 C  
HETATM   24  C   UNL     1     -12.032  11.827  63.592  1.00  0.00    -0.490 C  
HETATM   25  O   UNL     1     -13.057  13.574  64.843  1.00  0.00    -0.718 OA 
ENDBRANCH  22  23
ENDBRANCH   4  22
BRANCH   7  26
HETATM   26  O   UNL     1     -10.751  12.394  69.207  1.00  0.00    -0.103 OA 
BRANCH  26  27
HETATM   27  C   UNL     1     -11.557  11.826  70.155  1.00  0.00    -0.195 C  
HETATM   28  O   UNL     1     -11.478  10.657  70.508  1.00  0.00    -0.311 OA 
BRANCH  27  29
HETATM   29  C   UNL     1     -12.373  12.832  70.951  1.00  0.00    -0.356 A  
HETATM   30  C   UNL     1     -12.108  14.212  70.764  1.00  0.00    -0.419 A  
HETATM   31  C   UNL     1     -13.378  12.484  71.847  1.00  0.00    -0.467 A  
HETATM   32  C   UNL     1     -14.125  13.477  72.517  1.00  0.00    -0.463 A  
HETATM   33  C   UNL     1     -12.874  15.203  71.405  1.00  0.00    -0.457 A  
HETATM   34  C   UNL     1     -13.879  14.835  72.287  1.00  0.00    -0.590 A  
ENDBRANCH  27  29
ENDBRANCH  26  27
ENDBRANCH   7  26
BRANCH   9  35
HETATM   35  O   UNL     1      -7.211  11.725  68.505  1.00  0.00    -0.082 OA 
BRANCH  35  36
HETATM   36  C   UNL     1      -6.811  11.379  69.766  1.00  0.00    -0.025 C  
HETATM   37  O   UNL     1      -6.135  12.033  70.514  1.00  0.00    -0.243 OA 
HETATM   38  C   UNL     1      -7.418  10.056  70.169  1.00  0.00    -0.176 C  
ENDBRANCH  35  36
ENDBRANCH   9  35
TORSDOF 7
ENDMDL
MODEL        2
REMARK 921   NORMALIZED FREE ENERGY PREDICTED BY IDOCK:   -7.19 KCAL/MOL
REMARK 922        TOTAL FREE ENERGY PREDICTED BY IDOCK:  -10.77 KCAL/MOL
REMARK 923 INTER-LIGAND FREE ENERGY PREDICTED BY IDOCK:   -9.60 KCAL/MOL
REMARK 924 INTRA-LIGAND FREE ENERGY PREDICTED BY IDOCK:   -1.17 KCAL/MOL
REMARK 927      BINDING AFFINITY PREDICTED BY RF-SCORE:    0.00 PKD
ROOT
HETATM    1  C   UNL     1      -9.380  16.440  67.518  1.00  0.00    -0.214 C  
HETATM    2  C   UNL     1      -9.008  14.981  67.630  1.00  0.00    -0.180 C  
HETATM    3  C   UNL     1      -8.160  14.240  68.631  1.00  0.00    -0.140 C  
HETATM    4  C   UNL     1      -7.768  12.968  67.678  1.00  0.00    -0.161 C  
HETATM    5  O   UNL     1      -7.994  11.296  69.441  1.00  0.00     0.010 OA 
HETATM    6  C   UNL     1      -9.008  13.038  66.455  1.00  0.00    -0.076 C  
HETATM    7  C   UNL     1     -10.017  13.890  67.295  1.00  0.00    -0.242 C  
HETATM    8  C   UNL     1      -5.907  10.993  66.346  1.00  0.00    -0.140 C  
HETATM    9  C   UNL     1     -10.062  12.250  65.564  1.00  0.00    -0.256 C  
HETATM   10  C   UNL     1      -9.879  11.087  64.622  1.00  0.00    -0.338 C  
HETATM   11  C   UNL     1      -7.498  11.590  68.353  1.00  0.00    -0.109 C  
HETATM   12  C   UNL     1      -8.834   6.265  65.882  1.00  0.00    -0.148 C  
HETATM   13  C   UNL     1      -6.606  10.577  67.612  1.00  0.00    -0.065 C  
HETATM   14  C   UNL     1      -7.879   6.252  68.190  1.00  0.00    -0.104 C  
HETATM   15  C   UNL     1      -8.029   7.036  66.915  1.00  0.00    -0.115 C  
HETATM   16  C   UNL     1     -10.029   9.751  65.286  1.00  0.00    -0.251 C  
HETATM   17  C   UNL     1      -9.820  11.126  63.278  1.00  0.00    -0.415 C  
HETATM   18  C   UNL     1      -6.758   9.270  67.965  1.00  0.00    -0.060 C  
HETATM   19  C   UNL     1      -7.011   8.219  66.912  1.00  0.00    -0.070 C  
HETATM   20  C   UNL     1      -8.655   9.176  65.402  1.00  0.00    -0.192 C  
HETATM   21  C   UNL     1      -8.466   8.459  66.700  1.00  0.00    -0.113 C  
ENDROOT
BRANCH   4  22
HETATM   22  O   UNL     1      -6.437  13.475  67.221  1.00  0.00    -0.276 OA 
BRANCH  22  23
HETATM   23  C   UNL     1      -5.632  14.002  68.218  1.00  0.00    -0.112 C  
HETATM   24  C   UNL     1      -5.294  15.442  67.981  1.00  0.00    -0.137 C  
HETATM   25  O   UNL     1      -5.271  13.416  69.231  1.00  0.00    -0.074 OA 
ENDBRANCH  22  23
ENDBRANCH   4  22
BRANCH   7  26
HETATM   26  O   UNL     1     -10.386  12.971  68.445  1.00  0.00    -0.244 OA 
BRANCH  26  27
HETATM   27  C   UNL     1     -11.678  12.623  68.730  1.00  0.00    -0.323 C  
HETATM   28  O   UNL     1     -12.266  11.688  68.204  1.00  0.00    -0.537 OA 
BRANCH  27  29
HETATM   29  C   UNL     1     -12.240  13.309  69.965  1.00  0.00    -0.345 A  
HETATM   30  C   UNL     1     -12.256  14.725  70.000  1.00  0.00    -0.383 A  
HETATM   31  C   UNL     1     -12.756  12.630  71.065  1.00  0.00    -0.316 A  
HETATM   32  C   UNL     1     -13.304  13.337  72.158  1.00  0.00    -0.618 A  
HETATM   33  C   UNL     1     -12.832  15.430  71.073  1.00  0.00    -0.525 A  
HETATM   34  C   UNL     1     -13.351  14.735  72.156  1.00  0.00    -0.471 A  
ENDBRANCH  27  29
ENDBRANCH  26  27
ENDBRANCH   7  26
BRANCH   9  35
HETATM   35  O   UNL     1     -10.969  13.184  64.827  1.00  0.00    -0.305 OA 
BRANCH  35  36
HETATM   36  C   UNL     1     -12.332  13.117  64.911  1.00  0.00    -0.441 C  
HETATM   37  O   UNL     1     -13.038  12.237  64.498  1.00  0.00    -0.791 OA 
HETATM   38  C   UNL     1     -12.872  14.287  65.700  1.00  0.00    -0.321 C  
ENDBRANCH  35  36
ENDBRANCH   9  35
TORSDOF 7
ENDMDL
MODEL        3
REMARK 921   NORMALIZED FREE ENERGY PREDICTED BY IDOCK:   -7.00 KCAL/MOL
REMARK 922        TOTAL FREE ENERGY PREDICTED BY IDOCK:  -10.51 KCAL/MOL
REMARK 923 INTER-LIGAND FREE ENERGY PREDICTED BY IDOCK:   -8.98 KCAL/MOL
REMARK 924 INTRA-LIGAND FREE ENERGY PREDICTED BY IDOCK:   -1.52 KCAL/MOL
REMARK 927      BINDING AFFINITY PREDICTED BY RF-SCORE:    0.00 PKD
ROOT
HETATM    1  C   UNL     1     -11.904  14.813  66.051  1.00  0.00    -0.201 C  
HETATM    2  C   UNL     1     -11.140  13.609  66.547  1.00  0.00    -0.310 C  
HETATM    3  C   UNL     1      -9.960  12.869  65.973  1.00  0.00    -0.275 C  
HETATM    4  C   UNL     1     -10.223  11.437  66.722  1.00  0.00    -0.223 C  
HETATM    5  O   UNL     1      -7.870  11.011  67.209  1.00  0.00    -0.114 OA 
HETATM    6  C   UNL     1     -11.258  11.906  68.044  1.00  0.00    -0.317 C  
HETATM    7  C   UNL     1     -10.861  13.419  68.033  1.00  0.00    -0.247 C  
HETATM    8  C   UNL     1     -10.575   8.440  66.892  1.00  0.00    -0.285 C  
HETATM    9  C   UNL     1     -11.608  11.774  69.588  1.00  0.00    -0.323 C  
HETATM   10  C   UNL     1     -11.901  10.557  70.430  1.00  0.00    -0.431 C  
HETATM   11  C   UNL     1      -8.996  10.536  67.052  1.00  0.00    -0.140 C  
HETATM   12  C   UNL     1      -8.581   6.984  71.895  1.00  0.00    -0.122 C  
HETATM   13  C   UNL     1      -9.223   9.021  67.206  1.00  0.00    -0.159 C  
HETATM   14  C   UNL     1      -6.601   7.090  70.377  1.00  0.00    -0.051 C  
HETATM   15  C   UNL     1      -8.084   7.314  70.499  1.00  0.00    -0.109 C  
HETATM   16  C   UNL     1     -10.677   9.957  71.056  1.00  0.00    -0.241 C  
HETATM   17  C   UNL     1     -13.105  10.113  70.834  1.00  0.00    -0.412 C  
HETATM   18  C   UNL     1      -8.288   8.342  67.927  1.00  0.00    -0.131 C  
HETATM   19  C   UNL     1      -8.703   7.452  69.073  1.00  0.00    -0.133 C  
HETATM   20  C   UNL     1     -10.386   8.699  70.303  1.00  0.00    -0.217 C  
HETATM   21  C   UNL     1      -8.917   8.503  70.108  1.00  0.00    -0.148 C  
ENDROOT
BRANCH   4  22
HETATM   22  O   UNL     1     -10.943  10.762  65.597  1.00  0.00    -0.066 OA 
BRANCH  22  23
HETATM   23  C   UNL     1     -10.427  11.007  64.336  1.00  0.00    -0.354 C  
HETATM   24  C   UNL     1     -11.400  11.718  63.446  1.00  0.00    -0.437 C  
HETATM   25  O   UNL     1      -9.288  10.752  63.965  1.00  0.00    -0.217 OA 
ENDBRANCH  22  23
ENDBRANCH   4  22
BRANCH   7  26
HETATM   26  O   UNL     1      -9.394  13.404  68.421  1.00  0.00    -0.206 OA 
BRANCH  26  27
HETATM   27  C   UNL     1      -8.753  14.496  68.939  1.00  0.00    -0.105 C  
HETATM   28  O   UNL     1      -7.775  14.430  69.672  1.00  0.00     0.045 OA 
BRANCH  27  29
HETATM   29  C   UNL     1      -9.171  15.812  68.304  1.00  0.00    -0.188 A  
HETATM   30  C   UNL     1      -8.600  16.170  67.058  1.00  0.00    -0.233 A  
HETATM   31  C   UNL     1     -10.095  16.689  68.866  1.00  0.00    -0.274 A  
HETATM   32  C   UNL     1     -10.467  17.874  68.194  1.00  0.00    -0.380 A  
HETATM   33  C   UNL     1      -8.995  17.333  66.371  1.00  0.00    -0.282 A  
HETATM   34  C   UNL     1      -9.926  18.189  66.944  1.00  0.00    -0.345 A  
ENDBRANCH  27  29
ENDBRANCH  26  27
ENDBRANCH   7  26
BRANCH   9  35
HETATM   35  O   UNL     1     -12.643  12.770  70.006  1.00  0.00    -0.045 OA 
BRANCH  35  36
HETATM   36  C   UNL     1     -12.469  13.624  71.059  1.00  0.00    -0.377 C  
HETATM   37  O   UNL     1     -11.633  14.480  71.163  1.00  0.00    -0.272 OA 
HETATM   38  C   UNL     1     -13.556  13.422  72.090  1.00  0.00    -0.660 C  
ENDBRANCH  35  36
ENDBRANCH   9  35
TORSDOF 7
ENDMDL
MODEL        4
REMARK 921   NORMALIZED FREE ENERGY PREDICTED BY IDOCK:   -6.77 KCAL/MOL
REMARK 922        TOTAL FREE ENERGY PREDICTED BY IDOCK:  -10.17 KCAL/MOL
REMARK 923 INTER-LIGAND FREE ENERGY PREDICTED BY IDOCK:   -8.68 KCAL/MOL
REMARK 924 INTRA-LIGAND FREE ENERGY PREDICTED BY IDOCK:   -1.50 KCAL/MOL
REMARK 927      BINDING AFFINITY PREDICTED BY RF-SCORE:    0.00 PKD
ROOT
HETATM    1  C   UNL     1      -8.459   7.552  73.462  1.00  0.00    -0.212 C  
HETATM    2  C   UNL     1      -8.609   8.140  72.080  1.00  0.00    -0.226 C  
HETATM    3  C   UNL     1      -7.740   8.043  70.853  1.00  0.00    -0.084 C  
HETATM    4  C   UNL     1      -8.250   9.415  70.122  1.00  0.00    -0.168 C  
HETATM    5  O   UNL     1      -8.291   8.463  67.875  1.00  0.00    -0.128 OA 
HETATM    6  C   UNL     1      -9.776   9.701  70.915  1.00  0.00    -0.125 C  
HETATM    7  C   UNL     1      -9.977   8.232  71.415  1.00  0.00    -0.194 C  
HETATM    8  C   UNL     1      -7.929  12.088  68.747  1.00  0.00    -0.014 C  
HETATM    9  C   UNL     1     -11.306  10.107  70.778  1.00  0.00    -0.354 C  
HETATM   10  C   UNL     1     -11.949  11.325  70.166  1.00  0.00    -0.452 C  
HETATM   11  C   UNL     1      -8.223   9.481  68.566  1.00  0.00    -0.113 C  
HETATM   12  C   UNL     1     -12.230  12.473  65.213  1.00  0.00    -0.493 C  
HETATM   13  C   UNL     1      -8.136  10.864  67.895  1.00  0.00    -0.113 C  
HETATM   14  C   UNL     1     -10.474  11.167  64.010  1.00  0.00    -0.447 C  
HETATM   15  C   UNL     1     -10.856  11.831  65.304  1.00  0.00    -0.343 C  
HETATM   16  C   UNL     1     -12.265  11.165  68.709  1.00  0.00    -0.080 C  
HETATM   17  C   UNL     1     -12.445  12.398  70.811  1.00  0.00    -0.356 C  
HETATM   18  C   UNL     1      -8.573  10.938  66.607  1.00  0.00    -0.148 C  
HETATM   19  C   UNL     1      -9.589  11.977  66.203  1.00  0.00    -0.252 C  
HETATM   20  C   UNL     1     -11.263  11.985  67.963  1.00  0.00    -0.316 C  
HETATM   21  C   UNL     1     -10.816  11.302  66.711  1.00  0.00    -0.334 C  
ENDROOT
BRANCH   4  22
HETATM   22  O   UNL     1      -7.144  10.306  70.595  1.00  0.00    -0.322 OA 
BRANCH  22  23
HETATM   23  C   UNL     1      -5.875   9.756  70.529  1.00  0.00    -0.066 C  
HETATM   24  C   UNL     1      -5.197   9.720  71.864  1.00  0.00    -0.072 C  
HETATM   25  O   UNL     1      -5.352   9.276  69.531  1.00  0.00    -0.034 OA 
ENDBRANCH  22  23
ENDBRANCH   4  22
BRANCH   7  26
HETATM   26  O   UNL     1     -10.130   7.438  70.131  1.00  0.00    -0.194 OA 
BRANCH  26  27
HETATM   27  C   UNL     1     -10.850   6.278  70.058  1.00  0.00    -0.324 C  
HETATM   28  O   UNL     1     -11.406   5.881  69.043  1.00  0.00    -0.258 OA 
BRANCH  27  29
HETATM   29  C   UNL     1     -10.670   5.367  71.262  1.00  0.00    -0.249 A  
HETATM   30  C   UNL     1      -9.678   4.357  71.199  1.00  0.00    -0.256 A  
HETATM   31  C   UNL     1     -11.414   5.469  72.433  1.00  0.00    -0.266 A  
HETATM   32  C   UNL     1     -11.159   4.614  73.528  1.00  0.00    -0.412 A  
HETATM   33  C   UNL     1      -9.400   3.527  72.302  1.00  0.00    -0.171 A  
HETATM   34  C   UNL     1     -10.146   3.652  73.465  1.00  0.00    -0.194 A  
ENDBRANCH  27  29
ENDBRANCH  26  27
ENDBRANCH   7  26
BRANCH   9  35
HETATM   35  O   UNL     1     -12.048   9.901  72.061  1.00  0.00    -0.287 OA 
BRANCH  35  36
HETATM   36  C   UNL     1     -13.310   9.378  72.114  1.00  0.00    -0.468 C  
HETATM   37  O   UNL     1     -14.229   9.776  72.776  1.00  0.00    -0.113 OA 
HETATM   38  C   UNL     1     -13.452   8.239  71.130  1.00  0.00    -0.036 C  
ENDBRANCH  35  36
ENDBRANCH   9  35
TORSDOF 7
ENDMDL
MODEL        5
REMARK 921   NORMALIZED FREE ENERGY PREDICTED BY IDOCK:   -6.76 KCAL/MOL
REMARK 922        TOTAL FREE ENERGY PREDICTED BY IDOCK:  -10.16 KCAL/MOL
REMARK 923 INTER-LIGAND FREE ENERGY PREDICTED BY IDOCK:   -8.20 KCAL/MOL
REMARK 924 INTRA-LIGAND FREE ENERGY PREDICTED BY IDOCK:   -1.96 KCAL/MOL
REMARK 927      BINDING AFFINITY PREDICTED BY RF-SCORE:    0.00 PKD
ROOT
HETATM    1  C   UNL     1      -9.335   3.372  70.874  1.00  0.00    -0.219 C  
HETATM    2  C   UNL     1      -9.458   4.567  69.960  1.00  0.00    -0.247 C  
HETATM    3  C   UNL     1     -10.154   4.746  68.636  1.00  0.00    -0.114 C  
HETATM    4  C   UNL     1      -9.265   6.009  68.097  1.00  0.00    -0.116 C  
HETATM    5  O   UNL     1     -11.157   7.209  67.128  1.00  0.00    -0.326 OA 
HETATM    6  C   UNL     1      -8.578   6.625  69.576  1.00  0.00    -0.132 C  
HETATM    7  C   UNL     1      -9.632   5.970  70.529  1.00  0.00    -0.169 C  
HETATM    8  C   UNL     1      -7.564   7.537  66.119  1.00  0.00    -0.088 C  
HETATM    9  C   UNL     1      -8.222   7.892  70.466  1.00  0.00    -0.118 C  
HETATM   10  C   UNL     1      -7.407   9.120  70.148  1.00  0.00    -0.077 C  
HETATM   11  C   UNL     1      -9.937   7.032  67.133  1.00  0.00    -0.189 C  
HETATM   12  C   UNL     1      -8.705  12.924  67.021  1.00  0.00    -0.195 C  
HETATM   13  C   UNL     1      -9.035   7.850  66.191  1.00  0.00    -0.214 C  
HETATM   14  C   UNL     1     -10.493  12.096  65.486  1.00  0.00    -0.300 C  
HETATM   15  C   UNL     1      -9.285  11.720  66.300  1.00  0.00    -0.227 C  
HETATM   16  C   UNL     1      -8.219  10.241  69.571  1.00  0.00    -0.165 C  
HETATM   17  C   UNL     1      -6.138   9.377  70.515  1.00  0.00    -0.059 C  
HETATM   18  C   UNL     1      -9.556   9.017  65.721  1.00  0.00    -0.287 C  
HETATM   19  C   UNL     1      -8.786  10.308  65.859  1.00  0.00    -0.176 C  
HETATM   20  C   UNL     1      -7.886  10.304  68.115  1.00  0.00    -0.104 C  
HETATM   21  C   UNL     1      -9.094  10.602  67.287  1.00  0.00    -0.151 C  
ENDROOT
BRANCH   4  22
HETATM   22  O   UNL     1      -8.303   5.224  67.262  1.00  0.00    -0.107 OA 
BRANCH  22  23
HETATM   23  C   UNL     1      -8.874   4.240  66.472  1.00  0.00    -0.116 C  
HETATM   24  C   UNL     1      -8.233   2.901  66.671  1.00  0.00    -0.087 C  
HETATM   25  O   UNL     1      -9.839   4.386  65.732  1.00  0.00    -0.188 OA 
ENDBRANCH  22  23
ENDBRANCH   4  22
BRANCH   7  26
HETATM   26  O   UNL     1     -10.928   6.665  70.157  1.00  0.00    -0.257 OA 
BRANCH  26  27
HETATM   27  C   UNL     1     -11.861   7.041  71.084  1.00  0.00    -0.338 C  
HETATM   28  O   UNL     1     -12.284   6.304  71.965  1.00  0.00    -0.338 OA 
BRANCH  27  29
HETATM   29  C   UNL     1     -12.124   8.537  71.120  1.00  0.00    -0.283 A  
HETATM   30  C   UNL     1     -11.532   9.349  70.120  1.00  0.00    -0.175 A  
HETATM   31  C   UNL     1     -12.925   9.165  72.069  1.00  0.00    -0.496 A  
HETATM   32  C   UNL     1     -13.160  10.556  72.011  1.00  0.00    -0.511 A  
HETATM   33  C   UNL     1     -11.793  10.730  70.041  1.00  0.00    -0.424 A  
HETATM   34  C   UNL     1     -12.603  11.334  70.991  1.00  0.00    -0.495 A  
ENDBRANCH  27  29
ENDBRANCH  26  27
ENDBRANCH   7  26
BRANCH   9  35
HETATM   35  O   UNL     1      -7.771   7.495  71.836  1.00  0.00    -0.082 OA 
BRANCH  35  36
HETATM   36  C   UNL     1      -8.267   8.064  72.976  1.00  0.00    -0.179 C  
HETATM   37  O   UNL     1      -9.414   8.342  73.204  1.00  0.00    -0.257 OA 
HETATM   38  C   UNL     1      -7.172   8.232  74.003  1.00  0.00    -0.200 C  
ENDBRANCH  35  36
ENDBRANCH   9  35
TORSDOF 7
ENDMDL
MODEL        6
REMARK 921   NORMALIZED FREE ENERGY PREDICTED BY IDOCK:   -6.60 KCAL/MOL
REMARK 922        TOTAL FREE ENERGY PREDICTED BY IDOCK:   -9.94 KCAL/MOL
REMARK 923 INTER-LIGAND FREE ENERGY PREDICTED BY IDOCK:   -8.23 KCAL/MOL
REMARK 924 INTRA-LIGAND FREE ENERGY PREDICTED BY IDOCK:   -1.71 KCAL/MOL
REMARK 927      BINDING AFFINITY PREDICTED BY RF-SCORE:    0.00 PKD
ROOT
HETATM    1  C   UNL     1     -12.774  13.215  70.560  1.00  0.00    -0.140 C  
HETATM    2  C   UNL     1     -11.932  12.160  69.883  1.00  0.00    -0.380 C  
HETATM    3  C   UNL     1     -12.148  10.682  69.691  1.00  0.00    -0.312 C  
HETATM    4  C   UNL     1     -10.577  10.261  69.500  1.00  0.00    -0.245 C  
HETATM    5  O   UNL     1     -10.999   8.651  67.715  1.00  0.00    -0.079 OA 
HETATM    6  C   UNL     1      -9.846  11.783  69.071  1.00  0.00     0.079 C  
HETATM    7  C   UNL     1     -11.169  12.474  68.602  1.00  0.00    -0.278 C  
HETATM    8  C   UNL     1      -8.065   8.670  70.043  1.00  0.00    -0.112 C  
HETATM    9  C   UNL     1      -8.834  12.570  68.132  1.00  0.00    -0.191 C  
HETATM   10  C   UNL     1      -7.369  12.343  67.856  1.00  0.00    -0.112 C  
HETATM   11  C   UNL     1     -10.243   9.024  68.613  1.00  0.00    -0.205 C  
HETATM   12  C   UNL     1      -5.317   8.520  65.190  1.00  0.00    -0.035 C  
HETATM   13  C   UNL     1      -8.919   8.282  68.866  1.00  0.00    -0.144 C  
HETATM   14  C   UNL     1      -6.979   6.659  65.090  1.00  0.00    -0.051 C  
HETATM   15  C   UNL     1      -6.468   7.823  65.894  1.00  0.00    -0.042 C  
HETATM   16  C   UNL     1      -7.115  11.422  66.700  1.00  0.00    -0.103 C  
HETATM   17  C   UNL     1      -6.326  13.020  68.371  1.00  0.00    -0.082 C  
HETATM   18  C   UNL     1      -8.437   7.539  67.831  1.00  0.00    -0.122 C  
HETATM   19  C   UNL     1      -7.019   7.725  67.351  1.00  0.00    -0.078 C  
HETATM   20  C   UNL     1      -6.653  10.125  67.281  1.00  0.00    -0.069 C  
HETATM   21  C   UNL     1      -7.216   8.957  66.537  1.00  0.00    -0.085 C  
ENDROOT
BRANCH   4  22
HETATM   22  O   UNL     1     -10.319   9.841  70.913  1.00  0.00    -0.286 OA 
BRANCH  22  23
HETATM   23  C   UNL     1     -11.362   9.169  71.529  1.00  0.00    -0.368 C  
HETATM   24  C   UNL     1     -11.186   7.681  71.491  1.00  0.00    -0.277 C  
HETATM   25  O   UNL     1     -12.305   9.689  72.111  1.00  0.00    -0.332 OA 
ENDBRANCH  22  23
ENDBRANCH   4  22
BRANCH   7  26
HETATM   26  O   UNL     1     -11.581  11.664  67.387  1.00  0.00    -0.471 OA 
BRANCH  26  27
HETATM   27  C   UNL     1     -11.766  12.222  66.152  1.00  0.00    -0.376 C  
HETATM   28  O   UNL     1     -12.434  13.227  65.949  1.00  0.00    -0.426 OA 
BRANCH  27  29
HETATM   29  C   UNL     1     -10.842  11.665  65.081  1.00  0.00    -0.346 A  
HETATM   30  C   UNL     1     -10.208  10.420  65.320  1.00  0.00    -0.332 A  
HETATM   31  C   UNL     1     -10.585  12.297  63.868  1.00  0.00    -0.462 A  
HETATM   32  C   UNL     1      -9.749  11.696  62.902  1.00  0.00    -0.233 A  
HETATM   33  C   UNL     1      -9.402   9.804  64.345  1.00  0.00    -0.278 A  
HETATM   34  C   UNL     1      -9.167  10.446  63.137  1.00  0.00    -0.314 A  
ENDBRANCH  27  29
ENDBRANCH  26  27
ENDBRANCH   7  26
BRANCH   9  35
HETATM   35  O   UNL     1      -8.950  14.050  68.312  1.00  0.00    -0.180 OA 
BRANCH  35  36
HETATM   36  C   UNL     1      -9.429  14.882  67.339  1.00  0.00    -0.206 C  
HETATM   37  O   UNL     1      -9.339  14.729  66.150  1.00  0.00    -0.295 OA 
HETATM   38  C   UNL     1     -10.199  16.028  67.953  1.00  0.00    -0.258 C  
ENDBRANCH  35  36
ENDBRANCH   9  35
TORSDOF 7
ENDMDL
MODEL        7
REMARK 921   NORMALIZED FREE ENERGY PREDICTED BY IDOCK:   -6.57 KCAL/MOL
REMARK 922        TOTAL FREE ENERGY PREDICTED BY IDOCK:   -9.90 KCAL/MOL
REMARK 923 INTER-LIGAND FREE ENERGY PREDICTED BY IDOCK:   -7.68 KCAL/MOL
REMARK 924 INTRA-LIGAND FREE ENERGY PREDICTED BY IDOCK:   -2.21 KCAL/MOL
REMARK 927      BINDING AFFINITY PREDICTED BY RF-SCORE:    0.00 PKD
ROOT
HETATM    1  C   UNL     1     -11.670  12.661  69.165  1.00  0.00    -0.375 C  
HETATM    2  C   UNL     1     -11.428  11.211  69.513  1.00  0.00    -0.374 C  
HETATM    3  C   UNL     1     -12.380  10.094  69.852  1.00  0.00     0.005 C  
HETATM    4  C   UNL     1     -11.325   9.163  70.688  1.00  0.00    -0.273 C  
HETATM    5  O   UNL     1     -12.125   7.048  69.769  1.00  0.00     0.060 OA 
HETATM    6  C   UNL     1      -9.789   9.767  70.129  1.00  0.00    -0.306 C  
HETATM    7  C   UNL     1     -10.337  10.412  68.813  1.00  0.00    -0.196 C  
HETATM    8  C   UNL     1     -10.357   7.524  73.036  1.00  0.00    -0.376 C  
HETATM    9  C   UNL     1      -8.318   9.437  69.625  1.00  0.00    -0.147 C  
HETATM   10  C   UNL     1      -7.218   8.629  70.265  1.00  0.00    -0.049 C  
HETATM   11  C   UNL     1     -11.536   7.619  70.688  1.00  0.00    -0.258 C  
HETATM   12  C   UNL     1      -7.082   3.572  70.849  1.00  0.00    -0.033 C  
HETATM   13  C   UNL     1     -10.964   6.804  71.862  1.00  0.00    -0.270 C  
HETATM   14  C   UNL     1      -9.416   2.703  70.663  1.00  0.00    -0.206 C  
HETATM   15  C   UNL     1      -8.556   3.869  71.067  1.00  0.00    -0.109 C  
HETATM   16  C   UNL     1      -7.251   7.177  69.893  1.00  0.00    -0.079 C  
HETATM   17  C   UNL     1      -6.138   9.093  70.921  1.00  0.00    -0.054 C  
HETATM   18  C   UNL     1     -10.746   5.480  71.627  1.00  0.00    -0.296 C  
HETATM   19  C   UNL     1      -9.401   4.862  71.922  1.00  0.00    -0.180 C  
HETATM   20  C   UNL     1      -7.752   6.440  71.093  1.00  0.00    -0.098 C  
HETATM   21  C   UNL     1      -8.670   5.324  70.710  1.00  0.00    -0.140 C  
ENDROOT
BRANCH   4  22
HETATM   22  O   UNL     1     -11.700   9.633  72.058  1.00  0.00    -0.282 OA 
BRANCH  22  23
HETATM   23  C   UNL     1     -13.006  10.071  72.195  1.00  0.00    -0.366 C  
HETATM   24  C   UNL     1     -13.966   8.945  72.433  1.00  0.00    -0.516 C  
HETATM   25  O   UNL     1     -13.374  11.239  72.198  1.00  0.00    -0.457 OA 
ENDBRANCH  22  23
ENDBRANCH   4  22
BRANCH   7  26
HETATM   26  O   UNL     1     -10.820   9.220  68.007  1.00  0.00    -0.203 OA 
BRANCH  26  27
HETATM   27  C   UNL     1     -10.234   8.831  66.834  1.00  0.00    -0.287 C  
HETATM   28  O   UNL     1      -9.931   9.603  65.934  1.00  0.00    -0.285 OA 
BRANCH  27  29
HETATM   29  C   UNL     1      -9.723   7.400  66.847  1.00  0.00    -0.265 A  
HETATM   30  C   UNL     1      -8.421   7.146  66.349  1.00  0.00    -0.130 A  
HETATM   31  C   UNL     1     -10.451   6.318  67.332  1.00  0.00    -0.308 A  
HETATM   32  C   UNL     1      -9.891   5.022  67.354  1.00  0.00    -0.207 A  
HETATM   33  C   UNL     1      -7.849   5.861  66.401  1.00  0.00    -0.101 A  
HETATM   34  C   UNL     1      -8.588   4.797  66.898  1.00  0.00    -0.104 A  
ENDBRANCH  27  29
ENDBRANCH  26  27
ENDBRANCH   7  26
BRANCH   9  35
HETATM   35  O   UNL     1      -7.626  10.657  69.106  1.00  0.00    -0.109 OA 
BRANCH  35  36
HETATM   36  C   UNL     1      -7.135  10.748  67.833  1.00  0.00    -0.085 C  
HETATM   37  O   UNL     1      -6.553   9.892  67.222  1.00  0.00    -0.068 OA 
HETATM   38  C   UNL     1      -7.500  12.078  67.218  1.00  0.00    -0.158 C  
ENDBRANCH  35  36
ENDBRANCH   9  35
TORSDOF 7
ENDMDL
MODEL        8
REMARK 921   NORMALIZED FREE ENERGY PREDICTED BY IDOCK:   -6.49 KCAL/MOL
REMARK 922        TOTAL FREE ENERGY PREDICTED BY IDOCK:   -9.79 KCAL/MOL
REMARK 923 INTER-LIGAND FREE ENERGY PREDICTED BY IDOCK:   -8.74 KCAL/MOL
REMARK 924 INTRA-LIGAND FREE ENERGY PREDICTED BY IDOCK:   -1.05 KCAL/MOL
REMARK 927      BINDING AFFINITY PREDICTED BY RF-SCORE:    0.00 PKD
ROOT
HETATM    1  C   UNL     1      -8.397   7.281  73.233  1.00  0.00    -0.146 C  
HETATM    2  C   UNL     1      -8.567   7.929  71.880  1.00  0.00    -0.161 C  
HETATM    3  C   UNL     1      -7.724   7.874  70.633  1.00  0.00    -0.090 C  
HETATM    4  C   UNL     1      -8.230   9.282  69.971  1.00  0.00    -0.154 C  
HETATM    5  O   UNL     1      -8.328   8.428  67.687  1.00  0.00    -0.127 OA 
HETATM    6  C   UNL     1      -9.735   9.553  70.807  1.00  0.00    -0.289 C  
HETATM    7  C   UNL     1      -9.946   8.067  71.248  1.00  0.00    -0.174 C  
HETATM    8  C   UNL     1      -7.900  12.007  68.705  1.00  0.00    -0.091 C  
HETATM    9  C   UNL     1     -11.262   9.984  70.719  1.00  0.00    -0.352 C  
HETATM   10  C   UNL     1     -11.901  11.235  70.172  1.00  0.00    -0.449 C  
HETATM   11  C   UNL     1      -8.233   9.415  68.419  1.00  0.00    -0.117 C  
HETATM   12  C   UNL     1     -12.265  12.597  65.279  1.00  0.00    -0.532 C  
HETATM   13  C   UNL     1      -8.140  10.824  67.806  1.00  0.00    -0.111 C  
HETATM   14  C   UNL     1     -10.551  11.322  63.985  1.00  0.00    -0.450 C  
HETATM   15  C   UNL     1     -10.898  11.934  65.315  1.00  0.00    -0.347 C  
HETATM   16  C   UNL     1     -12.248  11.142  68.717  1.00  0.00    -0.080 C  
HETATM   17  C   UNL     1     -12.369  12.286  70.871  1.00  0.00    -0.363 C  
HETATM   18  C   UNL     1      -8.601  10.958  66.532  1.00  0.00    -0.156 C  
HETATM   19  C   UNL     1      -9.612  12.026  66.193  1.00  0.00    -0.252 C  
HETATM   20  C   UNL     1     -11.250  11.980  67.985  1.00  0.00    -0.316 C  
HETATM   21  C   UNL     1     -10.837  11.345  66.696  1.00  0.00    -0.339 C  
ENDROOT
BRANCH   4  22
HETATM   22  O   UNL     1      -7.103  10.138  70.458  1.00  0.00    -0.266 OA 
BRANCH  22  23
HETATM   23  C   UNL     1      -5.844   9.568  70.360  1.00  0.00    -0.048 C  
HETATM   24  C   UNL     1      -5.146   9.491  71.684  1.00  0.00    -0.060 C  
HETATM   25  O   UNL     1      -5.346   9.102  69.343  1.00  0.00    -0.035 OA 
ENDBRANCH  22  23
ENDBRANCH   4  22
BRANCH   7  26
HETATM   26  O   UNL     1     -10.135   7.331  69.935  1.00  0.00    -0.188 OA 
BRANCH  26  27
HETATM   27  C   UNL     1     -10.464   6.004  69.869  1.00  0.00    -0.249 C  
HETATM   28  O   UNL     1     -11.137   5.425  70.712  1.00  0.00    -0.134 OA 
BRANCH  27  29
HETATM   29  C   UNL     1     -10.174   5.365  68.521  1.00  0.00    -0.237 A  
HETATM   30  C   UNL     1      -9.407   4.174  68.492  1.00  0.00    -0.216 A  
HETATM   31  C   UNL     1     -10.626   5.872  67.306  1.00  0.00    -0.365 A  
HETATM   32  C   UNL     1     -10.353   5.197  66.096  1.00  0.00    -0.280 A  
HETATM   33  C   UNL     1      -9.164   3.482  67.291  1.00  0.00    -0.221 A  
HETATM   34  C   UNL     1      -9.633   3.998  66.091  1.00  0.00    -0.205 A  
ENDBRANCH  27  29
ENDBRANCH  26  27
ENDBRANCH   7  26
BRANCH   9  35
HETATM   35  O   UNL     1     -11.981   9.733  72.006  1.00  0.00    -0.297 OA 
BRANCH  35  36
HETATM   36  C   UNL     1     -13.250   9.227  72.063  1.00  0.00    -0.447 C  
HETATM   37  O   UNL     1     -14.231   9.782  72.478  1.00  0.00    -0.117 OA 
HETATM   38  C   UNL     1     -13.301   7.855  71.430  1.00  0.00    -0.281 C  
ENDBRANCH  35  36
ENDBRANCH   9  35
TORSDOF 7
ENDMDL
MODEL        9
REMARK 921   NORMALIZED FREE ENERGY PREDICTED BY IDOCK:   -6.49 KCAL/MOL
REMARK 922        TOTAL FREE ENERGY PREDICTED BY IDOCK:   -9.78 KCAL/MOL
REMARK 923 INTER-LIGAND FREE ENERGY PREDICTED BY IDOCK:   -7.56 KCAL/MOL
REMARK 924 INTRA-LIGAND FREE ENERGY PREDICTED BY IDOCK:   -2.22 KCAL/MOL
REMARK 927      BINDING AFFINITY PREDICTED BY RF-SCORE:    0.00 PKD
ROOT
HETATM    1  C   UNL     1     -11.668  12.533  68.984  1.00  0.00    -0.368 C  
HETATM    2  C   UNL     1     -11.437  11.104  69.415  1.00  0.00    -0.368 C  
HETATM    3  C   UNL     1     -12.399  10.004  69.781  1.00  0.00     0.196 C  
HETATM    4  C   UNL     1     -11.370   9.119  70.697  1.00  0.00    -0.273 C  
HETATM    5  O   UNL     1     -12.140   6.958  69.864  1.00  0.00    -0.109 OA 
HETATM    6  C   UNL     1      -9.817   9.697  70.156  1.00  0.00    -0.310 C  
HETATM    7  C   UNL     1     -10.323  10.271  68.792  1.00  0.00    -0.195 C  
HETATM    8  C   UNL     1     -10.477   7.607  73.157  1.00  0.00    -0.433 C  
HETATM    9  C   UNL     1      -8.331   9.344  69.718  1.00  0.00    -0.157 C  
HETATM   10  C   UNL     1      -7.251   8.572  70.433  1.00  0.00    -0.039 C  
HETATM   11  C   UNL     1     -11.581   7.577  70.771  1.00  0.00    -0.277 C  
HETATM   12  C   UNL     1      -7.133   3.553  71.283  1.00  0.00    -0.033 C  
HETATM   13  C   UNL     1     -11.046   6.826  72.003  1.00  0.00    -0.283 C  
HETATM   14  C   UNL     1      -9.459   2.670  71.069  1.00  0.00    -0.224 C  
HETATM   15  C   UNL     1      -8.613   3.858  71.438  1.00  0.00    -0.116 C  
HETATM   16  C   UNL     1      -7.272   7.103  70.136  1.00  0.00    -0.078 C  
HETATM   17  C   UNL     1      -6.193   9.072  71.097  1.00  0.00    -0.062 C  
HETATM   18  C   UNL     1     -10.821   5.492  71.844  1.00  0.00    -0.286 C  
HETATM   19  C   UNL     1      -9.485   4.893  72.214  1.00  0.00    -0.173 C  
HETATM   20  C   UNL     1      -7.811   6.428  71.356  1.00  0.00    -0.104 C  
HETATM   21  C   UNL     1      -8.716   5.293  71.003  1.00  0.00    -0.138 C  
ENDROOT
BRANCH   4  22
HETATM   22  O   UNL     1     -11.788   9.659  72.029  1.00  0.00    -0.308 OA 
BRANCH  22  23
HETATM   23  C   UNL     1     -13.116  10.042  72.119  1.00  0.00    -0.386 C  
HETATM   24  C   UNL     1     -14.034   8.878  72.340  1.00  0.00    -0.516 C  
HETATM   25  O   UNL     1     -13.534  11.193  72.098  1.00  0.00    -0.380 OA 
ENDBRANCH  22  23
ENDBRANCH   4  22
BRANCH   7  26
HETATM   26  O   UNL     1     -10.781   9.038  68.035  1.00  0.00    -0.208 OA 
BRANCH  26  27
HETATM   27  C   UNL     1     -10.157   8.590  66.903  1.00  0.00    -0.294 C  
HETATM   28  O   UNL     1      -9.881   9.302  65.947  1.00  0.00    -0.281 OA 
BRANCH  27  29
HETATM   29  C   UNL     1      -9.571   7.194  67.037  1.00  0.00    -0.204 A  
HETATM   30  C   UNL     1     -10.402   6.159  67.534  1.00  0.00    -0.259 A  
HETATM   31  C   UNL     1      -8.265   6.861  66.689  1.00  0.00    -0.115 A  
HETATM   32  C   UNL     1      -7.805   5.530  66.799  1.00  0.00    -0.101 A  
HETATM   33  C   UNL     1      -9.955   4.827  67.612  1.00  0.00    -0.178 A  
HETATM   34  C   UNL     1      -8.653   4.514  67.250  1.00  0.00    -0.104 A  
ENDBRANCH  27  29
ENDBRANCH  26  27
ENDBRANCH   7  26
BRANCH   9  35
HETATM   35  O   UNL     1      -7.624  10.537  69.157  1.00  0.00    -0.100 OA 
BRANCH  35  36
HETATM   36  C   UNL     1      -7.081  10.558  67.903  1.00  0.00    -0.083 C  
HETATM   37  O   UNL     1      -6.364   9.727  67.413  1.00  0.00    -0.066 OA 
HETATM   38  C   UNL     1      -7.580  11.757  67.130  1.00  0.00    -0.155 C  
ENDBRANCH  35  36
ENDBRANCH   9  35
TORSDOF 7
ENDMDL
MODEL       10
REMARK 921   NORMALIZED FREE ENERGY PREDICTED BY IDOCK:   -6.41 KCAL/MOL
REMARK 922        TOTAL FREE ENERGY PREDICTED BY IDOCK:   -9.67 KCAL/MOL
REMARK 923 INTER-LIGAND FREE ENERGY PREDICTED BY IDOCK:   -7.77 KCAL/MOL
REMARK 924 INTRA-LIGAND FREE ENERGY PREDICTED BY IDOCK:   -1.90 KCAL/MOL
REMARK 927      BINDING AFFINITY PREDICTED BY RF-SCORE:    0.00 PKD
ROOT
HETATM    1  C   UNL     1     -13.095  10.339  71.423  1.00  0.00    -0.512 C  
HETATM    2  C   UNL     1     -12.006  10.363  70.378  1.00  0.00    -0.409 C  
HETATM    3  C   UNL     1     -11.190  11.495  69.811  1.00  0.00    -0.237 C  
HETATM    4  C   UNL     1     -10.799  10.785  68.389  1.00  0.00    -0.232 C  
HETATM    5  O   UNL     1      -8.499  11.599  68.363  1.00  0.00    -0.151 OA 
HETATM    6  C   UNL     1     -11.065   9.099  68.743  1.00  0.00     0.100 C  
HETATM    7  C   UNL     1     -10.975   9.243  70.298  1.00  0.00    -0.247 C  
HETATM    8  C   UNL     1     -10.535  10.597  65.383  1.00  0.00    -0.254 C  
HETATM    9  C   UNL     1     -10.544   7.603  68.622  1.00  0.00    -0.130 C  
HETATM   10  C   UNL     1     -10.165   6.788  67.412  1.00  0.00    -0.254 C  
HETATM   11  C   UNL     1      -9.453  11.176  67.709  1.00  0.00    -0.168 C  
HETATM   12  C   UNL     1      -6.049   7.405  64.478  1.00  0.00    -0.038 C  
HETATM   13  C   UNL     1      -9.325  10.996  66.185  1.00  0.00    -0.214 C  
HETATM   14  C   UNL     1      -5.179   9.720  64.832  1.00  0.00    -0.053 C  
HETATM   15  C   UNL     1      -6.400   8.842  64.823  1.00  0.00    -0.066 C  
HETATM   16  C   UNL     1      -8.717   6.909  67.041  1.00  0.00    -0.119 C  
HETATM   17  C   UNL     1     -10.901   5.843  66.799  1.00  0.00    -0.347 C  
HETATM   18  C   UNL     1      -8.059  10.892  65.695  1.00  0.00    -0.060 C  
HETATM   19  C   UNL     1      -7.678   9.737  64.800  1.00  0.00    -0.128 C  
HETATM   20  C   UNL     1      -8.660   7.761  65.814  1.00  0.00    -0.162 C  
HETATM   21  C   UNL     1      -7.492   8.693  65.846  1.00  0.00    -0.085 C  
ENDROOT
BRANCH   4  22
HETATM   22  O   UNL     1     -11.879  11.409  67.561  1.00  0.00    -0.614 OA 
BRANCH  22  23
HETATM   23  C   UNL     1     -11.981  12.786  67.666  1.00  0.00    -0.273 C  
HETATM   24  C   UNL     1     -12.112  13.454  66.332  1.00  0.00    -0.464 C  
HETATM   25  O   UNL     1     -12.034  13.423  68.711  1.00  0.00    -0.335 OA 
ENDBRANCH  22  23
ENDBRANCH   4  22
BRANCH   7  26
HETATM   26  O   UNL     1      -9.537   9.667  70.533  1.00  0.00    -0.258 OA 
BRANCH  26  27
HETATM   27  C   UNL     1      -8.676   8.959  71.327  1.00  0.00    -0.215 C  
HETATM   28  O   UNL     1      -8.872   8.731  72.513  1.00  0.00    -0.402 OA 
BRANCH  27  29
HETATM   29  C   UNL     1      -7.590   8.228  70.555  1.00  0.00    -0.076 A  
HETATM   30  C   UNL     1      -6.860   8.947  69.576  1.00  0.00    -0.048 A  
HETATM   31  C   UNL     1      -7.255   6.893  70.759  1.00  0.00    -0.069 A  
HETATM   32  C   UNL     1      -6.201   6.293  70.035  1.00  0.00    -0.031 A  
HETATM   33  C   UNL     1      -5.788   8.360  68.878  1.00  0.00    -0.040 A  
HETATM   34  C   UNL     1      -5.463   7.031  69.103  1.00  0.00    -0.015 A  
ENDBRANCH  27  29
ENDBRANCH  26  27
ENDBRANCH   7  26
BRANCH   9  35
HETATM   35  O   UNL     1     -11.358   6.666  69.458  1.00  0.00    -0.323 OA 
BRANCH  35  36
HETATM   36  C   UNL     1     -10.803   5.807  70.364  1.00  0.00    -0.290 C  
HETATM   37  O   UNL     1     -10.026   4.919  70.136  1.00  0.00    -0.216 OA 
HETATM   38  C   UNL     1     -11.229   6.170  71.768  1.00  0.00    -0.338 C  
ENDBRANCH  35  36
ENDBRANCH   9  35
TORSDOF 7
ENDMDL
MODEL       11
REMARK 921   NORMALIZED FREE ENERGY PREDICTED BY IDOCK:   -6.40 KCAL/MOL
REMARK 922        TOTAL FREE ENERGY PREDICTED BY IDOCK:   -9.66 KCAL/MOL
REMARK 923 INTER-LIGAND FREE ENERGY PREDICTED BY IDOCK:   -9.01 KCAL/MOL
REMARK 924 INTRA-LIGAND FREE ENERGY PREDICTED BY IDOCK:   -0.65 KCAL/MOL
REMARK 927      BINDING AFFINITY PREDICTED BY RF-SCORE:    0.00 PKD
ROOT
HETATM    1  C   UNL     1     -10.734   9.065  67.063  1.00  0.00    -0.185 C  
HETATM    2  C   UNL     1     -10.685  10.568  67.198  1.00  0.00    -0.323 C  
HETATM    3  C   UNL     1     -11.742  11.624  66.998  1.00  0.00    -0.176 C  
HETATM    4  C   UNL     1     -10.734  12.879  66.701  1.00  0.00    -0.265 C  
HETATM    5  O   UNL     1     -12.021  14.502  67.992  1.00  0.00    -0.326 OA 
HETATM    6  C   UNL     1      -9.233  12.304  67.375  1.00  0.00    -0.182 C  
HETATM    7  C   UNL     1      -9.876  11.226  68.309  1.00  0.00    -0.197 C  
HETATM    8  C   UNL     1      -9.679  15.262  65.170  1.00  0.00    -0.036 C  
HETATM    9  C   UNL     1      -7.944  12.622  68.248  1.00  0.00    -0.153 C  
HETATM   10  C   UNL     1      -6.904  13.705  68.108  1.00  0.00    -0.121 C  
HETATM   11  C   UNL     1     -11.199  14.313  67.094  1.00  0.00    -0.322 C  
HETATM   12  C   UNL     1      -7.527  18.676  69.023  1.00  0.00    -0.243 C  
HETATM   13  C   UNL     1     -10.585  15.510  66.345  1.00  0.00    -0.312 C  
HETATM   14  C   UNL     1      -9.972  19.181  68.954  1.00  0.00    -0.481 C  
HETATM   15  C   UNL     1      -8.872  18.300  68.426  1.00  0.00    -0.321 C  
HETATM   16  C   UNL     1      -7.243  14.957  68.861  1.00  0.00    -0.128 C  
HETATM   17  C   UNL     1      -5.668  13.589  67.589  1.00  0.00    -0.054 C  
HETATM   18  C   UNL     1     -10.636  16.711  66.986  1.00  0.00    -0.247 C  
HETATM   19  C   UNL     1      -9.384  17.535  67.167  1.00  0.00    -0.250 C  
HETATM   20  C   UNL     1      -7.654  15.970  67.842  1.00  0.00    -0.144 C  
HETATM   21  C   UNL     1      -8.798  16.802  68.324  1.00  0.00    -0.228 C  
ENDROOT
BRANCH   4  22
HETATM   22  O   UNL     1     -10.791  12.819  65.207  1.00  0.00    -0.281 OA 
BRANCH  22  23
HETATM   23  C   UNL     1     -12.065  12.792  64.665  1.00  0.00    -0.423 C  
HETATM   24  C   UNL     1     -12.144  11.952  63.427  1.00  0.00    -0.539 C  
HETATM   25  O   UNL     1     -13.060  13.321  65.146  1.00  0.00    -0.705 OA 
ENDBRANCH  22  23
ENDBRANCH   4  22
BRANCH   7  26
HETATM   26  O   UNL     1     -10.681  12.048  69.299  1.00  0.00    -0.146 OA 
BRANCH  26  27
HETATM   27  C   UNL     1     -11.432  11.484  70.293  1.00  0.00    -0.099 C  
HETATM   28  O   UNL     1     -12.443  11.994  70.759  1.00  0.00    -0.348 OA 
BRANCH  27  29
HETATM   29  C   UNL     1     -11.081  10.034  70.581  1.00  0.00    -0.408 A  
HETATM   30  C   UNL     1     -12.128   9.080  70.606  1.00  0.00    -0.075 A  
HETATM   31  C   UNL     1      -9.786   9.578  70.811  1.00  0.00    -0.309 A  
HETATM   32  C   UNL     1      -9.531   8.206  71.028  1.00  0.00    -0.185 A  
HETATM   33  C   UNL     1     -11.871   7.708  70.788  1.00  0.00    -0.227 A  
HETATM   34  C   UNL     1     -10.572   7.272  71.005  1.00  0.00    -0.235 A  
ENDBRANCH  27  29
ENDBRANCH  26  27
ENDBRANCH   7  26
BRANCH   9  35
HETATM   35  O   UNL     1      -7.153  11.385  68.533  1.00  0.00    -0.073 OA 
BRANCH  35  36
HETATM   36  C   UNL     1      -6.572  11.138  69.746  1.00  0.00    -0.138 C  
HETATM   37  O   UNL     1      -6.414  11.921  70.644  1.00  0.00    -0.079 OA 
HETATM   38  C   UNL     1      -6.212   9.676  69.873  1.00  0.00    -0.048 C  
ENDBRANCH  35  36
ENDBRANCH   9  35
TORSDOF 7
ENDMDL
MODEL       12
REMARK 921   NORMALIZED FREE ENERGY PREDICTED BY IDOCK:   -6.17 KCAL/MOL
REMARK 922        TOTAL FREE ENERGY PREDICTED BY IDOCK:   -9.33 KCAL/MOL
REMARK 923 INTER-LIGAND FREE ENERGY PREDICTED BY IDOCK:   -8.03 KCAL/MOL
REMARK 924 INTRA-LIGAND FREE ENERGY PREDICTED BY IDOCK:   -1.29 KCAL/MOL
REMARK 927      BINDING AFFINITY PREDICTED BY RF-SCORE:    0.00 PKD
ROOT
HETATM    1  C   UNL     1     -12.994  15.549  70.895  1.00  0.00    -0.526 C  
HETATM    2  C   UNL     1     -12.400  14.388  70.135  1.00  0.00    -0.406 C  
HETATM    3  C   UNL     1     -12.981  13.059  69.725  1.00  0.00     0.871 C  
HETATM    4  C   UNL     1     -11.569  12.245  69.582  1.00  0.00    -0.278 C  
HETATM    5  O   UNL     1     -12.219  11.034  67.565  1.00  0.00    -0.080 OA 
HETATM    6  C   UNL     1     -10.418  13.544  69.418  1.00  0.00     0.219 C  
HETATM    7  C   UNL     1     -11.455  14.624  68.964  1.00  0.00    -0.291 C  
HETATM    8  C   UNL     1      -9.640   9.968  70.063  1.00  0.00    -0.205 C  
HETATM    9  C   UNL     1      -9.143  14.122  68.667  1.00  0.00    -0.138 C  
HETATM   10  C   UNL     1      -7.771  13.531  68.460  1.00  0.00    -0.125 C  
HETATM   11  C   UNL     1     -11.487  11.076  68.555  1.00  0.00    -0.309 C  
HETATM   12  C   UNL     1      -6.551   9.625  65.429  1.00  0.00    -0.082 C  
HETATM   13  C   UNL     1     -10.441   9.971  68.789  1.00  0.00    -0.229 C  
HETATM   14  C   UNL     1      -8.630   8.323  64.960  1.00  0.00    -0.102 C  
HETATM   15  C   UNL     1      -7.912   9.198  65.951  1.00  0.00    -0.106 C  
HETATM   16  C   UNL     1      -7.656  12.717  67.206  1.00  0.00    -0.121 C  
HETATM   17  C   UNL     1      -6.643  13.827  69.132  1.00  0.00    -0.112 C  
HETATM   18  C   UNL     1     -10.073   9.249  67.694  1.00  0.00    -0.266 C  
HETATM   19  C   UNL     1      -8.614   9.088  67.340  1.00  0.00    -0.115 C  
HETATM   20  C   UNL     1      -7.617  11.284  67.630  1.00  0.00    -0.106 C  
HETATM   21  C   UNL     1      -8.393  10.413  66.695  1.00  0.00    -0.127 C  
ENDROOT
BRANCH   4  22
HETATM   22  O   UNL     1     -11.577  11.608  70.936  1.00  0.00     0.122 OA 
BRANCH  22  23
HETATM   23  C   UNL     1     -12.832  11.332  71.450  1.00  0.00    -0.410 C  
HETATM   24  C   UNL     1     -13.272   9.929  71.165  1.00  0.00    -0.424 C  
HETATM   25  O   UNL     1     -13.513  12.093  72.127  1.00  0.00    -0.494 OA 
ENDBRANCH  22  23
ENDBRANCH   4  22
BRANCH   7  26
HETATM   26  O   UNL     1     -11.941  14.106  67.623  1.00  0.00    -0.377 OA 
BRANCH  26  27
HETATM   27  C   UNL     1     -11.535  14.640  66.431  1.00  0.00    -0.347 C  
HETATM   28  O   UNL     1     -11.029  15.748  66.315  1.00  0.00    -0.277 OA 
BRANCH  27  29
HETATM   29  C   UNL     1     -11.492  13.635  65.291  1.00  0.00    -0.320 A  
HETATM   30  C   UNL     1     -10.228  13.189  64.833  1.00  0.00    -0.306 A  
HETATM   31  C   UNL     1     -12.624  13.112  64.672  1.00  0.00    -0.384 A  
HETATM   32  C   UNL     1     -12.507  12.147  63.648  1.00  0.00    -0.658 A  
HETATM   33  C   UNL     1     -10.110  12.202  63.836  1.00  0.00    -0.387 A  
HETATM   34  C   UNL     1     -11.251  11.686  63.239  1.00  0.00    -0.305 A  
ENDBRANCH  27  29
ENDBRANCH  26  27
ENDBRANCH   7  26
BRANCH   9  35
HETATM   35  O   UNL     1      -8.879  15.545  69.044  1.00  0.00    -0.204 OA 
BRANCH  35  36
HETATM   36  C   UNL     1      -8.568  16.511  68.128  1.00  0.00    -0.193 C  
HETATM   37  O   UNL     1      -7.913  16.376  67.130  1.00  0.00    -0.155 OA 
HETATM   38  C   UNL     1      -9.249  17.813  68.481  1.00  0.00    -0.281 C  
ENDBRANCH  35  36
ENDBRANCH   9  35
TORSDOF 7
ENDMDL
MODEL       13
REMARK 921   NORMALIZED FREE ENERGY PREDICTED BY IDOCK:   -6.16 KCAL/MOL
REMARK 922        TOTAL FREE ENERGY PREDICTED BY IDOCK:   -9.33 KCAL/MOL
REMARK 923 INTER-LIGAND FREE ENERGY PREDICTED BY IDOCK:   -7.40 KCAL/MOL
REMARK 924 INTRA-LIGAND FREE ENERGY PREDICTED BY IDOCK:   -1.92 KCAL/MOL
REMARK 927      BINDING AFFINITY PREDICTED BY RF-SCORE:    0.00 PKD
ROOT
HETATM    1  C   UNL     1      -7.192   4.096  69.404  1.00  0.00    -0.050 C  
HETATM    2  C   UNL     1      -7.844   5.304  68.774  1.00  0.00    -0.083 C  
HETATM    3  C   UNL     1      -8.878   5.427  67.686  1.00  0.00    -0.105 C  
HETATM    4  C   UNL     1      -8.506   6.949  67.211  1.00  0.00    -0.121 C  
HETATM    5  O   UNL     1     -10.823   7.655  66.908  1.00  0.00    -0.328 OA 
HETATM    6  C   UNL     1      -7.642   7.558  68.596  1.00  0.00    -0.110 C  
HETATM    7  C   UNL     1      -8.214   6.518  69.616  1.00  0.00    -0.126 C  
HETATM    8  C   UNL     1      -7.814   9.126  65.232  1.00  0.00    -0.105 C  
HETATM    9  C   UNL     1      -7.401   8.760  69.608  1.00  0.00    -0.059 C  
HETATM   10  C   UNL     1      -7.033  10.200  69.355  1.00  0.00    -0.076 C  
HETATM   11  C   UNL     1      -9.640   7.840  66.619  1.00  0.00    -0.220 C  
HETATM   12  C   UNL     1     -10.008  13.806  67.335  1.00  0.00    -0.237 C  
HETATM   13  C   UNL     1      -9.246   8.989  65.673  1.00  0.00    -0.288 C  
HETATM   14  C   UNL     1     -11.861  12.682  66.093  1.00  0.00    -0.477 C  
HETATM   15  C   UNL     1     -10.430  12.579  66.545  1.00  0.00    -0.258 C  
HETATM   16  C   UNL     1      -8.222  11.098  69.182  1.00  0.00    -0.007 C  
HETATM   17  C   UNL     1      -5.820  10.768  69.483  1.00  0.00    -0.043 C  
HETATM   18  C   UNL     1     -10.148  10.002  65.549  1.00  0.00    -0.325 C  
HETATM   19  C   UNL     1      -9.721  11.435  65.755  1.00  0.00    -0.263 C  
HETATM   20  C   UNL     1      -8.301  11.426  67.726  1.00  0.00    -0.127 C  
HETATM   21  C   UNL     1      -9.716  11.456  67.245  1.00  0.00    -0.201 C  
ENDROOT
BRANCH   4  22
HETATM   22  O   UNL     1      -7.625   6.580  66.060  1.00  0.00    -0.083 OA 
BRANCH  22  23
HETATM   23  C   UNL     1      -8.016   5.454  65.355  1.00  0.00    -0.107 C  
HETATM   24  C   UNL     1      -6.922   4.435  65.251  1.00  0.00    -0.058 C  
HETATM   25  O   UNL     1      -9.136   5.240  64.909  1.00  0.00    -0.104 OA 
ENDBRANCH  22  23
ENDBRANCH   4  22
BRANCH   7  26
HETATM   26  O   UNL     1      -9.695   6.847  69.664  1.00  0.00    -0.156 OA 
BRANCH  26  27
HETATM   27  C   UNL     1     -10.383   6.998  70.837  1.00  0.00    -0.198 C  
HETATM   28  O   UNL     1     -10.175   6.331  71.842  1.00  0.00    -0.197 OA 
BRANCH  27  29
HETATM   29  C   UNL     1     -11.234   8.256  70.893  1.00  0.00    -0.292 A  
HETATM   30  C   UNL     1     -12.220   8.358  71.905  1.00  0.00    -0.395 A  
HETATM   31  C   UNL     1     -11.098   9.327  70.015  1.00  0.00    -0.228 A  
HETATM   32  C   UNL     1     -11.895  10.484  70.157  1.00  0.00    -0.404 A  
HETATM   33  C   UNL     1     -12.992   9.523  72.068  1.00  0.00    -0.514 A  
HETATM   34  C   UNL     1     -12.834  10.584  71.189  1.00  0.00    -0.513 A  
ENDBRANCH  27  29
ENDBRANCH  26  27
ENDBRANCH   7  26
BRANCH   9  35
HETATM   35  O   UNL     1      -6.529   8.351  70.752  1.00  0.00    -0.036 OA 
BRANCH  35  36
HETATM   36  C   UNL     1      -6.978   8.282  72.041  1.00  0.00    -0.087 C  
HETATM   37  O   UNL     1      -7.878   8.913  72.527  1.00  0.00    -0.369 OA 
HETATM   38  C   UNL     1      -6.238   7.207  72.803  1.00  0.00    -0.056 C  
ENDBRANCH  35  36
ENDBRANCH   9  35
TORSDOF 7
ENDMDL
MODEL       14
REMARK 921   NORMALIZED FREE ENERGY PREDICTED BY IDOCK:   -6.15 KCAL/MOL
REMARK 922        TOTAL FREE ENERGY PREDICTED BY IDOCK:   -9.31 KCAL/MOL
REMARK 923 INTER-LIGAND FREE ENERGY PREDICTED BY IDOCK:   -8.51 KCAL/MOL
REMARK 924 INTRA-LIGAND FREE ENERGY PREDICTED BY IDOCK:   -0.81 KCAL/MOL
REMARK 927      BINDING AFFINITY PREDICTED BY RF-SCORE:    0.00 PKD
ROOT
HETATM    1  C   UNL     1     -11.459  12.714  69.221  1.00  0.00    -0.354 C  
HETATM    2  C   UNL     1     -11.260  11.255  69.557  1.00  0.00    -0.337 C  
HETATM    3  C   UNL     1     -12.244  10.132  69.753  1.00  0.00     0.018 C  
HETATM    4  C   UNL     1     -11.293   9.176  70.681  1.00  0.00    -0.273 C  
HETATM    5  O   UNL     1     -11.981   7.089  69.621  1.00  0.00     0.057 OA 
HETATM    6  C   UNL     1      -9.703   9.790  70.320  1.00  0.00    -0.279 C  
HETATM    7  C   UNL     1     -10.094  10.471  68.967  1.00  0.00    -0.217 C  
HETATM    8  C   UNL     1     -10.604   7.474  73.083  1.00  0.00    -0.442 C  
HETATM    9  C   UNL     1      -8.184   9.469  69.982  1.00  0.00    -0.170 C  
HETATM   10  C   UNL     1      -7.164   8.641  70.724  1.00  0.00    -0.067 C  
HETATM   11  C   UNL     1     -11.503   7.634  70.617  1.00  0.00    -0.258 C  
HETATM   12  C   UNL     1      -7.097   3.571  71.186  1.00  0.00    -0.033 C  
HETATM   13  C   UNL     1     -11.071   6.787  71.827  1.00  0.00    -0.275 C  
HETATM   14  C   UNL     1      -9.394   2.713  70.709  1.00  0.00    -0.215 C  
HETATM   15  C   UNL     1      -8.586   3.866  71.240  1.00  0.00    -0.114 C  
HETATM   16  C   UNL     1      -7.154   7.199  70.312  1.00  0.00    -0.066 C  
HETATM   17  C   UNL     1      -6.168   9.085  71.512  1.00  0.00    -0.075 C  
HETATM   18  C   UNL     1     -10.827   5.469  71.585  1.00  0.00    -0.271 C  
HETATM   19  C   UNL     1      -9.526   4.839  72.017  1.00  0.00    -0.186 C  
HETATM   20  C   UNL     1      -7.791   6.433  71.426  1.00  0.00    -0.104 C  
HETATM   21  C   UNL     1      -8.659   5.331  70.910  1.00  0.00    -0.133 C  
ENDROOT
BRANCH   4  22
HETATM   22  O   UNL     1     -11.824   9.612  72.011  1.00  0.00    -0.308 OA 
BRANCH  22  23
HETATM   23  C   UNL     1     -13.133  10.064  72.004  1.00  0.00    -0.441 C  
HETATM   24  C   UNL     1     -14.125   8.950  72.146  1.00  0.00    -0.497 C  
HETATM   25  O   UNL     1     -13.487  11.236  71.960  1.00  0.00    -0.389 OA 
ENDBRANCH  22  23
ENDBRANCH   4  22
BRANCH   7  26
HETATM   26  O   UNL     1     -10.481   9.302  68.080  1.00  0.00    -0.207 OA 
BRANCH  26  27
HETATM   27  C   UNL     1      -9.831   9.010  66.912  1.00  0.00    -0.224 C  
HETATM   28  O   UNL     1      -9.311   7.929  66.671  1.00  0.00    -0.170 OA 
BRANCH  27  29
HETATM   29  C   UNL     1     -10.050  10.038  65.814  1.00  0.00    -0.320 A  
HETATM   30  C   UNL     1      -9.348   9.879  64.594  1.00  0.00    -0.338 A  
HETATM   31  C   UNL     1     -10.911  11.126  65.927  1.00  0.00    -0.223 A  
HETATM   32  C   UNL     1     -11.097  12.015  64.846  1.00  0.00    -0.368 A  
HETATM   33  C   UNL     1      -9.558  10.745  63.504  1.00  0.00    -0.359 A  
HETATM   34  C   UNL     1     -10.429  11.817  63.633  1.00  0.00    -0.490 A  
ENDBRANCH  27  29
ENDBRANCH  26  27
ENDBRANCH   7  26
BRANCH   9  35
HETATM   35  O   UNL     1      -7.436  10.700  69.578  1.00  0.00    -0.133 OA 
BRANCH  35  36
HETATM   36  C   UNL     1      -6.945  10.892  68.317  1.00  0.00    -0.069 C  
HETATM   37  O   UNL     1      -6.354  10.091  67.643  1.00  0.00    -0.058 OA 
HETATM   38  C   UNL     1      -7.326  12.261  67.803  1.00  0.00    -0.118 C  
ENDBRANCH  35  36
ENDBRANCH   9  35
TORSDOF 7
ENDMDL
MODEL       15
REMARK 921   NORMALIZED FREE ENERGY PREDICTED BY IDOCK:   -6.09 KCAL/MOL
REMARK 922        TOTAL FREE ENERGY PREDICTED BY IDOCK:   -9.21 KCAL/MOL
REMARK 923 INTER-LIGAND FREE ENERGY PREDICTED BY IDOCK:   -8.37 KCAL/MOL
REMARK 924 INTRA-LIGAND FREE ENERGY PREDICTED BY IDOCK:   -0.85 KCAL/MOL
REMARK 927      BINDING AFFINITY PREDICTED BY RF-SCORE:    0.00 PKD
ROOT
HETATM    1  C   UNL     1      -9.530   7.627  66.657  1.00  0.00    -0.255 C  
HETATM    2  C   UNL     1      -9.568   9.098  66.994  1.00  0.00    -0.223 C  
HETATM    3  C   UNL     1      -9.282   9.837  68.276  1.00  0.00    -0.130 C  
HETATM    4  C   UNL     1     -10.163  11.177  67.949  1.00  0.00    -0.180 C  
HETATM    5  O   UNL     1      -8.536  12.740  68.882  1.00  0.00     0.111 OA 
HETATM    6  C   UNL     1     -10.315  11.095  66.215  1.00  0.00    -0.299 C  
HETATM    7  C   UNL     1      -9.096  10.142  65.990  1.00  0.00    -0.154 C  
HETATM    8  C   UNL     1     -12.216  13.327  68.499  1.00  0.00    -0.104 C  
HETATM    9  C   UNL     1     -10.265  11.862  64.825  1.00  0.00    -0.276 C  
HETATM   10  C   UNL     1     -11.013  13.081  64.346  1.00  0.00    -0.400 C  
HETATM   11  C   UNL     1      -9.710  12.533  68.570  1.00  0.00    -0.129 C  
HETATM   12  C   UNL     1     -10.336  17.886  65.889  1.00  0.00    -0.259 C  
HETATM   13  C   UNL     1     -10.767  13.635  68.767  1.00  0.00    -0.265 C  
HETATM   14  C   UNL     1      -9.175  17.839  68.099  1.00  0.00    -0.277 C  
HETATM   15  C   UNL     1     -10.118  17.114  67.178  1.00  0.00    -0.295 C  
HETATM   16  C   UNL     1     -10.304  14.369  64.638  1.00  0.00    -0.215 C  
HETATM   17  C   UNL     1     -12.085  13.114  63.531  1.00  0.00    -0.585 C  
HETATM   18  C   UNL     1     -10.298  14.910  68.858  1.00  0.00    -0.244 C  
HETATM   19  C   UNL     1     -10.861  15.997  67.975  1.00  0.00    -0.335 C  
HETATM   20  C   UNL     1     -11.046  15.020  65.759  1.00  0.00    -0.346 C  
HETATM   21  C   UNL     1     -10.115  15.680  66.725  1.00  0.00    -0.277 C  
ENDROOT
BRANCH   4  22
HETATM   22  O   UNL     1     -11.402  10.776  68.687  1.00  0.00    -0.254 OA 
BRANCH  22  23
HETATM   23  C   UNL     1     -11.221  10.488  70.030  1.00  0.00    -0.315 C  
HETATM   24  C   UNL     1     -12.440  10.786  70.848  1.00  0.00    -0.500 C  
HETATM   25  O   UNL     1     -10.223   9.981  70.526  1.00  0.00    -0.251 OA 
ENDBRANCH  22  23
ENDBRANCH   4  22
BRANCH   7  26
HETATM   26  O   UNL     1      -7.907  10.976  66.429  1.00  0.00    -0.150 OA 
BRANCH  26  27
HETATM   27  C   UNL     1      -6.626  10.497  66.433  1.00  0.00    -0.106 C  
HETATM   28  O   UNL     1      -5.919  10.444  67.431  1.00  0.00    -0.052 OA 
BRANCH  27  29
HETATM   29  C   UNL     1      -6.240   9.764  65.158  1.00  0.00    -0.092 A  
HETATM   30  C   UNL     1      -6.237   8.347  65.170  1.00  0.00    -0.052 A  
HETATM   31  C   UNL     1      -5.900  10.400  63.968  1.00  0.00    -0.119 A  
HETATM   32  C   UNL     1      -5.596   9.651  62.810  1.00  0.00    -0.089 A  
HETATM   33  C   UNL     1      -5.969   7.600  64.008  1.00  0.00    -0.049 A  
HETATM   34  C   UNL     1      -5.642   8.253  62.829  1.00  0.00    -0.069 A  
ENDBRANCH  27  29
ENDBRANCH  26  27
ENDBRANCH   7  26
BRANCH   9  35
HETATM   35  O   UNL     1     -10.325  10.914  63.669  1.00  0.00    -0.355 OA 
BRANCH  35  36
HETATM   36  C   UNL     1      -9.317  10.792  62.755  1.00  0.00    -0.330 C  
HETATM   37  O   UNL     1      -8.588  11.664  62.363  1.00  0.00    -0.241 OA 
HETATM   38  C   UNL     1      -9.153   9.350  62.336  1.00  0.00    -0.207 C  
ENDBRANCH  35  36
ENDBRANCH   9  35
TORSDOF 7
ENDMDL
MODEL       16
REMARK 921   NORMALIZED FREE ENERGY PREDICTED BY IDOCK:   -6.07 KCAL/MOL
REMARK 922        TOTAL FREE ENERGY PREDICTED BY IDOCK:   -9.18 KCAL/MOL
REMARK 923 INTER-LIGAND FREE ENERGY PREDICTED BY IDOCK:   -8.40 KCAL/MOL
REMARK 924 INTRA-LIGAND FREE ENERGY PREDICTED BY IDOCK:   -0.79 KCAL/MOL
REMARK 927      BINDING AFFINITY PREDICTED BY RF-SCORE:    0.00 PKD
ROOT
HETATM    1  C   UNL     1     -10.540  17.174  66.242  1.00  0.00    -0.185 C  
HETATM    2  C   UNL     1      -9.757  16.136  67.009  1.00  0.00    -0.236 C  
HETATM    3  C   UNL     1      -8.671  16.268  68.045  1.00  0.00    -0.178 C  
HETATM    4  C   UNL     1      -7.990  14.796  67.828  1.00  0.00    -0.157 C  
HETATM    5  O   UNL     1      -7.614  14.377  70.203  1.00  0.00     0.286 OA 
HETATM    6  C   UNL     1      -9.272  13.918  67.037  1.00  0.00    -0.257 C  
HETATM    7  C   UNL     1     -10.428  14.862  67.506  1.00  0.00    -0.254 C  
HETATM    8  C   UNL     1      -5.726  12.850  67.351  1.00  0.00    -0.045 C  
HETATM    9  C   UNL     1     -10.107  12.571  66.926  1.00  0.00    -0.225 C  
HETATM   10  C   UNL     1      -9.657  11.149  66.705  1.00  0.00    -0.215 C  
HETATM   11  C   UNL     1      -7.292  14.114  69.043  1.00  0.00    -0.102 C  
HETATM   12  C   UNL     1      -7.190   8.175  70.022  1.00  0.00    -0.056 C  
HETATM   13  C   UNL     1      -6.195  13.071  68.764  1.00  0.00    -0.079 C  
HETATM   14  C   UNL     1      -6.129   9.640  71.744  1.00  0.00     0.144 C  
HETATM   15  C   UNL     1      -6.579   9.535  70.312  1.00  0.00    -0.077 C  
HETATM   16  C   UNL     1      -9.373  10.409  67.978  1.00  0.00    -0.145 C  
HETATM   17  C   UNL     1      -9.695  10.449  65.557  1.00  0.00    -0.307 C  
HETATM   18  C   UNL     1      -5.942  12.181  69.764  1.00  0.00    -0.137 C  
HETATM   19  C   UNL     1      -5.947  10.698  69.486  1.00  0.00    -0.048 C  
HETATM   20  C   UNL     1      -7.887  10.293  68.083  1.00  0.00    -0.104 C  
HETATM   21  C   UNL     1      -7.419  10.473  69.491  1.00  0.00    -0.146 C  
ENDROOT
BRANCH   4  22
HETATM   22  O   UNL     1      -6.892  15.227  66.907  1.00  0.00    -0.184 OA 
BRANCH  22  23
HETATM   23  C   UNL     1      -6.234  16.388  67.277  1.00  0.00    -0.177 C  
HETATM   24  C   UNL     1      -6.328  17.457  66.232  1.00  0.00    -0.253 C  
HETATM   25  O   UNL     1      -5.685  16.589  68.353  1.00  0.00    -0.115 OA 
ENDBRANCH  22  23
ENDBRANCH   4  22
BRANCH   7  26
HETATM   26  O   UNL     1     -10.445  14.682  69.013  1.00  0.00    -0.239 OA 
BRANCH  26  27
HETATM   27  C   UNL     1     -11.565  14.884  69.772  1.00  0.00    -0.303 C  
HETATM   28  O   UNL     1     -12.215  15.922  69.767  1.00  0.00    -0.308 OA 
BRANCH  27  29
HETATM   29  C   UNL     1     -12.111  13.618  70.411  1.00  0.00    -0.421 A  
HETATM   30  C   UNL     1     -11.749  12.369  69.848  1.00  0.00    -0.339 A  
HETATM   31  C   UNL     1     -12.941  13.606  71.528  1.00  0.00    -0.443 A  
HETATM   32  C   UNL     1     -13.374  12.387  72.094  1.00  0.00    -0.508 A  
HETATM   33  C   UNL     1     -12.151  11.153  70.431  1.00  0.00    -0.475 A  
HETATM   34  C   UNL     1     -12.969  11.163  71.551  1.00  0.00    -0.542 A  
ENDBRANCH  27  29
ENDBRANCH  26  27
ENDBRANCH   7  26
BRANCH   9  35
HETATM   35  O   UNL     1     -11.289  12.728  66.022  1.00  0.00    -0.295 OA 
BRANCH  35  36
HETATM   36  C   UNL     1     -11.173  12.983  64.684  1.00  0.00    -0.326 C  
HETATM   37  O   UNL     1     -10.281  13.573  64.136  1.00  0.00    -0.344 OA 
HETATM   38  C   UNL     1     -12.302  12.329  63.921  1.00  0.00    -0.606 C  
ENDBRANCH  35  36
ENDBRANCH   9  35
TORSDOF 7
ENDMDL
MODEL       17
REMARK 921   NORMALIZED FREE ENERGY PREDICTED BY IDOCK:   -6.00 KCAL/MOL
REMARK 922        TOTAL FREE ENERGY PREDICTED BY IDOCK:   -9.09 KCAL/MOL
REMARK 923 INTER-LIGAND FREE ENERGY PREDICTED BY IDOCK:   -7.64 KCAL/MOL
REMARK 924 INTRA-LIGAND FREE ENERGY PREDICTED BY IDOCK:   -1.46 KCAL/MOL
REMARK 927      BINDING AFFINITY PREDICTED BY RF-SCORE:    0.00 PKD
ROOT
HETATM    1  C   UNL     1     -10.549  15.383  67.140  1.00  0.00    -0.305 C  
HETATM    2  C   UNL     1      -9.699  14.170  67.433  1.00  0.00    -0.232 C  
HETATM    3  C   UNL     1      -8.639  13.921  68.474  1.00  0.00    -0.137 C  
HETATM    4  C   UNL     1      -7.845  12.726  67.688  1.00  0.00    -0.165 C  
HETATM    5  O   UNL     1      -7.467  11.367  69.680  1.00  0.00     0.038 OA 
HETATM    6  C   UNL     1      -9.045  12.185  66.546  1.00  0.00    -0.199 C  
HETATM    7  C   UNL     1     -10.277  12.765  67.317  1.00  0.00    -0.232 C  
HETATM    8  C   UNL     1      -5.433  11.314  66.535  1.00  0.00    -0.135 C  
HETATM    9  C   UNL     1      -9.774  10.961  65.842  1.00  0.00    -0.224 C  
HETATM   10  C   UNL     1      -9.213   9.798  65.063  1.00  0.00    -0.307 C  
HETATM   11  C   UNL     1      -7.112  11.641  68.532  1.00  0.00    -0.089 C  
HETATM   12  C   UNL     1      -6.567   5.865  66.924  1.00  0.00    -0.056 C  
HETATM   13  C   UNL     1      -5.934  10.887  67.888  1.00  0.00    -0.046 C  
HETATM   14  C   UNL     1      -5.643   6.529  69.147  1.00  0.00    -0.017 C  
HETATM   15  C   UNL     1      -6.065   7.011  67.786  1.00  0.00    -0.033 C  
HETATM   16  C   UNL     1      -8.890   8.609  65.917  1.00  0.00    -0.221 C  
HETATM   17  C   UNL     1      -9.184   9.648  63.726  1.00  0.00    -0.170 C  
HETATM   18  C   UNL     1      -5.626   9.676  68.430  1.00  0.00    -0.039 C  
HETATM   19  C   UNL     1      -5.514   8.452  67.554  1.00  0.00    -0.038 C  
HETATM   20  C   UNL     1      -7.400   8.555  66.028  1.00  0.00    -0.081 C  
HETATM   21  C   UNL     1      -6.965   8.152  67.400  1.00  0.00    -0.075 C  
ENDROOT
BRANCH   4  22
HETATM   22  O   UNL     1      -6.772  13.575  67.083  1.00  0.00    -0.165 OA 
BRANCH  22  23
HETATM   23  C   UNL     1      -6.224  14.525  67.929  1.00  0.00    -0.155 C  
HETATM   24  C   UNL     1      -6.404  15.921  67.416  1.00  0.00    -0.196 C  
HETATM   25  O   UNL     1      -5.704  14.303  69.016  1.00  0.00    -0.086 OA 
ENDBRANCH  22  23
ENDBRANCH   4  22
BRANCH   7  26
HETATM   26  O   UNL     1     -10.298  11.964  68.606  1.00  0.00    -0.214 OA 
BRANCH  26  27
HETATM   27  C   UNL     1     -11.320  11.117  68.936  1.00  0.00    -0.278 C  
HETATM   28  O   UNL     1     -12.408  11.109  68.375  1.00  0.00    -0.556 OA 
BRANCH  27  29
HETATM   29  C   UNL     1     -10.907   9.988  69.865  1.00  0.00    -0.328 A  
HETATM   30  C   UNL     1      -9.930   9.066  69.411  1.00  0.00    -0.191 A  
HETATM   31  C   UNL     1     -11.420   9.806  71.146  1.00  0.00    -0.472 A  
HETATM   32  C   UNL     1     -10.953   8.757  71.969  1.00  0.00    -0.438 A  
HETATM   33  C   UNL     1      -9.440   8.042  70.243  1.00  0.00    -0.167 A  
HETATM   34  C   UNL     1      -9.957   7.884  71.520  1.00  0.00    -0.214 A  
ENDBRANCH  27  29
ENDBRANCH  26  27
ENDBRANCH   7  26
BRANCH   9  35
HETATM   35  O   UNL     1     -10.953  11.410  65.038  1.00  0.00    -0.275 OA 
BRANCH  35  36
HETATM   36  C   UNL     1     -10.902  12.462  64.167  1.00  0.00    -0.372 C  
HETATM   37  O   UNL     1     -10.091  12.643  63.299  1.00  0.00    -0.300 OA 
HETATM   38  C   UNL     1     -12.090  13.375  64.369  1.00  0.00    -0.468 C  
ENDBRANCH  35  36
ENDBRANCH   9  35
TORSDOF 7
ENDMDL
MODEL       18
REMARK 921   NORMALIZED FREE ENERGY PREDICTED BY IDOCK:   -5.99 KCAL/MOL
REMARK 922        TOTAL FREE ENERGY PREDICTED BY IDOCK:   -9.08 KCAL/MOL
REMARK 923 INTER-LIGAND FREE ENERGY PREDICTED BY IDOCK:   -7.48 KCAL/MOL
REMARK 924 INTRA-LIGAND FREE ENERGY PREDICTED BY IDOCK:   -1.61 KCAL/MOL
REMARK 927      BINDING AFFINITY PREDICTED BY RF-SCORE:    0.00 PKD
ROOT
HETATM    1  C   UNL     1      -9.185  12.501  68.086  1.00  0.00    -0.209 C  
HETATM    2  C   UNL     1      -8.998  11.003  68.071  1.00  0.00    -0.145 C  
HETATM    3  C   UNL     1      -8.186  10.106  67.173  1.00  0.00    -0.121 C  
HETATM    4  C   UNL     1      -9.043   8.732  67.415  1.00  0.00    -0.133 C  
HETATM    5  O   UNL     1      -7.090   7.271  67.506  1.00  0.00    -0.079 OA 
HETATM    6  C   UNL     1      -9.872   9.081  68.907  1.00  0.00    -0.181 C  
HETATM    7  C   UNL     1      -8.900  10.215  69.372  1.00  0.00    -0.185 C  
HETATM    8  C   UNL     1     -10.580   6.262  66.591  1.00  0.00    -0.268 C  
HETATM    9  C   UNL     1     -10.329   8.571  70.341  1.00  0.00    -0.202 C  
HETATM   10  C   UNL     1     -11.131   7.360  70.745  1.00  0.00    -0.285 C  
HETATM   11  C   UNL     1      -8.302   7.366  67.304  1.00  0.00    -0.119 C  
HETATM   12  C   UNL     1      -9.614   2.501  70.598  1.00  0.00    -0.160 C  
HETATM   13  C   UNL     1      -9.127   6.114  66.957  1.00  0.00    -0.119 C  
HETATM   14  C   UNL     1      -7.679   2.335  69.027  1.00  0.00    -0.045 C  
HETATM   15  C   UNL     1      -8.951   3.069  69.355  1.00  0.00    -0.175 C  
HETATM   16  C   UNL     1     -10.288   6.149  71.013  1.00  0.00    -0.260 C  
HETATM   17  C   UNL     1     -12.433   7.317  71.085  1.00  0.00    -0.373 C  
HETATM   18  C   UNL     1      -8.584   4.917  67.314  1.00  0.00    -0.104 C  
HETATM   19  C   UNL     1      -9.384   3.926  68.125  1.00  0.00    -0.223 C  
HETATM   20  C   UNL     1     -10.487   5.225  69.856  1.00  0.00    -0.351 C  
HETATM   21  C   UNL     1      -9.213   4.545  69.469  1.00  0.00    -0.192 C  
ENDROOT
BRANCH   4  22
HETATM   22  O   UNL     1      -9.911   8.833  66.200  1.00  0.00    -0.275 OA 
BRANCH  22  23
HETATM   23  C   UNL     1      -9.251   9.161  65.028  1.00  0.00    -0.114 C  
HETATM   24  C   UNL     1      -9.789  10.408  64.397  1.00  0.00    -0.395 C  
HETATM   25  O   UNL     1      -8.286   8.569  64.559  1.00  0.00    -0.161 OA 
ENDBRANCH  22  23
ENDBRANCH   4  22
BRANCH   7  26
HETATM   26  O   UNL     1      -7.586   9.488  69.593  1.00  0.00    -0.082 OA 
BRANCH  26  27
HETATM   27  C   UNL     1      -6.918   9.512  70.787  1.00  0.00    -0.102 C  
HETATM   28  O   UNL     1      -6.462  10.528  71.295  1.00  0.00    -0.281 OA 
BRANCH  27  29
HETATM   29  C   UNL     1      -7.032   8.221  71.580  1.00  0.00    -0.079 A  
HETATM   30  C   UNL     1      -7.615   8.273  72.871  1.00  0.00    -0.161 A  
HETATM   31  C   UNL     1      -6.608   6.980  71.113  1.00  0.00    -0.045 A  
HETATM   32  C   UNL     1      -6.789   5.815  71.890  1.00  0.00    -0.068 A  
HETATM   33  C   UNL     1      -7.826   7.108  73.632  1.00  0.00    -0.123 A  
HETATM   34  C   UNL     1      -7.406   5.879  73.144  1.00  0.00    -0.094 A  
ENDBRANCH  27  29
ENDBRANCH  26  27
ENDBRANCH   7  26
BRANCH   9  35
HETATM   35  O   UNL     1     -10.897   9.682  71.167  1.00  0.00    -0.337 OA 
BRANCH  35  36
HETATM   36  C   UNL     1     -11.977  10.422  70.774  1.00  0.00    -0.363 C  
HETATM   37  O   UNL     1     -12.203  10.840  69.670  1.00  0.00    -0.318 OA 
HETATM   38  C   UNL     1     -12.948  10.591  71.920  1.00  0.00    -0.553 C  
ENDBRANCH  35  36
ENDBRANCH   9  35
TORSDOF 7
ENDMDL
MODEL       19
REMARK 921   NORMALIZED FREE ENERGY PREDICTED BY IDOCK:   -5.90 KCAL/MOL
REMARK 922        TOTAL FREE ENERGY PREDICTED BY IDOCK:   -8.95 KCAL/MOL
REMARK 923 INTER-LIGAND FREE ENERGY PREDICTED BY IDOCK:   -7.69 KCAL/MOL
REMARK 924 INTRA-LIGAND FREE ENERGY PREDICTED BY IDOCK:   -1.26 KCAL/MOL
REMARK 927      BINDING AFFINITY PREDICTED BY RF-SCORE:    0.00 PKD
ROOT
HETATM    1  C   UNL     1     -11.564  13.615  69.056  1.00  0.00    -0.356 C  
HETATM    2  C   UNL     1     -11.073  12.188  69.088  1.00  0.00    -0.263 C  
HETATM    3  C   UNL     1     -11.815  10.876  69.103  1.00  0.00    -0.389 C  
HETATM    4  C   UNL     1     -10.632   9.972  69.783  1.00  0.00    -0.267 C  
HETATM    5  O   UNL     1     -11.006   8.022  68.363  1.00  0.00     0.022 OA 
HETATM    6  C   UNL     1      -9.216  10.942  69.480  1.00  0.00     0.218 C  
HETATM    7  C   UNL     1      -9.835  11.770  68.306  1.00  0.00    -0.198 C  
HETATM    8  C   UNL     1      -9.449   8.024  71.770  1.00  0.00    -0.223 C  
HETATM    9  C   UNL     1      -7.696  10.993  69.020  1.00  0.00    -0.132 C  
HETATM   10  C   UNL     1      -6.486  10.260  69.539  1.00  0.00    -0.060 C  
HETATM   11  C   UNL     1     -10.558   8.457  69.425  1.00  0.00    -0.197 C  
HETATM   12  C   UNL     1      -5.447   5.304  68.992  1.00  0.00    -0.004 C  
HETATM   13  C   UNL     1      -9.881   7.503  70.426  1.00  0.00    -0.183 C  
HETATM   14  C   UNL     1      -7.578   4.116  68.455  1.00  0.00    -0.063 C  
HETATM   15  C   UNL     1      -6.956   5.286  69.167  1.00  0.00    -0.056 C  
HETATM   16  C   UNL     1      -6.243   8.949  68.852  1.00  0.00    -0.044 C  
HETATM   17  C   UNL     1      -5.528  10.737  70.355  1.00  0.00    -0.082 C  
HETATM   18  C   UNL     1      -9.419   6.326  69.918  1.00  0.00    -0.162 C  
HETATM   19  C   UNL     1      -7.993   5.896  70.161  1.00  0.00    -0.101 C  
HETATM   20  C   UNL     1      -6.635   7.880  69.820  1.00  0.00    -0.034 C  
HETATM   21  C   UNL     1      -7.324   6.744  69.135  1.00  0.00    -0.093 C  
ENDROOT
BRANCH   4  22
HETATM   22  O   UNL     1     -11.125  10.041  71.194  1.00  0.00    -0.333 OA 
BRANCH  22  23
HETATM   23  C   UNL     1     -12.502  10.024  71.339  1.00  0.00    -0.411 C  
HETATM   24  C   UNL     1     -13.035   8.645  71.580  1.00  0.00    -0.377 C  
HETATM   25  O   UNL     1     -13.235  11.005  71.347  1.00  0.00    -0.356 OA 
ENDBRANCH  22  23
ENDBRANCH   4  22
BRANCH   7  26
HETATM   26  O   UNL     1     -10.069  10.732  67.224  1.00  0.00    -0.184 OA 
BRANCH  26  27
HETATM   27  C   UNL     1     -10.185  11.055  65.900  1.00  0.00    -0.254 C  
HETATM   28  O   UNL     1     -10.026  10.256  64.986  1.00  0.00    -0.306 OA 
BRANCH  27  29
HETATM   29  C   UNL     1     -10.811  12.417  65.652  1.00  0.00    -0.312 A  
HETATM   30  C   UNL     1      -9.953  13.516  65.399  1.00  0.00    -0.220 A  
HETATM   31  C   UNL     1     -12.182  12.655  65.645  1.00  0.00    -0.474 A  
HETATM   32  C   UNL     1     -12.691  13.941  65.362  1.00  0.00    -0.525 A  
HETATM   33  C   UNL     1     -10.460  14.791  65.083  1.00  0.00    -0.443 A  
HETATM   34  C   UNL     1     -11.830  15.004  65.071  1.00  0.00    -0.244 A  
ENDBRANCH  27  29
ENDBRANCH  26  27
ENDBRANCH   7  26
BRANCH   9  35
HETATM   35  O   UNL     1      -7.224  12.400  68.834  1.00  0.00    -0.107 OA 
BRANCH  35  36
HETATM   36  C   UNL     1      -6.790  12.886  67.632  1.00  0.00    -0.149 C  
HETATM   37  O   UNL     1      -6.357  12.249  66.709  1.00  0.00    -0.143 OA 
HETATM   38  C   UNL     1      -7.008  14.379  67.554  1.00  0.00    -0.182 C  
ENDBRANCH  35  36
ENDBRANCH   9  35
TORSDOF 7
ENDMDL
MODEL       20
REMARK 921   NORMALIZED FREE ENERGY PREDICTED BY IDOCK:   -5.85 KCAL/MOL
REMARK 922        TOTAL FREE ENERGY PREDICTED BY IDOCK:   -8.89 KCAL/MOL
REMARK 923 INTER-LIGAND FREE ENERGY PREDICTED BY IDOCK:   -7.05 KCAL/MOL
REMARK 924 INTRA-LIGAND FREE ENERGY PREDICTED BY IDOCK:   -1.84 KCAL/MOL
REMARK 927      BINDING AFFINITY PREDICTED BY RF-SCORE:    0.00 PKD
ROOT
HETATM    1  C   UNL     1      -9.835  11.547  68.220  1.00  0.00    -0.203 C  
HETATM    2  C   UNL     1     -10.050  10.247  68.957  1.00  0.00    -0.225 C  
HETATM    3  C   UNL     1     -11.308   9.526  69.366  1.00  0.00     0.018 C  
HETATM    4  C   UNL     1     -10.667   8.662  70.600  1.00  0.00    -0.222 C  
HETATM    5  O   UNL     1     -11.895   6.615  70.093  1.00  0.00    -0.389 OA 
HETATM    6  C   UNL     1      -8.965   8.707  70.226  1.00  0.00    -0.162 C  
HETATM    7  C   UNL     1      -9.141   9.049  68.709  1.00  0.00    -0.137 C  
HETATM    8  C   UNL     1     -10.498   7.602  73.426  1.00  0.00    -0.361 C  
HETATM    9  C   UNL     1      -7.591   7.916  70.123  1.00  0.00    -0.083 C  
HETATM   10  C   UNL     1      -6.848   7.098  71.149  1.00  0.00    -0.060 C  
HETATM   11  C   UNL     1     -11.294   7.277  70.941  1.00  0.00    -0.280 C  
HETATM   12  C   UNL     1      -8.189   2.541  72.983  1.00  0.00    -0.069 C  
HETATM   13  C   UNL     1     -11.125   6.731  72.370  1.00  0.00    -0.292 C  
HETATM   14  C   UNL     1     -10.629   2.217  72.558  1.00  0.00    -0.135 C  
HETATM   15  C   UNL     1      -9.539   3.219  72.823  1.00  0.00    -0.173 C  
HETATM   16  C   UNL     1      -7.233   5.649  71.150  1.00  0.00    -0.076 C  
HETATM   17  C   UNL     1      -5.775   7.472  71.871  1.00  0.00    -0.036 C  
HETATM   18  C   UNL     1     -11.253   5.383  72.518  1.00  0.00    -0.305 C  
HETATM   19  C   UNL     1     -10.180   4.586  73.219  1.00  0.00    -0.223 C  
HETATM   20  C   UNL     1      -8.067   5.430  72.370  1.00  0.00    -0.107 C  
HETATM   21  C   UNL     1      -9.201   4.494  72.101  1.00  0.00    -0.165 C  
ENDROOT
BRANCH   4  22
HETATM   22  O   UNL     1     -11.069   9.584  71.708  1.00  0.00    -0.352 OA 
BRANCH  22  23
HETATM   23  C   UNL     1     -12.306  10.188  71.554  1.00  0.00    -0.408 C  
HETATM   24  C   UNL     1     -13.405   9.422  72.224  1.00  0.00    -0.539 C  
HETATM   25  O   UNL     1     -12.516  11.260  71.001  1.00  0.00    -0.382 OA 
ENDBRANCH  22  23
ENDBRANCH   4  22
BRANCH   7  26
HETATM   26  O   UNL     1      -9.828   7.819  68.145  1.00  0.00    -0.157 OA 
BRANCH  26  27
HETATM   27  C   UNL     1      -9.277   7.050  67.157  1.00  0.00    -0.137 C  
HETATM   28  O   UNL     1      -8.996   7.468  66.042  1.00  0.00    -0.167 OA 
BRANCH  27  29
HETATM   29  C   UNL     1      -8.769   5.701  67.640  1.00  0.00    -0.107 A  
HETATM   30  C   UNL     1      -9.663   4.860  68.348  1.00  0.00    -0.212 A  
HETATM   31  C   UNL     1      -7.478   5.231  67.420  1.00  0.00    -0.084 A  
HETATM   32  C   UNL     1      -7.092   3.946  67.861  1.00  0.00    -0.055 A  
HETATM   33  C   UNL     1      -9.290   3.566  68.757  1.00  0.00    -0.233 A  
HETATM   34  C   UNL     1      -8.001   3.112  68.519  1.00  0.00    -0.063 A  
ENDBRANCH  27  29
ENDBRANCH  26  27
ENDBRANCH   7  26
BRANCH   9  35
HETATM   35  O   UNL     1      -6.529   8.739  69.466  1.00  0.00    -0.042 OA 
BRANCH  35  36
HETATM   36  C   UNL     1      -6.356  10.070  69.720  1.00  0.00    -0.058 C  
HETATM   37  O   UNL     1      -6.408  10.613  70.791  1.00  0.00    -0.324 OA 
HETATM   38  C   UNL     1      -5.985  10.808  68.455  1.00  0.00    -0.043 C  
ENDBRANCH  35  36
ENDBRANCH   9  35
TORSDOF 7
ENDMDL
MODEL       21
REMARK 921   NORMALIZED FREE ENERGY PREDICTED BY IDOCK:   -5.79 KCAL/MOL
REMARK 922        TOTAL FREE ENERGY PREDICTED BY IDOCK:   -8.80 KCAL/MOL
REMARK 923 INTER-LIGAND FREE ENERGY PREDICTED BY IDOCK:   -7.96 KCAL/MOL
REMARK 924 INTRA-LIGAND FREE ENERGY PREDICTED BY IDOCK:   -0.84 KCAL/MOL
REMARK 927      BINDING AFFINITY PREDICTED BY RF-SCORE:    0.00 PKD
ROOT
HETATM    1  C   UNL     1     -12.367  14.481  65.970  1.00  0.00    -0.234 C  
HETATM    2  C   UNL     1     -11.428  13.386  66.415  1.00  0.00    -0.359 C  
HETATM    3  C   UNL     1     -10.192  12.809  65.776  1.00  0.00    -0.302 C  
HETATM    4  C   UNL     1     -10.227  11.353  66.521  1.00  0.00    -0.221 C  
HETATM    5  O   UNL     1      -7.816  11.237  66.886  1.00  0.00    -0.142 OA 
HETATM    6  C   UNL     1     -11.246  11.676  67.897  1.00  0.00    -0.334 C  
HETATM    7  C   UNL     1     -11.052  13.228  67.883  1.00  0.00    -0.262 C  
HETATM    8  C   UNL     1     -10.174   8.334  66.676  1.00  0.00    -0.333 C  
HETATM    9  C   UNL     1     -11.497  11.492  69.455  1.00  0.00    -0.311 C  
HETATM   10  C   UNL     1     -11.585  10.245  70.298  1.00  0.00    -0.396 C  
HETATM   11  C   UNL     1      -8.877  10.619  66.780  1.00  0.00    -0.139 C  
HETATM   12  C   UNL     1      -7.756   7.133  71.559  1.00  0.00    -0.089 C  
HETATM   13  C   UNL     1      -8.895   9.087  66.930  1.00  0.00    -0.129 C  
HETATM   14  C   UNL     1      -5.886   7.504  69.946  1.00  0.00    -0.024 C  
HETATM   15  C   UNL     1      -7.377   7.531  70.143  1.00  0.00    -0.077 C  
HETATM   16  C   UNL     1     -10.264   9.808  70.856  1.00  0.00    -0.195 C  
HETATM   17  C   UNL     1     -12.699   9.644  70.756  1.00  0.00    -0.195 C  
HETATM   18  C   UNL     1      -7.844   8.534  67.596  1.00  0.00    -0.103 C  
HETATM   19  C   UNL     1      -8.081   7.593  68.752  1.00  0.00    -0.127 C  
HETATM   20  C   UNL     1      -9.848   8.602  70.077  1.00  0.00    -0.185 C  
HETATM   21  C   UNL     1      -8.378   8.601  69.807  1.00  0.00    -0.123 C  
ENDROOT
BRANCH   4  22
HETATM   22  O   UNL     1     -10.908  10.593  65.426  1.00  0.00    -0.099 OA 
BRANCH  22  23
HETATM   23  C   UNL     1     -10.632  11.034  64.143  1.00  0.00    -0.342 C  
HETATM   24  C   UNL     1      -9.434  10.357  63.550  1.00  0.00    -0.356 C  
HETATM   25  O   UNL     1     -11.302  11.833  63.499  1.00  0.00    -0.418 OA 
ENDBRANCH  22  23
ENDBRANCH   4  22
BRANCH   7  26
HETATM   26  O   UNL     1      -9.578  13.405  68.198  1.00  0.00    -0.212 OA 
BRANCH  26  27
HETATM   27  C   UNL     1      -9.015  14.625  68.450  1.00  0.00    -0.180 C  
HETATM   28  O   UNL     1      -9.621  15.686  68.375  1.00  0.00    -0.195 OA 
BRANCH  27  29
HETATM   29  C   UNL     1      -7.649  14.547  69.112  1.00  0.00    -0.102 A  
HETATM   30  C   UNL     1      -6.990  15.757  69.441  1.00  0.00    -0.202 A  
HETATM   31  C   UNL     1      -7.005  13.354  69.429  1.00  0.00     0.067 A  
HETATM   32  C   UNL     1      -5.755  13.360  70.085  1.00  0.00    -0.136 A  
HETATM   33  C   UNL     1      -5.760  15.764  70.126  1.00  0.00    -0.159 A  
HETATM   34  C   UNL     1      -5.139  14.565  70.442  1.00  0.00    -0.101 A  
ENDBRANCH  27  29
ENDBRANCH  26  27
ENDBRANCH   7  26
BRANCH   9  35
HETATM   35  O   UNL     1     -12.632  12.342  69.935  1.00  0.00     0.028 OA 
BRANCH  35  36
HETATM   36  C   UNL     1     -12.502  13.253  70.946  1.00  0.00    -0.342 C  
HETATM   37  O   UNL     1     -11.808  14.234  70.948  1.00  0.00    -0.311 OA 
HETATM   38  C   UNL     1     -13.442  12.922  72.081  1.00  0.00    -0.619 C  
ENDBRANCH  35  36
ENDBRANCH   9  35
TORSDOF 7
ENDMDL
MODEL       22
REMARK 921   NORMALIZED FREE ENERGY PREDICTED BY IDOCK:   -5.66 KCAL/MOL
REMARK 922        TOTAL FREE ENERGY PREDICTED BY IDOCK:   -8.62 KCAL/MOL
REMARK 923 INTER-LIGAND FREE ENERGY PREDICTED BY IDOCK:   -7.43 KCAL/MOL
REMARK 924 INTRA-LIGAND FREE ENERGY PREDICTED BY IDOCK:   -1.19 KCAL/MOL
REMARK 927      BINDING AFFINITY PREDICTED BY RF-SCORE:    0.00 PKD
ROOT
HETATM    1  C   UNL     1      -7.833  13.999  67.582  1.00  0.00    -0.185 C  
HETATM    2  C   UNL     1      -7.978  12.540  67.944  1.00  0.00    -0.157 C  
HETATM    3  C   UNL     1      -8.031  11.842  69.278  1.00  0.00     0.389 C  
HETATM    4  C   UNL     1      -7.539  10.368  68.766  1.00  0.00    -0.097 C  
HETATM    5  O   UNL     1      -9.106   9.119  70.159  1.00  0.00    -0.172 OA 
HETATM    6  C   UNL     1      -7.858  10.455  67.055  1.00  0.00    -0.112 C  
HETATM    7  C   UNL     1      -8.893  11.624  67.141  1.00  0.00    -0.172 C  
HETATM    8  C   UNL     1      -5.850   7.861  68.800  1.00  0.00    -0.035 C  
HETATM    9  C   UNL     1      -8.431   9.739  65.757  1.00  0.00    -0.133 C  
HETATM   10  C   UNL     1      -8.083   8.412  65.131  1.00  0.00    -0.147 C  
HETATM   11  C   UNL     1      -8.046   9.109  69.531  1.00  0.00    -0.107 C  
HETATM   12  C   UNL     1      -9.188   3.788  66.956  1.00  0.00    -0.202 C  
HETATM   13  C   UNL     1      -7.199   7.825  69.466  1.00  0.00    -0.079 C  
HETATM   14  C   UNL     1      -9.665   4.007  69.398  1.00  0.00    -0.205 C  
HETATM   15  C   UNL     1      -8.895   4.562  68.230  1.00  0.00    -0.126 C  
HETATM   16  C   UNL     1      -8.911   7.274  65.648  1.00  0.00    -0.044 C  
HETATM   17  C   UNL     1      -7.304   8.195  64.055  1.00  0.00    -0.100 C  
HETATM   18  C   UNL     1      -7.854   6.658  69.724  1.00  0.00    -0.115 C  
HETATM   19  C   UNL     1      -7.768   5.503  68.756  1.00  0.00    -0.091 C  
HETATM   20  C   UNL     1      -8.022   6.472  66.544  1.00  0.00    -0.109 C  
HETATM   21  C   UNL     1      -8.756   5.979  67.749  1.00  0.00    -0.104 C  
ENDROOT
BRANCH   4  22
HETATM   22  O   UNL     1      -6.093  10.515  69.122  1.00  0.00    -0.040 OA 
BRANCH  22  23
HETATM   23  C   UNL     1      -5.845  10.972  70.405  1.00  0.00    -0.137 C  
HETATM   24  C   UNL     1      -5.236  12.341  70.418  1.00  0.00    -0.116 C  
HETATM   25  O   UNL     1      -6.136  10.390  71.443  1.00  0.00    -0.320 OA 
ENDBRANCH  22  23
ENDBRANCH   4  22
BRANCH   7  26
HETATM   26  O   UNL     1     -10.048  11.019  67.918  1.00  0.00    -0.172 OA 
BRANCH  26  27
HETATM   27  C   UNL     1     -11.301  11.569  67.933  1.00  0.00    -0.303 C  
HETATM   28  O   UNL     1     -12.030  11.634  66.952  1.00  0.00    -0.567 OA 
BRANCH  27  29
HETATM   29  C   UNL     1     -11.837  11.837  69.329  1.00  0.00    -0.389 A  
HETATM   30  C   UNL     1     -11.988  13.183  69.746  1.00  0.00    -0.382 A  
HETATM   31  C   UNL     1     -12.204  10.839  70.227  1.00  0.00    -0.431 A  
HETATM   32  C   UNL     1     -12.738  11.166  71.493  1.00  0.00    -0.499 A  
HETATM   33  C   UNL     1     -12.551  13.511  70.993  1.00  0.00    -0.438 A  
HETATM   34  C   UNL     1     -12.921  12.501  71.869  1.00  0.00    -0.406 A  
ENDBRANCH  27  29
ENDBRANCH  26  27
ENDBRANCH   7  26
BRANCH   9  35
HETATM   35  O   UNL     1      -8.517  10.682  64.599  1.00  0.00    -0.163 OA 
BRANCH  35  36
HETATM   36  C   UNL     1      -9.630  10.796  63.814  1.00  0.00    -0.295 C  
HETATM   37  O   UNL     1     -10.768  10.895  64.186  1.00  0.00    -0.362 OA 
HETATM   38  C   UNL     1      -9.244  10.877  62.356  1.00  0.00    -0.304 C  
ENDBRANCH  35  36
ENDBRANCH   9  35
TORSDOF 7
ENDMDL
MODEL       23
REMARK 921   NORMALIZED FREE ENERGY PREDICTED BY IDOCK:   -5.65 KCAL/MOL
REMARK 922        TOTAL FREE ENERGY PREDICTED BY IDOCK:   -8.60 KCAL/MOL
REMARK 923 INTER-LIGAND FREE ENERGY PREDICTED BY IDOCK:   -7.63 KCAL/MOL
REMARK 924 INTRA-LIGAND FREE ENERGY PREDICTED BY IDOCK:   -0.97 KCAL/MOL
REMARK 927      BINDING AFFINITY PREDICTED BY RF-SCORE:    0.00 PKD
ROOT
HETATM    1  C   UNL     1     -11.083  12.133  69.236  1.00  0.00    -0.229 C  
HETATM    2  C   UNL     1     -10.967  10.692  69.671  1.00  0.00    -0.331 C  
HETATM    3  C   UNL     1     -12.008   9.620  69.865  1.00  0.00     0.147 C  
HETATM    4  C   UNL     1     -11.161   8.690  70.913  1.00  0.00    -0.267 C  
HETATM    5  O   UNL     1     -11.861   6.567  69.933  1.00  0.00    -0.381 OA 
HETATM    6  C   UNL     1      -9.526   9.221  70.628  1.00  0.00    -0.333 C  
HETATM    7  C   UNL     1      -9.797   9.830  69.212  1.00  0.00    -0.199 C  
HETATM    8  C   UNL     1     -10.707   7.116  73.454  1.00  0.00    -0.410 C  
HETATM    9  C   UNL     1      -8.003   8.824  70.416  1.00  0.00    -0.112 C  
HETATM   10  C   UNL     1      -7.071   8.007  71.275  1.00  0.00    -0.057 C  
HETATM   11  C   UNL     1     -11.429   7.155  70.926  1.00  0.00    -0.297 C  
HETATM   12  C   UNL     1      -7.243   2.976  72.044  1.00  0.00    -0.043 C  
HETATM   13  C   UNL     1     -11.115   6.370  72.212  1.00  0.00    -0.302 C  
HETATM   14  C   UNL     1      -9.535   2.176  71.458  1.00  0.00    -0.202 C  
HETATM   15  C   UNL     1      -8.719   3.328  71.975  1.00  0.00    -0.114 C  
HETATM   16  C   UNL     1      -7.091   6.543  70.953  1.00  0.00    -0.069 C  
HETATM   17  C   UNL     1      -6.112   8.462  72.104  1.00  0.00    -0.063 C  
HETATM   18  C   UNL     1     -10.910   5.031  72.066  1.00  0.00    -0.150 C  
HETATM   19  C   UNL     1      -9.668   4.383  72.626  1.00  0.00    -0.197 C  
HETATM   20  C   UNL     1      -7.833   5.871  72.063  1.00  0.00    -0.106 C  
HETATM   21  C   UNL     1      -8.709   4.772  71.554  1.00  0.00    -0.135 C  
ENDROOT
BRANCH   4  22
HETATM   22  O   UNL     1     -11.763   9.226  72.174  1.00  0.00    -0.319 OA 
BRANCH  22  23
HETATM   23  C   UNL     1     -13.124   9.474  72.119  1.00  0.00    -0.436 C  
HETATM   24  C   UNL     1     -13.438  10.938  72.063  1.00  0.00    -0.287 C  
HETATM   25  O   UNL     1     -14.005   8.626  72.051  1.00  0.00    -0.401 OA 
ENDBRANCH  22  23
ENDBRANCH   4  22
BRANCH   7  26
HETATM   26  O   UNL     1     -10.171   8.623  68.372  1.00  0.00    -0.190 OA 
BRANCH  26  27
HETATM   27  C   UNL     1      -9.315   8.054  67.469  1.00  0.00    -0.147 C  
HETATM   28  O   UNL     1      -8.783   6.963  67.625  1.00  0.00    -0.121 OA 
BRANCH  27  29
HETATM   29  C   UNL     1      -9.295   8.751  66.118  1.00  0.00    -0.297 A  
HETATM   30  C   UNL     1     -10.216   9.804  65.890  1.00  0.00    -0.245 A  
HETATM   31  C   UNL     1      -8.417   8.428  65.089  1.00  0.00    -0.179 A  
HETATM   32  C   UNL     1      -8.428   9.152  63.876  1.00  0.00    -0.189 A  
HETATM   33  C   UNL     1     -10.205  10.548  64.696  1.00  0.00    -0.364 A  
HETATM   34  C   UNL     1      -9.314  10.217  63.685  1.00  0.00    -0.336 A  
ENDBRANCH  27  29
ENDBRANCH  26  27
ENDBRANCH   7  26
BRANCH   9  35
HETATM   35  O   UNL     1      -7.179   9.999  69.993  1.00  0.00    -0.123 OA 
BRANCH  35  36
HETATM   36  C   UNL     1      -6.505  10.045  68.805  1.00  0.00    -0.045 C  
HETATM   37  O   UNL     1      -5.939   9.135  68.261  1.00  0.00    -0.044 OA 
HETATM   38  C   UNL     1      -6.633  11.413  68.176  1.00  0.00    -0.057 C  
ENDBRANCH  35  36
ENDBRANCH   9  35
TORSDOF 7
ENDMDL
MODEL       24
REMARK 921   NORMALIZED FREE ENERGY PREDICTED BY IDOCK:   -5.59 KCAL/MOL
REMARK 922        TOTAL FREE ENERGY PREDICTED BY IDOCK:   -8.52 KCAL/MOL
REMARK 923 INTER-LIGAND FREE ENERGY PREDICTED BY IDOCK:   -7.68 KCAL/MOL
REMARK 924 INTRA-LIGAND FREE ENERGY PREDICTED BY IDOCK:   -0.84 KCAL/MOL
REMARK 927      BINDING AFFINITY PREDICTED BY RF-SCORE:    0.00 PKD
ROOT
HETATM    1  C   UNL     1     -10.568  13.981  64.954  1.00  0.00    -0.442 C  
HETATM    2  C   UNL     1     -10.102  12.802  65.776  1.00  0.00    -0.296 C  
HETATM    3  C   UNL     1      -8.981  11.818  65.564  1.00  0.00     0.100 C  
HETATM    4  C   UNL     1      -9.593  10.602  66.473  1.00  0.00    -0.180 C  
HETATM    5  O   UNL     1      -7.452   9.969  67.459  1.00  0.00    -0.090 OA 
HETATM    6  C   UNL     1     -10.739  11.444  67.480  1.00  0.00    -0.266 C  
HETATM    7  C   UNL     1     -10.103  12.862  67.298  1.00  0.00    -0.231 C  
HETATM    8  C   UNL     1     -10.453   7.763  67.059  1.00  0.00    -0.419 C  
HETATM    9  C   UNL     1     -11.352  11.654  68.930  1.00  0.00    -0.267 C  
HETATM   10  C   UNL     1     -11.973  10.669  69.888  1.00  0.00    -0.385 C  
HETATM   11  C   UNL     1      -8.600   9.625  67.171  1.00  0.00    -0.132 C  
HETATM   12  C   UNL     1      -9.565   7.033  72.519  1.00  0.00    -0.166 C  
HETATM   13  C   UNL     1      -9.093   8.211  67.525  1.00  0.00    -0.147 C  
HETATM   14  C   UNL     1      -7.374   6.587  71.406  1.00  0.00    -0.084 C  
HETATM   15  C   UNL     1      -8.799   7.024  71.207  1.00  0.00    -0.133 C  
HETATM   16  C   UNL     1     -10.982  10.042  70.824  1.00  0.00    -0.375 C  
HETATM   17  C   UNL     1     -13.283  10.472  70.124  1.00  0.00     0.216 C  
HETATM   18  C   UNL     1      -8.411   7.564  68.510  1.00  0.00    -0.129 C  
HETATM   19  C   UNL     1      -9.148   6.970  69.687  1.00  0.00    -0.144 C  
HETATM   20  C   UNL     1     -10.782   8.637  70.355  1.00  0.00    -0.248 C  
HETATM   21  C   UNL     1      -9.353   8.216  70.476  1.00  0.00    -0.159 C  
ENDROOT
BRANCH   4  22
HETATM   22  O   UNL     1     -10.221   9.827  65.357  1.00  0.00    -0.246 OA 
BRANCH  22  23
HETATM   23  C   UNL     1      -9.410   9.619  64.254  1.00  0.00    -0.114 C  
HETATM   24  C   UNL     1      -9.792  10.483  63.091  1.00  0.00    -0.295 C  
HETATM   25  O   UNL     1      -8.436   8.877  64.209  1.00  0.00    -0.177 OA 
ENDBRANCH  22  23
ENDBRANCH   4  22
BRANCH   7  26
HETATM   26  O   UNL     1      -8.742  12.728  67.954  1.00  0.00    -0.166 OA 
BRANCH  26  27
HETATM   27  C   UNL     1      -7.740  13.643  67.777  1.00  0.00    -0.164 C  
HETATM   28  O   UNL     1      -6.599  13.351  67.445  1.00  0.00    -0.197 OA 
BRANCH  27  29
HETATM   29  C   UNL     1      -8.223  15.084  67.743  1.00  0.00    -0.162 A  
HETATM   30  C   UNL     1      -8.671  15.672  68.952  1.00  0.00    -0.215 A  
HETATM   31  C   UNL     1      -8.242  15.871  66.596  1.00  0.00    -0.317 A  
HETATM   32  C   UNL     1      -8.663  17.218  66.651  1.00  0.00    -0.285 A  
HETATM   33  C   UNL     1      -9.058  17.024  69.015  1.00  0.00    -0.146 A  
HETATM   34  C   UNL     1      -9.060  17.795  67.862  1.00  0.00    -0.259 A  
ENDBRANCH  27  29
ENDBRANCH  26  27
ENDBRANCH   7  26
BRANCH   9  35
HETATM   35  O   UNL     1     -12.265  12.839  68.977  1.00  0.00    -0.196 OA 
BRANCH  35  36
HETATM   36  C   UNL     1     -12.052  13.909  69.801  1.00  0.00    -0.345 C  
HETATM   37  O   UNL     1     -11.748  13.875  70.963  1.00  0.00    -0.177 OA 
HETATM   38  C   UNL     1     -12.159  15.202  69.028  1.00  0.00    -0.242 C  
ENDBRANCH  35  36
ENDBRANCH   9  35
TORSDOF 7
ENDMDL
MODEL       25
REMARK 921   NORMALIZED FREE ENERGY PREDICTED BY IDOCK:   -5.59 KCAL/MOL
REMARK 922        TOTAL FREE ENERGY PREDICTED BY IDOCK:   -8.51 KCAL/MOL
REMARK 923 INTER-LIGAND FREE ENERGY PREDICTED BY IDOCK:   -6.85 KCAL/MOL
REMARK 924 INTRA-LIGAND FREE ENERGY PREDICTED BY IDOCK:   -1.67 KCAL/MOL
REMARK 927      BINDING AFFINITY PREDICTED BY RF-SCORE:    0.00 PKD
ROOT
HETATM    1  C   UNL     1     -11.700  13.352  68.595  1.00  0.00    -0.384 C  
HETATM    2  C   UNL     1     -11.203  11.949  68.846  1.00  0.00    -0.310 C  
HETATM    3  C   UNL     1     -11.939  10.651  69.055  1.00  0.00    -0.186 C  
HETATM    4  C   UNL     1     -10.757   9.865  69.868  1.00  0.00    -0.280 C  
HETATM    5  O   UNL     1     -11.115   7.722  68.758  1.00  0.00     0.067 OA 
HETATM    6  C   UNL     1      -9.343  10.786  69.430  1.00  0.00    -0.021 C  
HETATM    7  C   UNL     1      -9.959  11.424  68.141  1.00  0.00    -0.189 C  
HETATM    8  C   UNL     1      -9.577   8.246  72.132  1.00  0.00    -0.338 C  
HETATM    9  C   UNL     1      -7.821  10.774  68.974  1.00  0.00    -0.138 C  
HETATM   10  C   UNL     1      -6.610  10.133  69.604  1.00  0.00    -0.069 C  
HETATM   11  C   UNL     1     -10.675   8.314  69.744  1.00  0.00    -0.221 C  
HETATM   12  C   UNL     1      -5.549   5.158  69.816  1.00  0.00    -0.012 C  
HETATM   13  C   UNL     1     -10.000   7.525  70.880  1.00  0.00    -0.181 C  
HETATM   14  C   UNL     1      -7.671   3.891  69.455  1.00  0.00    -0.052 C  
HETATM   15  C   UNL     1      -7.058   5.159  69.985  1.00  0.00    -0.058 C  
HETATM   16  C   UNL     1      -6.358   8.735  69.124  1.00  0.00    -0.043 C  
HETATM   17  C   UNL     1      -5.659  10.733  70.343  1.00  0.00    -0.092 C  
HETATM   18  C   UNL     1      -9.530   6.288  70.558  1.00  0.00    -0.175 C  
HETATM   19  C   UNL     1      -8.103   5.906  70.870  1.00  0.00    -0.120 C  
HETATM   20  C   UNL     1      -6.752   7.823  70.240  1.00  0.00    -0.038 C  
HETATM   21  C   UNL     1      -7.432   6.593  69.732  1.00  0.00    -0.092 C  
ENDROOT
BRANCH   4  22
HETATM   22  O   UNL     1     -11.258  10.144  71.251  1.00  0.00    -0.290 OA 
BRANCH  22  23
HETATM   23  C   UNL     1     -12.627  10.022  71.417  1.00  0.00    -0.415 C  
HETATM   24  C   UNL     1     -13.283  11.329  71.746  1.00  0.00    -0.480 C  
HETATM   25  O   UNL     1     -13.281   8.999  71.256  1.00  0.00    -0.301 OA 
ENDBRANCH  22  23
ENDBRANCH   4  22
BRANCH   7  26
HETATM   26  O   UNL     1     -10.183  10.234  67.227  1.00  0.00    -0.195 OA 
BRANCH  26  27
HETATM   27  C   UNL     1     -10.058  10.309  65.867  1.00  0.00    -0.251 C  
HETATM   28  O   UNL     1     -10.441  11.260  65.198  1.00  0.00    -0.275 OA 
BRANCH  27  29
HETATM   29  C   UNL     1      -9.146   9.248  65.274  1.00  0.00    -0.271 A  
HETATM   30  C   UNL     1      -8.723   8.182  66.107  1.00  0.00    -0.179 A  
HETATM   31  C   UNL     1      -8.708   9.248  63.953  1.00  0.00    -0.193 A  
HETATM   32  C   UNL     1      -7.897   8.202  63.461  1.00  0.00    -0.152 A  
HETATM   33  C   UNL     1      -7.943   7.122  65.609  1.00  0.00    -0.126 A  
HETATM   34  C   UNL     1      -7.525   7.135  64.286  1.00  0.00    -0.098 A  
ENDBRANCH  27  29
ENDBRANCH  26  27
ENDBRANCH   7  26
BRANCH   9  35
HETATM   35  O   UNL     1      -7.353  12.140  68.581  1.00  0.00    -0.104 OA 
BRANCH  35  36
HETATM   36  C   UNL     1      -6.560  12.368  67.491  1.00  0.00    -0.147 C  
HETATM   37  O   UNL     1      -5.784  13.272  67.340  1.00  0.00    -0.333 OA 
HETATM   38  C   UNL     1      -6.710  11.251  66.484  1.00  0.00    -0.105 C  
ENDBRANCH  35  36
ENDBRANCH   9  35
TORSDOF 7
ENDMDL
MODEL       26
REMARK 921   NORMALIZED FREE ENERGY PREDICTED BY IDOCK:   -5.57 KCAL/MOL
REMARK 922        TOTAL FREE ENERGY PREDICTED BY IDOCK:   -8.49 KCAL/MOL
REMARK 923 INTER-LIGAND FREE ENERGY PREDICTED BY IDOCK:   -7.95 KCAL/MOL
REMARK 924 INTRA-LIGAND FREE ENERGY PREDICTED BY IDOCK:   -0.54 KCAL/MOL
REMARK 927      BINDING AFFINITY PREDICTED BY RF-SCORE:    0.00 PKD
ROOT
HETATM    1  C   UNL     1     -10.873   9.817  67.084  1.00  0.00    -0.207 C  
HETATM    2  C   UNL     1     -10.585  11.242  67.489  1.00  0.00    -0.257 C  
HETATM    3  C   UNL     1     -10.234  11.851  68.823  1.00  0.00    -0.158 C  
HETATM    4  C   UNL     1     -10.741  13.373  68.501  1.00  0.00    -0.262 C  
HETATM    5  O   UNL     1      -8.868  14.467  69.620  1.00  0.00     0.220 OA 
HETATM    6  C   UNL     1     -10.770  13.384  66.758  1.00  0.00    -0.277 C  
HETATM    7  C   UNL     1      -9.799  12.171  66.572  1.00  0.00    -0.218 C  
HETATM    8  C   UNL     1     -12.259  15.938  69.010  1.00  0.00     0.036 C  
HETATM    9  C   UNL     1     -10.428  14.158  65.414  1.00  0.00    -0.357 C  
HETATM   10  C   UNL     1     -10.823  15.535  64.944  1.00  0.00    -0.447 C  
HETATM   11  C   UNL     1     -10.029  14.560  69.218  1.00  0.00    -0.038 C  
HETATM   12  C   UNL     1      -9.144  19.985  66.764  1.00  0.00    -0.467 C  
HETATM   13  C   UNL     1     -10.805  15.878  69.394  1.00  0.00    -0.288 C  
HETATM   14  C   UNL     1      -8.207  19.591  69.045  1.00  0.00    -0.235 C  
HETATM   15  C   UNL     1      -9.219  19.144  68.026  1.00  0.00    -0.364 C  
HETATM   16  C   UNL     1      -9.852  16.605  65.347  1.00  0.00     0.162 C  
HETATM   17  C   UNL     1     -11.787  15.852  64.059  1.00  0.00     0.175 C  
HETATM   18  C   UNL     1     -10.053  16.998  69.579  1.00  0.00    -0.048 C  
HETATM   19  C   UNL     1     -10.268  18.216  68.714  1.00  0.00    -0.353 C  
HETATM   20  C   UNL     1     -10.505  17.381  66.445  1.00  0.00    -0.267 C  
HETATM   21  C   UNL     1      -9.523  17.767  67.505  1.00  0.00    -0.257 C  
ENDROOT
BRANCH   4  22
HETATM   22  O   UNL     1     -12.094  13.261  69.130  1.00  0.00    -0.306 OA 
BRANCH  22  23
HETATM   23  C   UNL     1     -12.123  12.623  70.358  1.00  0.00    -0.300 C  
HETATM   24  C   UNL     1     -12.643  13.506  71.451  1.00  0.00    -0.398 C  
HETATM   25  O   UNL     1     -11.832  11.451  70.564  1.00  0.00    -0.344 OA 
ENDBRANCH  22  23
ENDBRANCH   4  22
BRANCH   7  26
HETATM   26  O   UNL     1      -8.484  12.679  67.134  1.00  0.00    -0.184 OA 
BRANCH  26  27
HETATM   27  C   UNL     1      -7.281  12.096  66.848  1.00  0.00     0.000 C  
HETATM   28  O   UNL     1      -6.198  12.634  67.040  1.00  0.00    -0.250 OA 
BRANCH  27  29
HETATM   29  C   UNL     1      -7.376  10.611  66.538  1.00  0.00    -0.134 A  
HETATM   30  C   UNL     1      -7.217   9.690  67.603  1.00  0.00    -0.089 A  
HETATM   31  C   UNL     1      -7.623  10.095  65.269  1.00  0.00    -0.144 A  
HETATM   32  C   UNL     1      -7.743   8.703  65.066  1.00  0.00    -0.103 A  
HETATM   33  C   UNL     1      -7.370   8.304  67.408  1.00  0.00    -0.092 A  
HETATM   34  C   UNL     1      -7.627   7.811  66.137  1.00  0.00    -0.087 A  
ENDBRANCH  27  29
ENDBRANCH  26  27
ENDBRANCH   7  26
BRANCH   9  35
HETATM   35  O   UNL     1     -10.620  13.289  64.212  1.00  0.00    -0.414 OA 
BRANCH  35  36
HETATM   36  C   UNL     1     -11.637  12.381  64.106  1.00  0.00    -0.386 C  
HETATM   37  O   UNL     1     -12.794  12.560  64.377  1.00  0.00    -0.714 OA 
HETATM   38  C   UNL     1     -11.137  11.093  63.495  1.00  0.00    -0.095 C  
ENDBRANCH  35  36
ENDBRANCH   9  35
TORSDOF 7
ENDMDL
MODEL       27
REMARK 921   NORMALIZED FREE ENERGY PREDICTED BY IDOCK:   -5.46 KCAL/MOL
REMARK 922        TOTAL FREE ENERGY PREDICTED BY IDOCK:   -8.34 KCAL/MOL
REMARK 923 INTER-LIGAND FREE ENERGY PREDICTED BY IDOCK:   -8.08 KCAL/MOL
REMARK 924 INTRA-LIGAND FREE ENERGY PREDICTED BY IDOCK:   -0.26 KCAL/MOL
REMARK 927      BINDING AFFINITY PREDICTED BY RF-SCORE:    0.00 PKD
ROOT
HETATM    1  C   UNL     1      -5.189   8.249  66.643  1.00  0.00    -0.028 C  
HETATM    2  C   UNL     1      -6.382   8.448  67.546  1.00  0.00    -0.057 C  
HETATM    3  C   UNL     1      -6.829   9.632  68.364  1.00  0.00    -0.061 C  
HETATM    4  C   UNL     1      -7.727   8.809  69.457  1.00  0.00    -0.089 C  
HETATM    5  O   UNL     1      -9.532  10.450  69.536  1.00  0.00    -0.205 OA 
HETATM    6  C   UNL     1      -8.024   7.308  68.622  1.00  0.00    -0.124 C  
HETATM    7  C   UNL     1      -7.741   7.861  67.186  1.00  0.00    -0.101 C  
HETATM    8  C   UNL     1      -8.640   7.997  72.222  1.00  0.00    -0.212 C  
HETATM    9  C   UNL     1      -9.064   6.174  68.228  1.00  0.00    -0.112 C  
HETATM   10  C   UNL     1      -9.948   5.307  69.089  1.00  0.00    -0.275 C  
HETATM   11  C   UNL     1      -8.948   9.527  70.106  1.00  0.00    -0.236 C  
HETATM   12  C   UNL     1     -14.061   6.781  71.705  1.00  0.00    -0.215 C  
HETATM   13  C   UNL     1      -9.435   9.039  71.482  1.00  0.00    -0.316 C  
HETATM   14  C   UNL     1     -13.944   9.257  72.012  1.00  0.00    -0.392 C  
HETATM   15  C   UNL     1     -13.151   7.988  71.854  1.00  0.00    -0.336 C  
HETATM   16  C   UNL     1     -11.297   5.907  69.353  1.00  0.00    -0.108 C  
HETATM   17  C   UNL     1      -9.743   4.024  69.440  1.00  0.00    -0.205 C  
HETATM   18  C   UNL     1     -10.724   9.337  71.805  1.00  0.00    -0.324 C  
HETATM   19  C   UNL     1     -11.669   8.252  72.262  1.00  0.00    -0.453 C  
HETATM   20  C   UNL     1     -11.286   6.371  70.774  1.00  0.00    -0.411 C  
HETATM   21  C   UNL     1     -12.006   7.672  70.933  1.00  0.00    -0.252 C  
ENDROOT
BRANCH   4  22
HETATM   22  O   UNL     1      -6.686   8.713  70.527  1.00  0.00    -0.036 OA 
BRANCH  22  23
HETATM   23  C   UNL     1      -6.194   9.924  70.982  1.00  0.00    -0.032 C  
HETATM   24  C   UNL     1      -5.125   9.756  72.019  1.00  0.00    -0.076 C  
HETATM   25  O   UNL     1      -6.515  11.031  70.566  1.00  0.00    -0.309 OA 
ENDBRANCH  22  23
ENDBRANCH   4  22
BRANCH   7  26
HETATM   26  O   UNL     1      -8.850   8.875  66.971  1.00  0.00    -0.124 OA 
BRANCH  26  27
HETATM   27  C   UNL     1      -9.205   9.334  65.733  1.00  0.00    -0.224 C  
HETATM   28  O   UNL     1      -8.964   8.741  64.690  1.00  0.00    -0.090 OA 
BRANCH  27  29
HETATM   29  C   UNL     1     -10.177  10.501  65.766  1.00  0.00    -0.310 A  
HETATM   30  C   UNL     1     -10.580  11.078  64.535  1.00  0.00    -0.383 A  
HETATM   31  C   UNL     1     -10.712  11.037  66.934  1.00  0.00    -0.325 A  
HETATM   32  C   UNL     1     -11.646  12.094  66.883  1.00  0.00    -0.408 A  
HETATM   33  C   UNL     1     -11.536  12.108  64.481  1.00  0.00    -0.403 A  
HETATM   34  C   UNL     1     -12.065  12.621  65.657  1.00  0.00    -0.502 A  
ENDBRANCH  27  29
ENDBRANCH  26  27
ENDBRANCH   7  26
BRANCH   9  35
HETATM   35  O   UNL     1      -8.495   5.230  67.217  1.00  0.00    -0.107 OA 
BRANCH  35  36
HETATM   36  C   UNL     1      -9.054   5.035  65.984  1.00  0.00    -0.146 C  
HETATM   37  O   UNL     1     -10.155   5.361  65.632  1.00  0.00     0.007 OA 
HETATM   38  C   UNL     1      -8.051   4.413  65.040  1.00  0.00    -0.099 C  
ENDBRANCH  35  36
ENDBRANCH   9  35
TORSDOF 7
ENDMDL
MODEL       28
REMARK 921   NORMALIZED FREE ENERGY PREDICTED BY IDOCK:   -5.43 KCAL/MOL
REMARK 922        TOTAL FREE ENERGY PREDICTED BY IDOCK:   -8.29 KCAL/MOL
REMARK 923 INTER-LIGAND FREE ENERGY PREDICTED BY IDOCK:   -7.59 KCAL/MOL
REMARK 924 INTRA-LIGAND FREE ENERGY PREDICTED BY IDOCK:   -0.70 KCAL/MOL
REMARK 927      BINDING AFFINITY PREDICTED BY RF-SCORE:    0.00 PKD
ROOT
HETATM    1  C   UNL     1     -11.365   8.127  72.515  1.00  0.00    -0.469 C  
HETATM    2  C   UNL     1     -10.977   7.609  71.151  1.00  0.00    -0.263 C  
HETATM    3  C   UNL     1     -11.748   6.817  70.127  1.00  0.00    -0.370 C  
HETATM    4  C   UNL     1     -10.462   6.166  69.351  1.00  0.00    -0.256 C  
HETATM    5  O   UNL     1     -11.406   6.422  67.114  1.00  0.00    -0.308 OA 
HETATM    6  C   UNL     1      -9.174   7.240  69.821  1.00  0.00    -0.140 C  
HETATM    7  C   UNL     1     -10.098   8.437  70.222  1.00  0.00    -0.189 C  
HETATM    8  C   UNL     1      -8.803   3.939  68.157  1.00  0.00    -0.140 C  
HETATM    9  C   UNL     1      -7.895   8.076  69.385  1.00  0.00    -0.113 C  
HETATM   10  C   UNL     1      -6.627   7.645  68.693  1.00  0.00    -0.053 C  
HETATM   11  C   UNL     1     -10.603   5.828  67.836  1.00  0.00    -0.231 C  
HETATM   12  C   UNL     1      -6.130   6.228  63.827  1.00  0.00    -0.022 C  
HETATM   13  C   UNL     1      -9.689   4.741  67.242  1.00  0.00    -0.210 C  
HETATM   14  C   UNL     1      -8.384   5.577  62.970  1.00  0.00    -0.081 C  
HETATM   15  C   UNL     1      -7.491   5.653  64.179  1.00  0.00    -0.070 C  
HETATM   16  C   UNL     1      -6.706   7.725  67.197  1.00  0.00    -0.068 C  
HETATM   17  C   UNL     1      -5.425   7.421  69.255  1.00  0.00    -0.015 C  
HETATM   18  C   UNL     1      -9.495   4.787  65.895  1.00  0.00    -0.171 C  
HETATM   19  C   UNL     1      -8.098   4.784  65.324  1.00  0.00    -0.105 C  
HETATM   20  C   UNL     1      -6.816   6.320  66.700  1.00  0.00    -0.062 C  
HETATM   21  C   UNL     1      -7.761   6.217  65.546  1.00  0.00    -0.095 C  
ENDROOT
BRANCH   4  22
HETATM   22  O   UNL     1     -10.450   4.853  70.069  1.00  0.00    -0.244 OA 
BRANCH  22  23
HETATM   23  C   UNL     1      -9.689   4.820  71.225  1.00  0.00    -0.178 C  
HETATM   24  C   UNL     1     -10.489   4.420  72.427  1.00  0.00    -0.219 C  
HETATM   25  O   UNL     1      -8.482   5.019  71.295  1.00  0.00    -0.116 OA 
ENDBRANCH  22  23
ENDBRANCH   4  22
BRANCH   7  26
HETATM   26  O   UNL     1     -10.743   8.843  68.909  1.00  0.00    -0.197 OA 
BRANCH  26  27
HETATM   27  C   UNL     1     -11.011  10.145  68.586  1.00  0.00    -0.230 C  
HETATM   28  O   UNL     1     -11.244  11.019  69.410  1.00  0.00    -0.227 OA 
BRANCH  27  29
HETATM   29  C   UNL     1     -10.716  10.491  67.136  1.00  0.00    -0.323 A  
HETATM   30  C   UNL     1      -9.936   9.587  66.373  1.00  0.00    -0.339 A  
HETATM   31  C   UNL     1     -11.177  11.641  66.501  1.00  0.00    -0.356 A  
HETATM   32  C   UNL     1     -10.899  11.873  65.136  1.00  0.00    -0.350 A  
HETATM   33  C   UNL     1      -9.687   9.800  65.004  1.00  0.00    -0.303 A  
HETATM   34  C   UNL     1     -10.164  10.947  64.387  1.00  0.00    -0.423 A  
ENDBRANCH  27  29
ENDBRANCH  26  27
ENDBRANCH   7  26
BRANCH   9  35
HETATM   35  O   UNL     1      -7.428   8.983  70.480  1.00  0.00    -0.072 OA 
BRANCH  35  36
HETATM   36  C   UNL     1      -6.961  10.247  70.250  1.00  0.00    -0.129 C  
HETATM   37  O   UNL     1      -6.090  10.815  70.852  1.00  0.00    -0.320 OA 
HETATM   38  C   UNL     1      -7.632  10.847  69.036  1.00  0.00    -0.135 C  
ENDBRANCH  35  36
ENDBRANCH   9  35
TORSDOF 7
ENDMDL
MODEL       29
REMARK 921   NORMALIZED FREE ENERGY PREDICTED BY IDOCK:   -5.29 KCAL/MOL
REMARK 922        TOTAL FREE ENERGY PREDICTED BY IDOCK:   -8.10 KCAL/MOL
REMARK 923 INTER-LIGAND FREE ENERGY PREDICTED BY IDOCK:   -7.77 KCAL/MOL
REMARK 924 INTRA-LIGAND FREE ENERGY PREDICTED BY IDOCK:   -0.33 KCAL/MOL
REMARK 927      BINDING AFFINITY PREDICTED BY RF-SCORE:    0.00 PKD
ROOT
HETATM    1  C   UNL     1     -10.124   9.577  68.771  1.00  0.00    -0.202 C  
HETATM    2  C   UNL     1      -9.773  11.011  68.458  1.00  0.00    -0.189 C  
HETATM    3  C   UNL     1      -8.607  11.616  67.720  1.00  0.00    -0.144 C  
HETATM    4  C   UNL     1      -8.670  13.102  68.405  1.00  0.00    -0.120 C  
HETATM    5  O   UNL     1      -8.193  14.314  66.341  1.00  0.00     0.344 OA 
HETATM    6  C   UNL     1     -10.299  13.147  69.020  1.00  0.00     0.025 C  
HETATM    7  C   UNL     1     -10.856  12.018  68.091  1.00  0.00    -0.221 C  
HETATM    8  C   UNL     1      -7.563  15.528  69.828  1.00  0.00    -0.065 C  
HETATM    9  C   UNL     1     -11.643  13.975  69.203  1.00  0.00    -0.313 C  
HETATM   10  C   UNL     1     -11.889  15.327  69.824  1.00  0.00    -0.357 C  
HETATM   11  C   UNL     1      -8.178  14.324  67.573  1.00  0.00    -0.189 C  
HETATM   12  C   UNL     1     -10.532  19.853  67.927  1.00  0.00    -0.505 C  
HETATM   13  C   UNL     1      -7.692  15.573  68.329  1.00  0.00    -0.115 C  
HETATM   14  C   UNL     1      -8.717  19.484  66.252  1.00  0.00    -0.383 C  
HETATM   15  C   UNL     1      -9.358  18.982  67.517  1.00  0.00    -0.341 C  
HETATM   16  C   UNL     1     -11.785  16.459  68.847  1.00  0.00    -0.059 C  
HETATM   17  C   UNL     1     -12.385  15.586  71.048  1.00  0.00    -0.471 C  
HETATM   18  C   UNL     1      -7.716  16.745  67.634  1.00  0.00    -0.183 C  
HETATM   19  C   UNL     1      -8.403  17.960  68.209  1.00  0.00    -0.286 C  
HETATM   20  C   UNL     1     -10.497  17.159  69.141  1.00  0.00    -0.296 C  
HETATM   21  C   UNL     1      -9.811  17.597  67.887  1.00  0.00    -0.300 C  
ENDROOT
BRANCH   4  22
HETATM   22  O   UNL     1      -7.630  12.871  69.456  1.00  0.00     0.410 OA 
BRANCH  22  23
HETATM   23  C   UNL     1      -6.491  12.211  69.025  1.00  0.00    -0.092 C  
HETATM   24  C   UNL     1      -6.231  10.954  69.797  1.00  0.00    -0.103 C  
HETATM   25  O   UNL     1      -5.786  12.541  68.080  1.00  0.00    -0.064 OA 
ENDBRANCH  22  23
ENDBRANCH   4  22
BRANCH   7  26
HETATM   26  O   UNL     1     -10.743  12.615  66.701  1.00  0.00    -0.249 OA 
BRANCH  26  27
HETATM   27  C   UNL     1     -11.394  12.095  65.616  1.00  0.00    -0.347 C  
HETATM   28  O   UNL     1     -12.557  12.349  65.330  1.00  0.00    -0.637 OA 
BRANCH  27  29
HETATM   29  C   UNL     1     -10.477  11.399  64.624  1.00  0.00    -0.373 A  
HETATM   30  C   UNL     1      -9.893  10.163  65.000  1.00  0.00    -0.392 A  
HETATM   31  C   UNL     1     -10.180  11.894  63.358  1.00  0.00    -0.478 A  
HETATM   32  C   UNL     1      -9.353  11.167  62.473  1.00  0.00    -0.271 A  
HETATM   33  C   UNL     1      -9.097   9.422  64.107  1.00  0.00    -0.132 A  
HETATM   34  C   UNL     1      -8.822   9.928  62.845  1.00  0.00    -0.248 A  
ENDBRANCH  27  29
ENDBRANCH  26  27
ENDBRANCH   7  26
BRANCH   9  35
HETATM   35  O   UNL     1     -12.751  13.119  69.732  1.00  0.00     0.067 OA 
BRANCH  35  36
HETATM   36  C   UNL     1     -12.626  12.353  70.857  1.00  0.00    -0.246 C  
HETATM   37  O   UNL     1     -12.418  12.742  71.975  1.00  0.00     0.061 OA 
HETATM   38  C   UNL     1     -12.879  10.898  70.539  1.00  0.00    -0.301 C  
ENDBRANCH  35  36
ENDBRANCH   9  35
TORSDOF 7
ENDMDL
MODEL       30
REMARK 921   NORMALIZED FREE ENERGY PREDICTED BY IDOCK:   -5.29 KCAL/MOL
REMARK 922        TOTAL FREE ENERGY PREDICTED BY IDOCK:   -8.09 KCAL/MOL
REMARK 923 INTER-LIGAND FREE ENERGY PREDICTED BY IDOCK:   -6.26 KCAL/MOL
REMARK 924 INTRA-LIGAND FREE ENERGY PREDICTED BY IDOCK:   -1.83 KCAL/MOL
REMARK 927      BINDING AFFINITY PREDICTED BY RF-SCORE:    0.00 PKD
ROOT
HETATM    1  C   UNL     1      -8.337   6.252  66.135  1.00  0.00    -0.130 C  
HETATM    2  C   UNL     1      -8.766   7.528  66.818  1.00  0.00    -0.138 C  
HETATM    3  C   UNL     1      -8.761   7.935  68.269  1.00  0.00    -0.130 C  
HETATM    4  C   UNL     1      -9.928   9.078  68.174  1.00  0.00    -0.175 C  
HETATM    5  O   UNL     1      -8.812  10.654  69.667  1.00  0.00    -0.045 OA 
HETATM    6  C   UNL     1      -9.941   9.439  66.469  1.00  0.00    -0.339 C  
HETATM    7  C   UNL     1      -8.509   8.884  66.173  1.00  0.00    -0.125 C  
HETATM    8  C   UNL     1     -12.488  10.476  68.968  1.00  0.00     0.562 C  
HETATM    9  C   UNL     1      -9.995  10.546  65.330  1.00  0.00    -0.289 C  
HETATM   10  C   UNL     1     -10.994  11.648  65.076  1.00  0.00    -0.334 C  
HETATM   11  C   UNL     1      -9.873  10.279  69.165  1.00  0.00    -0.216 C  
HETATM   12  C   UNL     1     -11.652  15.875  67.837  1.00  0.00    -0.109 C  
HETATM   13  C   UNL     1     -11.184  11.018  69.490  1.00  0.00    -0.343 C  
HETATM   14  C   UNL     1     -10.663  15.492  70.098  1.00  0.00    -0.345 C  
HETATM   15  C   UNL     1     -11.330  14.851  68.912  1.00  0.00    -0.301 C  
HETATM   16  C   UNL     1     -10.653  12.933  65.768  1.00  0.00    -0.293 C  
HETATM   17  C   UNL     1     -11.983  11.659  64.164  1.00  0.00    -0.238 C  
HETATM   18  C   UNL     1     -11.058  12.292  69.954  1.00  0.00     0.193 C  
HETATM   19  C   UNL     1     -11.818  13.422  69.304  1.00  0.00    -0.385 C  
HETATM   20  C   UNL     1     -11.607  13.070  66.910  1.00  0.00    -0.419 C  
HETATM   21  C   UNL     1     -10.937  13.634  68.122  1.00  0.00    -0.273 C  
ENDROOT
BRANCH   4  22
HETATM   22  O   UNL     1     -11.071   8.222  68.622  1.00  0.00     0.128 OA 
BRANCH  22  23
HETATM   23  C   UNL     1     -10.791   7.369  69.676  1.00  0.00    -0.210 C  
HETATM   24  C   UNL     1     -11.026   5.931  69.327  1.00  0.00    -0.397 C  
HETATM   25  O   UNL     1     -10.334   7.699  70.764  1.00  0.00    -0.202 OA 
ENDBRANCH  22  23
ENDBRANCH   4  22
BRANCH   7  26
HETATM   26  O   UNL     1      -7.599   9.813  66.957  1.00  0.00    -0.091 OA 
BRANCH  26  27
HETATM   27  C   UNL     1      -6.651  10.598  66.361  1.00  0.00    -0.120 C  
HETATM   28  O   UNL     1      -6.171  10.371  65.258  1.00  0.00    -0.119 OA 
BRANCH  27  29
HETATM   29  C   UNL     1      -6.442  11.938  67.048  1.00  0.00    -0.136 A  
HETATM   30  C   UNL     1      -7.545  12.821  67.151  1.00  0.00    -0.050 A  
HETATM   31  C   UNL     1      -5.232  12.350  67.597  1.00  0.00    -0.100 A  
HETATM   32  C   UNL     1      -5.126  13.592  68.261  1.00  0.00    -0.103 A  
HETATM   33  C   UNL     1      -7.450  14.043  67.841  1.00  0.00    -0.153 A  
HETATM   34  C   UNL     1      -6.237  14.432  68.391  1.00  0.00    -0.103 A  
ENDBRANCH  27  29
ENDBRANCH  26  27
ENDBRANCH   7  26
BRANCH   9  35
HETATM   35  O   UNL     1      -9.739   9.961  63.978  1.00  0.00    -0.206 OA 
BRANCH  35  36
HETATM   36  C   UNL     1      -8.845  10.496  63.094  1.00  0.00    -0.215 C  
HETATM   37  O   UNL     1      -8.728  11.655  62.798  1.00  0.00    -0.188 OA 
HETATM   38  C   UNL     1      -7.914   9.427  62.570  1.00  0.00    -0.125 C  
ENDBRANCH  35  36
ENDBRANCH   9  35
TORSDOF 7
ENDMDL
MODEL       31
REMARK 921   NORMALIZED FREE ENERGY PREDICTED BY IDOCK:   -5.26 KCAL/MOL
REMARK 922        TOTAL FREE ENERGY PREDICTED BY IDOCK:   -8.06 KCAL/MOL
REMARK 923 INTER-LIGAND FREE ENERGY PREDICTED BY IDOCK:   -7.65 KCAL/MOL
REMARK 924 INTRA-LIGAND FREE ENERGY PREDICTED BY IDOCK:   -0.41 KCAL/MOL
REMARK 927      BINDING AFFINITY PREDICTED BY RF-SCORE:    0.00 PKD
ROOT
HETATM    1  C   UNL     1      -7.942   7.861  72.635  1.00  0.00    -0.162 C  
HETATM    2  C   UNL     1      -8.034   8.160  71.158  1.00  0.00    -0.103 C  
HETATM    3  C   UNL     1      -7.257   7.629  69.981  1.00  0.00    -0.071 C  
HETATM    4  C   UNL     1      -7.516   8.890  68.970  1.00  0.00    -0.074 C  
HETATM    5  O   UNL     1      -7.846   7.511  66.983  1.00  0.00    -0.111 OA 
HETATM    6  C   UNL     1      -8.916   9.643  69.683  1.00  0.00    -0.215 C  
HETATM    7  C   UNL     1      -9.384   8.387  70.490  1.00  0.00    -0.162 C  
HETATM    8  C   UNL     1      -6.730  11.086  67.047  1.00  0.00    -0.108 C  
HETATM    9  C   UNL     1     -10.339  10.315  69.461  1.00  0.00    -0.242 C  
HETATM   10  C   UNL     1     -10.754  11.481  68.600  1.00  0.00    -0.242 C  
HETATM   11  C   UNL     1      -7.546   8.617  67.436  1.00  0.00    -0.093 C  
HETATM   12  C   UNL     1     -11.022  11.583  63.516  1.00  0.00    -0.453 C  
HETATM   13  C   UNL     1      -7.214   9.778  66.481  1.00  0.00    -0.094 C  
HETATM   14  C   UNL     1      -9.617   9.720  62.624  1.00  0.00     0.145 C  
HETATM   15  C   UNL     1      -9.801  10.708  63.744  1.00  0.00    -0.394 C  
HETATM   16  C   UNL     1     -11.160  11.083  67.213  1.00  0.00    -0.359 C  
HETATM   17  C   UNL     1     -10.995  12.744  68.996  1.00  0.00    -0.241 C  
HETATM   18  C   UNL     1      -7.685   9.664  65.208  1.00  0.00    -0.115 C  
HETATM   19  C   UNL     1      -8.491  10.780  64.589  1.00  0.00    -0.020 C  
HETATM   20  C   UNL     1     -10.049  11.503  66.305  1.00  0.00    -0.261 C  
HETATM   21  C   UNL     1      -9.804  10.493  65.231  1.00  0.00    -0.345 C  
ENDROOT
BRANCH   4  22
HETATM   22  O   UNL     1      -6.235   9.615  69.237  1.00  0.00    -0.040 OA 
BRANCH  22  23
HETATM   23  C   UNL     1      -6.301  10.585  70.223  1.00  0.00    -0.137 C  
HETATM   24  C   UNL     1      -5.144  10.516  71.173  1.00  0.00    -0.088 C  
HETATM   25  O   UNL     1      -7.150  11.464  70.309  1.00  0.00     0.111 OA 
ENDBRANCH  22  23
ENDBRANCH   4  22
BRANCH   7  26
HETATM   26  O   UNL     1      -9.750   7.387  69.408  1.00  0.00    -0.158 OA 
BRANCH  26  27
HETATM   27  C   UNL     1     -10.721   6.438  69.574  1.00  0.00    -0.289 C  
HETATM   28  O   UNL     1     -11.524   6.124  68.705  1.00  0.00    -0.259 OA 
BRANCH  27  29
HETATM   29  C   UNL     1     -10.549   5.595  70.826  1.00  0.00    -0.335 A  
HETATM   30  C   UNL     1     -11.391   5.857  71.936  1.00  0.00    -0.307 A  
HETATM   31  C   UNL     1      -9.621   4.566  70.950  1.00  0.00    -0.250 A  
HETATM   32  C   UNL     1      -9.550   3.794  72.131  1.00  0.00    -0.212 A  
HETATM   33  C   UNL     1     -11.345   5.068  73.100  1.00  0.00    -0.397 A  
HETATM   34  C   UNL     1     -10.419   4.040  73.200  1.00  0.00    -0.251 A  
ENDBRANCH  27  29
ENDBRANCH  26  27
ENDBRANCH   7  26
BRANCH   9  35
HETATM   35  O   UNL     1     -11.050  10.543  70.758  1.00  0.00    -0.250 OA 
BRANCH  35  36
HETATM   36  C   UNL     1     -12.322  10.104  70.996  1.00  0.00    -0.373 C  
HETATM   37  O   UNL     1     -12.744   8.991  70.833  1.00  0.00    -0.156 OA 
HETATM   38  C   UNL     1     -13.158  11.207  71.601  1.00  0.00    -0.529 C  
ENDBRANCH  35  36
ENDBRANCH   9  35
TORSDOF 7
ENDMDL
MODEL       32
REMARK 921   NORMALIZED FREE ENERGY PREDICTED BY IDOCK:   -5.23 KCAL/MOL
REMARK 922        TOTAL FREE ENERGY PREDICTED BY IDOCK:   -8.00 KCAL/MOL
REMARK 923 INTER-LIGAND FREE ENERGY PREDICTED BY IDOCK:   -6.14 KCAL/MOL
REMARK 924 INTRA-LIGAND FREE ENERGY PREDICTED BY IDOCK:   -1.86 KCAL/MOL
REMARK 927      BINDING AFFINITY PREDICTED BY RF-SCORE:    0.00 PKD
ROOT
HETATM    1  C   UNL     1      -9.456   9.767  65.783  1.00  0.00    -0.300 C  
HETATM    2  C   UNL     1      -9.660   8.993  67.063  1.00  0.00    -0.231 C  
HETATM    3  C   UNL     1     -10.878   8.798  67.928  1.00  0.00    -0.078 C  
HETATM    4  C   UNL     1     -10.095   8.446  69.322  1.00  0.00    -0.202 C  
HETATM    5  O   UNL     1     -11.639   6.683  70.001  1.00  0.00    -0.380 OA 
HETATM    6  C   UNL     1      -8.521   7.974  68.741  1.00  0.00    -0.127 C  
HETATM    7  C   UNL     1      -8.976   7.649  67.280  1.00  0.00    -0.127 C  
HETATM    8  C   UNL     1      -9.449   8.713  72.263  1.00  0.00    -0.336 C  
HETATM    9  C   UNL     1      -7.306   6.954  68.833  1.00  0.00    -0.094 C  
HETATM   10  C   UNL     1      -6.462   6.532  70.009  1.00  0.00    -0.040 C  
HETATM   11  C   UNL     1     -10.795   7.509  70.351  1.00  0.00    -0.244 C  
HETATM   12  C   UNL     1      -7.912   3.612  73.920  1.00  0.00    -0.075 C  
HETATM   13  C   UNL     1     -10.388   7.618  71.832  1.00  0.00    -0.240 C  
HETATM   14  C   UNL     1     -10.407   3.642  74.033  1.00  0.00    -0.240 C  
HETATM   15  C   UNL     1      -9.174   4.413  73.648  1.00  0.00    -0.106 C  
HETATM   16  C   UNL     1      -7.008   5.341  70.738  1.00  0.00    -0.056 C  
HETATM   17  C   UNL     1      -5.222   6.954  70.319  1.00  0.00    -0.019 C  
HETATM   18  C   UNL     1     -10.641   6.528  72.608  1.00  0.00    -0.248 C  
HETATM   19  C   UNL     1      -9.546   5.914  73.445  1.00  0.00    -0.143 C  
HETATM   20  C   UNL     1      -7.580   5.851  72.021  1.00  0.00    -0.097 C  
HETATM   21  C   UNL     1      -8.849   5.146  72.377  1.00  0.00    -0.131 C  
ENDROOT
BRANCH   4  22
HETATM   22  O   UNL     1     -10.136   9.819  69.915  1.00  0.00    -0.220 OA 
BRANCH  22  23
HETATM   23  C   UNL     1     -11.284  10.545  69.644  1.00  0.00    -0.282 C  
HETATM   24  C   UNL     1     -12.336  10.366  70.695  1.00  0.00    -0.438 C  
HETATM   25  O   UNL     1     -11.441  11.313  68.703  1.00  0.00    -0.243 OA 
ENDBRANCH  22  23
ENDBRANCH   4  22
BRANCH   7  26
HETATM   26  O   UNL     1      -9.910   6.466  67.455  1.00  0.00    -0.122 OA 
BRANCH  26  27
HETATM   27  C   UNL     1      -9.710   5.265  66.830  1.00  0.00    -0.156 C  
HETATM   28  O   UNL     1      -9.588   5.137  65.619  1.00  0.00    -0.153 OA 
BRANCH  27  29
HETATM   29  C   UNL     1      -9.363   4.130  67.779  1.00  0.00    -0.211 A  
HETATM   30  C   UNL     1      -8.557   3.070  67.294  1.00  0.00    -0.119 A  
HETATM   31  C   UNL     1      -9.777   4.071  69.107  1.00  0.00    -0.177 A  
HETATM   32  C   UNL     1      -9.376   3.005  69.942  1.00  0.00    -0.221 A  
HETATM   33  C   UNL     1      -8.129   2.025  68.135  1.00  0.00    -0.067 A  
HETATM   34  C   UNL     1      -8.544   1.990  69.458  1.00  0.00    -0.100 A  
ENDBRANCH  27  29
ENDBRANCH  26  27
ENDBRANCH   7  26
BRANCH   9  35
HETATM   35  O   UNL     1      -6.319   7.171  67.730  1.00  0.00    -0.040 OA 
BRANCH  35  36
HETATM   36  C   UNL     1      -5.984   6.198  66.830  1.00  0.00    -0.025 C  
HETATM   37  O   UNL     1      -5.663   5.067  67.076  1.00  0.00    -0.013 OA 
HETATM   38  C   UNL     1      -6.159   6.702  65.416  1.00  0.00    -0.038 C  
ENDBRANCH  35  36
ENDBRANCH   9  35
TORSDOF 7
ENDMDL
MODEL       33
REMARK 921   NORMALIZED FREE ENERGY PREDICTED BY IDOCK:   -5.22 KCAL/MOL
REMARK 922        TOTAL FREE ENERGY PREDICTED BY IDOCK:   -7.99 KCAL/MOL
REMARK 923 INTER-LIGAND FREE ENERGY PREDICTED BY IDOCK:   -7.77 KCAL/MOL
REMARK 924 INTRA-LIGAND FREE ENERGY PREDICTED BY IDOCK:   -0.22 KCAL/MOL
REMARK 927      BINDING AFFINITY PREDICTED BY RF-SCORE:    0.00 PKD
ROOT
HETATM    1  C   UNL     1     -12.577  13.539  64.146  1.00  0.00    -0.188 C  
HETATM    2  C   UNL     1     -11.641  13.850  65.288  1.00  0.00    -0.332 C  
HETATM    3  C   UNL     1     -11.566  15.025  66.228  1.00  0.00    -0.160 C  
HETATM    4  C   UNL     1      -9.988  14.873  66.633  1.00  0.00    -0.258 C  
HETATM    5  O   UNL     1     -10.317  15.401  68.993  1.00  0.00    -0.222 OA 
HETATM    6  C   UNL     1      -9.663  13.215  66.205  1.00  0.00    -0.269 C  
HETATM    7  C   UNL     1     -11.156  12.747  66.222  1.00  0.00    -0.288 C  
HETATM    8  C   UNL     1      -7.145  15.816  67.045  1.00  0.00    -0.169 C  
HETATM    9  C   UNL     1      -8.987  11.833  66.602  1.00  0.00    -0.195 C  
HETATM   10  C   UNL     1      -7.563  11.506  66.976  1.00  0.00    -0.154 C  
HETATM   11  C   UNL     1      -9.534  15.356  68.043  1.00  0.00    -0.201 C  
HETATM   12  C   UNL     1      -5.165  12.778  71.284  1.00  0.00    -0.163 C  
HETATM   13  C   UNL     1      -8.061  15.758  68.238  1.00  0.00    -0.142 C  
HETATM   14  C   UNL     1      -6.395  14.684  72.328  1.00  0.00     0.955 C  
HETATM   15  C   UNL     1      -6.028  14.003  71.038  1.00  0.00    -0.172 C  
HETATM   16  C   UNL     1      -7.293  11.614  68.447  1.00  0.00    -0.096 C  
HETATM   17  C   UNL     1      -6.622  10.944  66.196  1.00  0.00    -0.108 C  
HETATM   18  C   UNL     1      -7.590  15.721  69.516  1.00  0.00    -0.177 C  
HETATM   19  C   UNL     1      -6.328  14.962  69.845  1.00  0.00    -0.157 C  
HETATM   20  C   UNL     1      -6.489  12.858  68.644  1.00  0.00    -0.087 C  
HETATM   21  C   UNL     1      -6.896  13.586  69.884  1.00  0.00     0.246 C  
ENDROOT
BRANCH   4  22
HETATM   22  O   UNL     1      -9.444  15.869  65.659  1.00  0.00    -0.343 OA 
BRANCH  22  23
HETATM   23  C   UNL     1     -10.258  16.963  65.416  1.00  0.00    -0.030 C  
HETATM   24  C   UNL     1     -10.066  18.055  66.423  1.00  0.00    -0.384 C  
HETATM   25  O   UNL     1     -11.014  17.096  64.461  1.00  0.00    -1.003 OA 
ENDBRANCH  22  23
ENDBRANCH   4  22
BRANCH   7  26
HETATM   26  O   UNL     1     -11.561  12.903  67.676  1.00  0.00    -0.312 OA 
BRANCH  26  27
HETATM   27  C   UNL     1     -12.006  11.858  68.438  1.00  0.00    -0.182 C  
HETATM   28  O   UNL     1     -11.928  10.684  68.100  1.00  0.00    -0.460 OA 
BRANCH  27  29
HETATM   29  C   UNL     1     -12.347  12.242  69.868  1.00  0.00    -0.121 A  
HETATM   30  C   UNL     1     -12.253  13.606  70.240  1.00  0.00    -0.423 A  
HETATM   31  C   UNL     1     -12.760  11.335  70.840  1.00  0.00    -0.412 A  
HETATM   32  C   UNL     1     -13.103  11.774  72.138  1.00  0.00    -0.308 A  
HETATM   33  C   UNL     1     -12.627  14.049  71.523  1.00  0.00    -0.432 A  
HETATM   34  C   UNL     1     -13.046  13.130  72.474  1.00  0.00    -0.320 A  
ENDBRANCH  27  29
ENDBRANCH  26  27
ENDBRANCH   7  26
BRANCH   9  35
HETATM   35  O   UNL     1      -9.385  10.736  65.667  1.00  0.00    -0.189 OA 
BRANCH  35  36
HETATM   36  C   UNL     1      -9.477   9.428  66.052  1.00  0.00    -0.241 C  
HETATM   37  O   UNL     1     -10.041   8.999  67.023  1.00  0.00    -0.206 OA 
HETATM   38  C   UNL     1      -8.834   8.526  65.024  1.00  0.00    -0.074 C  
ENDBRANCH  35  36
ENDBRANCH   9  35
TORSDOF 7
ENDMDL
MODEL       34
REMARK 921   NORMALIZED FREE ENERGY PREDICTED BY IDOCK:   -5.22 KCAL/MOL
REMARK 922        TOTAL FREE ENERGY PREDICTED BY IDOCK:   -7.99 KCAL/MOL
REMARK 923 INTER-LIGAND FREE ENERGY PREDICTED BY IDOCK:   -6.80 KCAL/MOL
REMARK 924 INTRA-LIGAND FREE ENERGY PREDICTED BY IDOCK:   -1.19 KCAL/MOL
REMARK 927      BINDING AFFINITY PREDICTED BY RF-SCORE:    0.00 PKD
ROOT
HETATM    1  C   UNL     1     -12.019   8.009  72.433  1.00  0.00    -0.405 C  
HETATM    2  C   UNL     1     -11.161   8.488  71.288  1.00  0.00    -0.320 C  
HETATM    3  C   UNL     1     -10.550   9.834  70.991  1.00  0.00    -0.295 C  
HETATM    4  C   UNL     1     -10.400   9.646  69.372  1.00  0.00    -0.213 C  
HETATM    5  O   UNL     1      -8.209  10.713  69.232  1.00  0.00    -0.154 OA 
HETATM    6  C   UNL     1     -10.477   7.914  69.200  1.00  0.00    -0.218 C  
HETATM    7  C   UNL     1     -10.093   7.586  70.681  1.00  0.00    -0.187 C  
HETATM    8  C   UNL     1     -10.720  10.420  66.467  1.00  0.00    -0.162 C  
HETATM    9  C   UNL     1      -9.891   6.604  68.518  1.00  0.00    -0.139 C  
HETATM   10  C   UNL     1      -9.703   6.253  67.063  1.00  0.00    -0.173 C  
HETATM   11  C   UNL     1      -9.243  10.393  68.643  1.00  0.00    -0.164 C  
HETATM   12  C   UNL     1      -6.295   8.251  63.851  1.00  0.00    -0.071 C  
HETATM   13  C   UNL     1      -9.406  10.705  67.144  1.00  0.00    -0.172 C  
HETATM   14  C   UNL     1      -5.530  10.437  64.786  1.00  0.00    -0.139 C  
HETATM   15  C   UNL     1      -6.668   9.458  64.695  1.00  0.00    -0.088 C  
HETATM   16  C   UNL     1      -8.367   6.663  66.518  1.00  0.00    -0.117 C  
HETATM   17  C   UNL     1     -10.480   5.455  66.309  1.00  0.00    -0.277 C  
HETATM   18  C   UNL     1      -8.256  10.916  66.445  1.00  0.00    -0.163 C  
HETATM   19  C   UNL     1      -7.982  10.148  65.175  1.00  0.00    -0.146 C  
HETATM   20  C   UNL     1      -8.610   7.849  65.642  1.00  0.00    -0.159 C  
HETATM   21  C   UNL     1      -7.524   8.867  65.780  1.00  0.00    -0.089 C  
ENDROOT
BRANCH   4  22
HETATM   22  O   UNL     1     -11.660  10.352  68.981  1.00  0.00    -0.228 OA 
BRANCH  22  23
HETATM   23  C   UNL     1     -11.991  11.446  69.762  1.00  0.00    -0.353 C  
HETATM   24  C   UNL     1     -11.487  12.734  69.187  1.00  0.00    -0.361 C  
HETATM   25  O   UNL     1     -12.675  11.421  70.778  1.00  0.00    -0.314 OA 
ENDBRANCH  22  23
ENDBRANCH   4  22
BRANCH   7  26
HETATM   26  O   UNL     1      -8.669   8.095  70.800  1.00  0.00    -0.131 OA 
BRANCH  26  27
HETATM   27  C   UNL     1      -7.972   8.081  71.976  1.00  0.00    -0.118 C  
HETATM   28  O   UNL     1      -7.507   9.080  72.508  1.00  0.00    -0.335 OA 
BRANCH  27  29
HETATM   29  C   UNL     1      -8.063   6.763  72.728  1.00  0.00    -0.108 A  
HETATM   30  C   UNL     1      -7.226   5.695  72.318  1.00  0.00    -0.089 A  
HETATM   31  C   UNL     1      -8.912   6.539  73.808  1.00  0.00    -0.144 A  
HETATM   32  C   UNL     1      -8.909   5.301  74.485  1.00  0.00    -0.113 A  
HETATM   33  C   UNL     1      -7.197   4.472  73.014  1.00  0.00    -0.079 A  
HETATM   34  C   UNL     1      -8.044   4.273  74.095  1.00  0.00    -0.092 A  
ENDBRANCH  27  29
ENDBRANCH  26  27
ENDBRANCH   7  26
BRANCH   9  35
HETATM   35  O   UNL     1     -10.459   5.362  69.127  1.00  0.00    -0.235 OA 
BRANCH  35  36
HETATM   36  C   UNL     1      -9.683   4.383  69.681  1.00  0.00    -0.219 C  
HETATM   37  O   UNL     1      -8.680   3.910  69.219  1.00  0.00    -0.075 OA 
HETATM   38  C   UNL     1     -10.201   4.007  71.050  1.00  0.00     0.049 C  
ENDBRANCH  35  36
ENDBRANCH   9  35
TORSDOF 7
ENDMDL
MODEL       35
REMARK 921   NORMALIZED FREE ENERGY PREDICTED BY IDOCK:   -5.21 KCAL/MOL
REMARK 922        TOTAL FREE ENERGY PREDICTED BY IDOCK:   -7.98 KCAL/MOL
REMARK 923 INTER-LIGAND FREE ENERGY PREDICTED BY IDOCK:   -7.40 KCAL/MOL
REMARK 924 INTRA-LIGAND FREE ENERGY PREDICTED BY IDOCK:   -0.58 KCAL/MOL
REMARK 927      BINDING AFFINITY PREDICTED BY RF-SCORE:    0.00 PKD
ROOT
HETATM    1  C   UNL     1     -10.596  10.756  64.477  1.00  0.00    -0.258 C  
HETATM    2  C   UNL     1     -10.147   9.981  65.692  1.00  0.00    -0.321 C  
HETATM    3  C   UNL     1      -9.096   8.915  65.865  1.00  0.00    -0.271 C  
HETATM    4  C   UNL     1      -9.717   8.220  67.211  1.00  0.00    -0.177 C  
HETATM    5  O   UNL     1      -7.558   7.885  68.298  1.00  0.00    -0.110 OA 
HETATM    6  C   UNL     1     -10.752   9.481  67.823  1.00  0.00    -0.302 C  
HETATM    7  C   UNL     1     -10.053  10.653  67.056  1.00  0.00    -0.211 C  
HETATM    8  C   UNL     1     -10.693   5.936  68.933  1.00  0.00    -0.370 C  
HETATM    9  C   UNL     1     -11.265  10.306  69.080  1.00  0.00    -0.215 C  
HETATM   10  C   UNL     1     -11.879   9.843  70.377  1.00  0.00    -0.310 C  
HETATM   11  C   UNL     1      -8.738   7.540  68.214  1.00  0.00    -0.123 C  
HETATM   12  C   UNL     1      -9.519   7.418  74.182  1.00  0.00    -0.190 C  
HETATM   13  C   UNL     1      -9.286   6.432  69.131  1.00  0.00    -0.133 C  
HETATM   14  C   UNL     1      -7.426   6.398  73.278  1.00  0.00    -0.090 C  
HETATM   15  C   UNL     1      -8.835   6.821  72.964  1.00  0.00    -0.141 C  
HETATM   16  C   UNL     1     -10.870   9.578  71.454  1.00  0.00    -0.382 C  
HETATM   17  C   UNL     1     -13.182   9.856  70.715  1.00  0.00    -0.231 C  
HETATM   18  C   UNL     1      -8.582   6.191  70.272  1.00  0.00    -0.140 C  
HETATM   19  C   UNL     1      -9.277   6.181  71.611  1.00  0.00    -0.150 C  
HETATM   20  C   UNL     1     -10.775   8.093  71.594  1.00  0.00    -0.299 C  
HETATM   21  C   UNL     1      -9.366   7.652  71.829  1.00  0.00    -0.176 C  
ENDROOT
BRANCH   4  22
HETATM   22  O   UNL     1     -10.452   7.108  66.530  1.00  0.00    -0.167 OA 
BRANCH  22  23
HETATM   23  C   UNL     1      -9.653   6.192  65.867  1.00  0.00     0.126 C  
HETATM   24  C   UNL     1     -10.295   4.843  65.762  1.00  0.00    -0.219 C  
HETATM   25  O   UNL     1      -8.569   6.429  65.348  1.00  0.00    -0.146 OA 
ENDBRANCH  22  23
ENDBRANCH   4  22
BRANCH   7  26
HETATM   26  O   UNL     1      -8.663  10.695  67.665  1.00  0.00    -0.121 OA 
BRANCH  26  27
HETATM   27  C   UNL     1      -7.717  11.609  67.290  1.00  0.00    -0.154 C  
HETATM   28  O   UNL     1      -6.750  11.343  66.589  1.00  0.00    -0.139 OA 
BRANCH  27  29
HETATM   29  C   UNL     1      -8.111  13.051  67.569  1.00  0.00    -0.179 A  
HETATM   30  C   UNL     1      -8.777  13.777  66.551  1.00  0.00     0.082 A  
HETATM   31  C   UNL     1      -7.869  13.703  68.774  1.00  0.00    -0.043 A  
HETATM   32  C   UNL     1      -8.304  15.031  68.977  1.00  0.00    -0.194 A  
HETATM   33  C   UNL     1      -9.242  15.088  66.763  1.00  0.00    -0.280 A  
HETATM   34  C   UNL     1      -8.999  15.717  67.975  1.00  0.00    -0.178 A  
ENDBRANCH  27  29
ENDBRANCH  26  27
ENDBRANCH   7  26
BRANCH   9  35
HETATM   35  O   UNL     1     -12.107  11.472  68.669  1.00  0.00    -0.483 OA 
BRANCH  35  36
HETATM   36  C   UNL     1     -11.766  12.768  68.940  1.00  0.00    -0.326 C  
HETATM   37  O   UNL     1     -11.180  13.173  69.908  1.00  0.00    -0.056 OA 
HETATM   38  C   UNL     1     -12.147  13.668  67.787  1.00  0.00    -0.325 C  
ENDBRANCH  35  36
ENDBRANCH   9  35
TORSDOF 7
ENDMDL
MODEL       36
REMARK 921   NORMALIZED FREE ENERGY PREDICTED BY IDOCK:   -5.18 KCAL/MOL
REMARK 922        TOTAL FREE ENERGY PREDICTED BY IDOCK:   -7.94 KCAL/MOL
REMARK 923 INTER-LIGAND FREE ENERGY PREDICTED BY IDOCK:   -7.00 KCAL/MOL
REMARK 924 INTRA-LIGAND FREE ENERGY PREDICTED BY IDOCK:   -0.94 KCAL/MOL
REMARK 927      BINDING AFFINITY PREDICTED BY RF-SCORE:    0.00 PKD
ROOT
HETATM    1  C   UNL     1     -10.088   8.044  67.585  1.00  0.00    -0.269 C  
HETATM    2  C   UNL     1     -10.063   9.545  67.746  1.00  0.00    -0.244 C  
HETATM    3  C   UNL     1      -9.802  10.417  68.947  1.00  0.00    -0.206 C  
HETATM    4  C   UNL     1     -10.593  11.749  68.419  1.00  0.00    -0.216 C  
HETATM    5  O   UNL     1      -8.933  13.332  69.252  1.00  0.00     0.530 OA 
HETATM    6  C   UNL     1     -10.664  11.469  66.700  1.00  0.00    -0.311 C  
HETATM    7  C   UNL     1      -9.487  10.439  66.655  1.00  0.00    -0.165 C  
HETATM    8  C   UNL     1     -12.553  14.043  68.601  1.00  0.00     0.475 C  
HETATM    9  C   UNL     1     -10.504  12.062  65.235  1.00  0.00    -0.284 C  
HETATM   10  C   UNL     1     -11.161  13.249  64.577  1.00  0.00    -0.392 C  
HETATM   11  C   UNL     1     -10.100  13.145  68.903  1.00  0.00     0.038 C  
HETATM   12  C   UNL     1     -10.305  18.166  65.588  1.00  0.00    -0.039 C  
HETATM   13  C   UNL     1     -11.104  14.312  68.912  1.00  0.00    -0.283 C  
HETATM   14  C   UNL     1      -9.258  18.327  67.850  1.00  0.00    -0.284 C  
HETATM   15  C   UNL     1     -10.192  17.543  66.968  1.00  0.00    -0.327 C  
HETATM   16  C   UNL     1     -10.399  14.528  64.757  1.00  0.00    -0.319 C  
HETATM   17  C   UNL     1     -12.187  13.237  63.707  1.00  0.00    -0.508 C  
HETATM   18  C   UNL     1     -10.572  15.565  68.880  1.00  0.00    -0.240 C  
HETATM   19  C   UNL     1     -11.032  16.565  67.847  1.00  0.00    -0.288 C  
HETATM   20  C   UNL     1     -11.160  15.342  65.753  1.00  0.00    -0.260 C  
HETATM   21  C   UNL     1     -10.244  16.067  66.685  1.00  0.00    -0.295 C  
ENDROOT
BRANCH   4  22
HETATM   22  O   UNL     1     -11.886  11.497  69.129  1.00  0.00    -0.298 OA 
BRANCH  22  23
HETATM   23  C   UNL     1     -11.769  11.159  70.467  1.00  0.00    -0.293 C  
HETATM   24  C   UNL     1     -12.577  12.054  71.356  1.00  0.00    -0.330 C  
HETATM   25  O   UNL     1     -11.145  10.204  70.913  1.00  0.00    -0.338 OA 
ENDBRANCH  22  23
ENDBRANCH   4  22
BRANCH   7  26
HETATM   26  O   UNL     1      -8.278  11.262  67.060  1.00  0.00    -0.138 OA 
BRANCH  26  27
HETATM   27  C   UNL     1      -6.999  10.917  66.721  1.00  0.00    -0.126 C  
HETATM   28  O   UNL     1      -6.109  11.728  66.500  1.00  0.00    -0.127 OA 
BRANCH  27  29
HETATM   29  C   UNL     1      -6.687   9.443  66.918  1.00  0.00    -0.076 A  
HETATM   30  C   UNL     1      -6.571   8.620  65.770  1.00  0.00    -0.057 A  
HETATM   31  C   UNL     1      -6.494   8.847  68.161  1.00  0.00    -0.060 A  
HETATM   32  C   UNL     1      -6.162   7.479  68.262  1.00  0.00    -0.036 A  
HETATM   33  C   UNL     1      -6.207   7.264  65.868  1.00  0.00    -0.038 A  
HETATM   34  C   UNL     1      -6.009   6.692  67.116  1.00  0.00    -0.021 A  
ENDBRANCH  27  29
ENDBRANCH  26  27
ENDBRANCH   7  26
BRANCH   9  35
HETATM   35  O   UNL     1     -10.557  10.988  64.196  1.00  0.00    -0.371 OA 
BRANCH  35  36
HETATM   36  C   UNL     1      -9.602  10.841  63.228  1.00  0.00    -0.350 C  
HETATM   37  O   UNL     1      -9.214  11.683  62.464  1.00  0.00    -0.302 OA 
HETATM   38  C   UNL     1      -8.995   9.459  63.289  1.00  0.00    -0.155 C  
ENDBRANCH  35  36
ENDBRANCH   9  35
TORSDOF 7
ENDMDL
MODEL       37
REMARK 921   NORMALIZED FREE ENERGY PREDICTED BY IDOCK:   -5.15 KCAL/MOL
REMARK 922        TOTAL FREE ENERGY PREDICTED BY IDOCK:   -7.90 KCAL/MOL
REMARK 923 INTER-LIGAND FREE ENERGY PREDICTED BY IDOCK:   -6.52 KCAL/MOL
REMARK 924 INTRA-LIGAND FREE ENERGY PREDICTED BY IDOCK:   -1.38 KCAL/MOL
REMARK 927      BINDING AFFINITY PREDICTED BY RF-SCORE:    0.00 PKD
ROOT
HETATM    1  C   UNL     1     -12.064  14.125  67.963  1.00  0.00    -0.303 C  
HETATM    2  C   UNL     1     -11.422  12.759  67.990  1.00  0.00    -0.364 C  
HETATM    3  C   UNL     1     -11.997  11.389  68.245  1.00  0.00    -0.234 C  
HETATM    4  C   UNL     1     -10.612  10.663  68.726  1.00  0.00    -0.206 C  
HETATM    5  O   UNL     1     -11.042   8.570  67.548  1.00  0.00     0.030 OA 
HETATM    6  C   UNL     1      -9.399  11.732  68.075  1.00  0.00    -0.184 C  
HETATM    7  C   UNL     1     -10.324  12.392  66.999  1.00  0.00    -0.220 C  
HETATM    8  C   UNL     1      -8.854   9.019  70.555  1.00  0.00    -0.242 C  
HETATM    9  C   UNL     1      -8.015  11.886  67.310  1.00  0.00    -0.171 C  
HETATM   10  C   UNL     1      -6.652  11.318  67.617  1.00  0.00    -0.072 C  
HETATM   11  C   UNL     1     -10.444   9.137  68.464  1.00  0.00    -0.204 C  
HETATM   12  C   UNL     1      -5.204   6.453  67.204  1.00  0.00    -0.008 C  
HETATM   13  C   UNL     1      -9.482   8.343  69.366  1.00  0.00    -0.158 C  
HETATM   14  C   UNL     1      -7.254   5.027  67.197  1.00  0.00    -0.077 C  
HETATM   15  C   UNL     1      -6.637   6.309  67.686  1.00  0.00    -0.055 C  
HETATM   16  C   UNL     1      -6.407   9.980  66.985  1.00  0.00    -0.064 C  
HETATM   17  C   UNL     1      -5.611  11.954  68.185  1.00  0.00    -0.045 C  
HETATM   18  C   UNL     1      -9.003   7.175  68.855  1.00  0.00    -0.129 C  
HETATM   19  C   UNL     1      -7.518   6.904  68.828  1.00  0.00    -0.099 C  
HETATM   20  C   UNL     1      -6.481   8.969  68.083  1.00  0.00    -0.060 C  
HETATM   21  C   UNL     1      -7.162   7.717  67.633  1.00  0.00    -0.087 C  
ENDROOT
BRANCH   4  22
HETATM   22  O   UNL     1     -10.821  10.810  70.201  1.00  0.00    -0.234 OA 
BRANCH  22  23
HETATM   23  C   UNL     1     -12.068  10.421  70.661  1.00  0.00    -0.348 C  
HETATM   24  C   UNL     1     -12.910  11.584  71.088  1.00  0.00    -0.414 C  
HETATM   25  O   UNL     1     -12.503   9.276  70.671  1.00  0.00    -0.123 OA 
ENDBRANCH  22  23
ENDBRANCH   4  22
BRANCH   7  26
HETATM   26  O   UNL     1     -10.652  11.245  66.061  1.00  0.00    -0.258 OA 
BRANCH  26  27
HETATM   27  C   UNL     1     -10.574  11.355  64.700  1.00  0.00    -0.318 C  
HETATM   28  O   UNL     1     -11.166  12.206  64.049  1.00  0.00    -0.330 OA 
BRANCH  27  29
HETATM   29  C   UNL     1      -9.468  10.519  64.079  1.00  0.00    -0.337 A  
HETATM   30  C   UNL     1      -8.714  11.081  63.018  1.00  0.00    -0.154 A  
HETATM   31  C   UNL     1      -9.136   9.233  64.495  1.00  0.00    -0.145 A  
HETATM   32  C   UNL     1      -8.064   8.534  63.898  1.00  0.00    -0.155 A  
HETATM   33  C   UNL     1      -7.624  10.398  62.445  1.00  0.00    -0.166 A  
HETATM   34  C   UNL     1      -7.304   9.122  62.882  1.00  0.00    -0.097 A  
ENDBRANCH  27  29
ENDBRANCH  26  27
ENDBRANCH   7  26
BRANCH   9  35
HETATM   35  O   UNL     1      -7.746  13.309  66.936  1.00  0.00     0.034 OA 
BRANCH  35  36
HETATM   36  C   UNL     1      -7.951  14.354  67.794  1.00  0.00    -0.158 C  
HETATM   37  O   UNL     1      -7.505  14.477  68.902  1.00  0.00    -0.122 OA 
HETATM   38  C   UNL     1      -8.771  15.433  67.126  1.00  0.00    -0.243 C  
ENDBRANCH  35  36
ENDBRANCH   9  35
TORSDOF 7
ENDMDL
MODEL       38
REMARK 921   NORMALIZED FREE ENERGY PREDICTED BY IDOCK:   -5.12 KCAL/MOL
REMARK 922        TOTAL FREE ENERGY PREDICTED BY IDOCK:   -7.86 KCAL/MOL
REMARK 923 INTER-LIGAND FREE ENERGY PREDICTED BY IDOCK:   -7.51 KCAL/MOL
REMARK 924 INTRA-LIGAND FREE ENERGY PREDICTED BY IDOCK:   -0.35 KCAL/MOL
REMARK 927      BINDING AFFINITY PREDICTED BY RF-SCORE:    0.00 PKD
ROOT
HETATM    1  C   UNL     1     -10.398  18.458  68.572  1.00  0.00    -0.326 C  
HETATM    2  C   UNL     1     -10.295  17.053  68.028  1.00  0.00    -0.341 C  
HETATM    3  C   UNL     1      -9.880  16.534  66.676  1.00  0.00    -0.279 C  
HETATM    4  C   UNL     1     -10.662  15.098  66.751  1.00  0.00    -0.311 C  
HETATM    5  O   UNL     1      -8.863  13.815  65.715  1.00  0.00     0.520 OA 
HETATM    6  C   UNL     1     -10.914  14.913  68.466  1.00  0.00    -0.260 C  
HETATM    7  C   UNL     1      -9.792  15.912  68.904  1.00  0.00    -0.226 C  
HETATM    8  C   UNL     1     -12.496  12.904  65.769  1.00  0.00    -0.327 C  
HETATM    9  C   UNL     1     -10.875  13.957  69.734  1.00  0.00     0.164 C  
HETATM   10  C   UNL     1     -11.544  12.629  69.985  1.00  0.00    -0.199 C  
HETATM   11  C   UNL     1     -10.065  13.886  65.975  1.00  0.00    -0.313 C  
HETATM   12  C   UNL     1     -10.386   8.166  67.825  1.00  0.00    -0.295 C  
HETATM   13  C   UNL     1     -11.014  12.749  65.556  1.00  0.00    -0.310 C  
HETATM   14  C   UNL     1      -9.115   8.623  65.724  1.00  0.00    -0.242 C  
HETATM   15  C   UNL     1     -10.163   9.133  66.674  1.00  0.00    -0.328 C  
HETATM   16  C   UNL     1     -10.715  11.454  69.561  1.00  0.00    -0.098 C  
HETATM   17  C   UNL     1     -12.651  12.396  70.715  1.00  0.00    -0.298 C  
HETATM   18  C   UNL     1     -10.436  11.539  65.316  1.00  0.00    -0.336 C  
HETATM   19  C   UNL     1     -10.953  10.296  65.997  1.00  0.00     0.234 C  
HETATM   20  C   UNL     1     -11.338  10.920  68.312  1.00  0.00    -0.374 C  
HETATM   21  C   UNL     1     -10.305  10.480  67.325  1.00  0.00    -0.275 C  
ENDROOT
BRANCH   4  22
HETATM   22  O   UNL     1     -11.888  15.509  65.998  1.00  0.00     0.194 OA 
BRANCH  22  23
HETATM   23  C   UNL     1     -11.659  16.028  64.735  1.00  0.00    -0.100 C  
HETATM   24  C   UNL     1     -12.240  15.174  63.650  1.00  0.00     0.549 C  
HETATM   25  O   UNL     1     -11.110  17.094  64.487  1.00  0.00    -1.105 OA 
ENDBRANCH  22  23
ENDBRANCH   4  22
BRANCH   7  26
HETATM   26  O   UNL     1      -8.516  15.243  68.429  1.00  0.00    -0.148 OA 
BRANCH  26  27
HETATM   27  C   UNL     1      -7.347  15.287  69.138  1.00  0.00    -0.172 C  
HETATM   28  O   UNL     1      -6.898  16.303  69.651  1.00  0.00    -0.210 OA 
BRANCH  27  29
HETATM   29  C   UNL     1      -6.789  13.917  69.489  1.00  0.00    -0.024 A  
HETATM   30  C   UNL     1      -7.242  12.797  68.749  1.00  0.00    -0.077 A  
HETATM   31  C   UNL     1      -5.847  13.694  70.488  1.00  0.00    -0.169 A  
HETATM   32  C   UNL     1      -5.341  12.397  70.726  1.00  0.00    -0.163 A  
HETATM   33  C   UNL     1      -6.713  11.510  68.963  1.00  0.00    -0.098 A  
HETATM   34  C   UNL     1      -5.766  11.310  69.957  1.00  0.00    -0.104 A  
ENDBRANCH  27  29
ENDBRANCH  26  27
ENDBRANCH   7  26
BRANCH   9  35
HETATM   35  O   UNL     1     -11.076  14.718  71.006  1.00  0.00    -0.153 OA 
BRANCH  35  36
HETATM   36  C   UNL     1     -12.108  15.596  71.192  1.00  0.00    -0.404 C  
HETATM   37  O   UNL     1     -13.059  15.754  70.474  1.00  0.00    -0.461 OA 
HETATM   38  C   UNL     1     -11.959  16.316  72.511  1.00  0.00    -0.648 C  
ENDBRANCH  35  36
ENDBRANCH   9  35
TORSDOF 7
ENDMDL
MODEL       39
REMARK 921   NORMALIZED FREE ENERGY PREDICTED BY IDOCK:   -5.12 KCAL/MOL
REMARK 922        TOTAL FREE ENERGY PREDICTED BY IDOCK:   -7.85 KCAL/MOL
REMARK 923 INTER-LIGAND FREE ENERGY PREDICTED BY IDOCK:   -7.29 KCAL/MOL
REMARK 924 INTRA-LIGAND FREE ENERGY PREDICTED BY IDOCK:   -0.56 KCAL/MOL
REMARK 927      BINDING AFFINITY PREDICTED BY RF-SCORE:    0.00 PKD
ROOT
HETATM    1  C   UNL     1      -9.935   8.564  68.847  1.00  0.00    -0.197 C  
HETATM    2  C   UNL     1      -9.147   9.822  68.572  1.00  0.00    -0.128 C  
HETATM    3  C   UNL     1      -7.705  10.034  68.189  1.00  0.00    -0.085 C  
HETATM    4  C   UNL     1      -7.565  11.571  68.734  1.00  0.00    -0.129 C  
HETATM    5  O   UNL     1      -6.229  12.350  66.846  1.00  0.00    -0.210 OA 
HETATM    6  C   UNL     1      -9.230  12.077  68.820  1.00  0.00     0.059 C  
HETATM    7  C   UNL     1      -9.781  10.994  67.834  1.00  0.00    -0.172 C  
HETATM    8  C   UNL     1      -6.305  13.842  70.281  1.00  0.00    -0.035 C  
HETATM    9  C   UNL     1     -10.306  13.212  68.536  1.00  0.00    -0.238 C  
HETATM   10  C   UNL     1     -10.352  14.655  68.972  1.00  0.00    -0.237 C  
HETATM   11  C   UNL     1      -6.558  12.522  68.021  1.00  0.00    -0.086 C  
HETATM   12  C   UNL     1      -7.381  18.444  67.316  1.00  0.00    -0.220 C  
HETATM   13  C   UNL     1      -5.992  13.714  68.814  1.00  0.00    -0.084 C  
HETATM   14  C   UNL     1      -5.332  17.441  66.298  1.00  0.00    -0.202 C  
HETATM   15  C   UNL     1      -6.410  17.276  67.335  1.00  0.00    -0.171 C  
HETATM   16  C   UNL     1      -9.685  15.590  68.008  1.00  0.00    -0.207 C  
HETATM   17  C   UNL     1     -11.084  15.184  69.969  1.00  0.00    -0.297 C  
HETATM   18  C   UNL     1      -5.513  14.755  68.078  1.00  0.00    -0.130 C  
HETATM   19  C   UNL     1      -5.989  16.162  68.344  1.00  0.00    -0.107 C  
HETATM   20  C   UNL     1      -8.395  16.004  68.638  1.00  0.00    -0.203 C  
HETATM   21  C   UNL     1      -7.295  16.097  67.630  1.00  0.00    -0.164 C  
ENDROOT
BRANCH   4  22
HETATM   22  O   UNL     1      -6.960  11.248  70.064  1.00  0.00    -0.064 OA 
BRANCH  22  23
HETATM   23  C   UNL     1      -5.942  10.309  70.036  1.00  0.00    -0.063 C  
HETATM   24  C   UNL     1      -5.908   9.464  71.273  1.00  0.00    -0.074 C  
HETATM   25  O   UNL     1      -5.177  10.108  69.101  1.00  0.00    -0.036 OA 
ENDBRANCH  22  23
ENDBRANCH   4  22
BRANCH   7  26
HETATM   26  O   UNL     1      -9.131  11.356  66.511  1.00  0.00    -0.174 OA 
BRANCH  26  27
HETATM   27  C   UNL     1      -9.809  11.338  65.323  1.00  0.00    -0.246 C  
HETATM   28  O   UNL     1      -9.841  10.375  64.569  1.00  0.00    -0.308 OA 
BRANCH  27  29
HETATM   29  C   UNL     1     -10.760  12.510  65.141  1.00  0.00    -0.323 A  
HETATM   30  C   UNL     1     -10.209  13.806  64.979  1.00  0.00    -0.370 A  
HETATM   31  C   UNL     1     -12.146  12.390  65.110  1.00  0.00    -0.464 A  
HETATM   32  C   UNL     1     -12.964  13.520  64.891  1.00  0.00    -0.151 A  
HETATM   33  C   UNL     1     -11.021  14.927  64.727  1.00  0.00    -0.390 A  
HETATM   34  C   UNL     1     -12.401  14.784  64.689  1.00  0.00    -0.346 A  
ENDBRANCH  27  29
ENDBRANCH  26  27
ENDBRANCH   7  26
BRANCH   9  35
HETATM   35  O   UNL     1     -11.701  12.716  68.752  1.00  0.00    -0.288 OA 
BRANCH  35  36
HETATM   36  C   UNL     1     -12.116  12.152  69.926  1.00  0.00    -0.253 C  
HETATM   37  O   UNL     1     -12.225  12.699  70.990  1.00  0.00    -0.304 OA 
HETATM   38  C   UNL     1     -12.530  10.716  69.706  1.00  0.00    -0.187 C  
ENDBRANCH  35  36
ENDBRANCH   9  35
TORSDOF 7
ENDMDL
MODEL       40
REMARK 921   NORMALIZED FREE ENERGY PREDICTED BY IDOCK:   -5.03 KCAL/MOL
REMARK 922        TOTAL FREE ENERGY PREDICTED BY IDOCK:   -7.72 KCAL/MOL
REMARK 923 INTER-LIGAND FREE ENERGY PREDICTED BY IDOCK:   -6.19 KCAL/MOL
REMARK 924 INTRA-LIGAND FREE ENERGY PREDICTED BY IDOCK:   -1.53 KCAL/MOL
REMARK 927      BINDING AFFINITY PREDICTED BY RF-SCORE:    0.00 PKD
ROOT
HETATM    1  C   UNL     1      -6.570   4.886  69.514  1.00  0.00    -0.040 C  
HETATM    2  C   UNL     1      -7.344   5.980  68.818  1.00  0.00    -0.085 C  
HETATM    3  C   UNL     1      -8.563   5.933  67.934  1.00  0.00    -0.105 C  
HETATM    4  C   UNL     1      -8.309   7.345  67.147  1.00  0.00    -0.118 C  
HETATM    5  O   UNL     1     -10.652   8.027  67.160  1.00  0.00    -0.320 OA 
HETATM    6  C   UNL     1      -7.214   8.167  68.226  1.00  0.00    -0.093 C  
HETATM    7  C   UNL     1      -7.573   7.326  69.495  1.00  0.00    -0.100 C  
HETATM    8  C   UNL     1      -8.027   9.143  64.733  1.00  0.00    -0.126 C  
HETATM    9  C   UNL     1      -6.810   9.519  68.956  1.00  0.00    -0.054 C  
HETATM   10  C   UNL     1      -6.517  10.889  68.398  1.00  0.00    -0.057 C  
HETATM   11  C   UNL     1      -9.545   8.141  66.631  1.00  0.00    -0.229 C  
HETATM   12  C   UNL     1      -9.869  14.147  66.376  1.00  0.00    -0.308 C  
HETATM   13  C   UNL     1      -9.351   9.105  65.448  1.00  0.00    -0.258 C  
HETATM   14  C   UNL     1     -11.901  12.859  65.706  1.00  0.00    -0.469 C  
HETATM   15  C   UNL     1     -10.410  12.810  65.898  1.00  0.00    -0.298 C  
HETATM   16  C   UNL     1      -7.731  11.764  68.296  1.00  0.00    -0.130 C  
HETATM   17  C   UNL     1      -5.310  11.451  68.202  1.00  0.00    -0.042 C  
HETATM   18  C   UNL     1     -10.276  10.097  65.321  1.00  0.00    -0.261 C  
HETATM   19  C   UNL     1      -9.840  11.537  65.198  1.00  0.00    -0.294 C  
HETATM   20  C   UNL     1      -8.082  11.840  66.846  1.00  0.00    -0.160 C  
HETATM   21  C   UNL     1      -9.562  11.812  66.635  1.00  0.00    -0.219 C  
ENDROOT
BRANCH   4  22
HETATM   22  O   UNL     1      -7.649   6.772  65.933  1.00  0.00    -0.081 OA 
BRANCH  22  23
HETATM   23  C   UNL     1      -8.145   5.548  65.515  1.00  0.00    -0.120 C  
HETATM   24  C   UNL     1      -7.086   4.489  65.460  1.00  0.00    -0.067 C  
HETATM   25  O   UNL     1      -9.318   5.295  65.273  1.00  0.00    -0.108 OA 
ENDBRANCH  22  23
ENDBRANCH   4  22
BRANCH   7  26
HETATM   26  O   UNL     1      -9.024   7.682  69.758  1.00  0.00    -0.140 OA 
BRANCH  26  27
HETATM   27  C   UNL     1      -9.582   7.644  71.007  1.00  0.00    -0.163 C  
HETATM   28  O   UNL     1     -10.334   8.504  71.445  1.00  0.00    -0.206 OA 
BRANCH  27  29
HETATM   29  C   UNL     1      -9.427   6.305  71.708  1.00  0.00    -0.158 A  
HETATM   30  C   UNL     1     -10.182   5.204  71.232  1.00  0.00    -0.292 A  
HETATM   31  C   UNL     1      -8.577   6.085  72.788  1.00  0.00    -0.124 A  
HETATM   32  C   UNL     1      -8.453   4.800  73.360  1.00  0.00    -0.102 A  
HETATM   33  C   UNL     1     -10.033   3.916  71.779  1.00  0.00    -0.234 A  
HETATM   34  C   UNL     1      -9.172   3.716  72.848  1.00  0.00    -0.124 A  
ENDBRANCH  27  29
ENDBRANCH  26  27
ENDBRANCH   7  26
BRANCH   9  35
HETATM   35  O   UNL     1      -5.735   9.298  69.973  1.00  0.00    -0.034 OA 
BRANCH  35  36
HETATM   36  C   UNL     1      -5.806   9.787  71.247  1.00  0.00    -0.052 C  
HETATM   37  O   UNL     1      -5.775  10.942  71.579  1.00  0.00    -0.342 OA 
HETATM   38  C   UNL     1      -6.027   8.665  72.234  1.00  0.00    -0.071 C  
ENDBRANCH  35  36
ENDBRANCH   9  35
TORSDOF 7
ENDMDL
MODEL       41
REMARK 921   NORMALIZED FREE ENERGY PREDICTED BY IDOCK:   -5.01 KCAL/MOL
REMARK 922        TOTAL FREE ENERGY PREDICTED BY IDOCK:   -7.70 KCAL/MOL
REMARK 923 INTER-LIGAND FREE ENERGY PREDICTED BY IDOCK:   -6.81 KCAL/MOL
REMARK 924 INTRA-LIGAND FREE ENERGY PREDICTED BY IDOCK:   -0.88 KCAL/MOL
REMARK 927      BINDING AFFINITY PREDICTED BY RF-SCORE:    0.00 PKD
ROOT
HETATM    1  C   UNL     1      -7.671   6.589  70.243  1.00  0.00    -0.098 C  
HETATM    2  C   UNL     1      -8.311   7.525  69.246  1.00  0.00    -0.132 C  
HETATM    3  C   UNL     1      -9.329   7.284  68.161  1.00  0.00    -0.131 C  
HETATM    4  C   UNL     1      -8.948   8.571  67.225  1.00  0.00    -0.129 C  
HETATM    5  O   UNL     1     -11.259   9.131  66.674  1.00  0.00     0.444 OA 
HETATM    6  C   UNL     1      -8.105   9.600  68.350  1.00  0.00    -0.104 C  
HETATM    7  C   UNL     1      -8.694   8.945  69.643  1.00  0.00    -0.140 C  
HETATM    8  C   UNL     1      -8.223   9.993  64.657  1.00  0.00    -0.163 C  
HETATM    9  C   UNL     1      -7.879  11.066  68.921  1.00  0.00    -0.138 C  
HETATM   10  C   UNL     1      -7.506  12.348  68.220  1.00  0.00    -0.124 C  
HETATM   11  C   UNL     1     -10.071   9.217  66.359  1.00  0.00    -0.267 C  
HETATM   12  C   UNL     1     -10.445  15.092  65.096  1.00  0.00    -0.438 C  
HETATM   13  C   UNL     1      -9.662   9.999  65.098  1.00  0.00    -0.380 C  
HETATM   14  C   UNL     1     -12.280  13.619  64.257  1.00  0.00    -0.445 C  
HETATM   15  C   UNL     1     -10.856  13.673  64.740  1.00  0.00    -0.402 C  
HETATM   16  C   UNL     1      -8.690  13.136  67.748  1.00  0.00    -0.188 C  
HETATM   17  C   UNL     1      -6.294  12.932  68.175  1.00  0.00    -0.096 C  
HETATM   18  C   UNL     1     -10.561  10.914  64.638  1.00  0.00    -0.332 C  
HETATM   19  C   UNL     1     -10.136  12.338  64.375  1.00  0.00    -0.296 C  
HETATM   20  C   UNL     1      -8.746  12.974  66.263  1.00  0.00     0.292 C  
HETATM   21  C   UNL     1     -10.154  12.841  65.777  1.00  0.00    -0.296 C  
ENDROOT
BRANCH   4  22
HETATM   22  O   UNL     1      -8.049   7.853  66.268  1.00  0.00    -0.102 OA 
BRANCH  22  23
HETATM   23  C   UNL     1      -8.428   6.556  65.963  1.00  0.00    -0.145 C  
HETATM   24  C   UNL     1      -7.308   5.577  66.132  1.00  0.00    -0.078 C  
HETATM   25  O   UNL     1      -9.557   6.194  65.652  1.00  0.00     0.104 OA 
ENDBRANCH  22  23
ENDBRANCH   4  22
BRANCH   7  26
HETATM   26  O   UNL     1     -10.175   9.265  69.560  1.00  0.00    -0.191 OA 
BRANCH  26  27
HETATM   27  C   UNL     1     -10.984   9.325  70.662  1.00  0.00    -0.276 C  
HETATM   28  O   UNL     1     -11.819  10.200  70.850  1.00  0.00    -0.316 OA 
BRANCH  27  29
HETATM   29  C   UNL     1     -10.969   8.059  71.504  1.00  0.00    -0.279 A  
HETATM   30  C   UNL     1     -10.258   8.074  72.729  1.00  0.00    -0.389 A  
HETATM   31  C   UNL     1     -11.623   6.883  71.151  1.00  0.00    -0.363 A  
HETATM   32  C   UNL     1     -11.601   5.760  72.008  1.00  0.00    -0.226 A  
HETATM   33  C   UNL     1     -10.264   6.968  73.599  1.00  0.00    -0.396 A  
HETATM   34  C   UNL     1     -10.931   5.808  73.234  1.00  0.00    -0.292 A  
ENDBRANCH  27  29
ENDBRANCH  26  27
ENDBRANCH   7  26
BRANCH   9  35
HETATM   35  O   UNL     1      -7.025  11.054  70.149  1.00  0.00    -0.159 OA 
BRANCH  35  36
HETATM   36  C   UNL     1      -5.808  10.433  70.203  1.00  0.00    -0.074 C  
HETATM   37  O   UNL     1      -5.250   9.862  69.305  1.00  0.00    -0.036 OA 
HETATM   38  C   UNL     1      -5.172  10.630  71.559  1.00  0.00    -0.034 C  
ENDBRANCH  35  36
ENDBRANCH   9  35
TORSDOF 7
ENDMDL
MODEL       42
REMARK 921   NORMALIZED FREE ENERGY PREDICTED BY IDOCK:   -4.98 KCAL/MOL
REMARK 922        TOTAL FREE ENERGY PREDICTED BY IDOCK:   -7.66 KCAL/MOL
REMARK 923 INTER-LIGAND FREE ENERGY PREDICTED BY IDOCK:   -6.63 KCAL/MOL
REMARK 924 INTRA-LIGAND FREE ENERGY PREDICTED BY IDOCK:   -1.03 KCAL/MOL
REMARK 927      BINDING AFFINITY PREDICTED BY RF-SCORE:    0.00 PKD
ROOT
HETATM    1  C   UNL     1      -7.560  14.401  67.193  1.00  0.00    -0.021 C  
HETATM    2  C   UNL     1      -7.804  13.021  67.754  1.00  0.00    -0.157 C  
HETATM    3  C   UNL     1      -7.849  12.513  69.172  1.00  0.00     0.366 C  
HETATM    4  C   UNL     1      -7.502  10.947  68.847  1.00  0.00    -0.116 C  
HETATM    5  O   UNL     1      -9.096  10.032  70.453  1.00  0.00    -0.077 OA 
HETATM    6  C   UNL     1      -7.894  10.834  67.153  1.00  0.00    -0.124 C  
HETATM    7  C   UNL     1      -8.827  12.089  67.117  1.00  0.00    -0.188 C  
HETATM    8  C   UNL     1      -6.019   8.331  69.160  1.00  0.00    -0.038 C  
HETATM    9  C   UNL     1      -8.583  10.004  65.986  1.00  0.00    -0.138 C  
HETATM   10  C   UNL     1      -8.373   8.581  65.534  1.00  0.00    -0.163 C  
HETATM   11  C   UNL     1      -8.071   9.848  69.794  1.00  0.00    -0.176 C  
HETATM   12  C   UNL     1      -9.757   4.351  68.008  1.00  0.00    -0.182 C  
HETATM   13  C   UNL     1      -7.334   8.499  69.873  1.00  0.00    -0.055 C  
HETATM   14  C   UNL     1     -10.098   4.932  70.413  1.00  0.00    -0.316 C  
HETATM   15  C   UNL     1      -9.343   5.259  69.154  1.00  0.00    -0.166 C  
HETATM   16  C   UNL     1      -9.264   7.596  66.230  1.00  0.00    -0.204 C  
HETATM   17  C   UNL     1      -7.665   8.158  64.470  1.00  0.00    -0.121 C  
HETATM   18  C   UNL     1      -8.067   7.437  70.310  1.00  0.00    -0.116 C  
HETATM   19  C   UNL     1      -8.120   6.161  69.506  1.00  0.00    -0.112 C  
HETATM   20  C   UNL     1      -8.401   6.847  67.193  1.00  0.00    -0.121 C  
HETATM   21  C   UNL     1      -9.114   6.583  68.480  1.00  0.00    -0.127 C  
ENDROOT
BRANCH   4  22
HETATM   22  O   UNL     1      -6.033  11.015  69.127  1.00  0.00    -0.041 OA 
BRANCH  22  23
HETATM   23  C   UNL     1      -5.690  11.596  70.336  1.00  0.00    -0.158 C  
HETATM   24  C   UNL     1      -5.127  12.975  70.169  1.00  0.00    -0.092 C  
HETATM   25  O   UNL     1      -5.871  11.107  71.444  1.00  0.00    -0.355 OA 
ENDBRANCH  22  23
ENDBRANCH   4  22
BRANCH   7  26
HETATM   26  O   UNL     1      -9.989  11.693  68.010  1.00  0.00    -0.177 OA 
BRANCH  26  27
HETATM   27  C   UNL     1     -11.227  12.265  67.913  1.00  0.00    -0.274 C  
HETATM   28  O   UNL     1     -12.274  11.668  68.126  1.00  0.00    -0.537 OA 
BRANCH  27  29
HETATM   29  C   UNL     1     -11.197  13.780  67.798  1.00  0.00    -0.312 A  
HETATM   30  C   UNL     1     -11.355  14.547  68.979  1.00  0.00    -0.296 A  
HETATM   31  C   UNL     1     -11.010  14.467  66.603  1.00  0.00    -0.318 A  
HETATM   32  C   UNL     1     -10.948  15.877  66.582  1.00  0.00    -0.136 A  
HETATM   33  C   UNL     1     -11.259  15.951  68.965  1.00  0.00    -0.327 A  
HETATM   34  C   UNL     1     -11.062  16.617  67.764  1.00  0.00    -0.157 A  
ENDBRANCH  27  29
ENDBRANCH  26  27
ENDBRANCH   7  26
BRANCH   9  35
HETATM   35  O   UNL     1      -8.648  10.790  64.714  1.00  0.00    -0.161 OA 
BRANCH  35  36
HETATM   36  C   UNL     1      -9.651  10.639  63.798  1.00  0.00    -0.306 C  
HETATM   37  O   UNL     1      -9.586  10.062  62.746  1.00  0.00    -0.270 OA 
HETATM   38  C   UNL     1     -10.940  11.230  64.321  1.00  0.00    -0.358 C  
ENDBRANCH  35  36
ENDBRANCH   9  35
TORSDOF 7
ENDMDL
MODEL       43
REMARK 921   NORMALIZED FREE ENERGY PREDICTED BY IDOCK:   -4.97 KCAL/MOL
REMARK 922        TOTAL FREE ENERGY PREDICTED BY IDOCK:   -7.64 KCAL/MOL
REMARK 923 INTER-LIGAND FREE ENERGY PREDICTED BY IDOCK:   -6.34 KCAL/MOL
REMARK 924 INTRA-LIGAND FREE ENERGY PREDICTED BY IDOCK:   -1.31 KCAL/MOL
REMARK 927      BINDING AFFINITY PREDICTED BY RF-SCORE:    0.00 PKD
ROOT
HETATM    1  C   UNL     1      -5.901  10.742  65.413  1.00  0.00    -0.079 C  
HETATM    2  C   UNL     1      -6.742   9.905  66.347  1.00  0.00    -0.085 C  
HETATM    3  C   UNL     1      -6.726   8.431  66.655  1.00  0.00    -0.061 C  
HETATM    4  C   UNL     1      -8.270   8.307  67.182  1.00  0.00    -0.119 C  
HETATM    5  O   UNL     1      -7.753   6.790  69.022  1.00  0.00    -0.105 OA 
HETATM    6  C   UNL     1      -8.653   9.962  67.571  1.00  0.00    -0.122 C  
HETATM    7  C   UNL     1      -7.170  10.444  67.705  1.00  0.00    -0.086 C  
HETATM    8  C   UNL     1     -11.058   7.143  67.296  1.00  0.00    -0.229 C  
HETATM    9  C   UNL     1      -9.318  10.983  68.591  1.00  0.00    -0.194 C  
HETATM   10  C   UNL     1     -10.713  11.037  69.159  1.00  0.00    -0.274 C  
HETATM   11  C   UNL     1      -8.607   7.219  68.245  1.00  0.00    -0.123 C  
HETATM   12  C   UNL     1     -12.754   7.847  72.564  1.00  0.00    -0.020 C  
HETATM   13  C   UNL     1     -10.055   6.702  68.328  1.00  0.00    -0.170 C  
HETATM   14  C   UNL     1     -11.417   5.738  72.555  1.00  0.00    -0.349 C  
HETATM   15  C   UNL     1     -11.893   6.908  71.738  1.00  0.00    -0.354 C  
HETATM   16  C   UNL     1     -10.868  10.266  70.436  1.00  0.00    -0.320 C  
HETATM   17  C   UNL     1     -11.720  11.844  68.778  1.00  0.00    -0.379 C  
HETATM   18  C   UNL     1     -10.426   6.137  69.510  1.00  0.00    -0.315 C  
HETATM   19  C   UNL     1     -11.671   6.604  70.223  1.00  0.00    -0.432 C  
HETATM   20  C   UNL     1     -11.635   9.029  70.097  1.00  0.00    -0.007 C  
HETATM   21  C   UNL     1     -11.123   7.841  70.846  1.00  0.00    -0.270 C  
ENDROOT
BRANCH   4  22
HETATM   22  O   UNL     1      -8.873   7.831  65.897  1.00  0.00    -0.167 OA 
BRANCH  22  23
HETATM   23  C   UNL     1      -8.157   6.844  65.240  1.00  0.00    -0.134 C  
HETATM   24  C   UNL     1      -7.808   7.228  63.835  1.00  0.00    -0.111 C  
HETATM   25  O   UNL     1      -7.770   5.791  65.732  1.00  0.00    -0.090 OA 
ENDBRANCH  22  23
ENDBRANCH   4  22
BRANCH   7  26
HETATM   26  O   UNL     1      -6.653   9.670  68.904  1.00  0.00    -0.046 OA 
BRANCH  26  27
HETATM   27  C   UNL     1      -6.388  10.260  70.109  1.00  0.00    -0.117 C  
HETATM   28  O   UNL     1      -6.280  11.469  70.269  1.00  0.00    -0.161 OA 
BRANCH  27  29
HETATM   29  C   UNL     1      -6.521   9.320  71.296  1.00  0.00    -0.066 A  
HETATM   30  C   UNL     1      -7.795   8.768  71.577  1.00  0.00    -0.147 A  
HETATM   31  C   UNL     1      -5.463   8.954  72.122  1.00  0.00    -0.059 A  
HETATM   32  C   UNL     1      -5.655   8.038  73.180  1.00  0.00    -0.047 A  
HETATM   33  C   UNL     1      -7.981   7.829  72.610  1.00  0.00    -0.145 A  
HETATM   34  C   UNL     1      -6.911   7.470  73.415  1.00  0.00    -0.074 A  
ENDBRANCH  27  29
ENDBRANCH  26  27
ENDBRANCH   7  26
BRANCH   9  35
HETATM   35  O   UNL     1      -9.010  12.402  68.231  1.00  0.00    -0.190 OA 
BRANCH  35  36
HETATM   36  C   UNL     1      -9.193  12.906  66.973  1.00  0.00    -0.226 C  
HETATM   37  O   UNL     1      -9.699  12.347  66.038  1.00  0.00    -0.250 OA 
HETATM   38  C   UNL     1      -8.745  14.348  66.911  1.00  0.00    -0.218 C  
ENDBRANCH  35  36
ENDBRANCH   9  35
TORSDOF 7
ENDMDL
MODEL       44
REMARK 921   NORMALIZED FREE ENERGY PREDICTED BY IDOCK:   -4.94 KCAL/MOL
REMARK 922        TOTAL FREE ENERGY PREDICTED BY IDOCK:   -7.60 KCAL/MOL
REMARK 923 INTER-LIGAND FREE ENERGY PREDICTED BY IDOCK:   -7.27 KCAL/MOL
REMARK 924 INTRA-LIGAND FREE ENERGY PREDICTED BY IDOCK:   -0.33 KCAL/MOL
REMARK 927      BINDING AFFINITY PREDICTED BY RF-SCORE:    0.00 PKD
ROOT
HETATM    1  C   UNL     1     -10.241  10.349  64.550  1.00  0.00    -0.281 C  
HETATM    2  C   UNL     1      -9.857   9.560  65.779  1.00  0.00    -0.363 C  
HETATM    3  C   UNL     1      -8.926   8.390  65.964  1.00  0.00    -0.228 C  
HETATM    4  C   UNL     1      -9.595   7.803  67.338  1.00  0.00    -0.151 C  
HETATM    5  O   UNL     1      -7.466   7.260  68.401  1.00  0.00    -0.100 OA 
HETATM    6  C   UNL     1     -10.475   9.185  67.931  1.00  0.00    -0.293 C  
HETATM    7  C   UNL     1      -9.666  10.252  67.122  1.00  0.00    -0.173 C  
HETATM    8  C   UNL     1     -10.783   5.683  69.136  1.00  0.00    -0.325 C  
HETATM    9  C   UNL     1     -10.872  10.093  69.173  1.00  0.00    -0.226 C  
HETATM   10  C   UNL     1     -11.509   9.732  70.492  1.00  0.00    -0.370 C  
HETATM   11  C   UNL     1      -8.678   7.045  68.344  1.00  0.00    -0.125 C  
HETATM   12  C   UNL     1      -9.359   7.161  74.325  1.00  0.00    -0.246 C  
HETATM   13  C   UNL     1      -9.327   6.027  69.299  1.00  0.00    -0.146 C  
HETATM   14  C   UNL     1      -7.406   5.895  73.416  1.00  0.00    -0.086 C  
HETATM   15  C   UNL     1      -8.767   6.462  73.113  1.00  0.00    -0.125 C  
HETATM   16  C   UNL     1     -10.515   9.386  71.560  1.00  0.00    -0.299 C  
HETATM   17  C   UNL     1     -12.796   9.897  70.849  1.00  0.00    -0.360 C  
HETATM   18  C   UNL     1      -8.633   5.739  70.435  1.00  0.00    -0.133 C  
HETATM   19  C   UNL     1      -9.300   5.840  71.785  1.00  0.00    -0.163 C  
HETATM   20  C   UNL     1     -10.580   7.904  71.738  1.00  0.00    -0.276 C  
HETATM   21  C   UNL     1      -9.224   7.317  71.964  1.00  0.00    -0.149 C  
ENDROOT
BRANCH   4  22
HETATM   22  O   UNL     1     -10.459   6.761  66.699  1.00  0.00    -0.214 OA 
BRANCH  22  23
HETATM   23  C   UNL     1      -9.779   5.782  65.994  1.00  0.00    -0.015 C  
HETATM   24  C   UNL     1     -10.603   4.548  65.789  1.00  0.00    -0.226 C  
HETATM   25  O   UNL     1      -8.658   5.892  65.513  1.00  0.00    -0.151 OA 
ENDBRANCH  22  23
ENDBRANCH   4  22
BRANCH   7  26
HETATM   26  O   UNL     1      -8.269  10.158  67.708  1.00  0.00    -0.109 OA 
BRANCH  26  27
HETATM   27  C   UNL     1      -7.293  11.080  67.449  1.00  0.00    -0.105 C  
HETATM   28  O   UNL     1      -7.105  11.586  66.351  1.00  0.00    -0.065 OA 
BRANCH  27  29
HETATM   29  C   UNL     1      -6.638  11.648  68.698  1.00  0.00    -0.066 A  
HETATM   30  C   UNL     1      -6.562  13.056  68.837  1.00  0.00    -0.094 A  
HETATM   31  C   UNL     1      -6.115  10.869  69.725  1.00  0.00    -0.087 A  
HETATM   32  C   UNL     1      -5.561  11.469  70.877  1.00  0.00    -0.070 A  
HETATM   33  C   UNL     1      -6.042  13.656  70.000  1.00  0.00    -0.137 A  
HETATM   34  C   UNL     1      -5.535  12.861  71.017  1.00  0.00    -0.176 A  
ENDBRANCH  27  29
ENDBRANCH  26  27
ENDBRANCH   7  26
BRANCH   9  35
HETATM   35  O   UNL     1     -11.589  11.333  68.743  1.00  0.00    -0.262 OA 
BRANCH  35  36
HETATM   36  C   UNL     1     -11.125  12.591  69.013  1.00  0.00    -0.234 C  
HETATM   37  O   UNL     1     -10.202  13.149  68.483  1.00  0.00    -0.239 OA 
HETATM   38  C   UNL     1     -12.002  13.269  70.040  1.00  0.00    -0.399 C  
ENDBRANCH  35  36
ENDBRANCH   9  35
TORSDOF 7
ENDMDL
MODEL       45
REMARK 921   NORMALIZED FREE ENERGY PREDICTED BY IDOCK:   -4.93 KCAL/MOL
REMARK 922        TOTAL FREE ENERGY PREDICTED BY IDOCK:   -7.59 KCAL/MOL
REMARK 923 INTER-LIGAND FREE ENERGY PREDICTED BY IDOCK:   -6.54 KCAL/MOL
REMARK 924 INTRA-LIGAND FREE ENERGY PREDICTED BY IDOCK:   -1.05 KCAL/MOL
REMARK 927      BINDING AFFINITY PREDICTED BY RF-SCORE:    0.00 PKD
ROOT
HETATM    1  C   UNL     1      -8.384  13.134  66.623  1.00  0.00     0.190 C  
HETATM    2  C   UNL     1      -8.445  11.930  67.532  1.00  0.00    -0.161 C  
HETATM    3  C   UNL     1      -8.257  11.791  69.020  1.00  0.00     0.150 C  
HETATM    4  C   UNL     1      -7.843  10.208  69.035  1.00  0.00    -0.107 C  
HETATM    5  O   UNL     1      -9.129   9.666  71.038  1.00  0.00    -0.180 OA 
HETATM    6  C   UNL     1      -8.456   9.660  67.499  1.00  0.00    -0.125 C  
HETATM    7  C   UNL     1      -9.475  10.831  67.303  1.00  0.00    -0.159 C  
HETATM    8  C   UNL     1      -6.143   7.811  69.744  1.00  0.00    -0.027 C  
HETATM    9  C   UNL     1      -9.237   8.540  66.686  1.00  0.00    -0.177 C  
HETATM   10  C   UNL     1      -8.987   7.057  66.566  1.00  0.00    -0.165 C  
HETATM   11  C   UNL     1      -8.194   9.361  70.295  1.00  0.00    -0.175 C  
HETATM   12  C   UNL     1      -9.701   3.534  70.172  1.00  0.00    -0.155 C  
HETATM   13  C   UNL     1      -7.356   8.103  70.586  1.00  0.00    -0.053 C  
HETATM   14  C   UNL     1      -9.749   4.685  72.388  1.00  0.00    -0.207 C  
HETATM   15  C   UNL     1      -9.201   4.714  70.988  1.00  0.00    -0.195 C  
HETATM   16  C   UNL     1      -9.698   6.246  67.607  1.00  0.00    -0.126 C  
HETATM   17  C   UNL     1      -8.404   6.408  65.541  1.00  0.00    -0.147 C  
HETATM   18  C   UNL     1      -7.941   7.158  71.374  1.00  0.00    -0.102 C  
HETATM   19  C   UNL     1      -8.010   5.720  70.920  1.00  0.00    -0.111 C  
HETATM   20  C   UNL     1      -8.658   5.795  68.580  1.00  0.00    -0.109 C  
HETATM   21  C   UNL     1      -9.165   5.834  69.986  1.00  0.00    -0.168 C  
ENDROOT
BRANCH   4  22
HETATM   22  O   UNL     1      -6.359  10.398  69.064  1.00  0.00    -0.043 OA 
BRANCH  22  23
HETATM   23  C   UNL     1      -5.903  11.345  69.966  1.00  0.00    -0.126 C  
HETATM   24  C   UNL     1      -5.165  12.464  69.299  1.00  0.00    -0.068 C  
HETATM   25  O   UNL     1      -6.115  11.345  71.173  1.00  0.00    -0.324 OA 
ENDBRANCH  22  23
ENDBRANCH   4  22
BRANCH   7  26
HETATM   26  O   UNL     1     -10.470  10.628  68.431  1.00  0.00    -0.170 OA 
BRANCH  26  27
HETATM   27  C   UNL     1     -11.715  11.195  68.432  1.00  0.00    -0.279 C  
HETATM   28  O   UNL     1     -12.581  10.938  69.258  1.00  0.00    -0.356 OA 
BRANCH  27  29
HETATM   29  C   UNL     1     -11.848  12.386  67.499  1.00  0.00    -0.354 A  
HETATM   30  C   UNL     1     -11.786  13.688  68.055  1.00  0.00    -0.397 A  
HETATM   31  C   UNL     1     -12.016  12.281  66.121  1.00  0.00    -0.323 A  
HETATM   32  C   UNL     1     -12.087  13.436  65.311  1.00  0.00    -0.446 A  
HETATM   33  C   UNL     1     -11.823  14.839  67.246  1.00  0.00    -0.316 A  
HETATM   34  C   UNL     1     -11.980  14.712  65.874  1.00  0.00    -0.242 A  
ENDBRANCH  27  29
ENDBRANCH  26  27
ENDBRANCH   7  26
BRANCH   9  35
HETATM   35  O   UNL     1      -9.535   8.979  65.288  1.00  0.00    -0.186 OA 
BRANCH  35  36
HETATM   36  C   UNL     1      -8.631   9.650  64.511  1.00  0.00    -0.188 C  
HETATM   37  O   UNL     1      -7.447   9.455  64.450  1.00  0.00    -0.103 OA 
HETATM   38  C   UNL     1      -9.335  10.654  63.628  1.00  0.00    -0.315 C  
ENDBRANCH  35  36
ENDBRANCH   9  35
TORSDOF 7
ENDMDL
MODEL       46
REMARK 921   NORMALIZED FREE ENERGY PREDICTED BY IDOCK:   -4.86 KCAL/MOL
REMARK 922        TOTAL FREE ENERGY PREDICTED BY IDOCK:   -7.48 KCAL/MOL
REMARK 923 INTER-LIGAND FREE ENERGY PREDICTED BY IDOCK:   -7.51 KCAL/MOL
REMARK 924 INTRA-LIGAND FREE ENERGY PREDICTED BY IDOCK:    0.03 KCAL/MOL
REMARK 927      BINDING AFFINITY PREDICTED BY RF-SCORE:    0.00 PKD
ROOT
HETATM    1  C   UNL     1      -6.333   9.938  64.070  1.00  0.00    -0.126 C  
HETATM    2  C   UNL     1      -7.228   9.905  65.286  1.00  0.00    -0.131 C  
HETATM    3  C   UNL     1      -7.556  10.958  66.313  1.00  0.00    -0.136 C  
HETATM    4  C   UNL     1      -7.994   9.945  67.522  1.00  0.00    -0.106 C  
HETATM    5  O   UNL     1      -9.881  11.301  68.269  1.00  0.00    -0.182 OA 
HETATM    6  C   UNL     1      -8.339   8.474  66.654  1.00  0.00    -0.112 C  
HETATM    7  C   UNL     1      -8.553   9.154  65.261  1.00  0.00    -0.167 C  
HETATM    8  C   UNL     1      -7.962   8.833  70.333  1.00  0.00    -0.113 C  
HETATM    9  C   UNL     1      -9.306   7.229  66.450  1.00  0.00    -0.150 C  
HETATM   10  C   UNL     1      -9.792   6.191  67.429  1.00  0.00    -0.151 C  
HETATM   11  C   UNL     1      -9.051  10.437  68.556  1.00  0.00    -0.145 C  
HETATM   12  C   UNL     1     -13.115   6.886  71.225  1.00  0.00    -0.273 C  
HETATM   13  C   UNL     1      -9.056   9.795  69.956  1.00  0.00    -0.258 C  
HETATM   14  C   UNL     1     -13.210   9.329  71.740  1.00  0.00    -0.472 C  
HETATM   15  C   UNL     1     -12.352   8.200  71.238  1.00  0.00    -0.285 C  
HETATM   16  C   UNL     1     -11.068   6.572  68.119  1.00  0.00    -0.332 C  
HETATM   17  C   UNL     1      -9.342   4.931  67.575  1.00  0.00    -0.148 C  
HETATM   18  C   UNL     1     -10.222   9.884  70.654  1.00  0.00    -0.203 C  
HETATM   19  C   UNL     1     -10.857   8.647  71.242  1.00  0.00    -0.327 C  
HETATM   20  C   UNL     1     -10.701   6.941  69.521  1.00  0.00    -0.276 C  
HETATM   21  C   UNL     1     -11.494   8.112  70.007  1.00  0.00     0.082 C  
ENDROOT
BRANCH   4  22
HETATM   22  O   UNL     1      -6.683   9.930  68.244  1.00  0.00    -0.059 OA 
BRANCH  22  23
HETATM   23  C   UNL     1      -5.998  11.134  68.246  1.00  0.00    -0.045 C  
HETATM   24  C   UNL     1      -6.313  11.970  69.448  1.00  0.00    -0.116 C  
HETATM   25  O   UNL     1      -5.166  11.487  67.418  1.00  0.00    -0.046 OA 
ENDBRANCH  22  23
ENDBRANCH   4  22
BRANCH   7  26
HETATM   26  O   UNL     1      -9.789  10.009  65.469  1.00  0.00    -0.268 OA 
BRANCH  26  27
HETATM   27  C   UNL     1     -10.217  10.928  64.551  1.00  0.00    -0.356 C  
HETATM   28  O   UNL     1     -10.388  10.680  63.364  1.00  0.00    -0.233 OA 
BRANCH  27  29
HETATM   29  C   UNL     1     -10.745  12.213  65.168  1.00  0.00    -0.333 A  
HETATM   30  C   UNL     1     -10.124  13.436  64.810  1.00  0.00    -0.262 A  
HETATM   31  C   UNL     1     -11.813  12.268  66.058  1.00  0.00    -0.409 A  
HETATM   32  C   UNL     1     -12.276  13.505  66.556  1.00  0.00    -0.433 A  
HETATM   33  C   UNL     1     -10.606  14.672  65.279  1.00  0.00    -0.409 A  
HETATM   34  C   UNL     1     -11.679  14.706  66.157  1.00  0.00    -0.316 A  
ENDBRANCH  27  29
ENDBRANCH  26  27
ENDBRANCH   7  26
BRANCH   9  35
HETATM   35  O   UNL     1      -8.946   6.445  65.228  1.00  0.00     0.018 OA 
BRANCH  35  36
HETATM   36  C   UNL     1      -7.743   5.812  65.079  1.00  0.00    -0.096 C  
HETATM   37  O   UNL     1      -6.694   6.130  65.571  1.00  0.00    -0.045 OA 
HETATM   38  C   UNL     1      -7.905   4.554  64.258  1.00  0.00    -0.086 C  
ENDBRANCH  35  36
ENDBRANCH   9  35
TORSDOF 7
ENDMDL
MODEL       47
REMARK 921   NORMALIZED FREE ENERGY PREDICTED BY IDOCK:   -4.85 KCAL/MOL
REMARK 922        TOTAL FREE ENERGY PREDICTED BY IDOCK:   -7.48 KCAL/MOL
REMARK 923 INTER-LIGAND FREE ENERGY PREDICTED BY IDOCK:   -7.12 KCAL/MOL
REMARK 924 INTRA-LIGAND FREE ENERGY PREDICTED BY IDOCK:   -0.35 KCAL/MOL
REMARK 927      BINDING AFFINITY PREDICTED BY RF-SCORE:    0.00 PKD
ROOT
HETATM    1  C   UNL     1     -11.500   5.880  72.505  1.00  0.00    -0.347 C  
HETATM    2  C   UNL     1     -10.977   6.371  71.177  1.00  0.00    -0.327 C  
HETATM    3  C   UNL     1     -11.470   6.158  69.769  1.00  0.00    -0.362 C  
HETATM    4  C   UNL     1     -10.050   6.432  69.003  1.00  0.00    -0.165 C  
HETATM    5  O   UNL     1     -11.036   7.691  67.159  1.00  0.00    -0.266 OA 
HETATM    6  C   UNL     1      -9.154   7.316  70.208  1.00  0.00    -0.152 C  
HETATM    7  C   UNL     1     -10.401   7.774  71.035  1.00  0.00    -0.202 C  
HETATM    8  C   UNL     1      -7.789   5.826  67.090  1.00  0.00    -0.102 C  
HETATM    9  C   UNL     1      -8.198   8.540  70.542  1.00  0.00    -0.115 C  
HETATM   10  C   UNL     1      -6.861   8.931  69.963  1.00  0.00    -0.043 C  
HETATM   11  C   UNL     1     -10.086   7.016  67.559  1.00  0.00    -0.185 C  
HETATM   12  C   UNL     1      -5.972  10.790  65.307  1.00  0.00    -0.028 C  
HETATM   13  C   UNL     1      -8.884   6.752  66.635  1.00  0.00    -0.142 C  
HETATM   14  C   UNL     1      -7.919  10.214  63.852  1.00  0.00    -0.153 C  
HETATM   15  C   UNL     1      -7.088   9.797  65.035  1.00  0.00    -0.120 C  
HETATM   16  C   UNL     1      -6.968   9.842  68.777  1.00  0.00    -0.062 C  
HETATM   17  C   UNL     1      -5.646   8.736  70.508  1.00  0.00    -0.027 C  
HETATM   18  C   UNL     1      -8.719   7.621  65.598  1.00  0.00    -0.119 C  
HETATM   19  C   UNL     1      -7.392   8.305  65.378  1.00  0.00    -0.083 C  
HETATM   20  C   UNL     1      -6.641   9.018  67.575  1.00  0.00    -0.065 C  
HETATM   21  C   UNL     1      -7.512   9.370  66.412  1.00  0.00    -0.093 C  
ENDROOT
BRANCH   4  22
HETATM   22  O   UNL     1      -9.630   5.003  68.862  1.00  0.00    -0.130 OA 
BRANCH  22  23
HETATM   23  C   UNL     1      -8.817   4.524  69.876  1.00  0.00    -0.086 C  
HETATM   24  C   UNL     1      -9.417   3.349  70.585  1.00  0.00    -0.243 C  
HETATM   25  O   UNL     1      -7.697   4.937  70.152  1.00  0.00    -0.060 OA 
ENDBRANCH  22  23
ENDBRANCH   4  22
BRANCH   7  26
HETATM   26  O   UNL     1     -11.145   8.687  70.078  1.00  0.00    -0.237 OA 
BRANCH  26  27
HETATM   27  C   UNL     1     -11.610   9.922  70.441  1.00  0.00    -0.282 C  
HETATM   28  O   UNL     1     -11.972  10.209  71.574  1.00  0.00    -0.374 OA 
BRANCH  27  29
HETATM   29  C   UNL     1     -11.374  10.999  69.395  1.00  0.00    -0.352 A  
HETATM   30  C   UNL     1     -10.509  10.708  68.312  1.00  0.00    -0.214 A  
HETATM   31  C   UNL     1     -11.966  12.258  69.428  1.00  0.00    -0.318 A  
HETATM   32  C   UNL     1     -11.734  13.193  68.395  1.00  0.00    -0.386 A  
HETATM   33  C   UNL     1     -10.303  11.625  67.264  1.00  0.00    -0.232 A  
HETATM   34  C   UNL     1     -10.912  12.871  67.310  1.00  0.00    -0.289 A  
ENDBRANCH  27  29
ENDBRANCH  26  27
ENDBRANCH   7  26
BRANCH   9  35
HETATM   35  O   UNL     1      -8.029   8.723  72.017  1.00  0.00    -0.311 OA 
BRANCH  35  36
HETATM   36  C   UNL     1      -7.903   7.675  72.886  1.00  0.00    -0.108 C  
HETATM   37  O   UNL     1      -7.188   6.717  72.763  1.00  0.00    -0.079 OA 
HETATM   38  C   UNL     1      -8.738   7.910  74.123  1.00  0.00    -0.263 C  
ENDBRANCH  35  36
ENDBRANCH   9  35
TORSDOF 7
ENDMDL
MODEL       48
REMARK 921   NORMALIZED FREE ENERGY PREDICTED BY IDOCK:   -4.85 KCAL/MOL
REMARK 922        TOTAL FREE ENERGY PREDICTED BY IDOCK:   -7.48 KCAL/MOL
REMARK 923 INTER-LIGAND FREE ENERGY PREDICTED BY IDOCK:   -7.05 KCAL/MOL
REMARK 924 INTRA-LIGAND FREE ENERGY PREDICTED BY IDOCK:   -0.43 KCAL/MOL
REMARK 927      BINDING AFFINITY PREDICTED BY RF-SCORE:    0.00 PKD
ROOT
HETATM    1  C   UNL     1      -7.301   7.204  70.992  1.00  0.00    -0.075 C  
HETATM    2  C   UNL     1      -7.817   8.076  69.874  1.00  0.00    -0.102 C  
HETATM    3  C   UNL     1      -7.317   8.302  68.470  1.00  0.00    -0.093 C  
HETATM    4  C   UNL     1      -7.995   9.773  68.237  1.00  0.00    -0.096 C  
HETATM    5  O   UNL     1      -8.657   9.344  65.927  1.00  0.00    -0.131 OA 
HETATM    6  C   UNL     1      -9.243   9.793  69.453  1.00  0.00    -0.214 C  
HETATM    7  C   UNL     1      -9.314   8.241  69.639  1.00  0.00    -0.158 C  
HETATM    8  C   UNL     1      -8.038  12.698  67.475  1.00  0.00    -0.178 C  
HETATM    9  C   UNL     1     -10.749  10.135  69.828  1.00  0.00    -0.279 C  
HETATM   10  C   UNL     1     -11.524  11.423  69.707  1.00  0.00    -0.376 C  
HETATM   11  C   UNL     1      -8.394  10.185  66.788  1.00  0.00    -0.122 C  
HETATM   12  C   UNL     1     -13.137  13.627  65.409  1.00  0.00    -0.180 C  
HETATM   13  C   UNL     1      -8.480  11.685  66.454  1.00  0.00    -0.114 C  
HETATM   14  C   UNL     1     -11.788  12.719  63.513  1.00  0.00    -0.618 C  
HETATM   15  C   UNL     1     -11.796  13.056  64.979  1.00  0.00    -0.401 C  
HETATM   16  C   UNL     1     -12.227  11.574  68.391  1.00  0.00     0.105 C  
HETATM   17  C   UNL     1     -11.814  12.298  70.688  1.00  0.00    -0.044 C  
HETATM   18  C   UNL     1      -9.252  12.020  65.382  1.00  0.00     0.095 C  
HETATM   19  C   UNL     1     -10.331  13.067  65.514  1.00  0.00    -0.304 C  
HETATM   20  C   UNL     1     -11.460  12.593  67.612  1.00  0.00    -0.390 C  
HETATM   21  C   UNL     1     -11.378  12.230  66.163  1.00  0.00    -0.402 C  
ENDROOT
BRANCH   4  22
HETATM   22  O   UNL     1      -6.794  10.595  68.586  1.00  0.00    -0.056 OA 
BRANCH  22  23
HETATM   23  C   UNL     1      -5.709  10.443  67.739  1.00  0.00    -0.044 C  
HETATM   24  C   UNL     1      -5.139  11.757  67.298  1.00  0.00    -0.086 C  
HETATM   25  O   UNL     1      -5.196   9.379  67.414  1.00  0.00    -0.036 OA 
ENDBRANCH  22  23
ENDBRANCH   4  22
BRANCH   7  26
HETATM   26  O   UNL     1      -9.819   7.745  68.297  1.00  0.00    -0.158 OA 
BRANCH  26  27
HETATM   27  C   UNL     1     -10.375   6.507  68.125  1.00  0.00    -0.187 C  
HETATM   28  O   UNL     1     -11.253   6.260  67.309  1.00  0.00    -0.332 OA 
BRANCH  27  29
HETATM   29  C   UNL     1      -9.617   5.391  68.825  1.00  0.00    -0.182 A  
HETATM   30  C   UNL     1     -10.094   4.938  70.080  1.00  0.00    -0.332 A  
HETATM   31  C   UNL     1      -8.484   4.773  68.304  1.00  0.00    -0.100 A  
HETATM   32  C   UNL     1      -7.859   3.710  68.993  1.00  0.00    -0.052 A  
HETATM   33  C   UNL     1      -9.493   3.857  70.751  1.00  0.00    -0.233 A  
HETATM   34  C   UNL     1      -8.371   3.247  70.210  1.00  0.00    -0.085 A  
ENDBRANCH  27  29
ENDBRANCH  26  27
ENDBRANCH   7  26
BRANCH   9  35
HETATM   35  O   UNL     1     -11.114   9.610  71.180  1.00  0.00    -0.332 OA 
BRANCH  35  36
HETATM   36  C   UNL     1     -12.338   9.071  71.462  1.00  0.00    -0.331 C  
HETATM   37  O   UNL     1     -13.236   9.594  72.066  1.00  0.00    -0.400 OA 
HETATM   38  C   UNL     1     -12.477   7.709  70.821  1.00  0.00    -0.020 C  
ENDBRANCH  35  36
ENDBRANCH   9  35
TORSDOF 7
ENDMDL
MODEL       49
REMARK 921   NORMALIZED FREE ENERGY PREDICTED BY IDOCK:   -4.83 KCAL/MOL
REMARK 922        TOTAL FREE ENERGY PREDICTED BY IDOCK:   -7.44 KCAL/MOL
REMARK 923 INTER-LIGAND FREE ENERGY PREDICTED BY IDOCK:   -7.25 KCAL/MOL
REMARK 924 INTRA-LIGAND FREE ENERGY PREDICTED BY IDOCK:   -0.19 KCAL/MOL
REMARK 927      BINDING AFFINITY PREDICTED BY RF-SCORE:    0.00 PKD
ROOT
HETATM    1  C   UNL     1      -7.997  11.124  66.294  1.00  0.00    -0.125 C  
HETATM    2  C   UNL     1      -8.233  10.320  67.549  1.00  0.00    -0.114 C  
HETATM    3  C   UNL     1      -8.185  10.703  69.005  1.00  0.00    -0.151 C  
HETATM    4  C   UNL     1      -7.903   9.208  69.609  1.00  0.00    -0.084 C  
HETATM    5  O   UNL     1      -9.396   9.462  71.524  1.00  0.00    -0.271 OA 
HETATM    6  C   UNL     1      -8.424   8.185  68.298  1.00  0.00    -0.130 C  
HETATM    7  C   UNL     1      -9.325   9.258  67.602  1.00  0.00    -0.128 C  
HETATM    8  C   UNL     1      -6.469   7.137  71.279  1.00  0.00    -0.041 C  
HETATM    9  C   UNL     1      -9.220   6.888  67.841  1.00  0.00    -0.124 C  
HETATM   10  C   UNL     1      -9.081   5.448  68.265  1.00  0.00    -0.116 C  
HETATM   11  C   UNL     1      -8.428   8.874  71.037  1.00  0.00    -0.198 C  
HETATM   12  C   UNL     1     -10.383   3.448  72.764  1.00  0.00    -0.240 C  
HETATM   13  C   UNL     1      -7.722   7.761  71.832  1.00  0.00    -0.099 C  
HETATM   14  C   UNL     1     -10.529   5.304  74.429  1.00  0.00    -0.277 C  
HETATM   15  C   UNL     1      -9.862   4.815  73.173  1.00  0.00    -0.172 C  
HETATM   16  C   UNL     1      -9.942   5.086  69.439  1.00  0.00    -0.290 C  
HETATM   17  C   UNL     1      -8.466   4.455  67.597  1.00  0.00    -0.100 C  
HETATM   18  C   UNL     1      -8.447   7.179  72.828  1.00  0.00    -0.125 C  
HETATM   19  C   UNL     1      -8.593   5.679  72.893  1.00  0.00    -0.122 C  
HETATM   20  C   UNL     1      -9.029   4.958  70.615  1.00  0.00    -0.163 C  
HETATM   21  C   UNL     1      -9.650   5.510  71.857  1.00  0.00    -0.185 C  
ENDROOT
BRANCH   4  22
HETATM   22  O   UNL     1      -6.417   9.329  69.731  1.00  0.00    -0.038 OA 
BRANCH  22  23
HETATM   23  C   UNL     1      -5.948  10.607  69.988  1.00  0.00    -0.087 C  
HETATM   24  C   UNL     1      -5.144  11.161  68.852  1.00  0.00    -0.040 C  
HETATM   25  O   UNL     1      -6.194  11.274  70.985  1.00  0.00    -0.319 OA 
ENDBRANCH  22  23
ENDBRANCH   4  22
BRANCH   7  26
HETATM   26  O   UNL     1     -10.426   9.509  68.615  1.00  0.00    -0.200 OA 
BRANCH  26  27
HETATM   27  C   UNL     1     -11.353  10.504  68.472  1.00  0.00    -0.257 C  
HETATM   28  O   UNL     1     -11.815  10.858  67.395  1.00  0.00    -0.465 OA 
BRANCH  27  29
HETATM   29  C   UNL     1     -11.985  10.949  69.781  1.00  0.00    -0.423 A  
HETATM   30  C   UNL     1     -12.026  12.335  70.072  1.00  0.00    -0.379 A  
HETATM   31  C   UNL     1     -12.541  10.077  70.712  1.00  0.00    -0.372 A  
HETATM   32  C   UNL     1     -13.152  10.568  71.887  1.00  0.00    -0.567 A  
HETATM   33  C   UNL     1     -12.664  12.828  71.226  1.00  0.00    -0.364 A  
HETATM   34  C   UNL     1     -13.222  11.943  72.136  1.00  0.00    -0.366 A  
ENDBRANCH  27  29
ENDBRANCH  26  27
ENDBRANCH   7  26
BRANCH   9  35
HETATM   35  O   UNL     1      -9.360   6.823  66.353  1.00  0.00    -0.163 OA 
BRANCH  35  36
HETATM   36  C   UNL     1      -8.312   7.021  65.498  1.00  0.00    -0.133 C  
HETATM   37  O   UNL     1      -7.265   6.431  65.490  1.00  0.00    -0.066 OA 
HETATM   38  C   UNL     1      -8.667   8.056  64.456  1.00  0.00     0.241 C  
ENDBRANCH  35  36
ENDBRANCH   9  35
TORSDOF 7
ENDMDL
MODEL       50
REMARK 921   NORMALIZED FREE ENERGY PREDICTED BY IDOCK:   -4.79 KCAL/MOL
REMARK 922        TOTAL FREE ENERGY PREDICTED BY IDOCK:   -7.39 KCAL/MOL
REMARK 923 INTER-LIGAND FREE ENERGY PREDICTED BY IDOCK:   -5.68 KCAL/MOL
REMARK 924 INTRA-LIGAND FREE ENERGY PREDICTED BY IDOCK:   -1.71 KCAL/MOL
REMARK 927      BINDING AFFINITY PREDICTED BY RF-SCORE:    0.00 PKD
ROOT
HETATM    1  C   UNL     1      -7.261  10.420  66.855  1.00  0.00    -0.099 C  
HETATM    2  C   UNL     1      -7.523   9.147  67.622  1.00  0.00    -0.084 C  
HETATM    3  C   UNL     1      -6.867   7.792  67.563  1.00  0.00    -0.069 C  
HETATM    4  C   UNL     1      -8.117   6.925  68.165  1.00  0.00    -0.119 C  
HETATM    5  O   UNL     1      -6.726   5.461  69.537  1.00  0.00    -0.051 OA 
HETATM    6  C   UNL     1      -9.053   8.153  68.973  1.00  0.00    -0.148 C  
HETATM    7  C   UNL     1      -7.887   9.188  69.101  1.00  0.00    -0.092 C  
HETATM    8  C   UNL     1     -10.144   4.682  68.216  1.00  0.00    -0.070 C  
HETATM    9  C   UNL     1      -9.882   8.582  70.259  1.00  0.00    -0.182 C  
HETATM   10  C   UNL     1     -11.061   7.928  70.932  1.00  0.00    -0.268 C  
HETATM   11  C   UNL     1      -7.802   5.621  68.958  1.00  0.00    -0.096 C  
HETATM   12  C   UNL     1     -11.036   3.601  73.617  1.00  0.00    -0.317 C  
HETATM   13  C   UNL     1      -8.885   4.529  69.028  1.00  0.00    -0.123 C  
HETATM   14  C   UNL     1      -8.993   2.308  72.992  1.00  0.00    -0.079 C  
HETATM   15  C   UNL     1     -10.030   3.291  72.522  1.00  0.00    -0.227 C  
HETATM   16  C   UNL     1     -10.672   6.943  71.993  1.00  0.00    -0.244 C  
HETATM   17  C   UNL     1     -12.356   8.283  70.839  1.00  0.00    -0.046 C  
HETATM   18  C   UNL     1      -8.789   3.650  70.064  1.00  0.00    -0.147 C  
HETATM   19  C   UNL     1      -9.972   3.399  70.967  1.00  0.00    -0.013 C  
HETATM   20  C   UNL     1     -10.929   5.583  71.428  1.00  0.00    -0.208 C  
HETATM   21  C   UNL     1      -9.863   4.612  71.824  1.00  0.00    -0.247 C  
ENDROOT
BRANCH   4  22
HETATM   22  O   UNL     1      -8.693   6.485  66.856  1.00  0.00    -0.112 OA 
BRANCH  22  23
HETATM   23  C   UNL     1      -7.764   6.142  65.888  1.00  0.00    -0.093 C  
HETATM   24  C   UNL     1      -7.799   7.064  64.708  1.00  0.00    -0.126 C  
HETATM   25  O   UNL     1      -6.939   5.240  65.974  1.00  0.00    -0.063 OA 
ENDBRANCH  22  23
ENDBRANCH   4  22
BRANCH   7  26
HETATM   26  O   UNL     1      -6.904   8.502  70.032  1.00  0.00    -0.041 OA 
BRANCH  26  27
HETATM   27  C   UNL     1      -6.617   8.972  71.283  1.00  0.00    -0.086 C  
HETATM   28  O   UNL     1      -6.264  10.120  71.518  1.00  0.00    -0.313 OA 
BRANCH  27  29
HETATM   29  C   UNL     1      -7.046   8.039  72.404  1.00  0.00    -0.101 A  
HETATM   30  C   UNL     1      -6.632   6.685  72.348  1.00  0.00    -0.059 A  
HETATM   31  C   UNL     1      -7.815   8.434  73.494  1.00  0.00    -0.153 A  
HETATM   32  C   UNL     1      -8.138   7.519  74.520  1.00  0.00    -0.235 A  
HETATM   33  C   UNL     1      -6.923   5.781  73.386  1.00  0.00    -0.085 A  
HETATM   34  C   UNL     1      -7.682   6.197  74.470  1.00  0.00    -0.099 A  
ENDBRANCH  27  29
ENDBRANCH  26  27
ENDBRANCH   7  26
BRANCH   9  35
HETATM   35  O   UNL     1     -10.233  10.036  70.229  1.00  0.00    -0.268 OA 
BRANCH  35  36
HETATM   36  C   UNL     1     -10.994  10.597  69.241  1.00  0.00    -0.245 C  
HETATM   37  O   UNL     1     -11.121  10.200  68.115  1.00  0.00    -0.266 OA 
HETATM   38  C   UNL     1     -11.766  11.781  69.776  1.00  0.00    -0.408 C  
ENDBRANCH  35  36
ENDBRANCH   9  35
TORSDOF 7
ENDMDL
MODEL       51
REMARK 921   NORMALIZED FREE ENERGY PREDICTED BY IDOCK:   -4.75 KCAL/MOL
REMARK 922        TOTAL FREE ENERGY PREDICTED BY IDOCK:   -7.33 KCAL/MOL
REMARK 923 INTER-LIGAND FREE ENERGY PREDICTED BY IDOCK:   -6.90 KCAL/MOL
REMARK 924 INTRA-LIGAND FREE ENERGY PREDICTED BY IDOCK:   -0.43 KCAL/MOL
REMARK 927      BINDING AFFINITY PREDICTED BY RF-SCORE:    0.00 PKD
ROOT
HETATM    1  C   UNL     1      -5.993   8.628  70.016  1.00  0.00    -0.027 C  
HETATM    2  C   UNL     1      -6.939   9.041  68.914  1.00  0.00    -0.065 C  
HETATM    3  C   UNL     1      -7.647   8.240  67.853  1.00  0.00    -0.102 C  
HETATM    4  C   UNL     1      -7.871   9.457  66.782  1.00  0.00    -0.105 C  
HETATM    5  O   UNL     1     -10.128   8.777  66.150  1.00  0.00    -0.269 OA 
HETATM    6  C   UNL     1      -7.696  10.865  67.794  1.00  0.00    -0.107 C  
HETATM    7  C   UNL     1      -7.979  10.130  69.146  1.00  0.00    -0.124 C  
HETATM    8  C   UNL     1      -7.756  10.805  64.079  1.00  0.00     0.296 C  
HETATM    9  C   UNL     1      -8.235  12.303  68.199  1.00  0.00    -0.168 C  
HETATM   10  C   UNL     1      -8.478  13.534  67.363  1.00  0.00    -0.203 C  
HETATM   11  C   UNL     1      -9.110   9.396  65.838  1.00  0.00    -0.195 C  
HETATM   12  C   UNL     1     -12.171  14.214  63.923  1.00  0.00    -0.288 C  
HETATM   13  C   UNL     1      -9.047  10.157  64.502  1.00  0.00    -0.280 C  
HETATM   14  C   UNL     1     -13.019  11.967  63.236  1.00  0.00    -0.188 C  
HETATM   15  C   UNL     1     -11.829  12.747  63.724  1.00  0.00    -0.572 C  
HETATM   16  C   UNL     1      -9.864  13.605  66.794  1.00  0.00    -0.271 C  
HETATM   17  C   UNL     1      -7.694  14.624  67.266  1.00  0.00    -0.198 C  
HETATM   18  C   UNL     1     -10.243  10.477  63.934  1.00  0.00    -0.199 C  
HETATM   19  C   UNL     1     -10.536  11.898  63.517  1.00  0.00    -0.505 C  
HETATM   20  C   UNL     1      -9.742  13.298  65.336  1.00  0.00    -0.030 C  
HETATM   21  C   UNL     1     -10.881  12.458  64.854  1.00  0.00    -0.333 C  
ENDROOT
BRANCH   4  22
HETATM   22  O   UNL     1      -6.680   9.176  65.921  1.00  0.00    -0.077 OA 
BRANCH  22  23
HETATM   23  C   UNL     1      -6.486   7.843  65.599  1.00  0.00    -0.042 C  
HETATM   24  C   UNL     1      -5.145   7.338  66.034  1.00  0.00    -0.024 C  
HETATM   25  O   UNL     1      -7.313   7.103  65.080  1.00  0.00    -0.073 OA 
ENDBRANCH  22  23
ENDBRANCH   4  22
BRANCH   7  26
HETATM   26  O   UNL     1      -9.424   9.686  69.013  1.00  0.00    -0.157 OA 
BRANCH  26  27
HETATM   27  C   UNL     1     -10.416  10.133  69.842  1.00  0.00    -0.275 C  
HETATM   28  O   UNL     1     -10.793  11.296  69.892  1.00  0.00    -0.127 OA 
BRANCH  27  29
HETATM   29  C   UNL     1     -11.218   9.019  70.496  1.00  0.00    -0.301 A  
HETATM   30  C   UNL     1     -10.921   7.679  70.143  1.00  0.00    -0.255 A  
HETATM   31  C   UNL     1     -12.222   9.232  71.436  1.00  0.00    -0.426 A  
HETATM   32  C   UNL     1     -12.894   8.143  72.034  1.00  0.00    -0.346 A  
HETATM   33  C   UNL     1     -11.566   6.593  70.764  1.00  0.00    -0.432 A  
HETATM   34  C   UNL     1     -12.557   6.826  71.705  1.00  0.00    -0.370 A  
ENDBRANCH  27  29
ENDBRANCH  26  27
ENDBRANCH   7  26
BRANCH   9  35
HETATM   35  O   UNL     1      -7.559  12.820  69.429  1.00  0.00     0.287 OA 
BRANCH  35  36
HETATM   36  C   UNL     1      -6.200  12.898  69.553  1.00  0.00    -0.118 C  
HETATM   37  O   UNL     1      -5.379  12.482  68.779  1.00  0.00    -0.054 OA 
HETATM   38  C   UNL     1      -5.824  13.684  70.788  1.00  0.00    -0.177 C  
ENDBRANCH  35  36
ENDBRANCH   9  35
TORSDOF 7
ENDMDL
MODEL       52
REMARK 921   NORMALIZED FREE ENERGY PREDICTED BY IDOCK:   -4.71 KCAL/MOL
REMARK 922        TOTAL FREE ENERGY PREDICTED BY IDOCK:   -7.27 KCAL/MOL
REMARK 923 INTER-LIGAND FREE ENERGY PREDICTED BY IDOCK:   -7.48 KCAL/MOL
REMARK 924 INTRA-LIGAND FREE ENERGY PREDICTED BY IDOCK:    0.20 KCAL/MOL
REMARK 927      BINDING AFFINITY PREDICTED BY RF-SCORE:    0.00 PKD
ROOT
HETATM    1  C   UNL     1     -11.168   8.138  72.448  1.00  0.00    -0.452 C  
HETATM    2  C   UNL     1     -10.825   7.630  71.069  1.00  0.00    -0.255 C  
HETATM    3  C   UNL     1     -11.593   6.766  70.103  1.00  0.00    -0.397 C  
HETATM    4  C   UNL     1     -10.310   6.202  69.257  1.00  0.00    -0.221 C  
HETATM    5  O   UNL     1     -11.403   6.351  67.080  1.00  0.00    -0.314 OA 
HETATM    6  C   UNL     1      -9.082   7.378  69.636  1.00  0.00    -0.140 C  
HETATM    7  C   UNL     1     -10.069   8.508  70.079  1.00  0.00    -0.192 C  
HETATM    8  C   UNL     1      -8.560   4.088  67.989  1.00  0.00    -0.110 C  
HETATM    9  C   UNL     1      -7.899   8.301  69.113  1.00  0.00    -0.106 C  
HETATM   10  C   UNL     1      -6.645   7.956  68.350  1.00  0.00    -0.062 C  
HETATM   11  C   UNL     1     -10.515   5.831  67.757  1.00  0.00    -0.226 C  
HETATM   12  C   UNL     1      -6.334   6.505  63.479  1.00  0.00    -0.034 C  
HETATM   13  C   UNL     1      -9.559   4.807  67.121  1.00  0.00    -0.185 C  
HETATM   14  C   UNL     1      -8.580   5.673  62.768  1.00  0.00     0.021 C  
HETATM   15  C   UNL     1      -7.625   5.835  63.919  1.00  0.00    -0.083 C  
HETATM   16  C   UNL     1      -6.820   8.007  66.862  1.00  0.00    -0.073 C  
HETATM   17  C   UNL     1      -5.398   7.832  68.840  1.00  0.00    -0.026 C  
HETATM   18  C   UNL     1      -9.449   4.846  65.764  1.00  0.00    -0.172 C  
HETATM   19  C   UNL     1      -8.093   4.940  65.108  1.00  0.00    -0.112 C  
HETATM   20  C   UNL     1      -6.852   6.590  66.387  1.00  0.00    -0.061 C  
HETATM   21  C   UNL     1      -7.854   6.398  65.294  1.00  0.00    -0.108 C  
ENDROOT
BRANCH   4  22
HETATM   22  O   UNL     1     -10.155   4.905  69.987  1.00  0.00    -0.244 OA 
BRANCH  22  23
HETATM   23  C   UNL     1      -9.406   4.969  71.151  1.00  0.00    -0.149 C  
HETATM   24  C   UNL     1     -10.133   4.401  72.331  1.00  0.00    -0.243 C  
HETATM   25  O   UNL     1      -8.253   5.372  71.240  1.00  0.00    -0.115 OA 
ENDBRANCH  22  23
ENDBRANCH   4  22
BRANCH   7  26
HETATM   26  O   UNL     1     -10.821   8.843  68.804  1.00  0.00    -0.135 OA 
BRANCH  26  27
HETATM   27  C   UNL     1     -10.892  10.111  68.297  1.00  0.00    -0.252 C  
HETATM   28  O   UNL     1     -10.677  10.392  67.125  1.00  0.00    -0.259 OA 
BRANCH  27  29
HETATM   29  C   UNL     1     -11.540  11.113  69.238  1.00  0.00    -0.388 A  
HETATM   30  C   UNL     1     -12.339  10.621  70.299  1.00  0.00    -0.406 A  
HETATM   31  C   UNL     1     -11.389  12.493  69.130  1.00  0.00    -0.331 A  
HETATM   32  C   UNL     1     -11.987  13.360  70.070  1.00  0.00    -0.407 A  
HETATM   33  C   UNL     1     -12.907  11.482  71.256  1.00  0.00    -0.463 A  
HETATM   34  C   UNL     1     -12.736  12.854  71.137  1.00  0.00    -0.366 A  
ENDBRANCH  27  29
ENDBRANCH  26  27
ENDBRANCH   7  26
BRANCH   9  35
HETATM   35  O   UNL     1      -7.438   9.257  70.168  1.00  0.00    -0.071 OA 
BRANCH  35  36
HETATM   36  C   UNL     1      -7.127  10.562  69.903  1.00  0.00    -0.145 C  
HETATM   37  O   UNL     1      -7.743  11.324  69.209  1.00  0.00    -0.092 OA 
HETATM   38  C   UNL     1      -5.909  10.986  70.692  1.00  0.00    -0.105 C  
ENDBRANCH  35  36
ENDBRANCH   9  35
TORSDOF 7
ENDMDL
MODEL       53
REMARK 921   NORMALIZED FREE ENERGY PREDICTED BY IDOCK:   -4.69 KCAL/MOL
REMARK 922        TOTAL FREE ENERGY PREDICTED BY IDOCK:   -7.25 KCAL/MOL
REMARK 923 INTER-LIGAND FREE ENERGY PREDICTED BY IDOCK:   -5.86 KCAL/MOL
REMARK 924 INTRA-LIGAND FREE ENERGY PREDICTED BY IDOCK:   -1.39 KCAL/MOL
REMARK 927      BINDING AFFINITY PREDICTED BY RF-SCORE:    0.00 PKD
ROOT
HETATM    1  C   UNL     1      -8.791  13.292  67.503  1.00  0.00    -0.206 C  
HETATM    2  C   UNL     1      -9.049  11.899  68.025  1.00  0.00    -0.189 C  
HETATM    3  C   UNL     1     -10.288  11.041  68.011  1.00  0.00    -0.209 C  
HETATM    4  C   UNL     1      -9.898  10.084  69.280  1.00  0.00    -0.214 C  
HETATM    5  O   UNL     1     -10.732   8.026  68.266  1.00  0.00    -0.143 OA 
HETATM    6  C   UNL     1      -8.172  10.303  69.380  1.00  0.00    -0.171 C  
HETATM    7  C   UNL     1      -7.987  10.813  67.913  1.00  0.00    -0.110 C  
HETATM    8  C   UNL     1     -10.349   8.702  71.930  1.00  0.00    -0.405 C  
HETATM    9  C   UNL     1      -6.742   9.636  69.571  1.00  0.00    -0.051 C  
HETATM   10  C   UNL     1      -6.205   8.758  70.673  1.00  0.00    -0.039 C  
HETATM   11  C   UNL     1     -10.442   8.624  69.304  1.00  0.00    -0.217 C  
HETATM   12  C   UNL     1      -7.485   3.923  71.627  1.00  0.00    -0.056 C  
HETATM   13  C   UNL     1     -10.589   7.922  70.666  1.00  0.00    -0.221 C  
HETATM   14  C   UNL     1      -9.686   3.469  70.536  1.00  0.00    -0.187 C  
HETATM   15  C   UNL     1      -8.812   4.511  71.180  1.00  0.00    -0.151 C  
HETATM   16  C   UNL     1      -6.422   7.295  70.429  1.00  0.00    -0.042 C  
HETATM   17  C   UNL     1      -5.399   9.121  71.688  1.00  0.00    -0.054 C  
HETATM   18  C   UNL     1     -10.608   6.560  70.642  1.00  0.00    -0.280 C  
HETATM   19  C   UNL     1      -9.673   5.767  71.522  1.00  0.00    -0.193 C  
HETATM   20  C   UNL     1      -7.514   6.865  71.355  1.00  0.00    -0.082 C  
HETATM   21  C   UNL     1      -8.436   5.886  70.702  1.00  0.00    -0.129 C  
ENDROOT
BRANCH   4  22
HETATM   22  O   UNL     1     -10.666  10.830  70.325  1.00  0.00    -0.137 OA 
BRANCH  22  23
HETATM   23  C   UNL     1     -11.943  11.217  69.955  1.00  0.00    -0.367 C  
HETATM   24  C   UNL     1     -12.221  12.654  70.272  1.00  0.00    -0.347 C  
HETATM   25  O   UNL     1     -12.762  10.519  69.370  1.00  0.00    -0.160 OA 
ENDBRANCH  22  23
ENDBRANCH   4  22
BRANCH   7  26
HETATM   26  O   UNL     1      -8.372   9.613  67.068  1.00  0.00    -0.116 OA 
BRANCH  26  27
HETATM   27  C   UNL     1      -7.486   8.965  66.251  1.00  0.00    -0.091 C  
HETATM   28  O   UNL     1      -6.416   9.439  65.893  1.00  0.00    -0.072 OA 
BRANCH  27  29
HETATM   29  C   UNL     1      -7.798   7.492  66.052  1.00  0.00    -0.101 A  
HETATM   30  C   UNL     1      -7.903   6.999  64.727  1.00  0.00    -0.126 A  
HETATM   31  C   UNL     1      -7.976   6.586  67.093  1.00  0.00    -0.112 A  
HETATM   32  C   UNL     1      -8.220   5.220  66.828  1.00  0.00    -0.108 A  
HETATM   33  C   UNL     1      -8.112   5.633  64.462  1.00  0.00    -0.131 A  
HETATM   34  C   UNL     1      -8.277   4.744  65.514  1.00  0.00    -0.117 A  
ENDBRANCH  27  29
ENDBRANCH  26  27
ENDBRANCH   7  26
BRANCH   9  35
HETATM   35  O   UNL     1      -5.639  10.611  69.305  1.00  0.00    -0.038 OA 
BRANCH  35  36
HETATM   36  C   UNL     1      -5.664  11.902  69.752  1.00  0.00    -0.108 C  
HETATM   37  O   UNL     1      -5.954  12.278  70.856  1.00  0.00    -0.319 OA 
HETATM   38  C   UNL     1      -5.177  12.845  68.677  1.00  0.00    -0.058 C  
ENDBRANCH  35  36
ENDBRANCH   9  35
TORSDOF 7
ENDMDL
MODEL       54
REMARK 921   NORMALIZED FREE ENERGY PREDICTED BY IDOCK:   -4.66 KCAL/MOL
REMARK 922        TOTAL FREE ENERGY PREDICTED BY IDOCK:   -7.20 KCAL/MOL
REMARK 923 INTER-LIGAND FREE ENERGY PREDICTED BY IDOCK:   -7.76 KCAL/MOL
REMARK 924 INTRA-LIGAND FREE ENERGY PREDICTED BY IDOCK:    0.56 KCAL/MOL
REMARK 927      BINDING AFFINITY PREDICTED BY RF-SCORE:    0.00 PKD
ROOT
HETATM    1  C   UNL     1      -7.482   6.027  69.784  1.00  0.00    -0.080 C  
HETATM    2  C   UNL     1      -8.232   7.184  69.167  1.00  0.00    -0.122 C  
HETATM    3  C   UNL     1      -9.619   7.279  68.588  1.00  0.00    -0.141 C  
HETATM    4  C   UNL     1      -9.356   8.572  67.619  1.00  0.00    -0.137 C  
HETATM    5  O   UNL     1     -11.504   9.633  68.082  1.00  0.00     0.069 OA 
HETATM    6  C   UNL     1      -7.928   9.273  68.332  1.00  0.00    -0.102 C  
HETATM    7  C   UNL     1      -8.094   8.592  69.731  1.00  0.00    -0.114 C  
HETATM    8  C   UNL     1      -9.395  10.126  65.026  1.00  0.00    -0.299 C  
HETATM    9  C   UNL     1      -7.170  10.586  68.806  1.00  0.00    -0.084 C  
HETATM   10  C   UNL     1      -6.822  11.846  68.055  1.00  0.00    -0.072 C  
HETATM   11  C   UNL     1     -10.550   9.524  67.311  1.00  0.00    -0.248 C  
HETATM   12  C   UNL     1     -10.045  15.468  66.500  1.00  0.00    -0.290 C  
HETATM   13  C   UNL     1     -10.503  10.359  66.018  1.00  0.00    -0.211 C  
HETATM   14  C   UNL     1     -12.344  14.493  66.441  1.00  0.00    -0.198 C  
HETATM   15  C   UNL     1     -10.873  14.211  66.299  1.00  0.00    -0.300 C  
HETATM   16  C   UNL     1      -7.884  12.901  68.136  1.00  0.00    -0.147 C  
HETATM   17  C   UNL     1      -5.627  12.185  67.537  1.00  0.00    -0.114 C  
HETATM   18  C   UNL     1     -11.277  11.480  65.997  1.00  0.00    -0.240 C  
HETATM   19  C   UNL     1     -10.678  12.815  65.628  1.00  0.00    -0.297 C  
HETATM   20  C   UNL     1      -8.554  12.935  66.800  1.00  0.00    -0.071 C  
HETATM   21  C   UNL     1     -10.029  13.138  66.930  1.00  0.00    -0.245 C  
ENDROOT
BRANCH   4  22
HETATM   22  O   UNL     1      -9.093   7.814  66.356  1.00  0.00    -0.160 OA 
BRANCH  22  23
HETATM   23  C   UNL     1      -7.811   7.306  66.228  1.00  0.00    -0.106 C  
HETATM   24  C   UNL     1      -6.809   8.363  65.878  1.00  0.00    -0.064 C  
HETATM   25  O   UNL     1      -7.475   6.147  66.436  1.00  0.00    -0.083 OA 
ENDBRANCH  22  23
ENDBRANCH   4  22
BRANCH   7  26
HETATM   26  O   UNL     1      -9.374   9.202  70.273  1.00  0.00    -0.185 OA 
BRANCH  26  27
HETATM   27  C   UNL     1      -9.886   8.882  71.500  1.00  0.00    -0.314 C  
HETATM   28  O   UNL     1      -9.244   8.925  72.541  1.00  0.00    -0.334 OA 
BRANCH  27  29
HETATM   29  C   UNL     1     -11.400   8.744  71.517  1.00  0.00    -0.375 A  
HETATM   30  C   UNL     1     -11.960   7.458  71.316  1.00  0.00    -0.343 A  
HETATM   31  C   UNL     1     -12.276   9.803  71.731  1.00  0.00    -0.449 A  
HETATM   32  C   UNL     1     -13.671   9.589  71.778  1.00  0.00    -0.385 A  
HETATM   33  C   UNL     1     -13.348   7.238  71.396  1.00  0.00    -0.399 A  
HETATM   34  C   UNL     1     -14.204   8.306  71.621  1.00  0.00    -0.530 A  
ENDBRANCH  27  29
ENDBRANCH  26  27
ENDBRANCH   7  26
BRANCH   9  35
HETATM   35  O   UNL     1      -5.929  10.259  69.575  1.00  0.00    -0.040 OA 
BRANCH  35  36
HETATM   36  C   UNL     1      -5.673  10.761  70.821  1.00  0.00    -0.099 C  
HETATM   37  O   UNL     1      -5.858  11.886  71.198  1.00  0.00    -0.379 OA 
HETATM   38  C   UNL     1      -5.190   9.666  71.744  1.00  0.00    -0.076 C  
ENDBRANCH  35  36
ENDBRANCH   9  35
TORSDOF 7
ENDMDL
MODEL       55
REMARK 921   NORMALIZED FREE ENERGY PREDICTED BY IDOCK:   -4.63 KCAL/MOL
REMARK 922        TOTAL FREE ENERGY PREDICTED BY IDOCK:   -7.16 KCAL/MOL
REMARK 923 INTER-LIGAND FREE ENERGY PREDICTED BY IDOCK:   -5.92 KCAL/MOL
REMARK 924 INTRA-LIGAND FREE ENERGY PREDICTED BY IDOCK:   -1.24 KCAL/MOL
REMARK 927      BINDING AFFINITY PREDICTED BY RF-SCORE:    0.00 PKD
ROOT
HETATM    1  C   UNL     1     -10.293  12.023  63.606  1.00  0.00    -0.482 C  
HETATM    2  C   UNL     1      -9.656  11.296  64.765  1.00  0.00    -0.269 C  
HETATM    3  C   UNL     1      -8.369  10.520  64.871  1.00  0.00    -0.135 C  
HETATM    4  C   UNL     1      -8.786   9.590  66.152  1.00  0.00    -0.152 C  
HETATM    5  O   UNL     1      -6.607   9.728  67.241  1.00  0.00    -0.069 OA 
HETATM    6  C   UNL     1     -10.103  10.498  66.843  1.00  0.00    -0.265 C  
HETATM    7  C   UNL     1      -9.727  11.863  66.177  1.00  0.00    -0.232 C  
HETATM    8  C   UNL     1      -9.144   7.008  67.683  1.00  0.00    -0.122 C  
HETATM    9  C   UNL     1     -10.801  11.068  68.152  1.00  0.00    -0.226 C  
HETATM   10  C   UNL     1     -11.271  10.367  69.402  1.00  0.00    -0.314 C  
HETATM   11  C   UNL     1      -7.662   9.105  67.115  1.00  0.00    -0.098 C  
HETATM   12  C   UNL     1      -8.352   8.332  73.045  1.00  0.00    -0.246 C  
HETATM   13  C   UNL     1      -7.906   7.827  67.937  1.00  0.00    -0.127 C  
HETATM   14  C   UNL     1      -6.075   7.946  72.095  1.00  0.00    -0.041 C  
HETATM   15  C   UNL     1      -7.547   8.022  71.795  1.00  0.00    -0.095 C  
HETATM   16  C   UNL     1     -10.221  10.284  70.469  1.00  0.00     0.127 C  
HETATM   17  C   UNL     1     -12.532  10.025  69.722  1.00  0.00     0.277 C  
HETATM   18  C   UNL     1      -7.158   7.685  69.066  1.00  0.00    -0.078 C  
HETATM   19  C   UNL     1      -7.820   7.397  70.392  1.00  0.00    -0.098 C  
HETATM   20  C   UNL     1      -9.753   8.865  70.498  1.00  0.00    -0.244 C  
HETATM   21  C   UNL     1      -8.277   8.777  70.719  1.00  0.00    -0.178 C  
ENDROOT
BRANCH   4  22
HETATM   22  O   UNL     1      -9.220   8.384  65.379  1.00  0.00    -0.074 OA 
BRANCH  22  23
HETATM   23  C   UNL     1      -8.296   7.905  64.466  1.00  0.00    -0.012 C  
HETATM   24  C   UNL     1      -8.633   8.286  63.057  1.00  0.00     0.102 C  
HETATM   25  O   UNL     1      -7.269   7.295  64.738  1.00  0.00    -0.064 OA 
ENDBRANCH  22  23
ENDBRANCH   4  22
BRANCH   7  26
HETATM   26  O   UNL     1      -8.390  12.209  66.807  1.00  0.00    -0.175 OA 
BRANCH  26  27
HETATM   27  C   UNL     1      -8.102  13.451  67.300  1.00  0.00    -0.137 C  
HETATM   28  O   UNL     1      -8.664  14.477  66.939  1.00  0.00    -0.225 OA 
BRANCH  27  29
HETATM   29  C   UNL     1      -7.227  13.431  68.542  1.00  0.00    -0.110 A  
HETATM   30  C   UNL     1      -6.885  14.667  69.145  1.00  0.00    -0.126 A  
HETATM   31  C   UNL     1      -6.747  12.269  69.138  1.00  0.00    -0.095 A  
HETATM   32  C   UNL     1      -5.975  12.327  70.319  1.00  0.00    -0.138 A  
HETATM   33  C   UNL     1      -6.145  14.725  70.341  1.00  0.00    -0.160 A  
HETATM   34  C   UNL     1      -5.685  13.554  70.924  1.00  0.00    -0.189 A  
ENDBRANCH  27  29
ENDBRANCH  26  27
ENDBRANCH   7  26
BRANCH   9  35
HETATM   35  O   UNL     1     -11.913  12.012  67.819  1.00  0.00    -0.538 OA 
BRANCH  35  36
HETATM   36  C   UNL     1     -11.920  13.321  68.212  1.00  0.00    -0.302 C  
HETATM   37  O   UNL     1     -11.621  13.752  69.293  1.00  0.00    -0.271 OA 
HETATM   38  C   UNL     1     -12.276  14.221  67.051  1.00  0.00    -0.338 C  
ENDBRANCH  35  36
ENDBRANCH   9  35
TORSDOF 7
ENDMDL
MODEL       56
REMARK 921   NORMALIZED FREE ENERGY PREDICTED BY IDOCK:   -4.56 KCAL/MOL
REMARK 922        TOTAL FREE ENERGY PREDICTED BY IDOCK:   -7.06 KCAL/MOL
REMARK 923 INTER-LIGAND FREE ENERGY PREDICTED BY IDOCK:   -8.10 KCAL/MOL
REMARK 924 INTRA-LIGAND FREE ENERGY PREDICTED BY IDOCK:    1.05 KCAL/MOL
REMARK 927      BINDING AFFINITY PREDICTED BY RF-SCORE:    0.00 PKD
ROOT
HETATM    1  C   UNL     1      -8.547   6.465  67.182  1.00  0.00    -0.111 C  
HETATM    2  C   UNL     1      -9.147   7.839  67.363  1.00  0.00    -0.138 C  
HETATM    3  C   UNL     1     -10.570   8.327  67.275  1.00  0.00    -0.335 C  
HETATM    4  C   UNL     1     -10.236   9.895  66.946  1.00  0.00    -0.240 C  
HETATM    5  O   UNL     1     -11.993  10.797  68.380  1.00  0.00    -0.508 OA 
HETATM    6  C   UNL     1      -8.586  10.035  67.491  1.00  0.00    -0.122 C  
HETATM    7  C   UNL     1      -8.619   8.786  68.433  1.00  0.00    -0.134 C  
HETATM    8  C   UNL     1     -10.448  12.497  65.422  1.00  0.00    -0.308 C  
HETATM    9  C   UNL     1      -7.499  10.885  68.278  1.00  0.00    -0.093 C  
HETATM   10  C   UNL     1      -7.049  12.314  68.099  1.00  0.00    -0.091 C  
HETATM   11  C   UNL     1     -11.246  10.983  67.419  1.00  0.00    -0.285 C  
HETATM   12  C   UNL     1      -9.698  16.516  69.218  1.00  0.00    -0.193 C  
HETATM   13  C   UNL     1     -11.276  12.327  66.667  1.00  0.00    -0.367 C  
HETATM   14  C   UNL     1     -12.117  15.903  69.343  1.00  0.00    -0.183 C  
HETATM   15  C   UNL     1     -10.789  15.590  68.708  1.00  0.00    -0.256 C  
HETATM   16  C   UNL     1      -7.838  13.294  68.915  1.00  0.00     0.104 C  
HETATM   17  C   UNL     1      -5.931  12.748  67.488  1.00  0.00    -0.143 C  
HETATM   18  C   UNL     1     -11.793  13.386  67.349  1.00  0.00    -0.418 C  
HETATM   19  C   UNL     1     -11.015  14.674  67.465  1.00  0.00    -0.301 C  
HETATM   20  C   UNL     1      -8.728  14.023  67.962  1.00  0.00    -0.180 C  
HETATM   21  C   UNL     1     -10.079  14.274  68.552  1.00  0.00    -0.246 C  
ENDROOT
BRANCH   4  22
HETATM   22  O   UNL     1     -10.379   9.813  65.459  1.00  0.00    -0.178 OA 
BRANCH  22  23
HETATM   23  C   UNL     1      -9.217   9.509  64.770  1.00  0.00    -0.205 C  
HETATM   24  C   UNL     1      -8.310  10.693  64.626  1.00  0.00    -0.056 C  
HETATM   25  O   UNL     1      -8.892   8.399  64.368  1.00  0.00     0.045 OA 
ENDBRANCH  22  23
ENDBRANCH   4  22
BRANCH   7  26
HETATM   26  O   UNL     1      -9.620   9.177  69.505  1.00  0.00    -0.160 OA 
BRANCH  26  27
HETATM   27  C   UNL     1      -9.862   8.407  70.609  1.00  0.00    -0.181 C  
HETATM   28  O   UNL     1      -8.983   7.914  71.304  1.00  0.00    -0.130 OA 
BRANCH  27  29
HETATM   29  C   UNL     1     -11.307   8.445  71.080  1.00  0.00    -0.310 A  
HETATM   30  C   UNL     1     -12.068   7.251  71.015  1.00  0.00    -0.361 A  
HETATM   31  C   UNL     1     -11.931   9.581  71.586  1.00  0.00    -0.474 A  
HETATM   32  C   UNL     1     -13.265   9.528  72.047  1.00  0.00    -0.539 A  
HETATM   33  C   UNL     1     -13.385   7.189  71.505  1.00  0.00    -0.413 A  
HETATM   34  C   UNL     1     -13.986   8.330  72.015  1.00  0.00    -0.432 A  
ENDBRANCH  27  29
ENDBRANCH  26  27
ENDBRANCH   7  26
BRANCH   9  35
HETATM   35  O   UNL     1      -6.228  10.119  68.465  1.00  0.00    -0.045 OA 
BRANCH  35  36
HETATM   36  C   UNL     1      -5.684   9.332  67.488  1.00  0.00    -0.042 C  
HETATM   37  O   UNL     1      -5.478   9.640  66.345  1.00  0.00    -0.043 OA 
HETATM   38  C   UNL     1      -5.268   7.995  68.056  1.00  0.00    -0.033 C  
ENDBRANCH  35  36
ENDBRANCH   9  35
TORSDOF 7
ENDMDL
MODEL       57
REMARK 921   NORMALIZED FREE ENERGY PREDICTED BY IDOCK:   -4.55 KCAL/MOL
REMARK 922        TOTAL FREE ENERGY PREDICTED BY IDOCK:   -7.05 KCAL/MOL
REMARK 923 INTER-LIGAND FREE ENERGY PREDICTED BY IDOCK:   -5.49 KCAL/MOL
REMARK 924 INTRA-LIGAND FREE ENERGY PREDICTED BY IDOCK:   -1.56 KCAL/MOL
REMARK 927      BINDING AFFINITY PREDICTED BY RF-SCORE:    0.00 PKD
ROOT
HETATM    1  C   UNL     1     -10.153   2.923  71.627  1.00  0.00    -0.056 C  
HETATM    2  C   UNL     1      -9.334   4.120  71.207  1.00  0.00    -0.218 C  
HETATM    3  C   UNL     1      -7.852   4.293  71.001  1.00  0.00    -0.067 C  
HETATM    4  C   UNL     1      -7.796   5.914  71.219  1.00  0.00    -0.112 C  
HETATM    5  O   UNL     1      -6.194   6.320  69.422  1.00  0.00    -0.031 OA 
HETATM    6  C   UNL     1      -9.456   6.372  70.952  1.00  0.00    -0.185 C  
HETATM    7  C   UNL     1      -9.852   5.088  70.151  1.00  0.00    -0.233 C  
HETATM    8  C   UNL     1      -6.782   8.501  72.410  1.00  0.00    -0.090 C  
HETATM    9  C   UNL     1     -10.478   7.385  70.278  1.00  0.00    -0.221 C  
HETATM   10  C   UNL     1     -10.590   8.885  70.383  1.00  0.00    -0.252 C  
HETATM   11  C   UNL     1      -6.694   6.725  70.472  1.00  0.00    -0.053 C  
HETATM   12  C   UNL     1      -7.408  12.334  68.404  1.00  0.00    -0.109 C  
HETATM   13  C   UNL     1      -6.254   8.076  71.066  1.00  0.00    -0.034 C  
HETATM   14  C   UNL     1      -5.230  11.206  67.933  1.00  0.00    -0.039 C  
HETATM   15  C   UNL     1      -6.450  11.228  68.813  1.00  0.00    -0.058 C  
HETATM   16  C   UNL     1      -9.788   9.617  69.349  1.00  0.00    -0.203 C  
HETATM   17  C   UNL     1     -11.462   9.590  71.127  1.00  0.00    -0.430 C  
HETATM   18  C   UNL     1      -5.672   8.953  70.201  1.00  0.00    -0.030 C  
HETATM   19  C   UNL     1      -6.183  10.368  70.087  1.00  0.00    -0.108 C  
HETATM   20  C   UNL     1      -8.606  10.197  70.057  1.00  0.00    -0.019 C  
HETATM   21  C   UNL     1      -7.368  10.111  69.222  1.00  0.00    -0.098 C  
ENDROOT
BRANCH   4  22
HETATM   22  O   UNL     1      -7.395   5.900  72.661  1.00  0.00    -0.088 OA 
BRANCH  22  23
HETATM   23  C   UNL     1      -6.402   4.991  72.988  1.00  0.00    -0.047 C  
HETATM   24  C   UNL     1      -6.813   4.068  74.094  1.00  0.00    -0.059 C  
HETATM   25  O   UNL     1      -5.324   4.871  72.419  1.00  0.00    -0.007 OA 
ENDBRANCH  22  23
ENDBRANCH   4  22
BRANCH   7  26
HETATM   26  O   UNL     1      -9.013   5.183  68.890  1.00  0.00    -0.098 OA 
BRANCH  26  27
HETATM   27  C   UNL     1      -9.556   5.399  67.653  1.00  0.00    -0.127 C  
HETATM   28  O   UNL     1     -10.443   4.711  67.166  1.00  0.00    -0.099 OA 
BRANCH  27  29
HETATM   29  C   UNL     1      -9.175   6.738  67.041  1.00  0.00    -0.152 A  
HETATM   30  C   UNL     1      -7.800   7.029  66.860  1.00  0.00    -0.107 A  
HETATM   31  C   UNL     1     -10.097   7.697  66.633  1.00  0.00    -0.278 A  
HETATM   32  C   UNL     1      -9.669   8.900  66.030  1.00  0.00    -0.308 A  
HETATM   33  C   UNL     1      -7.374   8.212  66.229  1.00  0.00    -0.078 A  
HETATM   34  C   UNL     1      -8.309   9.151  65.819  1.00  0.00    -0.131 A  
ENDBRANCH  27  29
ENDBRANCH  26  27
ENDBRANCH   7  26
BRANCH   9  35
HETATM   35  O   UNL     1     -11.889   6.901  70.390  1.00  0.00    -0.342 OA 
BRANCH  35  36
HETATM   36  C   UNL     1     -12.528   6.742  71.588  1.00  0.00    -0.351 C  
HETATM   37  O   UNL     1     -12.034   6.402  72.630  1.00  0.00    -0.136 OA 
HETATM   38  C   UNL     1     -13.979   7.148  71.473  1.00  0.00    -0.440 C  
ENDBRANCH  35  36
ENDBRANCH   9  35
TORSDOF 7
ENDMDL
MODEL       58
REMARK 921   NORMALIZED FREE ENERGY PREDICTED BY IDOCK:   -4.55 KCAL/MOL
REMARK 922        TOTAL FREE ENERGY PREDICTED BY IDOCK:   -7.04 KCAL/MOL
REMARK 923 INTER-LIGAND FREE ENERGY PREDICTED BY IDOCK:   -6.41 KCAL/MOL
REMARK 924 INTRA-LIGAND FREE ENERGY PREDICTED BY IDOCK:   -0.63 KCAL/MOL
REMARK 927      BINDING AFFINITY PREDICTED BY RF-SCORE:    0.00 PKD
ROOT
HETATM    1  C   UNL     1      -6.521  10.476  68.513  1.00  0.00    -0.055 C  
HETATM    2  C   UNL     1      -7.079   9.388  69.399  1.00  0.00    -0.054 C  
HETATM    3  C   UNL     1      -7.485   9.392  70.850  1.00  0.00    -0.097 C  
HETATM    4  C   UNL     1      -7.322   7.786  71.120  1.00  0.00    -0.066 C  
HETATM    5  O   UNL     1      -9.326   7.592  72.499  1.00  0.00    -0.144 OA 
HETATM    6  C   UNL     1      -7.378   7.140  69.502  1.00  0.00    -0.089 C  
HETATM    7  C   UNL     1      -8.083   8.379  68.857  1.00  0.00    -0.114 C  
HETATM    8  C   UNL     1      -6.348   5.321  72.574  1.00  0.00    -0.043 C  
HETATM    9  C   UNL     1      -7.937   6.023  68.521  1.00  0.00    -0.107 C  
HETATM   10  C   UNL     1      -7.860   4.519  68.596  1.00  0.00    -0.075 C  
HETATM   11  C   UNL     1      -8.230   7.118  72.195  1.00  0.00    -0.098 C  
HETATM   12  C   UNL     1     -10.340   1.490  71.853  1.00  0.00    -0.166 C  
HETATM   13  C   UNL     1      -7.738   5.821  72.863  1.00  0.00    -0.097 C  
HETATM   14  C   UNL     1     -11.065   2.871  73.804  1.00  0.00    -0.302 C  
HETATM   15  C   UNL     1     -10.031   2.695  72.726  1.00  0.00    -0.208 C  
HETATM   16  C   UNL     1      -9.012   3.898  69.329  1.00  0.00    -0.175 C  
HETATM   17  C   UNL     1      -7.026   3.708  67.919  1.00  0.00    -0.051 C  
HETATM   18  C   UNL     1      -8.697   5.029  73.419  1.00  0.00    -0.111 C  
HETATM   19  C   UNL     1      -8.780   3.565  73.062  1.00  0.00    -0.096 C  
HETATM   20  C   UNL     1      -8.484   3.452  70.654  1.00  0.00    -0.104 C  
HETATM   21  C   UNL     1      -9.473   3.693  71.750  1.00  0.00    -0.210 C  
ENDROOT
BRANCH   4  22
HETATM   22  O   UNL     1      -5.946   7.830  71.708  1.00  0.00    -0.035 OA 
BRANCH  22  23
HETATM   23  C   UNL     1      -5.722   8.859  72.608  1.00  0.00    -0.076 C  
HETATM   24  C   UNL     1      -5.636   8.374  74.022  1.00  0.00    -0.094 C  
HETATM   25  O   UNL     1      -5.540  10.035  72.320  1.00  0.00    -0.288 OA 
ENDBRANCH  22  23
ENDBRANCH   4  22
BRANCH   7  26
HETATM   26  O   UNL     1      -9.447   8.398  69.523  1.00  0.00    -0.164 OA 
BRANCH  26  27
HETATM   27  C   UNL     1     -10.425   9.292  69.184  1.00  0.00    -0.217 C  
HETATM   28  O   UNL     1     -10.562   9.762  68.063  1.00  0.00    -0.216 OA 
BRANCH  27  29
HETATM   29  C   UNL     1     -11.510   9.443  70.237  1.00  0.00    -0.223 A  
HETATM   30  C   UNL     1     -12.029   8.271  70.842  1.00  0.00    -0.194 A  
HETATM   31  C   UNL     1     -12.023  10.667  70.657  1.00  0.00    -0.466 A  
HETATM   32  C   UNL     1     -13.000  10.731  71.674  1.00  0.00    -0.581 A  
HETATM   33  C   UNL     1     -12.978   8.335  71.879  1.00  0.00    -0.371 A  
HETATM   34  C   UNL     1     -13.468   9.566  72.291  1.00  0.00    -0.521 A  
ENDBRANCH  27  29
ENDBRANCH  26  27
ENDBRANCH   7  26
BRANCH   9  35
HETATM   35  O   UNL     1      -7.626   6.337  67.092  1.00  0.00    -0.092 OA 
BRANCH  35  36
HETATM   36  C   UNL     1      -8.590   6.463  66.131  1.00  0.00    -0.144 C  
HETATM   37  O   UNL     1      -9.648   7.022  66.239  1.00  0.00    -0.137 OA 
HETATM   38  C   UNL     1      -8.117   5.869  64.825  1.00  0.00    -0.132 C  
ENDBRANCH  35  36
ENDBRANCH   9  35
TORSDOF 7
ENDMDL
MODEL       59
REMARK 921   NORMALIZED FREE ENERGY PREDICTED BY IDOCK:   -4.54 KCAL/MOL
REMARK 922        TOTAL FREE ENERGY PREDICTED BY IDOCK:   -7.03 KCAL/MOL
REMARK 923 INTER-LIGAND FREE ENERGY PREDICTED BY IDOCK:   -5.94 KCAL/MOL
REMARK 924 INTRA-LIGAND FREE ENERGY PREDICTED BY IDOCK:   -1.09 KCAL/MOL
REMARK 927      BINDING AFFINITY PREDICTED BY RF-SCORE:    0.00 PKD
ROOT
HETATM    1  C   UNL     1     -13.023  11.046  69.580  1.00  0.00     0.466 C  
HETATM    2  C   UNL     1     -12.062  12.190  69.362  1.00  0.00    -0.247 C  
HETATM    3  C   UNL     1     -11.179  12.949  70.318  1.00  0.00     0.556 C  
HETATM    4  C   UNL     1     -11.041  14.320  69.435  1.00  0.00    -0.246 C  
HETATM    5  O   UNL     1      -8.674  14.657  69.924  1.00  0.00     0.308 OA 
HETATM    6  C   UNL     1     -11.474  13.768  67.839  1.00  0.00    -0.347 C  
HETATM    7  C   UNL     1     -11.195  12.253  68.111  1.00  0.00    -0.269 C  
HETATM    8  C   UNL     1     -11.138  17.301  68.940  1.00  0.00     0.177 C  
HETATM    9  C   UNL     1     -11.161  13.782  66.282  1.00  0.00    -0.302 C  
HETATM   10  C   UNL     1     -11.023  14.932  65.316  1.00  0.00    -0.389 C  
HETATM   11  C   UNL     1      -9.741  15.167  69.576  1.00  0.00    -0.165 C  
HETATM   12  C   UNL     1      -7.214  18.305  65.103  1.00  0.00     0.840 C  
HETATM   13  C   UNL     1      -9.807  16.668  69.244  1.00  0.00    -0.194 C  
HETATM   14  C   UNL     1      -6.028  18.281  67.301  1.00  0.00    -0.160 C  
HETATM   15  C   UNL     1      -7.343  18.079  66.600  1.00  0.00    -0.254 C  
HETATM   16  C   UNL     1      -9.622  15.454  65.206  1.00  0.00    -0.026 C  
HETATM   17  C   UNL     1     -11.936  15.367  64.428  1.00  0.00    -0.235 C  
HETATM   18  C   UNL     1      -8.625  17.267  68.925  1.00  0.00    -0.170 C  
HETATM   19  C   UNL     1      -8.494  18.069  67.653  1.00  0.00    -0.239 C  
HETATM   20  C   UNL     1      -9.596  16.762  65.928  1.00  0.00    -0.211 C  
HETATM   21  C   UNL     1      -8.324  16.944  66.693  1.00  0.00    -0.289 C  
ENDROOT
BRANCH   4  22
HETATM   22  O   UNL     1     -12.119  15.099  70.121  1.00  0.00    -0.301 OA 
BRANCH  22  23
HETATM   23  C   UNL     1     -12.174  14.945  71.496  1.00  0.00    -0.343 C  
HETATM   24  C   UNL     1     -13.516  14.473  71.966  1.00  0.00    -0.476 C  
HETATM   25  O   UNL     1     -11.239  15.098  72.272  1.00  0.00    -0.375 OA 
ENDBRANCH  22  23
ENDBRANCH   4  22
BRANCH   7  26
HETATM   26  O   UNL     1      -9.698  12.206  68.355  1.00  0.00    -0.209 OA 
BRANCH  26  27
HETATM   27  C   UNL     1      -9.012  11.036  68.532  1.00  0.00    -0.163 C  
HETATM   28  O   UNL     1      -8.930  10.447  69.602  1.00  0.00    -0.153 OA 
BRANCH  27  29
HETATM   29  C   UNL     1      -8.596  10.365  67.233  1.00  0.00    -0.126 A  
HETATM   30  C   UNL     1      -9.236   9.155  66.866  1.00  0.00    -0.183 A  
HETATM   31  C   UNL     1      -7.630  10.872  66.370  1.00  0.00    -0.146 A  
HETATM   32  C   UNL     1      -7.329  10.216  65.156  1.00  0.00    -0.141 A  
HETATM   33  C   UNL     1      -8.961   8.518  65.641  1.00  0.00    -0.209 A  
HETATM   34  C   UNL     1      -8.002   9.046  64.789  1.00  0.00    -0.129 A  
ENDBRANCH  27  29
ENDBRANCH  26  27
ENDBRANCH   7  26
BRANCH   9  35
HETATM   35  O   UNL     1     -11.987  12.777  65.544  1.00  0.00    -0.399 OA 
BRANCH  35  36
HETATM   36  C   UNL     1     -11.513  12.064  64.478  1.00  0.00    -0.319 C  
HETATM   37  O   UNL     1     -10.464  11.482  64.408  1.00  0.00    -0.280 OA 
HETATM   38  C   UNL     1     -12.545  12.011  63.375  1.00  0.00    -0.592 C  
ENDBRANCH  35  36
ENDBRANCH   9  35
TORSDOF 7
ENDMDL
MODEL       60
REMARK 921   NORMALIZED FREE ENERGY PREDICTED BY IDOCK:   -4.53 KCAL/MOL
REMARK 922        TOTAL FREE ENERGY PREDICTED BY IDOCK:   -7.02 KCAL/MOL
REMARK 923 INTER-LIGAND FREE ENERGY PREDICTED BY IDOCK:   -6.80 KCAL/MOL
REMARK 924 INTRA-LIGAND FREE ENERGY PREDICTED BY IDOCK:   -0.21 KCAL/MOL
REMARK 927      BINDING AFFINITY PREDICTED BY RF-SCORE:    0.00 PKD
ROOT
HETATM    1  C   UNL     1      -8.985   7.268  69.584  1.00  0.00    -0.141 C  
HETATM    2  C   UNL     1      -8.826   8.698  69.128  1.00  0.00    -0.137 C  
HETATM    3  C   UNL     1      -7.718   9.389  68.376  1.00  0.00    -0.086 C  
HETATM    4  C   UNL     1      -8.032  10.912  68.886  1.00  0.00    -0.146 C  
HETATM    5  O   UNL     1      -7.614  11.958  66.721  1.00  0.00    -0.124 OA 
HETATM    6  C   UNL     1      -9.685  10.779  69.423  1.00  0.00    -0.088 C  
HETATM    7  C   UNL     1     -10.018   9.488  68.604  1.00  0.00    -0.167 C  
HETATM    8  C   UNL     1      -7.371  13.612  70.073  1.00  0.00     0.864 C  
HETATM    9  C   UNL     1     -11.142  11.411  69.454  1.00  0.00    -0.241 C  
HETATM   10  C   UNL     1     -11.616  12.769  69.908  1.00  0.00    -0.243 C  
HETATM   11  C   UNL     1      -7.673  12.100  67.944  1.00  0.00    -0.134 C  
HETATM   12  C   UNL     1     -10.813  17.223  67.574  1.00  0.00    -0.206 C  
HETATM   13  C   UNL     1      -7.416  13.480  68.574  1.00  0.00    -0.122 C  
HETATM   14  C   UNL     1      -8.868  16.955  66.030  1.00  0.00    -0.194 C  
HETATM   15  C   UNL     1      -9.503  16.498  67.314  1.00  0.00    -0.237 C  
HETATM   16  C   UNL     1     -11.618  13.796  68.815  1.00  0.00    -0.363 C  
HETATM   17  C   UNL     1     -12.214  13.079  71.073  1.00  0.00    -0.232 C  
HETATM   18  C   UNL     1      -7.568  14.556  67.752  1.00  0.00    -0.171 C  
HETATM   19  C   UNL     1      -8.454  15.709  68.157  1.00  0.00    -0.147 C  
HETATM   20  C   UNL     1     -10.463  14.706  69.083  1.00  0.00    -0.239 C  
HETATM   21  C   UNL     1      -9.774  15.108  67.818  1.00  0.00    -0.211 C  
ENDROOT
BRANCH   4  22
HETATM   22  O   UNL     1      -7.034  10.950  70.000  1.00  0.00    -0.144 OA 
BRANCH  22  23
HETATM   23  C   UNL     1      -5.797  10.403  69.703  1.00  0.00    -0.045 C  
HETATM   24  C   UNL     1      -5.366   9.380  70.709  1.00  0.00    -0.032 C  
HETATM   25  O   UNL     1      -5.127  10.645  68.707  1.00  0.00    -0.042 OA 
ENDBRANCH  22  23
ENDBRANCH   4  22
BRANCH   7  26
HETATM   26  O   UNL     1      -9.911   9.946  67.161  1.00  0.00    -0.180 OA 
BRANCH  26  27
HETATM   27  C   UNL     1      -9.859   9.073  66.108  1.00  0.00    -0.278 C  
HETATM   28  O   UNL     1     -10.244   7.913  66.163  1.00  0.00     0.011 OA 
BRANCH  27  29
HETATM   29  C   UNL     1      -9.551   9.736  64.776  1.00  0.00    -0.284 A  
HETATM   30  C   UNL     1     -10.327  10.856  64.385  1.00  0.00    -0.430 A  
HETATM   31  C   UNL     1      -8.540   9.320  63.914  1.00  0.00    -0.208 A  
HETATM   32  C   UNL     1      -8.284  10.014  62.712  1.00  0.00    -0.154 A  
HETATM   33  C   UNL     1     -10.050  11.569  63.204  1.00  0.00    -0.395 A  
HETATM   34  C   UNL     1      -9.032  11.144  62.364  1.00  0.00    -0.321 A  
ENDBRANCH  27  29
ENDBRANCH  26  27
ENDBRANCH   7  26
BRANCH   9  35
HETATM   35  O   UNL     1     -12.144  10.460  70.028  1.00  0.00    -0.267 OA 
BRANCH  35  36
HETATM   36  C   UNL     1     -12.006   9.890  71.262  1.00  0.00    -0.402 C  
HETATM   37  O   UNL     1     -10.978   9.580  71.803  1.00  0.00    -0.333 OA 
HETATM   38  C   UNL     1     -13.349   9.766  71.943  1.00  0.00    -0.530 C  
ENDBRANCH  35  36
ENDBRANCH   9  35
TORSDOF 7
ENDMDL
MODEL       61
REMARK 921   NORMALIZED FREE ENERGY PREDICTED BY IDOCK:   -4.48 KCAL/MOL
REMARK 922        TOTAL FREE ENERGY PREDICTED BY IDOCK:   -6.96 KCAL/MOL
REMARK 923 INTER-LIGAND FREE ENERGY PREDICTED BY IDOCK:   -6.49 KCAL/MOL
REMARK 924 INTRA-LIGAND FREE ENERGY PREDICTED BY IDOCK:   -0.47 KCAL/MOL
REMARK 927      BINDING AFFINITY PREDICTED BY RF-SCORE:    0.00 PKD
ROOT
HETATM    1  C   UNL     1      -8.104  13.194  67.159  1.00  0.00    -0.107 C  
HETATM    2  C   UNL     1      -8.211  11.716  67.445  1.00  0.00    -0.153 C  
HETATM    3  C   UNL     1      -8.549  10.965  68.707  1.00  0.00    -0.159 C  
HETATM    4  C   UNL     1      -7.815   9.555  68.318  1.00  0.00    -0.086 C  
HETATM    5  O   UNL     1      -9.576   8.133  69.230  1.00  0.00    -0.162 OA 
HETATM    6  C   UNL     1      -7.683   9.682  66.585  1.00  0.00    -0.098 C  
HETATM    7  C   UNL     1      -8.803  10.762  66.416  1.00  0.00    -0.165 C  
HETATM    8  C   UNL     1      -5.983   7.190  68.754  1.00  0.00    -0.023 C  
HETATM    9  C   UNL     1      -7.834   8.974  65.171  1.00  0.00    -0.108 C  
HETATM   10  C   UNL     1      -7.222   7.703  64.636  1.00  0.00    -0.075 C  
HETATM   11  C   UNL     1      -8.393   8.231  68.902  1.00  0.00    -0.127 C  
HETATM   12  C   UNL     1      -8.359   2.940  66.031  1.00  0.00    -0.096 C  
HETATM   13  C   UNL     1      -7.451   7.022  69.041  1.00  0.00    -0.095 C  
HETATM   14  C   UNL     1      -9.473   3.026  68.265  1.00  0.00    -0.216 C  
HETATM   15  C   UNL     1      -8.477   3.684  67.350  1.00  0.00    -0.103 C  
HETATM   16  C   UNL     1      -8.054   6.484  64.899  1.00  0.00    -0.119 C  
HETATM   17  C   UNL     1      -6.174   7.590  63.800  1.00  0.00    -0.053 C  
HETATM   18  C   UNL     1      -8.046   5.798  69.099  1.00  0.00    -0.101 C  
HETATM   19  C   UNL     1      -7.611   4.691  68.169  1.00  0.00    -0.077 C  
HETATM   20  C   UNL     1      -7.363   5.722  65.984  1.00  0.00    -0.077 C  
HETATM   21  C   UNL     1      -8.341   5.126  66.945  1.00  0.00    -0.107 C  
ENDROOT
BRANCH   4  22
HETATM   22  O   UNL     1      -6.530   9.802  69.044  1.00  0.00    -0.044 OA 
BRANCH  22  23
HETATM   23  C   UNL     1      -6.653  10.467  70.252  1.00  0.00    -0.137 C  
HETATM   24  C   UNL     1      -6.937   9.537  71.392  1.00  0.00     0.174 C  
HETATM   25  O   UNL     1      -6.489  11.668  70.430  1.00  0.00    -0.214 OA 
ENDBRANCH  22  23
ENDBRANCH   4  22
BRANCH   7  26
HETATM   26  O   UNL     1     -10.063  10.037  66.851  1.00  0.00    -0.208 OA 
BRANCH  26  27
HETATM   27  C   UNL     1     -11.230  10.689  67.144  1.00  0.00    -0.100 C  
HETATM   28  O   UNL     1     -11.870  10.516  68.172  1.00  0.00    -0.417 OA 
BRANCH  27  29
HETATM   29  C   UNL     1     -11.525  11.862  66.223  1.00  0.00    -0.367 A  
HETATM   30  C   UNL     1     -11.619  11.617  64.830  1.00  0.00    -0.155 A  
HETATM   31  C   UNL     1     -11.723  13.167  66.664  1.00  0.00    -0.427 A  
HETATM   32  C   UNL     1     -12.039  14.198  65.752  1.00  0.00    -0.433 A  
HETATM   33  C   UNL     1     -11.967  12.637  63.925  1.00  0.00    -0.558 A  
HETATM   34  C   UNL     1     -12.171  13.929  64.386  1.00  0.00    -0.449 A  
ENDBRANCH  27  29
ENDBRANCH  26  27
ENDBRANCH   7  26
BRANCH   9  35
HETATM   35  O   UNL     1      -7.697   9.951  64.047  1.00  0.00    -0.132 OA 
BRANCH  35  36
HETATM   36  C   UNL     1      -8.508   9.936  62.946  1.00  0.00    -0.172 C  
HETATM   37  O   UNL     1      -8.896   8.969  62.348  1.00  0.00    -0.229 OA 
HETATM   38  C   UNL     1      -8.957  11.337  62.601  1.00  0.00    -0.311 C  
ENDBRANCH  35  36
ENDBRANCH   9  35
TORSDOF 7
ENDMDL
MODEL       62
REMARK 921   NORMALIZED FREE ENERGY PREDICTED BY IDOCK:   -4.48 KCAL/MOL
REMARK 922        TOTAL FREE ENERGY PREDICTED BY IDOCK:   -6.95 KCAL/MOL
REMARK 923 INTER-LIGAND FREE ENERGY PREDICTED BY IDOCK:   -5.56 KCAL/MOL
REMARK 924 INTRA-LIGAND FREE ENERGY PREDICTED BY IDOCK:   -1.38 KCAL/MOL
REMARK 927      BINDING AFFINITY PREDICTED BY RF-SCORE:    0.00 PKD
ROOT
HETATM    1  C   UNL     1      -8.646   8.651  68.519  1.00  0.00    -0.135 C  
HETATM    2  C   UNL     1      -8.555  10.146  68.333  1.00  0.00    -0.119 C  
HETATM    3  C   UNL     1      -7.412  11.032  67.910  1.00  0.00    -0.093 C  
HETATM    4  C   UNL     1      -7.953  12.417  68.594  1.00  0.00    -0.041 C  
HETATM    5  O   UNL     1      -7.293  13.852  66.734  1.00  0.00     0.325 OA 
HETATM    6  C   UNL     1      -9.650  12.079  68.802  1.00  0.00     0.004 C  
HETATM    7  C   UNL     1      -9.718  10.931  67.740  1.00  0.00    -0.168 C  
HETATM    8  C   UNL     1      -7.761  14.908  70.297  1.00  0.00     0.585 C  
HETATM    9  C   UNL     1     -11.148  12.594  68.676  1.00  0.00    -0.266 C  
HETATM   10  C   UNL     1     -11.819  13.816  69.251  1.00  0.00    -0.392 C  
HETATM   11  C   UNL     1      -7.564  13.773  67.933  1.00  0.00    -0.156 C  
HETATM   12  C   UNL     1     -11.087  18.654  67.840  1.00  0.00     0.094 C  
HETATM   13  C   UNL     1      -7.549  15.037  68.812  1.00  0.00    -0.137 C  
HETATM   14  C   UNL     1      -8.901  18.794  66.641  1.00  0.00    -0.315 C  
HETATM   15  C   UNL     1      -9.689  18.077  67.703  1.00  0.00    -0.291 C  
HETATM   16  C   UNL     1     -11.744  15.015  68.353  1.00  0.00    -0.341 C  
HETATM   17  C   UNL     1     -12.626  13.875  70.326  1.00  0.00    -0.328 C  
HETATM   18  C   UNL     1      -7.670  16.226  68.159  1.00  0.00    -0.159 C  
HETATM   19  C   UNL     1      -8.718  17.227  68.580  1.00  0.00    -0.268 C  
HETATM   20  C   UNL     1     -10.743  15.942  68.964  1.00  0.00    -0.251 C  
HETATM   21  C   UNL     1      -9.900  16.605  67.922  1.00  0.00    -0.248 C  
ENDROOT
BRANCH   4  22
HETATM   22  O   UNL     1      -7.158  12.329  69.859  1.00  0.00     0.300 OA 
BRANCH  22  23
HETATM   23  C   UNL     1      -5.861  11.865  69.709  1.00  0.00    -0.120 C  
HETATM   24  C   UNL     1      -5.446  10.957  70.825  1.00  0.00    -0.118 C  
HETATM   25  O   UNL     1      -5.126  12.088  68.755  1.00  0.00    -0.051 OA 
ENDBRANCH  22  23
ENDBRANCH   4  22
BRANCH   7  26
HETATM   26  O   UNL     1      -9.423  11.640  66.431  1.00  0.00    -0.205 OA 
BRANCH  26  27
HETATM   27  C   UNL     1     -10.295  11.645  65.378  1.00  0.00    -0.267 C  
HETATM   28  O   UNL     1     -10.635  10.640  64.768  1.00  0.00    -0.291 OA 
BRANCH  27  29
HETATM   29  C   UNL     1     -11.037  12.959  65.201  1.00  0.00    -0.321 A  
HETATM   30  C   UNL     1     -10.280  14.133  64.961  1.00  0.00    -0.399 A  
HETATM   31  C   UNL     1     -12.423  13.083  65.246  1.00  0.00    -0.555 A  
HETATM   32  C   UNL     1     -13.044  14.332  65.028  1.00  0.00     0.125 A  
HETATM   33  C   UNL     1     -10.899  15.372  64.709  1.00  0.00    -0.385 A  
HETATM   34  C   UNL     1     -12.282  15.472  64.749  1.00  0.00     0.134 A  
ENDBRANCH  27  29
ENDBRANCH  26  27
ENDBRANCH   7  26
BRANCH   9  35
HETATM   35  O   UNL     1     -12.132  11.491  68.904  1.00  0.00    -0.386 OA 
BRANCH  35  36
HETATM   36  C   UNL     1     -12.077  10.658  69.986  1.00  0.00    -0.316 C  
HETATM   37  O   UNL     1     -11.092  10.308  70.579  1.00  0.00    -0.302 OA 
HETATM   38  C   UNL     1     -13.470  10.276  70.431  1.00  0.00     0.294 C  
ENDBRANCH  35  36
ENDBRANCH   9  35
TORSDOF 7
ENDMDL
MODEL       63
REMARK 921   NORMALIZED FREE ENERGY PREDICTED BY IDOCK:   -4.43 KCAL/MOL
REMARK 922        TOTAL FREE ENERGY PREDICTED BY IDOCK:   -6.87 KCAL/MOL
REMARK 923 INTER-LIGAND FREE ENERGY PREDICTED BY IDOCK:   -6.24 KCAL/MOL
REMARK 924 INTRA-LIGAND FREE ENERGY PREDICTED BY IDOCK:   -0.63 KCAL/MOL
REMARK 927      BINDING AFFINITY PREDICTED BY RF-SCORE:    0.00 PKD
ROOT
HETATM    1  C   UNL     1      -8.854   9.216  65.492  1.00  0.00    -0.229 C  
HETATM    2  C   UNL     1      -9.272   8.553  66.782  1.00  0.00    -0.215 C  
HETATM    3  C   UNL     1     -10.605   8.480  67.482  1.00  0.00    -0.284 C  
HETATM    4  C   UNL     1     -10.036   8.202  68.991  1.00  0.00    -0.205 C  
HETATM    5  O   UNL     1     -11.754   6.569  69.573  1.00  0.00    -0.329 OA 
HETATM    6  C   UNL     1      -8.427   7.615  68.669  1.00  0.00    -0.129 C  
HETATM    7  C   UNL     1      -8.700   7.200  67.186  1.00  0.00    -0.121 C  
HETATM    8  C   UNL     1      -9.779   8.665  71.968  1.00  0.00    -0.391 C  
HETATM    9  C   UNL     1      -7.294   6.551  68.999  1.00  0.00    -0.093 C  
HETATM   10  C   UNL     1      -6.641   6.183  70.308  1.00  0.00    -0.045 C  
HETATM   11  C   UNL     1     -10.920   7.380  69.977  1.00  0.00    -0.248 C  
HETATM   12  C   UNL     1      -8.765   3.643  74.176  1.00  0.00    -0.088 C  
HETATM   13  C   UNL     1     -10.711   7.585  71.489  1.00  0.00    -0.242 C  
HETATM   14  C   UNL     1     -11.247   3.795  73.940  1.00  0.00    -0.162 C  
HETATM   15  C   UNL     1      -9.932   4.477  73.677  1.00  0.00    -0.185 C  
HETATM   16  C   UNL     1      -7.346   5.078  71.036  1.00  0.00    -0.072 C  
HETATM   17  C   UNL     1      -5.433   6.571  70.756  1.00  0.00    -0.022 C  
HETATM   18  C   UNL     1     -11.126   6.570  72.297  1.00  0.00    -0.297 C  
HETATM   19  C   UNL     1     -10.190   5.974  73.319  1.00  0.00    -0.218 C  
HETATM   20  C   UNL     1      -8.056   5.712  72.189  1.00  0.00    -0.108 C  
HETATM   21  C   UNL     1      -9.399   5.094  72.414  1.00  0.00    -0.155 C  
ENDROOT
BRANCH   4  22
HETATM   22  O   UNL     1     -10.080   9.617  69.476  1.00  0.00    -0.185 OA 
BRANCH  22  23
HETATM   23  C   UNL     1     -11.258  10.296  69.210  1.00  0.00    -0.228 C  
HETATM   24  C   UNL     1     -12.077  10.528  70.443  1.00  0.00    -0.418 C  
HETATM   25  O   UNL     1     -11.601  10.736  68.119  1.00  0.00    -0.441 OA 
ENDBRANCH  22  23
ENDBRANCH   4  22
BRANCH   7  26
HETATM   26  O   UNL     1      -9.713   6.077  67.312  1.00  0.00    -0.117 OA 
BRANCH  26  27
HETATM   27  C   UNL     1      -9.833   5.079  66.384  1.00  0.00    -0.201 C  
HETATM   28  O   UNL     1     -10.870   4.824  65.785  1.00  0.00    -0.295 OA 
BRANCH  27  29
HETATM   29  C   UNL     1      -8.504   4.491  65.939  1.00  0.00    -0.114 A  
HETATM   30  C   UNL     1      -7.954   4.927  64.708  1.00  0.00    -0.098 A  
HETATM   31  C   UNL     1      -7.782   3.555  66.673  1.00  0.00    -0.081 A  
HETATM   32  C   UNL     1      -6.530   3.088  66.216  1.00  0.00    -0.032 A  
HETATM   33  C   UNL     1      -6.691   4.488  64.268  1.00  0.00    -0.044 A  
HETATM   34  C   UNL     1      -5.982   3.563  65.020  1.00  0.00    -0.023 A  
ENDBRANCH  27  29
ENDBRANCH  26  27
ENDBRANCH   7  26
BRANCH   9  35
HETATM   35  O   UNL     1      -6.158   6.637  68.031  1.00  0.00    -0.026 OA 
BRANCH  35  36
HETATM   36  C   UNL     1      -5.682   7.824  67.546  1.00  0.00    -0.037 C  
HETATM   37  O   UNL     1      -5.452   8.821  68.176  1.00  0.00    -0.034 OA 
HETATM   38  C   UNL     1      -5.379   7.709  66.070  1.00  0.00    -0.028 C  
ENDBRANCH  35  36
ENDBRANCH   9  35
TORSDOF 7
ENDMDL
MODEL       64
REMARK 921   NORMALIZED FREE ENERGY PREDICTED BY IDOCK:   -4.37 KCAL/MOL
REMARK 922        TOTAL FREE ENERGY PREDICTED BY IDOCK:   -6.80 KCAL/MOL
REMARK 923 INTER-LIGAND FREE ENERGY PREDICTED BY IDOCK:   -7.48 KCAL/MOL
REMARK 924 INTRA-LIGAND FREE ENERGY PREDICTED BY IDOCK:    0.68 KCAL/MOL
REMARK 927      BINDING AFFINITY PREDICTED BY RF-SCORE:    0.00 PKD
ROOT
HETATM    1  C   UNL     1     -11.000  16.747  66.559  1.00  0.00     0.142 C  
HETATM    2  C   UNL     1     -10.391  15.379  66.750  1.00  0.00    -0.279 C  
HETATM    3  C   UNL     1      -9.247  14.688  66.053  1.00  0.00    -0.139 C  
HETATM    4  C   UNL     1      -9.697  13.149  66.381  1.00  0.00    -0.269 C  
HETATM    5  O   UNL     1      -7.436  12.355  66.841  1.00  0.00    -0.078 OA 
HETATM    6  C   UNL     1     -10.776  13.368  67.732  1.00  0.00    -0.259 C  
HETATM    7  C   UNL     1     -10.238  14.779  68.142  1.00  0.00    -0.228 C  
HETATM    8  C   UNL     1     -10.341  10.268  65.730  1.00  0.00    -0.236 C  
HETATM    9  C   UNL     1     -11.247  12.878  69.168  1.00  0.00    -0.237 C  
HETATM   10  C   UNL     1     -11.713  11.524  69.641  1.00  0.00    -0.419 C  
HETATM   11  C   UNL     1      -8.587  12.064  66.513  1.00  0.00    -0.100 C  
HETATM   12  C   UNL     1      -8.859   7.351  70.249  1.00  0.00    -0.147 C  
HETATM   13  C   UNL     1      -8.966  10.596  66.248  1.00  0.00    -0.180 C  
HETATM   14  C   UNL     1      -6.773   7.630  68.903  1.00  0.00    -0.050 C  
HETATM   15  C   UNL     1      -8.233   7.976  69.014  1.00  0.00    -0.128 C  
HETATM   16  C   UNL     1     -10.600  10.651  70.139  1.00  0.00    -0.065 C  
HETATM   17  C   UNL     1     -12.980  11.125  69.858  1.00  0.00     0.224 C  
HETATM   18  C   UNL     1      -8.154   9.654  66.803  1.00  0.00    -0.113 C  
HETATM   19  C   UNL     1      -8.733   8.548  67.651  1.00  0.00    -0.136 C  
HETATM   20  C   UNL     1     -10.375   9.608  69.092  1.00  0.00    -0.219 C  
HETATM   21  C   UNL     1      -8.921   9.309  68.917  1.00  0.00    -0.136 C  
ENDROOT
BRANCH   4  22
HETATM   22  O   UNL     1     -10.394  12.874  65.086  1.00  0.00    -0.294 OA 
BRANCH  22  23
HETATM   23  C   UNL     1     -11.583  13.560  64.898  1.00  0.00    -0.335 C  
HETATM   24  C   UNL     1     -12.757  12.845  65.493  1.00  0.00    -0.212 C  
HETATM   25  O   UNL     1     -11.700  14.661  64.374  1.00  0.00    -0.393 OA 
ENDBRANCH  22  23
ENDBRANCH   4  22
BRANCH   7  26
HETATM   26  O   UNL     1      -8.811  14.503  68.578  1.00  0.00    -0.174 OA 
BRANCH  26  27
HETATM   27  C   UNL     1      -8.045  15.425  69.235  1.00  0.00    -0.246 C  
HETATM   28  O   UNL     1      -7.508  15.222  70.317  1.00  0.00     0.076 OA 
BRANCH  27  29
HETATM   29  C   UNL     1      -7.669  16.629  68.386  1.00  0.00    -0.200 A  
HETATM   30  C   UNL     1      -8.300  17.868  68.658  1.00  0.00    -0.276 A  
HETATM   31  C   UNL     1      -6.729  16.594  67.360  1.00  0.00    -0.199 A  
HETATM   32  C   UNL     1      -6.399  17.765  66.643  1.00  0.00    -0.226 A  
HETATM   33  C   UNL     1      -7.947  19.042  67.967  1.00  0.00    -0.322 A  
HETATM   34  C   UNL     1      -7.000  18.989  66.955  1.00  0.00    -0.208 A  
ENDBRANCH  27  29
ENDBRANCH  26  27
ENDBRANCH   7  26
BRANCH   9  35
HETATM   35  O   UNL     1     -12.211  13.838  69.790  1.00  0.00    -0.324 OA 
BRANCH  35  36
HETATM   36  C   UNL     1     -12.043  14.352  71.046  1.00  0.00    -0.349 C  
HETATM   37  O   UNL     1     -11.117  15.010  71.438  1.00  0.00    -0.273 OA 
HETATM   38  C   UNL     1     -13.252  14.061  71.903  1.00  0.00    -0.477 C  
ENDBRANCH  35  36
ENDBRANCH   9  35
TORSDOF 7
ENDMDL
MODEL       65
REMARK 921   NORMALIZED FREE ENERGY PREDICTED BY IDOCK:   -4.35 KCAL/MOL
REMARK 922        TOTAL FREE ENERGY PREDICTED BY IDOCK:   -6.77 KCAL/MOL
REMARK 923 INTER-LIGAND FREE ENERGY PREDICTED BY IDOCK:   -7.12 KCAL/MOL
REMARK 924 INTRA-LIGAND FREE ENERGY PREDICTED BY IDOCK:    0.36 KCAL/MOL
REMARK 927      BINDING AFFINITY PREDICTED BY RF-SCORE:    0.00 PKD
ROOT
HETATM    1  C   UNL     1     -10.302  12.504  68.765  1.00  0.00    -0.138 C  
HETATM    2  C   UNL     1     -10.176  11.039  68.424  1.00  0.00    -0.198 C  
HETATM    3  C   UNL     1     -11.207  10.012  68.033  1.00  0.00    -0.190 C  
HETATM    4  C   UNL     1     -10.369   8.684  68.495  1.00  0.00    -0.196 C  
HETATM    5  O   UNL     1     -11.024   7.334  66.570  1.00  0.00     0.036 OA 
HETATM    6  C   UNL     1      -8.736   9.288  68.550  1.00  0.00    -0.128 C  
HETATM    7  C   UNL     1      -8.988  10.523  67.622  1.00  0.00    -0.138 C  
HETATM    8  C   UNL     1      -9.943   6.052  69.919  1.00  0.00    -0.225 C  
HETATM    9  C   UNL     1      -7.204   9.052  68.203  1.00  0.00    -0.079 C  
HETATM   10  C   UNL     1      -6.278   7.916  68.560  1.00  0.00    -0.044 C  
HETATM   11  C   UNL     1     -10.619   7.347  67.733  1.00  0.00    -0.210 C  
HETATM   12  C   UNL     1      -6.403   3.174  66.708  1.00  0.00    -0.036 C  
HETATM   13  C   UNL     1     -10.319   6.025  68.462  1.00  0.00    -0.254 C  
HETATM   14  C   UNL     1      -8.674   2.771  65.750  1.00  0.00    -0.129 C  
HETATM   15  C   UNL     1      -7.881   3.512  66.792  1.00  0.00    -0.080 C  
HETATM   16  C   UNL     1      -6.275   6.809  67.549  1.00  0.00    -0.040 C  
HETATM   17  C   UNL     1      -5.341   7.898  69.526  1.00  0.00    -0.023 C  
HETATM   18  C   UNL     1     -10.095   4.939  67.671  1.00  0.00    -0.172 C  
HETATM   19  C   UNL     1      -8.855   4.099  67.860  1.00  0.00    -0.131 C  
HETATM   20  C   UNL     1      -7.029   5.672  68.158  1.00  0.00    -0.065 C  
HETATM   21  C   UNL     1      -7.881   4.972  67.148  1.00  0.00    -0.096 C  
ENDROOT
BRANCH   4  22
HETATM   22  O   UNL     1     -11.001   8.518  69.841  1.00  0.00    -0.236 OA 
BRANCH  22  23
HETATM   23  C   UNL     1     -10.545   9.387  70.818  1.00  0.00    -0.303 C  
HETATM   24  C   UNL     1     -11.663  10.057  71.556  1.00  0.00    -0.359 C  
HETATM   25  O   UNL     1      -9.373   9.568  71.126  1.00  0.00    -0.222 OA 
ENDBRANCH  22  23
ENDBRANCH   4  22
BRANCH   7  26
HETATM   26  O   UNL     1      -9.330   9.897  66.283  1.00  0.00    -0.160 OA 
BRANCH  26  27
HETATM   27  C   UNL     1      -9.042  10.497  65.089  1.00  0.00    -0.197 C  
HETATM   28  O   UNL     1      -8.218  10.071  64.291  1.00  0.00    -0.150 OA 
BRANCH  27  29
HETATM   29  C   UNL     1     -10.030  11.582  64.692  1.00  0.00    -0.305 A  
HETATM   30  C   UNL     1     -11.124  11.226  63.864  1.00  0.00    -0.317 A  
HETATM   31  C   UNL     1      -9.936  12.908  65.102  1.00  0.00    -0.175 A  
HETATM   32  C   UNL     1     -10.919  13.851  64.729  1.00  0.00    -0.407 A  
HETATM   33  C   UNL     1     -12.122  12.157  63.520  1.00  0.00    -0.649 A  
HETATM   34  C   UNL     1     -12.016  13.472  63.948  1.00  0.00    -0.491 A  
ENDBRANCH  27  29
ENDBRANCH  26  27
ENDBRANCH   7  26
BRANCH   9  35
HETATM   35  O   UNL     1      -6.387  10.282  68.442  1.00  0.00    -0.048 OA 
BRANCH  35  36
HETATM   36  C   UNL     1      -6.470  11.017  69.592  1.00  0.00    -0.123 C  
HETATM   37  O   UNL     1      -6.497  10.597  70.717  1.00  0.00    -0.339 OA 
HETATM   38  C   UNL     1      -6.431  12.495  69.279  1.00  0.00    -0.104 C  
ENDBRANCH  35  36
ENDBRANCH   9  35
TORSDOF 7
ENDMDL
MODEL       66
REMARK 921   NORMALIZED FREE ENERGY PREDICTED BY IDOCK:   -4.34 KCAL/MOL
REMARK 922        TOTAL FREE ENERGY PREDICTED BY IDOCK:   -6.75 KCAL/MOL
REMARK 923 INTER-LIGAND FREE ENERGY PREDICTED BY IDOCK:   -7.08 KCAL/MOL
REMARK 924 INTRA-LIGAND FREE ENERGY PREDICTED BY IDOCK:    0.33 KCAL/MOL
REMARK 927      BINDING AFFINITY PREDICTED BY RF-SCORE:    0.00 PKD
ROOT
HETATM    1  C   UNL     1      -7.481   5.371  70.344  1.00  0.00    -0.075 C  
HETATM    2  C   UNL     1      -7.768   6.625  69.553  1.00  0.00    -0.104 C  
HETATM    3  C   UNL     1      -7.001   7.308  68.450  1.00  0.00    -0.079 C  
HETATM    4  C   UNL     1      -7.622   8.809  68.659  1.00  0.00    -0.097 C  
HETATM    5  O   UNL     1      -7.815   9.297  66.275  1.00  0.00    -0.102 OA 
HETATM    6  C   UNL     1      -9.085   8.474  69.545  1.00  0.00    -0.150 C  
HETATM    7  C   UNL     1      -9.189   6.970  69.126  1.00  0.00    -0.138 C  
HETATM    8  C   UNL     1      -7.517  11.805  69.041  1.00  0.00    -0.030 C  
HETATM    9  C   UNL     1     -10.635   8.765  69.736  1.00  0.00    -0.224 C  
HETATM   10  C   UNL     1     -11.373  10.061  69.961  1.00  0.00    -0.334 C  
HETATM   11  C   UNL     1      -7.728   9.747  67.419  1.00  0.00    -0.095 C  
HETATM   12  C   UNL     1     -12.110  13.786  66.568  1.00  0.00    -0.483 C  
HETATM   13  C   UNL     1      -7.748  11.268  67.654  1.00  0.00    -0.115 C  
HETATM   14  C   UNL     1     -10.413  13.534  64.752  1.00  0.00    -0.430 C  
HETATM   15  C   UNL     1     -10.711  13.315  66.211  1.00  0.00    -0.293 C  
HETATM   16  C   UNL     1     -11.803  10.730  68.690  1.00  0.00    -0.208 C  
HETATM   17  C   UNL     1     -11.852  10.538  71.125  1.00  0.00    -0.391 C  
HETATM   18  C   UNL     1      -8.294  12.023  66.661  1.00  0.00    -0.085 C  
HETATM   19  C   UNL     1      -9.379  13.025  66.971  1.00  0.00    -0.236 C  
HETATM   20  C   UNL     1     -10.899  11.904  68.498  1.00  0.00    -0.257 C  
HETATM   21  C   UNL     1     -10.533  12.087  67.060  1.00  0.00    -0.248 C  
ENDROOT
BRANCH   4  22
HETATM   22  O   UNL     1      -6.514   9.358  69.501  1.00  0.00    -0.042 OA 
BRANCH  22  23
HETATM   23  C   UNL     1      -6.605   9.074  70.854  1.00  0.00    -0.068 C  
HETATM   24  C   UNL     1      -5.371   8.411  71.384  1.00  0.00    -0.033 C  
HETATM   25  O   UNL     1      -7.539   9.375  71.588  1.00  0.00    -0.310 OA 
ENDBRANCH  22  23
ENDBRANCH   4  22
BRANCH   7  26
HETATM   26  O   UNL     1      -9.419   7.034  67.627  1.00  0.00    -0.122 OA 
BRANCH  26  27
HETATM   27  C   UNL     1     -10.338   6.251  66.984  1.00  0.00    -0.240 C  
HETATM   28  O   UNL     1     -11.530   6.520  66.907  1.00  0.00    -0.212 OA 
BRANCH  27  29
HETATM   29  C   UNL     1      -9.722   5.162  66.122  1.00  0.00    -0.192 A  
HETATM   30  C   UNL     1      -8.317   4.983  66.166  1.00  0.00    -0.113 A  
HETATM   31  C   UNL     1     -10.455   4.317  65.295  1.00  0.00    -0.196 A  
HETATM   32  C   UNL     1      -9.816   3.297  64.556  1.00  0.00    -0.145 A  
HETATM   33  C   UNL     1      -7.683   3.945  65.457  1.00  0.00    -0.085 A  
HETATM   34  C   UNL     1      -8.433   3.106  64.646  1.00  0.00    -0.094 A  
ENDBRANCH  27  29
ENDBRANCH  26  27
ENDBRANCH   7  26
BRANCH   9  35
HETATM   35  O   UNL     1     -11.259   7.812  70.706  1.00  0.00    -0.265 OA 
BRANCH  35  36
HETATM   36  C   UNL     1     -10.679   7.478  71.898  1.00  0.00    -0.217 C  
HETATM   37  O   UNL     1     -10.228   8.232  72.717  1.00  0.00    -0.300 OA 
HETATM   38  C   UNL     1     -10.752   5.985  72.122  1.00  0.00    -0.270 C  
ENDBRANCH  35  36
ENDBRANCH   9  35
TORSDOF 7
ENDMDL
MODEL       67
REMARK 921   NORMALIZED FREE ENERGY PREDICTED BY IDOCK:   -4.28 KCAL/MOL
REMARK 922        TOTAL FREE ENERGY PREDICTED BY IDOCK:   -6.67 KCAL/MOL
REMARK 923 INTER-LIGAND FREE ENERGY PREDICTED BY IDOCK:   -7.55 KCAL/MOL
REMARK 924 INTRA-LIGAND FREE ENERGY PREDICTED BY IDOCK:    0.88 KCAL/MOL
REMARK 927      BINDING AFFINITY PREDICTED BY RF-SCORE:    0.00 PKD
ROOT
HETATM    1  C   UNL     1     -11.465  11.389  66.215  1.00  0.00    -0.028 C  
HETATM    2  C   UNL     1     -10.881  12.687  66.719  1.00  0.00    -0.279 C  
HETATM    3  C   UNL     1     -11.450  14.081  66.783  1.00  0.00    -0.379 C  
HETATM    4  C   UNL     1     -10.027  14.889  66.810  1.00  0.00    -0.246 C  
HETATM    5  O   UNL     1     -10.746  16.539  68.458  1.00  0.00    -0.299 OA 
HETATM    6  C   UNL     1      -8.917  13.650  67.326  1.00  0.00    -0.226 C  
HETATM    7  C   UNL     1      -9.999  12.715  67.961  1.00  0.00    -0.220 C  
HETATM    8  C   UNL     1      -8.024  16.972  65.922  1.00  0.00     0.022 C  
HETATM    9  C   UNL     1      -7.693  13.244  68.255  1.00  0.00    -0.141 C  
HETATM   10  C   UNL     1      -6.319  13.851  68.393  1.00  0.00    -0.104 C  
HETATM   11  C   UNL     1      -9.968  16.262  67.544  1.00  0.00    -0.248 C  
HETATM   12  C   UNL     1      -5.155  18.334  70.509  1.00  0.00    -0.247 C  
HETATM   13  C   UNL     1      -8.886  17.272  67.118  1.00  0.00    -0.237 C  
HETATM   14  C   UNL     1      -7.223  19.734  70.558  1.00  0.00     0.568 C  
HETATM   15  C   UNL     1      -6.479  18.646  69.833  1.00  0.00    -0.054 C  
HETATM   16  C   UNL     1      -6.245  14.930  69.431  1.00  0.00    -0.114 C  
HETATM   17  C   UNL     1      -5.168  13.394  67.867  1.00  0.00    -0.096 C  
HETATM   18  C   UNL     1      -8.554  18.221  68.037  1.00  0.00    -0.280 C  
HETATM   19  C   UNL     1      -7.111  18.441  68.421  1.00  0.00    -0.276 C  
HETATM   20  C   UNL     1      -6.153  16.226  68.693  1.00  0.00    -0.117 C  
HETATM   21  C   UNL     1      -6.952  17.299  69.362  1.00  0.00    -0.123 C  
ENDROOT
BRANCH   4  22
HETATM   22  O   UNL     1      -9.955  15.198  65.347  1.00  0.00    -0.344 OA 
BRANCH  22  23
HETATM   23  C   UNL     1     -11.085  14.866  64.618  1.00  0.00    -0.323 C  
HETATM   24  C   UNL     1     -12.155  15.910  64.714  1.00  0.00     0.324 C  
HETATM   25  O   UNL     1     -11.213  13.878  63.905  1.00  0.00    -0.131 OA 
ENDBRANCH  22  23
ENDBRANCH   4  22
BRANCH   7  26
HETATM   26  O   UNL     1     -10.538  13.533  69.121  1.00  0.00    -0.157 OA 
BRANCH  26  27
HETATM   27  C   UNL     1     -11.716  13.240  69.750  1.00  0.00    -0.284 C  
HETATM   28  O   UNL     1     -12.260  12.145  69.707  1.00  0.00    -0.237 OA 
BRANCH  27  29
HETATM   29  C   UNL     1     -12.159  14.298  70.748  1.00  0.00    -0.418 A  
HETATM   30  C   UNL     1     -13.414  14.137  71.387  1.00  0.00    -0.388 A  
HETATM   31  C   UNL     1     -11.401  15.415  71.086  1.00  0.00    -0.427 A  
HETATM   32  C   UNL     1     -11.859  16.332  72.057  1.00  0.00    -0.568 A  
HETATM   33  C   UNL     1     -13.856  15.032  72.379  1.00  0.00    -0.596 A  
HETATM   34  C   UNL     1     -13.080  16.133  72.710  1.00  0.00    -0.379 A  
ENDBRANCH  27  29
ENDBRANCH  26  27
ENDBRANCH   7  26
BRANCH   9  35
HETATM   35  O   UNL     1      -7.445  11.769  68.229  1.00  0.00    -0.089 OA 
BRANCH  35  36
HETATM   36  C   UNL     1      -7.086  11.056  69.338  1.00  0.00    -0.128 C  
HETATM   37  O   UNL     1      -6.387  11.429  70.242  1.00  0.00    -0.184 OA 
HETATM   38  C   UNL     1      -7.771   9.709  69.346  1.00  0.00    -0.101 C  
ENDBRANCH  35  36
ENDBRANCH   9  35
TORSDOF 7
ENDMDL
MODEL       68
REMARK 921   NORMALIZED FREE ENERGY PREDICTED BY IDOCK:   -4.21 KCAL/MOL
REMARK 922        TOTAL FREE ENERGY PREDICTED BY IDOCK:   -6.58 KCAL/MOL
REMARK 923 INTER-LIGAND FREE ENERGY PREDICTED BY IDOCK:   -6.69 KCAL/MOL
REMARK 924 INTRA-LIGAND FREE ENERGY PREDICTED BY IDOCK:    0.11 KCAL/MOL
REMARK 927      BINDING AFFINITY PREDICTED BY RF-SCORE:    0.00 PKD
ROOT
HETATM    1  C   UNL     1     -11.405   6.861  72.768  1.00  0.00    -0.237 C  
HETATM    2  C   UNL     1     -10.939   6.799  71.334  1.00  0.00    -0.279 C  
HETATM    3  C   UNL     1     -11.601   6.266  70.090  1.00  0.00    -0.385 C  
HETATM    4  C   UNL     1     -10.240   5.994  69.224  1.00  0.00    -0.207 C  
HETATM    5  O   UNL     1     -11.163   6.793  67.111  1.00  0.00    -0.379 OA 
HETATM    6  C   UNL     1      -9.082   7.006  70.044  1.00  0.00    -0.145 C  
HETATM    7  C   UNL     1     -10.136   7.941  70.724  1.00  0.00    -0.192 C  
HETATM    8  C   UNL     1      -8.330   4.377  67.526  1.00  0.00    -0.099 C  
HETATM    9  C   UNL     1      -7.891   8.051  69.926  1.00  0.00    -0.102 C  
HETATM   10  C   UNL     1      -6.572   7.963  69.202  1.00  0.00    -0.040 C  
HETATM   11  C   UNL     1     -10.315   6.096  67.671  1.00  0.00    -0.201 C  
HETATM   12  C   UNL     1      -5.835   8.066  64.165  1.00  0.00    -0.056 C  
HETATM   13  C   UNL     1      -9.280   5.320  66.837  1.00  0.00    -0.121 C  
HETATM   14  C   UNL     1      -7.991   7.477  63.050  1.00  0.00    -0.111 C  
HETATM   15  C   UNL     1      -7.135   7.286  64.271  1.00  0.00    -0.063 C  
HETATM   16  C   UNL     1      -6.631   8.463  67.790  1.00  0.00    -0.062 C  
HETATM   17  C   UNL     1      -5.363   7.703  69.735  1.00  0.00    -0.023 C  
HETATM   18  C   UNL     1      -9.066   5.772  65.570  1.00  0.00    -0.040 C  
HETATM   19  C   UNL     1      -7.667   6.069  65.090  1.00  0.00    -0.095 C  
HETATM   20  C   UNL     1      -6.581   7.258  66.908  1.00  0.00    -0.059 C  
HETATM   21  C   UNL     1      -7.488   7.402  65.728  1.00  0.00    -0.080 C  
ENDROOT
BRANCH   4  22
HETATM   22  O   UNL     1     -10.102   4.537  69.537  1.00  0.00    -0.205 OA 
BRANCH  22  23
HETATM   23  C   UNL     1      -9.331   4.243  70.650  1.00  0.00    -0.143 C  
HETATM   24  C   UNL     1     -10.092   3.474  71.687  1.00  0.00    -0.118 C  
HETATM   25  O   UNL     1      -8.142   4.501  70.787  1.00  0.00    -0.066 OA 
ENDBRANCH  22  23
ENDBRANCH   4  22
BRANCH   7  26
HETATM   26  O   UNL     1     -10.795   8.644  69.551  1.00  0.00    -0.215 OA 
BRANCH  26  27
HETATM   27  C   UNL     1     -11.012   9.994  69.524  1.00  0.00    -0.253 C  
HETATM   28  O   UNL     1     -10.999  10.709  70.517  1.00  0.00    -0.225 OA 
BRANCH  27  29
HETATM   29  C   UNL     1     -10.987  10.592  68.127  1.00  0.00    -0.321 A  
HETATM   30  C   UNL     1     -11.713  11.786  67.892  1.00  0.00    -0.347 A  
HETATM   31  C   UNL     1     -10.282  10.045  67.059  1.00  0.00    -0.295 A  
HETATM   32  C   UNL     1     -10.270  10.683  65.799  1.00  0.00    -0.317 A  
HETATM   33  C   UNL     1     -11.674  12.441  66.647  1.00  0.00    -0.438 A  
HETATM   34  C   UNL     1     -10.956  11.885  65.598  1.00  0.00    -0.353 A  
ENDBRANCH  27  29
ENDBRANCH  26  27
ENDBRANCH   7  26
BRANCH   9  35
HETATM   35  O   UNL     1      -7.544   8.644  71.256  1.00  0.00    -0.091 OA 
BRANCH  35  36
HETATM   36  C   UNL     1      -7.351   7.888  72.378  1.00  0.00    -0.091 C  
HETATM   37  O   UNL     1      -6.581   6.975  72.510  1.00  0.00    -0.056 OA 
HETATM   38  C   UNL     1      -8.191   8.411  73.520  1.00  0.00    -0.176 C  
ENDBRANCH  35  36
ENDBRANCH   9  35
TORSDOF 7
ENDMDL
MODEL       69
REMARK 921   NORMALIZED FREE ENERGY PREDICTED BY IDOCK:   -4.16 KCAL/MOL
REMARK 922        TOTAL FREE ENERGY PREDICTED BY IDOCK:   -6.51 KCAL/MOL
REMARK 923 INTER-LIGAND FREE ENERGY PREDICTED BY IDOCK:   -5.32 KCAL/MOL
REMARK 924 INTRA-LIGAND FREE ENERGY PREDICTED BY IDOCK:   -1.19 KCAL/MOL
REMARK 927      BINDING AFFINITY PREDICTED BY RF-SCORE:    0.00 PKD
ROOT
HETATM    1  C   UNL     1      -5.874   9.996  64.921  1.00  0.00    -0.104 C  
HETATM    2  C   UNL     1      -6.130   9.061  66.078  1.00  0.00    -0.052 C  
HETATM    3  C   UNL     1      -5.195   8.427  67.076  1.00  0.00    -0.036 C  
HETATM    4  C   UNL     1      -6.141   7.152  67.474  1.00  0.00    -0.041 C  
HETATM    5  O   UNL     1      -5.622   7.230  69.857  1.00  0.00    -0.023 OA 
HETATM    6  C   UNL     1      -7.716   7.698  66.963  1.00  0.00    -0.108 C  
HETATM    7  C   UNL     1      -7.365   9.223  66.955  1.00  0.00    -0.091 C  
HETATM    8  C   UNL     1      -6.783   4.234  67.932  1.00  0.00    -0.051 C  
HETATM    9  C   UNL     1      -9.265   7.822  67.289  1.00  0.00    -0.139 C  
HETATM   10  C   UNL     1     -10.283   6.768  67.647  1.00  0.00    -0.225 C  
HETATM   11  C   UNL     1      -6.015   6.553  68.906  1.00  0.00    -0.022 C  
HETATM   12  C   UNL     1     -10.586   4.167  72.014  1.00  0.00     0.023 C  
HETATM   13  C   UNL     1      -6.423   5.084  69.121  1.00  0.00    -0.035 C  
HETATM   14  C   UNL     1      -8.367   4.294  73.153  1.00  0.00    -0.091 C  
HETATM   15  C   UNL     1      -9.083   4.288  71.830  1.00  0.00    -0.166 C  
HETATM   16  C   UNL     1     -10.391   6.519  69.121  1.00  0.00    -0.226 C  
HETATM   17  C   UNL     1     -11.210   6.220  66.839  1.00  0.00    -0.194 C  
HETATM   18  C   UNL     1      -6.747   4.729  70.396  1.00  0.00    -0.036 C  
HETATM   19  C   UNL     1      -8.053   4.031  70.686  1.00  0.00    -0.061 C  
HETATM   20  C   UNL     1      -9.734   5.202  69.380  1.00  0.00    -0.248 C  
HETATM   21  C   UNL     1      -8.954   5.218  70.656  1.00  0.00    -0.159 C  
ENDROOT
BRANCH   4  22
HETATM   22  O   UNL     1      -5.515   6.155  66.550  1.00  0.00    -0.012 OA 
BRANCH  22  23
HETATM   23  C   UNL     1      -6.107   6.054  65.302  1.00  0.00    -0.029 C  
HETATM   24  C   UNL     1      -5.131   6.274  64.186  1.00  0.00    -0.017 C  
HETATM   25  O   UNL     1      -7.274   5.754  65.083  1.00  0.00    -0.066 OA 
ENDBRANCH  22  23
ENDBRANCH   4  22
BRANCH   7  26
HETATM   26  O   UNL     1      -7.089   9.531  68.415  1.00  0.00    -0.070 OA 
BRANCH  26  27
HETATM   27  C   UNL     1      -7.883  10.357  69.161  1.00  0.00    -0.134 C  
HETATM   28  O   UNL     1      -8.226  11.478  68.808  1.00  0.00    -0.145 OA 
BRANCH  27  29
HETATM   29  C   UNL     1      -8.548   9.669  70.342  1.00  0.00    -0.200 A  
HETATM   30  C   UNL     1      -9.950   9.807  70.499  1.00  0.00    -0.258 A  
HETATM   31  C   UNL     1      -7.867   8.897  71.278  1.00  0.00    -0.163 A  
HETATM   32  C   UNL     1      -8.561   8.250  72.324  1.00  0.00    -0.257 A  
HETATM   33  C   UNL     1     -10.647   9.136  71.521  1.00  0.00    -0.428 A  
HETATM   34  C   UNL     1      -9.950   8.362  72.438  1.00  0.00    -0.380 A  
ENDBRANCH  27  29
ENDBRANCH  26  27
ENDBRANCH   7  26
BRANCH   9  35
HETATM   35  O   UNL     1      -9.970   8.695  66.300  1.00  0.00    -0.277 OA 
BRANCH  35  36
HETATM   36  C   UNL     1     -10.501   9.911  66.627  1.00  0.00    -0.169 C  
HETATM   37  O   UNL     1     -11.079  10.197  67.642  1.00  0.00    -0.301 OA 
HETATM   38  C   UNL     1     -10.189  10.931  65.557  1.00  0.00    -0.332 C  
ENDBRANCH  35  36
ENDBRANCH   9  35
TORSDOF 7
ENDMDL
MODEL       70
REMARK 921   NORMALIZED FREE ENERGY PREDICTED BY IDOCK:   -4.16 KCAL/MOL
REMARK 922        TOTAL FREE ENERGY PREDICTED BY IDOCK:   -6.50 KCAL/MOL
REMARK 923 INTER-LIGAND FREE ENERGY PREDICTED BY IDOCK:   -6.45 KCAL/MOL
REMARK 924 INTRA-LIGAND FREE ENERGY PREDICTED BY IDOCK:   -0.05 KCAL/MOL
REMARK 927      BINDING AFFINITY PREDICTED BY RF-SCORE:    0.00 PKD
ROOT
HETATM    1  C   UNL     1      -7.901   5.412  74.393  1.00  0.00    -0.098 C  
HETATM    2  C   UNL     1      -7.733   6.137  73.079  1.00  0.00    -0.101 C  
HETATM    3  C   UNL     1      -6.556   6.254  72.146  1.00  0.00    -0.059 C  
HETATM    4  C   UNL     1      -6.999   7.651  71.418  1.00  0.00    -0.053 C  
HETATM    5  O   UNL     1      -6.314   6.958  69.181  1.00  0.00    -0.026 OA 
HETATM    6  C   UNL     1      -8.706   7.713  71.766  1.00  0.00    -0.137 C  
HETATM    7  C   UNL     1      -8.867   6.186  72.064  1.00  0.00    -0.139 C  
HETATM    8  C   UNL     1      -6.622  10.479  70.420  1.00  0.00    -0.103 C  
HETATM    9  C   UNL     1     -10.176   7.999  71.235  1.00  0.00    -0.192 C  
HETATM   10  C   UNL     1     -10.762   9.218  70.570  1.00  0.00    -0.313 C  
HETATM   11  C   UNL     1      -6.555   7.894  69.945  1.00  0.00    -0.037 C  
HETATM   12  C   UNL     1      -9.804  10.888  65.855  1.00  0.00    -0.285 C  
HETATM   13  C   UNL     1      -6.445   9.346  69.445  1.00  0.00    -0.044 C  
HETATM   14  C   UNL     1      -7.648   9.882  65.095  1.00  0.00    -0.132 C  
HETATM   15  C   UNL     1      -8.444  10.360  66.279  1.00  0.00    -0.145 C  
HETATM   16  C   UNL     1     -10.646   9.196  69.075  1.00  0.00    -0.219 C  
HETATM   17  C   UNL     1     -11.534  10.166  71.135  1.00  0.00    -0.387 C  
HETATM   18  C   UNL     1      -6.518   9.526  68.097  1.00  0.00    -0.057 C  
HETATM   19  C   UNL     1      -7.497  10.513  67.510  1.00  0.00    -0.093 C  
HETATM   20  C   UNL     1      -9.579  10.179  68.716  1.00  0.00    -0.170 C  
HETATM   21  C   UNL     1      -8.730   9.682  67.589  1.00  0.00    -0.126 C  
ENDROOT
BRANCH   4  22
HETATM   22  O   UNL     1      -6.175   8.575  72.258  1.00  0.00    -0.063 OA 
BRANCH  22  23
HETATM   23  C   UNL     1      -6.529   8.631  73.596  1.00  0.00    -0.046 C  
HETATM   24  C   UNL     1      -5.406   8.235  74.504  1.00  0.00    -0.083 C  
HETATM   25  O   UNL     1      -7.604   9.021  74.037  1.00  0.00    -0.371 OA 
ENDBRANCH  22  23
ENDBRANCH   4  22
BRANCH   7  26
HETATM   26  O   UNL     1      -8.571   5.531  70.727  1.00  0.00    -0.122 OA 
BRANCH  26  27
HETATM   27  C   UNL     1      -9.350   4.539  70.198  1.00  0.00    -0.147 C  
HETATM   28  O   UNL     1      -9.868   3.650  70.861  1.00  0.00    -0.174 OA 
BRANCH  27  29
HETATM   29  C   UNL     1      -9.765   4.786  68.757  1.00  0.00    -0.235 A  
HETATM   30  C   UNL     1      -9.340   3.866  67.767  1.00  0.00    -0.230 A  
HETATM   31  C   UNL     1     -10.550   5.859  68.346  1.00  0.00    -0.314 A  
HETATM   32  C   UNL     1     -10.933   5.998  66.994  1.00  0.00    -0.364 A  
HETATM   33  C   UNL     1      -9.749   3.984  66.425  1.00  0.00    -0.206 A  
HETATM   34  C   UNL     1     -10.541   5.055  66.038  1.00  0.00    -0.286 A  
ENDBRANCH  27  29
ENDBRANCH  26  27
ENDBRANCH   7  26
BRANCH   9  35
HETATM   35  O   UNL     1     -11.213   7.587  72.232  1.00  0.00    -0.252 OA 
BRANCH  35  36
HETATM   36  C   UNL     1     -12.240   6.737  71.928  1.00  0.00    -0.335 C  
HETATM   37  O   UNL     1     -13.100   6.909  71.108  1.00  0.00    -0.311 OA 
HETATM   38  C   UNL     1     -12.115   5.454  72.716  1.00  0.00     0.007 C  
ENDBRANCH  35  36
ENDBRANCH   9  35
TORSDOF 7
ENDMDL
MODEL       71
REMARK 921   NORMALIZED FREE ENERGY PREDICTED BY IDOCK:   -4.15 KCAL/MOL
REMARK 922        TOTAL FREE ENERGY PREDICTED BY IDOCK:   -6.49 KCAL/MOL
REMARK 923 INTER-LIGAND FREE ENERGY PREDICTED BY IDOCK:   -6.20 KCAL/MOL
REMARK 924 INTRA-LIGAND FREE ENERGY PREDICTED BY IDOCK:   -0.29 KCAL/MOL
REMARK 927      BINDING AFFINITY PREDICTED BY RF-SCORE:    0.00 PKD
ROOT
HETATM    1  C   UNL     1     -10.227  15.731  69.264  1.00  0.00    -0.248 C  
HETATM    2  C   UNL     1     -10.081  14.305  68.792  1.00  0.00    -0.217 C  
HETATM    3  C   UNL     1     -11.102  13.290  68.348  1.00  0.00    -0.299 C  
HETATM    4  C   UNL     1     -10.219  11.948  68.663  1.00  0.00    -0.191 C  
HETATM    5  O   UNL     1     -10.912  10.754  66.651  1.00  0.00    -0.209 OA 
HETATM    6  C   UNL     1      -8.598  12.587  68.716  1.00  0.00     0.153 C  
HETATM    7  C   UNL     1      -8.910  13.891  67.909  1.00  0.00    -0.184 C  
HETATM    8  C   UNL     1      -9.684   9.214  69.837  1.00  0.00    -0.206 C  
HETATM    9  C   UNL     1      -7.074  12.420  68.298  1.00  0.00    -0.098 C  
HETATM   10  C   UNL     1      -6.112  11.281  68.523  1.00  0.00    -0.042 C  
HETATM   11  C   UNL     1     -10.465  10.677  67.797  1.00  0.00    -0.221 C  
HETATM   12  C   UNL     1      -6.197   6.716  66.269  1.00  0.00    -0.038 C  
HETATM   13  C   UNL     1     -10.111   9.305  68.397  1.00  0.00    -0.215 C  
HETATM   14  C   UNL     1      -8.491   6.340  65.356  1.00  0.00    -0.131 C  
HETATM   15  C   UNL     1      -7.679   7.008  66.431  1.00  0.00    -0.104 C  
HETATM   16  C   UNL     1      -6.120  10.267  67.419  1.00  0.00    -0.054 C  
HETATM   17  C   UNL     1      -5.141  11.203  69.452  1.00  0.00    -0.044 C  
HETATM   18  C   UNL     1      -9.891   8.297  67.507  1.00  0.00    -0.231 C  
HETATM   19  C   UNL     1      -8.627   7.475  67.579  1.00  0.00    -0.122 C  
HETATM   20  C   UNL     1      -6.826   9.062  67.952  1.00  0.00    -0.070 C  
HETATM   21  C   UNL     1      -7.698   8.432  66.914  1.00  0.00    -0.092 C  
ENDROOT
BRANCH   4  22
HETATM   22  O   UNL     1     -10.798  11.650  70.011  1.00  0.00     0.127 OA 
BRANCH  22  23
HETATM   23  C   UNL     1     -12.179  11.720  70.087  1.00  0.00    -0.263 C  
HETATM   24  C   UNL     1     -12.651  12.918  70.854  1.00  0.00    -0.355 C  
HETATM   25  O   UNL     1     -12.967  10.952  69.548  1.00  0.00    -0.121 OA 
ENDBRANCH  22  23
ENDBRANCH   4  22
BRANCH   7  26
HETATM   26  O   UNL     1      -9.287  13.374  66.533  1.00  0.00    -0.256 OA 
BRANCH  26  27
HETATM   27  C   UNL     1     -10.013  14.111  65.638  1.00  0.00    -0.306 C  
HETATM   28  O   UNL     1      -9.825  15.301  65.421  1.00  0.00    -0.332 OA 
BRANCH  27  29
HETATM   29  C   UNL     1     -10.884  13.274  64.716  1.00  0.00    -0.374 A  
HETATM   30  C   UNL     1     -10.250  12.393  63.805  1.00  0.00    -0.404 A  
HETATM   31  C   UNL     1     -12.276  13.307  64.719  1.00  0.00    -0.466 A  
HETATM   32  C   UNL     1     -13.020  12.465  63.864  1.00  0.00    -0.271 A  
HETATM   33  C   UNL     1     -10.991  11.529  62.977  1.00  0.00    -0.035 A  
HETATM   34  C   UNL     1     -12.377  11.570  63.002  1.00  0.00     0.197 A  
ENDBRANCH  27  29
ENDBRANCH  26  27
ENDBRANCH   7  26
BRANCH   9  35
HETATM   35  O   UNL     1      -6.277  13.646  68.617  1.00  0.00    -0.079 OA 
BRANCH  35  36
HETATM   36  C   UNL     1      -6.388  14.317  69.802  1.00  0.00    -0.144 C  
HETATM   37  O   UNL     1      -6.323  13.848  70.906  1.00  0.00    -0.073 OA 
HETATM   38  C   UNL     1      -6.520  15.803  69.559  1.00  0.00    -0.177 C  
ENDBRANCH  35  36
ENDBRANCH   9  35
TORSDOF 7
ENDMDL
MODEL       72
REMARK 921   NORMALIZED FREE ENERGY PREDICTED BY IDOCK:   -4.14 KCAL/MOL
REMARK 922        TOTAL FREE ENERGY PREDICTED BY IDOCK:   -6.48 KCAL/MOL
REMARK 923 INTER-LIGAND FREE ENERGY PREDICTED BY IDOCK:   -7.74 KCAL/MOL
REMARK 924 INTRA-LIGAND FREE ENERGY PREDICTED BY IDOCK:    1.26 KCAL/MOL
REMARK 927      BINDING AFFINITY PREDICTED BY RF-SCORE:    0.00 PKD
ROOT
HETATM    1  C   UNL     1      -9.848   7.375  69.710  1.00  0.00    -0.171 C  
HETATM    2  C   UNL     1     -10.061   8.652  68.932  1.00  0.00    -0.213 C  
HETATM    3  C   UNL     1     -11.120   9.052  67.938  1.00  0.00     0.164 C  
HETATM    4  C   UNL     1     -10.259  10.207  67.162  1.00  0.00    -0.225 C  
HETATM    5  O   UNL     1     -12.125  11.764  66.948  1.00  0.00    -0.566 OA 
HETATM    6  C   UNL     1      -9.017  10.576  68.329  1.00  0.00    -0.139 C  
HETATM    7  C   UNL     1      -9.785  10.009  69.568  1.00  0.00    -0.233 C  
HETATM    8  C   UNL     1      -9.085  11.625  64.764  1.00  0.00     0.195 C  
HETATM    9  C   UNL     1      -8.166  11.689  69.077  1.00  0.00     0.114 C  
HETATM   10  C   UNL     1      -7.305  12.801  68.533  1.00  0.00    -0.115 C  
HETATM   11  C   UNL     1     -11.027  11.402  66.523  1.00  0.00    -0.272 C  
HETATM   12  C   UNL     1      -8.895  17.021  66.169  1.00  0.00    -0.251 C  
HETATM   13  C   UNL     1     -10.367  12.152  65.352  1.00  0.00    -0.301 C  
HETATM   14  C   UNL     1     -11.211  16.617  65.326  1.00  0.00     0.094 C  
HETATM   15  C   UNL     1      -9.885  15.989  65.658  1.00  0.00    -0.309 C  
HETATM   16  C   UNL     1      -8.054  14.080  68.308  1.00  0.00    -0.148 C  
HETATM   17  C   UNL     1      -5.962  12.826  68.445  1.00  0.00    -0.068 C  
HETATM   18  C   UNL     1     -10.803  13.422  65.128  1.00  0.00    -0.322 C  
HETATM   19  C   UNL     1      -9.819  14.562  65.029  1.00  0.00    -0.056 C  
HETATM   20  C   UNL     1      -8.226  14.220  66.830  1.00  0.00    -0.020 C  
HETATM   21  C   UNL     1      -9.571  14.772  66.483  1.00  0.00    -0.304 C  
ENDROOT
BRANCH   4  22
HETATM   22  O   UNL     1      -9.787   9.360  66.022  1.00  0.00    -0.269 OA 
BRANCH  22  23
HETATM   23  C   UNL     1      -8.596   8.687  66.240  1.00  0.00    -0.137 C  
HETATM   24  C   UNL     1      -8.750   7.201  66.134  1.00  0.00    -0.164 C  
HETATM   25  O   UNL     1      -7.504   9.208  66.431  1.00  0.00    -0.091 OA 
ENDBRANCH  22  23
ENDBRANCH   4  22
BRANCH   7  26
HETATM   26  O   UNL     1     -10.988  10.925  69.691  1.00  0.00    -0.251 OA 
BRANCH  26  27
HETATM   27  C   UNL     1     -11.829  10.904  70.769  1.00  0.00    -0.319 C  
HETATM   28  O   UNL     1     -11.901   9.974  71.562  1.00  0.00    -0.377 OA 
BRANCH  27  29
HETATM   29  C   UNL     1     -12.467  12.249  71.077  1.00  0.00    -0.361 A  
HETATM   30  C   UNL     1     -12.103  13.364  70.282  1.00  0.00    -0.419 A  
HETATM   31  C   UNL     1     -13.400  12.455  72.089  1.00  0.00    -0.508 A  
HETATM   32  C   UNL     1     -13.984  13.725  72.286  1.00  0.00    -0.672 A  
HETATM   33  C   UNL     1     -12.709  14.623  70.455  1.00  0.00    -0.394 A  
HETATM   34  C   UNL     1     -13.645  14.804  71.463  1.00  0.00    -0.495 A  
ENDBRANCH  27  29
ENDBRANCH  26  27
ENDBRANCH   7  26
BRANCH   9  35
HETATM   35  O   UNL     1      -7.357  11.107  70.193  1.00  0.00     0.083 OA 
BRANCH  35  36
HETATM   36  C   UNL     1      -6.802   9.859  70.136  1.00  0.00    -0.125 C  
HETATM   37  O   UNL     1      -7.117   8.899  70.786  1.00  0.00    -0.059 OA 
HETATM   38  C   UNL     1      -5.755   9.794  69.048  1.00  0.00    -0.035 C  
ENDBRANCH  35  36
ENDBRANCH   9  35
TORSDOF 7
ENDMDL
MODEL       73
REMARK 921   NORMALIZED FREE ENERGY PREDICTED BY IDOCK:   -4.12 KCAL/MOL
REMARK 922        TOTAL FREE ENERGY PREDICTED BY IDOCK:   -6.44 KCAL/MOL
REMARK 923 INTER-LIGAND FREE ENERGY PREDICTED BY IDOCK:   -6.23 KCAL/MOL
REMARK 924 INTRA-LIGAND FREE ENERGY PREDICTED BY IDOCK:   -0.22 KCAL/MOL
REMARK 927      BINDING AFFINITY PREDICTED BY RF-SCORE:    0.00 PKD
ROOT
HETATM    1  C   UNL     1      -6.849  10.397  68.152  1.00  0.00    -0.072 C  
HETATM    2  C   UNL     1      -7.363   9.345  69.105  1.00  0.00    -0.071 C  
HETATM    3  C   UNL     1      -7.732   9.414  70.565  1.00  0.00    -0.177 C  
HETATM    4  C   UNL     1      -7.529   7.827  70.910  1.00  0.00    -0.073 C  
HETATM    5  O   UNL     1      -9.493   7.664  72.349  1.00  0.00    -0.149 OA 
HETATM    6  C   UNL     1      -7.613   7.100  69.328  1.00  0.00    -0.102 C  
HETATM    7  C   UNL     1      -8.360   8.291  68.641  1.00  0.00    -0.125 C  
HETATM    8  C   UNL     1      -6.469   5.457  72.459  1.00  0.00    -0.056 C  
HETATM    9  C   UNL     1      -8.174   5.924  68.418  1.00  0.00    -0.109 C  
HETATM   10  C   UNL     1      -8.064   4.427  68.566  1.00  0.00    -0.081 C  
HETATM   11  C   UNL     1      -8.396   7.196  72.040  1.00  0.00    -0.107 C  
HETATM   12  C   UNL     1     -10.398   1.519  72.034  1.00  0.00    -0.205 C  
HETATM   13  C   UNL     1      -7.861   5.944  72.759  1.00  0.00    -0.104 C  
HETATM   14  C   UNL     1     -11.102   2.982  73.932  1.00  0.00    -0.237 C  
HETATM   15  C   UNL     1     -10.092   2.772  72.837  1.00  0.00    -0.218 C  
HETATM   16  C   UNL     1      -9.184   3.823  69.359  1.00  0.00    -0.226 C  
HETATM   17  C   UNL     1      -7.231   3.600  67.908  1.00  0.00    -0.055 C  
HETATM   18  C   UNL     1      -8.789   5.163  73.378  1.00  0.00    -0.113 C  
HETATM   19  C   UNL     1      -8.852   3.682  73.097  1.00  0.00    -0.097 C  
HETATM   20  C   UNL     1      -8.614   3.454  70.691  1.00  0.00    -0.115 C  
HETATM   21  C   UNL     1      -9.579   3.730  71.798  1.00  0.00    -0.226 C  
ENDROOT
BRANCH   4  22
HETATM   22  O   UNL     1      -6.140   7.927  71.459  1.00  0.00    -0.035 OA 
BRANCH  22  23
HETATM   23  C   UNL     1      -5.891   9.048  72.232  1.00  0.00    -0.063 C  
HETATM   24  C   UNL     1      -5.876   8.741  73.698  1.00  0.00    -0.114 C  
HETATM   25  O   UNL     1      -5.637  10.169  71.809  1.00  0.00    -0.255 OA 
ENDBRANCH  22  23
ENDBRANCH   4  22
BRANCH   7  26
HETATM   26  O   UNL     1      -9.706   8.317  69.341  1.00  0.00    -0.173 OA 
BRANCH  26  27
HETATM   27  C   UNL     1     -10.625   9.311  69.143  1.00  0.00    -0.212 C  
HETATM   28  O   UNL     1     -11.239   9.863  70.047  1.00  0.00    -0.251 OA 
BRANCH  27  29
HETATM   29  C   UNL     1     -10.618   9.883  67.735  1.00  0.00    -0.313 A  
HETATM   30  C   UNL     1     -11.154  11.179  67.533  1.00  0.00    -0.353 A  
HETATM   31  C   UNL     1     -10.104   9.217  66.627  1.00  0.00    -0.343 A  
HETATM   32  C   UNL     1     -10.092   9.831  65.356  1.00  0.00    -0.196 A  
HETATM   33  C   UNL     1     -11.112  11.806  66.273  1.00  0.00    -0.364 A  
HETATM   34  C   UNL     1     -10.586  11.129  65.183  1.00  0.00    -0.319 A  
ENDBRANCH  27  29
ENDBRANCH  26  27
ENDBRANCH   7  26
BRANCH   9  35
HETATM   35  O   UNL     1      -7.905   6.172  66.968  1.00  0.00    -0.099 OA 
BRANCH  35  36
HETATM   36  C   UNL     1      -8.804   5.872  65.983  1.00  0.00    -0.149 C  
HETATM   37  O   UNL     1      -9.989   5.716  66.111  1.00  0.00    -0.138 OA 
HETATM   38  C   UNL     1      -8.123   5.843  64.635  1.00  0.00    -0.132 C  
ENDBRANCH  35  36
ENDBRANCH   9  35
TORSDOF 7
ENDMDL
MODEL       74
REMARK 921   NORMALIZED FREE ENERGY PREDICTED BY IDOCK:   -4.12 KCAL/MOL
REMARK 922        TOTAL FREE ENERGY PREDICTED BY IDOCK:   -6.44 KCAL/MOL
REMARK 923 INTER-LIGAND FREE ENERGY PREDICTED BY IDOCK:   -4.27 KCAL/MOL
REMARK 924 INTRA-LIGAND FREE ENERGY PREDICTED BY IDOCK:   -2.18 KCAL/MOL
REMARK 927      BINDING AFFINITY PREDICTED BY RF-SCORE:    0.00 PKD
ROOT
HETATM    1  C   UNL     1      -8.972   5.426  64.675  1.00  0.00     0.068 C  
HETATM    2  C   UNL     1      -8.597   5.448  66.137  1.00  0.00    -0.126 C  
HETATM    3  C   UNL     1      -7.719   4.538  66.957  1.00  0.00    -0.090 C  
HETATM    4  C   UNL     1      -8.382   4.863  68.418  1.00  0.00    -0.091 C  
HETATM    5  O   UNL     1      -6.257   4.902  69.618  1.00  0.00    -0.027 OA 
HETATM    6  C   UNL     1      -9.181   6.383  68.122  1.00  0.00    -0.111 C  
HETATM    7  C   UNL     1      -8.341   6.765  66.858  1.00  0.00    -0.114 C  
HETATM    8  C   UNL     1      -9.627   4.191  71.089  1.00  0.00    -0.249 C  
HETATM    9  C   UNL     1      -9.504   7.853  68.633  1.00  0.00    -0.149 C  
HETATM   10  C   UNL     1     -10.126   8.332  69.920  1.00  0.00    -0.195 C  
HETATM   11  C   UNL     1      -7.479   4.757  69.683  1.00  0.00    -0.056 C  
HETATM   12  C   UNL     1      -8.011   8.257  74.552  1.00  0.00    -0.276 C  
HETATM   13  C   UNL     1      -8.153   4.489  71.041  1.00  0.00    -0.081 C  
HETATM   14  C   UNL     1      -6.144   6.599  74.530  1.00  0.00    -0.072 C  
HETATM   15  C   UNL     1      -7.482   6.967  73.950  1.00  0.00    -0.097 C  
HETATM   16  C   UNL     1      -9.125   8.595  71.005  1.00  0.00    -0.248 C  
HETATM   17  C   UNL     1     -11.395   8.737  70.113  1.00  0.00    -0.099 C  
HETATM   18  C   UNL     1      -7.446   4.856  72.146  1.00  0.00    -0.088 C  
HETATM   19  C   UNL     1      -8.076   5.734  73.199  1.00  0.00    -0.117 C  
HETATM   20  C   UNL     1      -9.257   7.477  71.988  1.00  0.00    -0.163 C  
HETATM   21  C   UNL     1      -7.925   7.049  72.516  1.00  0.00    -0.101 C  
ENDROOT
BRANCH   4  22
HETATM   22  O   UNL     1      -9.310   3.690  68.471  1.00  0.00    -0.149 OA 
BRANCH  22  23
HETATM   23  C   UNL     1      -8.880   2.566  67.787  1.00  0.00    -0.131 C  
HETATM   24  C   UNL     1      -7.978   1.702  68.614  1.00  0.00    -0.057 C  
HETATM   25  O   UNL     1      -9.225   2.238  66.658  1.00  0.00    -0.105 OA 
ENDBRANCH  22  23
ENDBRANCH   4  22
BRANCH   7  26
HETATM   26  O   UNL     1      -6.937   6.943  67.406  1.00  0.00    -0.073 OA 
BRANCH  26  27
HETATM   27  C   UNL     1      -6.298   8.153  67.428  1.00  0.00    -0.056 C  
HETATM   28  O   UNL     1      -6.146   8.864  66.444  1.00  0.00    -0.057 OA 
BRANCH  27  29
HETATM   29  C   UNL     1      -6.040   8.685  68.828  1.00  0.00    -0.045 A  
HETATM   30  C   UNL     1      -6.444  10.010  69.130  1.00  0.00    -0.048 A  
HETATM   31  C   UNL     1      -5.440   7.947  69.844  1.00  0.00    -0.023 A  
HETATM   32  C   UNL     1      -5.275   8.495  71.135  1.00  0.00    -0.028 A  
HETATM   33  C   UNL     1      -6.311  10.545  70.425  1.00  0.00    -0.126 A  
HETATM   34  C   UNL     1      -5.720   9.788  71.426  1.00  0.00    -0.050 A  
ENDBRANCH  27  29
ENDBRANCH  26  27
ENDBRANCH   7  26
BRANCH   9  35
HETATM   35  O   UNL     1     -10.171   8.671  67.573  1.00  0.00    -0.209 OA 
BRANCH  35  36
HETATM   36  C   UNL     1      -9.720   9.904  67.193  1.00  0.00    -0.178 C  
HETATM   37  O   UNL     1      -9.456  10.830  67.912  1.00  0.00    -0.153 OA 
HETATM   38  C   UNL     1      -9.494   9.948  65.699  1.00  0.00    -0.295 C  
ENDBRANCH  35  36
ENDBRANCH   9  35
TORSDOF 7
ENDMDL
MODEL       75
REMARK 921   NORMALIZED FREE ENERGY PREDICTED BY IDOCK:   -4.08 KCAL/MOL
REMARK 922        TOTAL FREE ENERGY PREDICTED BY IDOCK:   -6.39 KCAL/MOL
REMARK 923 INTER-LIGAND FREE ENERGY PREDICTED BY IDOCK:   -6.43 KCAL/MOL
REMARK 924 INTRA-LIGAND FREE ENERGY PREDICTED BY IDOCK:    0.04 KCAL/MOL
REMARK 927      BINDING AFFINITY PREDICTED BY RF-SCORE:    0.00 PKD
ROOT
HETATM    1  C   UNL     1      -8.013  11.720  68.683  1.00  0.00    -0.116 C  
HETATM    2  C   UNL     1      -7.871  10.365  69.334  1.00  0.00    -0.163 C  
HETATM    3  C   UNL     1      -6.941   9.865  70.409  1.00  0.00    -0.145 C  
HETATM    4  C   UNL     1      -7.007   8.276  70.025  1.00  0.00    -0.043 C  
HETATM    5  O   UNL     1      -7.072   7.496  72.337  1.00  0.00    -0.068 OA 
HETATM    6  C   UNL     1      -8.478   8.190  69.093  1.00  0.00    -0.135 C  
HETATM    7  C   UNL     1      -9.098   9.517  69.646  1.00  0.00    -0.196 C  
HETATM    8  C   UNL     1      -5.878   5.550  69.368  1.00  0.00    -0.016 C  
HETATM    9  C   UNL     1      -9.831   7.416  68.787  1.00  0.00    -0.164 C  
HETATM   10  C   UNL     1     -10.077   5.980  68.400  1.00  0.00    -0.198 C  
HETATM   11  C   UNL     1      -6.813   7.229  71.163  1.00  0.00    -0.055 C  
HETATM   12  C   UNL     1      -9.570   1.881  71.379  1.00  0.00    -0.213 C  
HETATM   13  C   UNL     1      -6.308   5.825  70.784  1.00  0.00    -0.035 C  
HETATM   14  C   UNL     1      -8.099   2.493  73.303  1.00  0.00    -0.059 C  
HETATM   15  C   UNL     1      -8.423   2.755  71.857  1.00  0.00    -0.075 C  
HETATM   16  C   UNL     1     -10.280   5.072  69.576  1.00  0.00    -0.286 C  
HETATM   17  C   UNL     1     -10.340   5.498  67.171  1.00  0.00    -0.301 C  
HETATM   18  C   UNL     1      -6.583   4.827  71.669  1.00  0.00    -0.034 C  
HETATM   19  C   UNL     1      -7.255   3.557  71.204  1.00  0.00    -0.033 C  
HETATM   20  C   UNL     1      -9.033   4.258  69.707  1.00  0.00    -0.150 C  
HETATM   21  C   UNL     1      -8.657   4.055  71.139  1.00  0.00    -0.110 C  
ENDROOT
BRANCH   4  22
HETATM   22  O   UNL     1      -5.761   8.226  69.198  1.00  0.00    -0.033 OA 
BRANCH  22  23
HETATM   23  C   UNL     1      -5.916   8.605  67.875  1.00  0.00    -0.047 C  
HETATM   24  C   UNL     1      -6.563   7.538  67.046  1.00  0.00    -0.062 C  
HETATM   25  O   UNL     1      -5.635   9.700  67.405  1.00  0.00    -0.040 OA 
ENDBRANCH  22  23
ENDBRANCH   4  22
BRANCH   7  26
HETATM   26  O   UNL     1      -9.324   9.217  71.116  1.00  0.00    -0.254 OA 
BRANCH  26  27
HETATM   27  C   UNL     1     -10.570   9.060  71.658  1.00  0.00    -0.364 C  
HETATM   28  O   UNL     1     -11.527   9.774  71.388  1.00  0.00    -0.371 OA 
BRANCH  27  29
HETATM   29  C   UNL     1     -10.754   7.750  72.406  1.00  0.00    -0.347 A  
HETATM   30  C   UNL     1     -11.769   6.863  71.970  1.00  0.00    -0.336 A  
HETATM   31  C   UNL     1      -9.977   7.358  73.492  1.00  0.00    -0.377 A  
HETATM   32  C   UNL     1     -10.177   6.104  74.109  1.00  0.00    -0.320 A  
HETATM   33  C   UNL     1     -11.947   5.598  72.562  1.00  0.00    -0.130 A  
HETATM   34  C   UNL     1     -11.155   5.222  73.636  1.00  0.00    -0.251 A  
ENDBRANCH  27  29
ENDBRANCH  26  27
ENDBRANCH   7  26
BRANCH   9  35
HETATM   35  O   UNL     1     -10.722   8.202  67.878  1.00  0.00    -0.177 OA 
BRANCH  35  36
HETATM   36  C   UNL     1     -10.254   8.906  66.804  1.00  0.00    -0.278 C  
HETATM   37  O   UNL     1      -9.608   8.477  65.886  1.00  0.00    -0.197 OA 
HETATM   38  C   UNL     1     -10.738  10.337  66.857  1.00  0.00    -0.252 C  
ENDBRANCH  35  36
ENDBRANCH   9  35
TORSDOF 7
ENDMDL
MODEL       76
REMARK 921   NORMALIZED FREE ENERGY PREDICTED BY IDOCK:   -4.07 KCAL/MOL
REMARK 922        TOTAL FREE ENERGY PREDICTED BY IDOCK:   -6.37 KCAL/MOL
REMARK 923 INTER-LIGAND FREE ENERGY PREDICTED BY IDOCK:   -6.01 KCAL/MOL
REMARK 924 INTRA-LIGAND FREE ENERGY PREDICTED BY IDOCK:   -0.36 KCAL/MOL
REMARK 927      BINDING AFFINITY PREDICTED BY RF-SCORE:    0.00 PKD
ROOT
HETATM    1  C   UNL     1     -10.109   3.379  71.626  1.00  0.00    -0.104 C  
HETATM    2  C   UNL     1      -9.394   4.518  70.941  1.00  0.00    -0.219 C  
HETATM    3  C   UNL     1      -7.976   4.656  70.449  1.00  0.00    -0.064 C  
HETATM    4  C   UNL     1      -7.897   6.290  70.484  1.00  0.00    -0.106 C  
HETATM    5  O   UNL     1      -6.659   6.493  68.391  1.00  0.00    -0.053 OA 
HETATM    6  C   UNL     1      -9.582   6.734  70.482  1.00  0.00    -0.174 C  
HETATM    7  C   UNL     1     -10.107   5.377  69.904  1.00  0.00    -0.252 C  
HETATM    8  C   UNL     1      -6.707   8.977  71.194  1.00  0.00    -0.090 C  
HETATM    9  C   UNL     1     -10.721   7.681  69.907  1.00  0.00    -0.249 C  
HETATM   10  C   UNL     1     -10.827   9.185  69.876  1.00  0.00    -0.242 C  
HETATM   11  C   UNL     1      -6.961   7.010  69.468  1.00  0.00    -0.062 C  
HETATM   12  C   UNL     1      -8.100  12.381  66.999  1.00  0.00    -0.124 C  
HETATM   13  C   UNL     1      -6.432   8.410  69.827  1.00  0.00    -0.036 C  
HETATM   14  C   UNL     1      -6.035  11.190  66.253  1.00  0.00    -0.130 C  
HETATM   15  C   UNL     1      -7.071  11.315  67.336  1.00  0.00    -0.109 C  
HETATM   16  C   UNL     1     -10.237   9.799  68.642  1.00  0.00    -0.210 C  
HETATM   17  C   UNL     1     -11.554   9.970  70.692  1.00  0.00    -0.422 C  
HETATM   18  C   UNL     1      -6.028   9.188  68.784  1.00  0.00    -0.044 C  
HETATM   19  C   UNL     1      -6.566  10.588  68.621  1.00  0.00    -0.052 C  
HETATM   20  C   UNL     1      -8.951  10.437  69.056  1.00  0.00    -0.184 C  
HETATM   21  C   UNL     1      -7.887  10.254  68.021  1.00  0.00    -0.100 C  
ENDROOT
BRANCH   4  22
HETATM   22  O   UNL     1      -7.237   6.421  71.820  1.00  0.00    -0.083 OA 
BRANCH  22  23
HETATM   23  C   UNL     1      -6.209   5.524  72.061  1.00  0.00    -0.039 C  
HETATM   24  C   UNL     1      -6.435   4.712  73.299  1.00  0.00    -0.051 C  
HETATM   25  O   UNL     1      -5.241   5.332  71.336  1.00  0.00    -0.004 OA 
ENDBRANCH  22  23
ENDBRANCH   4  22
BRANCH   7  26
HETATM   26  O   UNL     1      -9.516   5.334  68.507  1.00  0.00    -0.117 OA 
BRANCH  26  27
HETATM   27  C   UNL     1     -10.285   5.326  67.377  1.00  0.00    -0.191 C  
HETATM   28  O   UNL     1     -11.028   6.243  67.050  1.00  0.00    -0.355 OA 
BRANCH  27  29
HETATM   29  C   UNL     1      -9.934   4.215  66.401  1.00  0.00    -0.177 A  
HETATM   30  C   UNL     1     -10.420   4.306  65.073  1.00  0.00    -0.189 A  
HETATM   31  C   UNL     1      -9.150   3.113  66.727  1.00  0.00    -0.184 A  
HETATM   32  C   UNL     1      -8.827   2.142  65.754  1.00  0.00    -0.121 A  
HETATM   33  C   UNL     1     -10.071   3.357  64.094  1.00  0.00    -0.192 A  
HETATM   34  C   UNL     1      -9.279   2.271  64.437  1.00  0.00    -0.127 A  
ENDBRANCH  27  29
ENDBRANCH  26  27
ENDBRANCH   7  26
BRANCH   9  35
HETATM   35  O   UNL     1     -12.083   7.224  70.327  1.00  0.00    -0.096 OA 
BRANCH  35  36
HETATM   36  C   UNL     1     -12.476   7.163  71.634  1.00  0.00    -0.370 C  
HETATM   37  O   UNL     1     -11.775   6.970  72.591  1.00  0.00    -0.213 OA 
HETATM   38  C   UNL     1     -13.951   7.469  71.759  1.00  0.00    -0.473 C  
ENDBRANCH  35  36
ENDBRANCH   9  35
TORSDOF 7
ENDMDL
MODEL       77
REMARK 921   NORMALIZED FREE ENERGY PREDICTED BY IDOCK:   -4.00 KCAL/MOL
REMARK 922        TOTAL FREE ENERGY PREDICTED BY IDOCK:   -6.27 KCAL/MOL
REMARK 923 INTER-LIGAND FREE ENERGY PREDICTED BY IDOCK:   -5.53 KCAL/MOL
REMARK 924 INTRA-LIGAND FREE ENERGY PREDICTED BY IDOCK:   -0.74 KCAL/MOL
REMARK 927      BINDING AFFINITY PREDICTED BY RF-SCORE:    0.00 PKD
ROOT
HETATM    1  C   UNL     1      -5.465   6.611  67.499  1.00  0.00    -0.008 C  
HETATM    2  C   UNL     1      -6.467   7.698  67.803  1.00  0.00    -0.055 C  
HETATM    3  C   UNL     1      -7.058   8.177  69.103  1.00  0.00    -0.061 C  
HETATM    4  C   UNL     1      -8.427   8.830  68.487  1.00  0.00    -0.130 C  
HETATM    5  O   UNL     1      -8.405  10.792  69.937  1.00  0.00     0.180 OA 
HETATM    6  C   UNL     1      -8.000   9.048  66.811  1.00  0.00    -0.107 C  
HETATM    7  C   UNL     1      -6.451   9.012  67.032  1.00  0.00    -0.061 C  
HETATM    8  C   UNL     1     -11.407   9.292  68.275  1.00  0.00     0.400 C  
HETATM    9  C   UNL     1      -8.026   9.987  65.530  1.00  0.00    -0.139 C  
HETATM   10  C   UNL     1      -9.179  10.649  64.818  1.00  0.00    -0.255 C  
HETATM   11  C   UNL     1      -9.073  10.037  69.230  1.00  0.00    -0.200 C  
HETATM   12  C   UNL     1     -11.979  14.553  66.507  1.00  0.00    -0.358 C  
HETATM   13  C   UNL     1     -10.580  10.290  69.040  1.00  0.00    -0.247 C  
HETATM   14  C   UNL     1     -11.707  14.692  68.986  1.00  0.00    -0.339 C  
HETATM   15  C   UNL     1     -11.720  13.781  67.790  1.00  0.00    -0.393 C  
HETATM   16  C   UNL     1      -9.499  12.016  65.345  1.00  0.00    -0.080 C  
HETATM   17  C   UNL     1      -9.771  10.252  63.677  1.00  0.00    -0.276 C  
HETATM   18  C   UNL     1     -11.015  11.555  69.293  1.00  0.00    -0.261 C  
HETATM   19  C   UNL     1     -11.836  12.301  68.270  1.00  0.00    -0.367 C  
HETATM   20  C   UNL     1     -10.763  11.886  66.131  1.00  0.00    -0.318 C  
HETATM   21  C   UNL     1     -10.733  12.729  67.365  1.00  0.00    -0.248 C  
ENDROOT
BRANCH   4  22
HETATM   22  O   UNL     1      -9.326   7.660  68.736  1.00  0.00    -0.149 OA 
BRANCH  22  23
HETATM   23  C   UNL     1      -9.112   6.996  69.933  1.00  0.00    -0.141 C  
HETATM   24  C   UNL     1     -10.165   7.300  70.953  1.00  0.00    -0.203 C  
HETATM   25  O   UNL     1      -8.217   6.189  70.155  1.00  0.00    -0.116 OA 
ENDBRANCH  22  23
ENDBRANCH   4  22
BRANCH   7  26
HETATM   26  O   UNL     1      -6.183  10.251  67.866  1.00  0.00    -0.058 OA 
BRANCH  26  27
HETATM   27  C   UNL     1      -5.753  11.431  67.324  1.00  0.00    -0.079 C  
HETATM   28  O   UNL     1      -5.195  11.521  66.238  1.00  0.00    -0.234 OA 
BRANCH  27  29
HETATM   29  C   UNL     1      -6.279  12.664  68.041  1.00  0.00    -0.094 A  
HETATM   30  C   UNL     1      -5.615  13.092  69.218  1.00  0.00    -0.079 A  
HETATM   31  C   UNL     1      -7.369  13.411  67.607  1.00  0.00    -0.173 A  
HETATM   32  C   UNL     1      -7.772  14.572  68.302  1.00  0.00    -0.126 A  
HETATM   33  C   UNL     1      -5.994  14.268  69.892  1.00  0.00    -0.132 A  
HETATM   34  C   UNL     1      -7.078  15.005  69.437  1.00  0.00    -0.186 A  
ENDBRANCH  27  29
ENDBRANCH  26  27
ENDBRANCH   7  26
BRANCH   9  35
HETATM   35  O   UNL     1      -7.176   9.440  64.427  1.00  0.00    -0.099 OA 
BRANCH  35  36
HETATM   36  C   UNL     1      -7.442   8.252  63.804  1.00  0.00    -0.121 C  
HETATM   37  O   UNL     1      -8.071   7.330  64.248  1.00  0.00    -0.126 OA 
HETATM   38  C   UNL     1      -6.906   8.264  62.392  1.00  0.00    -0.090 C  
ENDBRANCH  35  36
ENDBRANCH   9  35
TORSDOF 7
ENDMDL
MODEL       78
REMARK 921   NORMALIZED FREE ENERGY PREDICTED BY IDOCK:   -3.96 KCAL/MOL
REMARK 922        TOTAL FREE ENERGY PREDICTED BY IDOCK:   -6.22 KCAL/MOL
REMARK 923 INTER-LIGAND FREE ENERGY PREDICTED BY IDOCK:   -6.33 KCAL/MOL
REMARK 924 INTRA-LIGAND FREE ENERGY PREDICTED BY IDOCK:    0.11 KCAL/MOL
REMARK 927      BINDING AFFINITY PREDICTED BY RF-SCORE:    0.00 PKD
ROOT
HETATM    1  C   UNL     1     -11.165  10.885  70.522  1.00  0.00    -0.084 C  
HETATM    2  C   UNL     1     -10.753   9.706  69.674  1.00  0.00    -0.260 C  
HETATM    3  C   UNL     1     -11.483   8.444  69.295  1.00  0.00     0.604 C  
HETATM    4  C   UNL     1     -10.167   7.523  68.982  1.00  0.00    -0.205 C  
HETATM    5  O   UNL     1     -11.123   6.437  67.017  1.00  0.00    -0.384 OA 
HETATM    6  C   UNL     1      -8.934   8.729  68.729  1.00  0.00    -0.138 C  
HETATM    7  C   UNL     1      -9.918   9.904  68.415  1.00  0.00    -0.158 C  
HETATM    8  C   UNL     1      -8.396   5.082  69.198  1.00  0.00    -0.086 C  
HETATM    9  C   UNL     1      -7.700   9.227  67.861  1.00  0.00    -0.088 C  
HETATM   10  C   UNL     1      -6.412   8.534  67.494  1.00  0.00    -0.058 C  
HETATM   11  C   UNL     1     -10.291   6.386  67.924  1.00  0.00    -0.190 C  
HETATM   12  C   UNL     1      -5.847   4.647  64.254  1.00  0.00    -0.017 C  
HETATM   13  C   UNL     1      -9.323   5.193  68.017  1.00  0.00    -0.144 C  
HETATM   14  C   UNL     1      -8.066   3.534  63.977  1.00  0.00    -0.089 C  
HETATM   15  C   UNL     1      -7.177   4.314  64.907  1.00  0.00    -0.071 C  
HETATM   16  C   UNL     1      -6.497   7.756  66.215  1.00  0.00    -0.046 C  
HETATM   17  C   UNL     1      -5.200   8.716  68.050  1.00  0.00    -0.035 C  
HETATM   18  C   UNL     1      -9.133   4.481  66.872  1.00  0.00    -0.130 C  
HETATM   19  C   UNL     1      -7.738   4.215  66.360  1.00  0.00    -0.090 C  
HETATM   20  C   UNL     1      -6.535   6.311  66.597  1.00  0.00    -0.046 C  
HETATM   21  C   UNL     1      -7.474   5.537  65.728  1.00  0.00    -0.081 C  
ENDROOT
BRANCH   4  22
HETATM   22  O   UNL     1     -10.087   6.844  70.313  1.00  0.00    -0.182 OA 
BRANCH  22  23
HETATM   23  C   UNL     1     -11.296   6.395  70.819  1.00  0.00    -0.350 C  
HETATM   24  C   UNL     1     -11.149   5.745  72.161  1.00  0.00    -0.327 C  
HETATM   25  O   UNL     1     -12.393   6.552  70.299  1.00  0.00    -0.178 OA 
ENDBRANCH  22  23
ENDBRANCH   4  22
BRANCH   7  26
HETATM   26  O   UNL     1     -10.584   9.473  67.120  1.00  0.00    -0.257 OA 
BRANCH  26  27
HETATM   27  C   UNL     1     -10.120   9.846  65.889  1.00  0.00    -0.245 C  
HETATM   28  O   UNL     1      -9.442   9.125  65.167  1.00  0.00    -0.191 OA 
BRANCH  27  29
HETATM   29  C   UNL     1     -10.751  11.121  65.355  1.00  0.00    -0.259 A  
HETATM   30  C   UNL     1     -10.475  11.500  64.017  1.00  0.00    -0.424 A  
HETATM   31  C   UNL     1     -11.597  11.940  66.096  1.00  0.00    -0.299 A  
HETATM   32  C   UNL     1     -12.182  13.087  65.517  1.00  0.00    -0.521 A  
HETATM   33  C   UNL     1     -11.084  12.624  63.428  1.00  0.00    -0.354 A  
HETATM   34  C   UNL     1     -11.934  13.421  64.181  1.00  0.00    -0.505 A  
ENDBRANCH  27  29
ENDBRANCH  26  27
ENDBRANCH   7  26
BRANCH   9  35
HETATM   35  O   UNL     1      -7.279  10.611  68.243  1.00  0.00    -0.080 OA 
BRANCH  35  36
HETATM   36  C   UNL     1      -7.268  11.654  67.360  1.00  0.00    -0.128 C  
HETATM   37  O   UNL     1      -8.188  12.377  67.085  1.00  0.00    -0.178 OA 
HETATM   38  C   UNL     1      -5.878  11.866  66.807  1.00  0.00    -0.059 C  
ENDBRANCH  35  36
ENDBRANCH   9  35
TORSDOF 7
ENDMDL
MODEL       79
REMARK 921   NORMALIZED FREE ENERGY PREDICTED BY IDOCK:   -3.94 KCAL/MOL
REMARK 922        TOTAL FREE ENERGY PREDICTED BY IDOCK:   -6.20 KCAL/MOL
REMARK 923 INTER-LIGAND FREE ENERGY PREDICTED BY IDOCK:   -5.90 KCAL/MOL
REMARK 924 INTRA-LIGAND FREE ENERGY PREDICTED BY IDOCK:   -0.30 KCAL/MOL
REMARK 927      BINDING AFFINITY PREDICTED BY RF-SCORE:    0.00 PKD
ROOT
HETATM    1  C   UNL     1     -10.386  13.489  64.477  1.00  0.00    -0.381 C  
HETATM    2  C   UNL     1     -10.290  12.343  65.454  1.00  0.00    -0.303 C  
HETATM    3  C   UNL     1     -11.189  11.157  65.695  1.00  0.00     0.008 C  
HETATM    4  C   UNL     1     -10.739  10.860  67.240  1.00  0.00    -0.268 C  
HETATM    5  O   UNL     1     -10.730   8.431  67.002  1.00  0.00    -0.289 OA 
HETATM    6  C   UNL     1      -9.202  11.678  67.333  1.00  0.00    -0.168 C  
HETATM    7  C   UNL     1      -8.944  11.713  65.790  1.00  0.00    -0.064 C  
HETATM    8  C   UNL     1     -11.176  10.350  70.188  1.00  0.00    -0.393 C  
HETATM    9  C   UNL     1      -7.689  11.642  67.816  1.00  0.00    -0.126 C  
HETATM   10  C   UNL     1      -7.099  11.411  69.184  1.00  0.00    -0.115 C  
HETATM   11  C   UNL     1     -10.809   9.395  67.765  1.00  0.00    -0.159 C  
HETATM   12  C   UNL     1      -6.984   7.021  71.762  1.00  0.00    -0.068 C  
HETATM   13  C   UNL     1     -10.956   9.169  69.281  1.00  0.00    -0.081 C  
HETATM   14  C   UNL     1      -8.732   5.512  70.810  1.00  0.00    -0.135 C  
HETATM   15  C   UNL     1      -8.335   6.939  71.072  1.00  0.00    -0.126 C  
HETATM   16  C   UNL     1      -6.817   9.968  69.476  1.00  0.00    -0.071 C  
HETATM   17  C   UNL     1      -6.619  12.338  70.035  1.00  0.00     0.183 C  
HETATM   18  C   UNL     1     -10.556   7.954  69.750  1.00  0.00    -0.242 C  
HETATM   19  C   UNL     1      -9.581   7.862  70.899  1.00  0.00    -0.172 C  
HETATM   20  C   UNL     1      -7.862   9.516  70.444  1.00  0.00    -0.190 C  
HETATM   21  C   UNL     1      -8.322   8.125  70.148  1.00  0.00    -0.125 C  
ENDROOT
BRANCH   4  22
HETATM   22  O   UNL     1     -11.858  11.595  67.910  1.00  0.00    -0.543 OA 
BRANCH  22  23
HETATM   23  C   UNL     1     -11.597  12.921  68.209  1.00  0.00    -0.335 C  
HETATM   24  C   UNL     1     -12.393  13.867  67.362  1.00  0.00    -0.152 C  
HETATM   25  O   UNL     1     -10.861  13.324  69.102  1.00  0.00    -0.206 OA 
ENDBRANCH  22  23
ENDBRANCH   4  22
BRANCH   7  26
HETATM   26  O   UNL     1      -8.802  10.249  65.420  1.00  0.00    -0.156 OA 
BRANCH  26  27
HETATM   27  C   UNL     1      -7.620   9.701  65.004  1.00  0.00    -0.116 C  
HETATM   28  O   UNL     1      -6.871  10.227  64.191  1.00  0.00    -0.123 OA 
BRANCH  27  29
HETATM   29  C   UNL     1      -7.161   8.520  65.844  1.00  0.00    -0.076 A  
HETATM   30  C   UNL     1      -5.818   8.497  66.298  1.00  0.00    -0.044 A  
HETATM   31  C   UNL     1      -7.983   7.459  66.210  1.00  0.00    -0.109 A  
HETATM   32  C   UNL     1      -7.498   6.418  67.031  1.00  0.00    -0.084 A  
HETATM   33  C   UNL     1      -5.343   7.479  67.144  1.00  0.00    -0.030 A  
HETATM   34  C   UNL     1      -6.182   6.435  67.506  1.00  0.00    -0.032 A  
ENDBRANCH  27  29
ENDBRANCH  26  27
ENDBRANCH   7  26
BRANCH   9  35
HETATM   35  O   UNL     1      -6.908  12.793  67.266  1.00  0.00    -0.153 OA 
BRANCH  35  36
HETATM   36  C   UNL     1      -7.238  14.098  67.505  1.00  0.00    -0.169 C  
HETATM   37  O   UNL     1      -8.344  14.553  67.619  1.00  0.00    -0.155 OA 
HETATM   38  C   UNL     1      -5.993  14.930  67.709  1.00  0.00    -0.131 C  
ENDBRANCH  35  36
ENDBRANCH   9  35
TORSDOF 7
ENDMDL
MODEL       80
REMARK 921   NORMALIZED FREE ENERGY PREDICTED BY IDOCK:   -3.91 KCAL/MOL
REMARK 922        TOTAL FREE ENERGY PREDICTED BY IDOCK:   -6.14 KCAL/MOL
REMARK 923 INTER-LIGAND FREE ENERGY PREDICTED BY IDOCK:   -6.09 KCAL/MOL
REMARK 924 INTRA-LIGAND FREE ENERGY PREDICTED BY IDOCK:   -0.05 KCAL/MOL
REMARK 927      BINDING AFFINITY PREDICTED BY RF-SCORE:    0.00 PKD
ROOT
HETATM    1  C   UNL     1      -7.483   5.883  73.173  1.00  0.00    -0.095 C  
HETATM    2  C   UNL     1      -7.501   6.423  71.764  1.00  0.00    -0.093 C  
HETATM    3  C   UNL     1      -6.555   6.228  70.607  1.00  0.00    -0.045 C  
HETATM    4  C   UNL     1      -6.931   7.596  69.792  1.00  0.00    -0.051 C  
HETATM    5  O   UNL     1      -6.870   6.559  67.584  1.00  0.00    -0.070 OA 
HETATM    6  C   UNL     1      -8.489   7.999  70.462  1.00  0.00    -0.125 C  
HETATM    7  C   UNL     1      -8.811   6.565  70.999  1.00  0.00    -0.139 C  
HETATM    8  C   UNL     1      -6.358  10.190  68.349  1.00  0.00    -0.049 C  
HETATM    9  C   UNL     1      -9.979   8.484  70.200  1.00  0.00    -0.181 C  
HETATM   10  C   UNL     1     -10.505   9.712  69.500  1.00  0.00    -0.240 C  
HETATM   11  C   UNL     1      -6.791   7.598  68.241  1.00  0.00    -0.067 C  
HETATM   12  C   UNL     1     -10.370  10.673  64.501  1.00  0.00    -0.352 C  
HETATM   13  C   UNL     1      -6.575   8.946  67.529  1.00  0.00    -0.062 C  
HETATM   14  C   UNL     1      -8.613   9.224  63.476  1.00  0.00    -0.201 C  
HETATM   15  C   UNL     1      -9.046   9.959  64.715  1.00  0.00    -0.283 C  
HETATM   16  C   UNL     1     -10.727   9.511  68.031  1.00  0.00    -0.266 C  
HETATM   17  C   UNL     1     -10.980  10.836  70.068  1.00  0.00    -0.280 C  
HETATM   18  C   UNL     1      -6.916   8.993  66.211  1.00  0.00    -0.079 C  
HETATM   19  C   UNL     1      -7.839  10.071  65.697  1.00  0.00    -0.138 C  
HETATM   20  C   UNL     1      -9.629  10.243  67.330  1.00  0.00    -0.186 C  
HETATM   21  C   UNL     1      -9.136   9.486  66.139  1.00  0.00    -0.207 C  
ENDROOT
BRANCH   4  22
HETATM   22  O   UNL     1      -5.811   8.442  70.311  1.00  0.00    -0.028 OA 
BRANCH  22  23
HETATM   23  C   UNL     1      -6.097   9.161  71.459  1.00  0.00    -0.076 C  
HETATM   24  C   UNL     1      -5.229   8.766  72.614  1.00  0.00    -0.053 C  
HETATM   25  O   UNL     1      -6.910  10.073  71.550  1.00  0.00    -0.148 OA 
ENDBRANCH  22  23
ENDBRANCH   4  22
BRANCH   7  26
HETATM   26  O   UNL     1      -8.920   5.730  69.736  1.00  0.00    -0.127 OA 
BRANCH  26  27
HETATM   27  C   UNL     1      -9.415   4.455  69.732  1.00  0.00    -0.184 C  
HETATM   28  O   UNL     1     -10.029   3.957  70.666  1.00  0.00    -0.173 OA 
BRANCH  27  29
HETATM   29  C   UNL     1      -9.397   3.794  68.363  1.00  0.00    -0.226 A  
HETATM   30  C   UNL     1      -9.801   4.559  67.241  1.00  0.00    -0.216 A  
HETATM   31  C   UNL     1      -8.996   2.481  68.138  1.00  0.00    -0.195 A  
HETATM   32  C   UNL     1      -8.963   1.949  66.830  1.00  0.00    -0.129 A  
HETATM   33  C   UNL     1      -9.736   4.042  65.933  1.00  0.00    -0.193 A  
HETATM   34  C   UNL     1      -9.323   2.734  65.729  1.00  0.00    -0.037 A  
ENDBRANCH  27  29
ENDBRANCH  26  27
ENDBRANCH   7  26
BRANCH   9  35
HETATM   35  O   UNL     1     -10.820   8.373  71.432  1.00  0.00    -0.225 OA 
BRANCH  35  36
HETATM   36  C   UNL     1     -12.137   8.006  71.403  1.00  0.00    -0.305 C  
HETATM   37  O   UNL     1     -13.067   8.620  71.853  1.00  0.00    -0.334 OA 
HETATM   38  C   UNL     1     -12.312   6.723  70.624  1.00  0.00    -0.231 C  
ENDBRANCH  35  36
ENDBRANCH   9  35
TORSDOF 7
ENDMDL
MODEL       81
REMARK 921   NORMALIZED FREE ENERGY PREDICTED BY IDOCK:   -3.85 KCAL/MOL
REMARK 922        TOTAL FREE ENERGY PREDICTED BY IDOCK:   -6.07 KCAL/MOL
REMARK 923 INTER-LIGAND FREE ENERGY PREDICTED BY IDOCK:   -6.18 KCAL/MOL
REMARK 924 INTRA-LIGAND FREE ENERGY PREDICTED BY IDOCK:    0.11 KCAL/MOL
REMARK 927      BINDING AFFINITY PREDICTED BY RF-SCORE:    0.00 PKD
ROOT
HETATM    1  C   UNL     1     -10.058   8.910  68.960  1.00  0.00    -0.205 C  
HETATM    2  C   UNL     1      -9.402  10.222  68.604  1.00  0.00    -0.162 C  
HETATM    3  C   UNL     1      -8.020  10.542  68.098  1.00  0.00    -0.111 C  
HETATM    4  C   UNL     1      -7.961  12.096  68.609  1.00  0.00    -0.063 C  
HETATM    5  O   UNL     1      -6.856  12.944  66.605  1.00  0.00     0.324 OA 
HETATM    6  C   UNL     1      -9.650  12.468  68.830  1.00  0.00     0.079 C  
HETATM    7  C   UNL     1     -10.189  11.325  67.907  1.00  0.00    -0.181 C  
HETATM    8  C   UNL     1      -6.767  14.491  70.015  1.00  0.00    -0.110 C  
HETATM    9  C   UNL     1     -10.835  13.506  68.623  1.00  0.00    -0.259 C  
HETATM   10  C   UNL     1     -10.963  14.948  69.042  1.00  0.00    -0.251 C  
HETATM   11  C   UNL     1      -7.099  13.112  67.801  1.00  0.00    -0.148 C  
HETATM   12  C   UNL     1      -8.462  18.932  67.093  1.00  0.00    -0.290 C  
HETATM   13  C   UNL     1      -6.569  14.360  68.529  1.00  0.00    -0.094 C  
HETATM   14  C   UNL     1      -6.430  18.078  65.918  1.00  0.00    -0.305 C  
HETATM   15  C   UNL     1      -7.400  17.847  67.044  1.00  0.00    -0.218 C  
HETATM   16  C   UNL     1     -10.458  15.916  68.014  1.00  0.00    -0.274 C  
HETATM   17  C   UNL     1     -11.650  15.436  70.092  1.00  0.00    -0.351 C  
HETATM   18  C   UNL     1      -6.240  15.422  67.741  1.00  0.00    -0.180 C  
HETATM   19  C   UNL     1      -6.807  16.791  68.028  1.00  0.00    -0.152 C  
HETATM   20  C   UNL     1      -9.158  16.444  68.527  1.00  0.00    -0.223 C  
HETATM   21  C   UNL     1      -8.157  16.607  67.428  1.00  0.00    -0.187 C  
ENDROOT
BRANCH   4  22
HETATM   22  O   UNL     1      -7.223  11.849  69.887  1.00  0.00     0.300 OA 
BRANCH  22  23
HETATM   23  C   UNL     1      -6.148  10.981  69.789  1.00  0.00    -0.097 C  
HETATM   24  C   UNL     1      -6.322   9.756  70.632  1.00  0.00    -0.105 C  
HETATM   25  O   UNL     1      -5.176  11.124  69.056  1.00  0.00    -0.041 OA 
ENDBRANCH  22  23
ENDBRANCH   4  22
BRANCH   7  26
HETATM   26  O   UNL     1      -9.684  11.712  66.529  1.00  0.00    -0.197 OA 
BRANCH  26  27
HETATM   27  C   UNL     1     -10.242  11.236  65.375  1.00  0.00    -0.270 C  
HETATM   28  O   UNL     1     -11.280  11.667  64.889  1.00  0.00    -0.290 OA 
BRANCH  27  29
HETATM   29  C   UNL     1      -9.323  10.323  64.580  1.00  0.00    -0.328 A  
HETATM   30  C   UNL     1      -8.824   9.156  65.210  1.00  0.00    -0.240 A  
HETATM   31  C   UNL     1      -8.949  10.553  63.260  1.00  0.00    -0.236 A  
HETATM   32  C   UNL     1      -8.127   9.634  62.571  1.00  0.00    -0.139 A  
HETATM   33  C   UNL     1      -8.033   8.222  64.515  1.00  0.00    -0.146 A  
HETATM   34  C   UNL     1      -7.680   8.466  63.196  1.00  0.00    -0.136 A  
ENDBRANCH  27  29
ENDBRANCH  26  27
ENDBRANCH   7  26
BRANCH   9  35
HETATM   35  O   UNL     1     -12.161  12.903  68.962  1.00  0.00    -0.205 OA 
BRANCH  35  36
HETATM   36  C   UNL     1     -12.454  12.397  70.198  1.00  0.00    -0.020 C  
HETATM   37  O   UNL     1     -12.642  13.021  71.207  1.00  0.00    -0.360 OA 
HETATM   38  C   UNL     1     -12.609  10.896  70.132  1.00  0.00    -0.304 C  
ENDBRANCH  35  36
ENDBRANCH   9  35
TORSDOF 7
ENDMDL
MODEL       82
REMARK 921   NORMALIZED FREE ENERGY PREDICTED BY IDOCK:   -3.80 KCAL/MOL
REMARK 922        TOTAL FREE ENERGY PREDICTED BY IDOCK:   -6.00 KCAL/MOL
REMARK 923 INTER-LIGAND FREE ENERGY PREDICTED BY IDOCK:   -5.25 KCAL/MOL
REMARK 924 INTRA-LIGAND FREE ENERGY PREDICTED BY IDOCK:   -0.75 KCAL/MOL
REMARK 927      BINDING AFFINITY PREDICTED BY RF-SCORE:    0.00 PKD
ROOT
HETATM    1  C   UNL     1      -6.775  10.554  68.682  1.00  0.00    -0.053 C  
HETATM    2  C   UNL     1      -7.011  12.002  68.324  1.00  0.00    -0.075 C  
HETATM    3  C   UNL     1      -6.171  12.991  67.559  1.00  0.00    -0.143 C  
HETATM    4  C   UNL     1      -6.812  14.354  68.200  1.00  0.00    -0.123 C  
HETATM    5  O   UNL     1      -6.837  15.594  66.098  1.00  0.00     0.915 OA 
HETATM    6  C   UNL     1      -8.332  13.778  68.827  1.00  0.00     0.014 C  
HETATM    7  C   UNL     1      -8.400  12.494  67.936  1.00  0.00    -0.167 C  
HETATM    8  C   UNL     1      -6.747  17.062  69.542  1.00  0.00    -0.156 C  
HETATM    9  C   UNL     1      -9.894  14.020  68.996  1.00  0.00     0.015 C  
HETATM   10  C   UNL     1     -10.651  15.187  69.578  1.00  0.00    -0.277 C  
HETATM   11  C   UNL     1      -6.833  15.646  67.329  1.00  0.00    -0.162 C  
HETATM   12  C   UNL     1     -11.162  19.825  67.538  1.00  0.00     0.075 C  
HETATM   13  C   UNL     1      -6.877  17.008  68.044  1.00  0.00    -0.166 C  
HETATM   14  C   UNL     1      -9.339  20.144  65.861  1.00  0.00    -0.206 C  
HETATM   15  C   UNL     1      -9.738  19.469  67.144  1.00  0.00    -0.447 C  
HETATM   16  C   UNL     1     -10.993  16.240  68.567  1.00  0.00    -0.345 C  
HETATM   17  C   UNL     1     -11.214  15.269  70.798  1.00  0.00    -0.353 C  
HETATM   18  C   UNL     1      -7.354  18.056  67.315  1.00  0.00    -0.212 C  
HETATM   19  C   UNL     1      -8.463  18.923  67.859  1.00  0.00    -0.318 C  
HETATM   20  C   UNL     1     -10.083  17.396  68.830  1.00  0.00    -0.330 C  
HETATM   21  C   UNL     1      -9.616  18.029  67.559  1.00  0.00    -0.273 C  
ENDROOT
BRANCH   4  22
HETATM   22  O   UNL     1      -5.769  14.580  69.250  1.00  0.00    -0.091 OA 
BRANCH  22  23
HETATM   23  C   UNL     1      -6.122  14.177  70.527  1.00  0.00    -0.174 C  
HETATM   24  C   UNL     1      -5.127  13.230  71.124  1.00  0.00    -0.155 C  
HETATM   25  O   UNL     1      -7.089  14.577  71.163  1.00  0.00     0.768 OA 
ENDBRANCH  22  23
ENDBRANCH   4  22
BRANCH   7  26
HETATM   26  O   UNL     1      -8.523  13.045  66.527  1.00  0.00     0.023 OA 
BRANCH  26  27
HETATM   27  C   UNL     1      -9.438  12.576  65.625  1.00  0.00    -0.004 C  
HETATM   28  O   UNL     1      -9.625  11.389  65.396  1.00  0.00    -0.220 OA 
BRANCH  27  29
HETATM   29  C   UNL     1     -10.413  13.633  65.133  1.00  0.00    -0.388 A  
HETATM   30  C   UNL     1     -11.656  13.208  64.603  1.00  0.00    -0.384 A  
HETATM   31  C   UNL     1     -10.166  15.002  65.182  1.00  0.00    -0.399 A  
HETATM   32  C   UNL     1     -11.140  15.928  64.747  1.00  0.00    -0.397 A  
HETATM   33  C   UNL     1     -12.641  14.130  64.201  1.00  0.00    -0.113 A  
HETATM   34  C   UNL     1     -12.380  15.491  64.268  1.00  0.00    -0.009 A  
ENDBRANCH  27  29
ENDBRANCH  26  27
ENDBRANCH   7  26
BRANCH   9  35
HETATM   35  O   UNL     1     -10.581  12.816  69.558  1.00  0.00     0.175 OA 
BRANCH  35  36
HETATM   36  C   UNL     1     -11.678  12.247  68.974  1.00  0.00    -0.324 C  
HETATM   37  O   UNL     1     -12.141  12.510  67.897  1.00  0.00    -0.384 OA 
HETATM   38  C   UNL     1     -12.219  11.132  69.839  1.00  0.00    -0.385 C  
ENDBRANCH  35  36
ENDBRANCH   9  35
TORSDOF 7
ENDMDL
MODEL       83
REMARK 921   NORMALIZED FREE ENERGY PREDICTED BY IDOCK:   -3.78 KCAL/MOL
REMARK 922        TOTAL FREE ENERGY PREDICTED BY IDOCK:   -5.96 KCAL/MOL
REMARK 923 INTER-LIGAND FREE ENERGY PREDICTED BY IDOCK:   -4.85 KCAL/MOL
REMARK 924 INTRA-LIGAND FREE ENERGY PREDICTED BY IDOCK:   -1.12 KCAL/MOL
REMARK 927      BINDING AFFINITY PREDICTED BY RF-SCORE:    0.00 PKD
ROOT
HETATM    1  C   UNL     1     -13.099  10.850  69.237  1.00  0.00     1.421 C  
HETATM    2  C   UNL     1     -12.142  12.013  69.132  1.00  0.00    -0.241 C  
HETATM    3  C   UNL     1     -11.292  12.704  70.167  1.00  0.00     0.180 C  
HETATM    4  C   UNL     1     -11.141  14.139  69.395  1.00  0.00    -0.221 C  
HETATM    5  O   UNL     1      -8.791  14.452  69.974  1.00  0.00     0.746 OA 
HETATM    6  C   UNL     1     -11.526  13.707  67.751  1.00  0.00    -0.351 C  
HETATM    7  C   UNL     1     -11.242  12.177  67.914  1.00  0.00    -0.272 C  
HETATM    8  C   UNL     1     -11.249  17.148  69.127  1.00  0.00     0.374 C  
HETATM    9  C   UNL     1     -11.171  13.842  66.209  1.00  0.00    -0.306 C  
HETATM   10  C   UNL     1     -11.017  15.063  65.338  1.00  0.00    -0.380 C  
HETATM   11  C   UNL     1      -9.852  14.980  69.637  1.00  0.00    -0.081 C  
HETATM   12  C   UNL     1      -7.231  18.465  65.486  1.00  0.00    -0.031 C  
HETATM   13  C   UNL     1      -9.921  16.502  69.418  1.00  0.00    -0.187 C  
HETATM   14  C   UNL     1      -6.104  18.282  67.708  1.00  0.00    -0.180 C  
HETATM   15  C   UNL     1      -7.399  18.125  66.957  1.00  0.00    -0.226 C  
HETATM   16  C   UNL     1      -9.617  15.600  65.306  1.00  0.00     0.040 C  
HETATM   17  C   UNL     1     -11.908  15.559  64.460  1.00  0.00    -0.216 C  
HETATM   18  C   UNL     1      -8.737  17.130  69.178  1.00  0.00     0.004 C  
HETATM   19  C   UNL     1      -8.577  18.028  67.975  1.00  0.00    -0.267 C  
HETATM   20  C   UNL     1      -9.621  16.850  66.126  1.00  0.00    -0.280 C  
HETATM   21  C   UNL     1      -8.372  16.980  66.937  1.00  0.00    -0.247 C  
ENDROOT
BRANCH   4  22
HETATM   22  O   UNL     1     -12.244  14.856  70.109  1.00  0.00    -0.304 OA 
BRANCH  22  23
HETATM   23  C   UNL     1     -12.266  14.686  71.483  1.00  0.00    -0.352 C  
HETATM   24  C   UNL     1     -13.412  13.835  71.936  1.00  0.00    -0.514 C  
HETATM   25  O   UNL     1     -11.427  15.105  72.271  1.00  0.00    -0.425 OA 
ENDBRANCH  22  23
ENDBRANCH   4  22
BRANCH   7  26
HETATM   26  O   UNL     1      -9.752  12.121  68.195  1.00  0.00    -0.197 OA 
BRANCH  26  27
HETATM   27  C   UNL     1      -8.969  11.059  67.834  1.00  0.00    -0.144 C  
HETATM   28  O   UNL     1      -8.723  10.755  66.675  1.00  0.00    -0.140 OA 
BRANCH  27  29
HETATM   29  C   UNL     1      -8.188  10.451  68.988  1.00  0.00    -0.141 A  
HETATM   30  C   UNL     1      -6.991  11.087  69.400  1.00  0.00    -0.126 A  
HETATM   31  C   UNL     1      -8.583   9.309  69.678  1.00  0.00    -0.151 A  
HETATM   32  C   UNL     1      -7.828   8.828  70.770  1.00  0.00    -0.120 A  
HETATM   33  C   UNL     1      -6.257  10.629  70.510  1.00  0.00    -0.096 A  
HETATM   34  C   UNL     1      -6.673   9.494  71.191  1.00  0.00    -0.009 A  
ENDBRANCH  27  29
ENDBRANCH  26  27
ENDBRANCH   7  26
BRANCH   9  35
HETATM   35  O   UNL     1     -11.969  12.891  65.374  1.00  0.00    -0.374 OA 
BRANCH  35  36
HETATM   36  C   UNL     1     -11.429  12.175  64.342  1.00  0.00    -0.350 C  
HETATM   37  O   UNL     1     -10.296  11.788  64.247  1.00  0.00    -0.270 OA 
HETATM   38  C   UNL     1     -12.492  11.830  63.324  1.00  0.00    -0.411 C  
ENDBRANCH  35  36
ENDBRANCH   9  35
TORSDOF 7
ENDMDL
MODEL       84
REMARK 921   NORMALIZED FREE ENERGY PREDICTED BY IDOCK:   -3.72 KCAL/MOL
REMARK 922        TOTAL FREE ENERGY PREDICTED BY IDOCK:   -5.88 KCAL/MOL
REMARK 923 INTER-LIGAND FREE ENERGY PREDICTED BY IDOCK:   -5.90 KCAL/MOL
REMARK 924 INTRA-LIGAND FREE ENERGY PREDICTED BY IDOCK:    0.02 KCAL/MOL
REMARK 927      BINDING AFFINITY PREDICTED BY RF-SCORE:    0.00 PKD
ROOT
HETATM    1  C   UNL     1      -5.301   8.682  66.581  1.00  0.00    -0.035 C  
HETATM    2  C   UNL     1      -6.507   8.787  67.482  1.00  0.00    -0.057 C  
HETATM    3  C   UNL     1      -7.073   9.946  68.262  1.00  0.00    -0.076 C  
HETATM    4  C   UNL     1      -7.881   9.071  69.384  1.00  0.00    -0.094 C  
HETATM    5  O   UNL     1      -9.846  10.519  69.416  1.00  0.00    -0.221 OA 
HETATM    6  C   UNL     1      -8.023   7.520  68.601  1.00  0.00    -0.123 C  
HETATM    7  C   UNL     1      -7.799   8.052  67.147  1.00  0.00    -0.105 C  
HETATM    8  C   UNL     1      -8.704   8.261  72.178  1.00  0.00    -0.259 C  
HETATM    9  C   UNL     1      -8.940   6.272  68.249  1.00  0.00    -0.115 C  
HETATM   10  C   UNL     1      -9.730   5.348  69.141  1.00  0.00    -0.217 C  
HETATM   11  C   UNL     1      -9.169   9.681  70.014  1.00  0.00    -0.241 C  
HETATM   12  C   UNL     1     -13.971   6.477  71.723  1.00  0.00     0.077 C  
HETATM   13  C   UNL     1      -9.603   9.191  71.408  1.00  0.00    -0.316 C  
HETATM   14  C   UNL     1     -14.110   8.961  71.947  1.00  0.00    -0.453 C  
HETATM   15  C   UNL     1     -13.191   7.776  71.828  1.00  0.00    -0.354 C  
HETATM   16  C   UNL     1     -11.133   5.815  69.391  1.00  0.00    -0.259 C  
HETATM   17  C   UNL     1      -9.393   4.105  69.533  1.00  0.00    -0.238 C  
HETATM   18  C   UNL     1     -10.916   9.365  71.726  1.00  0.00    -0.288 C  
HETATM   19  C   UNL     1     -11.743   8.204  72.222  1.00  0.00    -0.439 C  
HETATM   20  C   UNL     1     -11.170   6.325  70.795  1.00  0.00    -0.387 C  
HETATM   21  C   UNL     1     -12.019   7.549  70.914  1.00  0.00    -0.278 C  
ENDROOT
BRANCH   4  22
HETATM   22  O   UNL     1      -6.835   9.118  70.453  1.00  0.00    -0.046 OA 
BRANCH  22  23
HETATM   23  C   UNL     1      -6.258  10.360  70.660  1.00  0.00    -0.083 C  
HETATM   24  C   UNL     1      -5.133  10.312  71.648  1.00  0.00    -0.075 C  
HETATM   25  O   UNL     1      -6.554  11.394  70.074  1.00  0.00    -0.129 OA 
ENDBRANCH  22  23
ENDBRANCH   4  22
BRANCH   7  26
HETATM   26  O   UNL     1      -9.006   8.938  66.903  1.00  0.00    -0.124 OA 
BRANCH  26  27
HETATM   27  C   UNL     1      -9.426   9.291  65.649  1.00  0.00    -0.256 C  
HETATM   28  O   UNL     1     -10.420   9.969  65.427  1.00  0.00    -0.162 OA 
BRANCH  27  29
HETATM   29  C   UNL     1      -8.401   9.020  64.560  1.00  0.00    -0.182 A  
HETATM   30  C   UNL     1      -8.589   7.890  63.726  1.00  0.00     0.335 A  
HETATM   31  C   UNL     1      -7.290   9.823  64.319  1.00  0.00    -0.129 A  
HETATM   32  C   UNL     1      -6.405   9.533  63.258  1.00  0.00    -0.100 A  
HETATM   33  C   UNL     1      -7.727   7.619  62.646  1.00  0.00    -0.122 A  
HETATM   34  C   UNL     1      -6.631   8.438  62.417  1.00  0.00    -0.091 A  
ENDBRANCH  27  29
ENDBRANCH  26  27
ENDBRANCH   7  26
BRANCH   9  35
HETATM   35  O   UNL     1      -8.277   5.359  67.266  1.00  0.00    -0.104 OA 
BRANCH  35  36
HETATM   36  C   UNL     1      -8.685   5.243  65.967  1.00  0.00    -0.137 C  
HETATM   37  O   UNL     1      -9.697   5.678  65.486  1.00  0.00     0.063 OA 
HETATM   38  C   UNL     1      -7.627   4.550  65.140  1.00  0.00    -0.077 C  
ENDBRANCH  35  36
ENDBRANCH   9  35
TORSDOF 7
ENDMDL
MODEL       85
REMARK 921   NORMALIZED FREE ENERGY PREDICTED BY IDOCK:   -3.68 KCAL/MOL
REMARK 922        TOTAL FREE ENERGY PREDICTED BY IDOCK:   -5.83 KCAL/MOL
REMARK 923 INTER-LIGAND FREE ENERGY PREDICTED BY IDOCK:   -5.34 KCAL/MOL
REMARK 924 INTRA-LIGAND FREE ENERGY PREDICTED BY IDOCK:   -0.49 KCAL/MOL
REMARK 927      BINDING AFFINITY PREDICTED BY RF-SCORE:    0.00 PKD
ROOT
HETATM    1  C   UNL     1      -9.313  10.659  64.697  1.00  0.00    -0.280 C  
HETATM    2  C   UNL     1      -9.538   9.710  65.849  1.00  0.00    -0.321 C  
HETATM    3  C   UNL     1     -10.782   9.019  66.345  1.00  0.00     0.243 C  
HETATM    4  C   UNL     1     -10.291   8.780  67.888  1.00  0.00    -0.224 C  
HETATM    5  O   UNL     1     -11.232   6.535  68.071  1.00  0.00    -0.281 OA 
HETATM    6  C   UNL     1      -8.560   8.930  67.744  1.00  0.00    -0.125 C  
HETATM    7  C   UNL     1      -8.501   8.653  66.205  1.00  0.00    -0.125 C  
HETATM    8  C   UNL     1     -10.521   8.884  70.900  1.00  0.00    -0.299 C  
HETATM    9  C   UNL     1      -7.126   8.367  68.132  1.00  0.00    -0.085 C  
HETATM   10  C   UNL     1      -6.503   8.109  69.481  1.00  0.00    -0.034 C  
HETATM   11  C   UNL     1     -10.846   7.546  68.661  1.00  0.00    -0.005 C  
HETATM   12  C   UNL     1      -7.743   4.419  72.764  1.00  0.00    -0.086 C  
HETATM   13  C   UNL     1     -10.879   7.602  70.199  1.00  0.00    -0.255 C  
HETATM   14  C   UNL     1     -10.035   3.607  72.196  1.00  0.00    -0.238 C  
HETATM   15  C   UNL     1      -9.098   4.784  72.183  1.00  0.00    -0.148 C  
HETATM   16  C   UNL     1      -6.756   6.725  69.999  1.00  0.00    -0.049 C  
HETATM   17  C   UNL     1      -5.607   8.877  70.128  1.00  0.00    -0.027 C  
HETATM   18  C   UNL     1     -10.914   6.403  70.844  1.00  0.00    -0.335 C  
HETATM   19  C   UNL     1      -9.913   6.090  71.930  1.00  0.00    -0.195 C  
HETATM   20  C   UNL     1      -7.766   6.856  71.093  1.00  0.00    -0.089 C  
HETATM   21  C   UNL     1      -8.751   5.732  71.070  1.00  0.00    -0.135 C  
ENDROOT
BRANCH   4  22
HETATM   22  O   UNL     1     -10.956   9.978  68.488  1.00  0.00    -0.232 OA 
BRANCH  22  23
HETATM   23  C   UNL     1     -10.367  11.194  68.183  1.00  0.00    -0.187 C  
HETATM   24  C   UNL     1     -11.317  12.138  67.512  1.00  0.00    -0.392 C  
HETATM   25  O   UNL     1      -9.225  11.530  68.472  1.00  0.00    -0.183 OA 
ENDBRANCH  22  23
ENDBRANCH   4  22
BRANCH   7  26
HETATM   26  O   UNL     1      -8.971   7.215  66.084  1.00  0.00    -0.159 OA 
BRANCH  26  27
HETATM   27  C   UNL     1      -8.137   6.190  65.732  1.00  0.00    -0.124 C  
HETATM   28  O   UNL     1      -7.382   6.224  64.769  1.00  0.00    -0.067 OA 
BRANCH  27  29
HETATM   29  C   UNL     1      -8.007   5.111  66.794  1.00  0.00    -0.104 A  
HETATM   30  C   UNL     1      -9.191   4.543  67.325  1.00  0.00    -0.151 A  
HETATM   31  C   UNL     1      -6.791   4.633  67.273  1.00  0.00    -0.056 A  
HETATM   32  C   UNL     1      -6.748   3.596  68.230  1.00  0.00    -0.046 A  
HETATM   33  C   UNL     1      -9.150   3.485  68.253  1.00  0.00    -0.201 A  
HETATM   34  C   UNL     1      -7.927   3.016  68.710  1.00  0.00    -0.065 A  
ENDBRANCH  27  29
ENDBRANCH  26  27
ENDBRANCH   7  26
BRANCH   9  35
HETATM   35  O   UNL     1      -6.041   9.032  67.346  1.00  0.00    -0.053 OA 
BRANCH  35  36
HETATM   36  C   UNL     1      -5.980  10.385  67.158  1.00  0.00    -0.050 C  
HETATM   37  O   UNL     1      -5.991  11.232  68.010  1.00  0.00    -0.046 OA 
HETATM   38  C   UNL     1      -5.800  10.709  65.694  1.00  0.00    -0.133 C  
ENDBRANCH  35  36
ENDBRANCH   9  35
TORSDOF 7
ENDMDL
MODEL       86
REMARK 921   NORMALIZED FREE ENERGY PREDICTED BY IDOCK:   -3.60 KCAL/MOL
REMARK 922        TOTAL FREE ENERGY PREDICTED BY IDOCK:   -5.71 KCAL/MOL
REMARK 923 INTER-LIGAND FREE ENERGY PREDICTED BY IDOCK:   -5.13 KCAL/MOL
REMARK 924 INTRA-LIGAND FREE ENERGY PREDICTED BY IDOCK:   -0.58 KCAL/MOL
REMARK 927      BINDING AFFINITY PREDICTED BY RF-SCORE:    0.00 PKD
ROOT
HETATM    1  C   UNL     1      -9.346   5.335  68.777  1.00  0.00    -0.157 C  
HETATM    2  C   UNL     1      -9.853   6.641  69.340  1.00  0.00    -0.160 C  
HETATM    3  C   UNL     1     -10.313   7.021  70.723  1.00  0.00    -0.222 C  
HETATM    4  C   UNL     1     -11.248   8.293  70.294  1.00  0.00    -0.176 C  
HETATM    5  O   UNL     1     -10.570   9.705  72.166  1.00  0.00     0.424 OA 
HETATM    6  C   UNL     1     -10.627   8.681  68.712  1.00  0.00    -0.169 C  
HETATM    7  C   UNL     1      -9.247   7.968  68.900  1.00  0.00    -0.147 C  
HETATM    8  C   UNL     1     -13.766   9.966  70.230  1.00  0.00     0.773 C  
HETATM    9  C   UNL     1     -10.165   9.805  67.689  1.00  0.00    -0.213 C  
HETATM   10  C   UNL     1     -10.892  11.018  67.166  1.00  0.00    -0.336 C  
HETATM   11  C   UNL     1     -11.420   9.464  71.308  1.00  0.00    -0.363 C  
HETATM   12  C   UNL     1     -12.035  15.249  69.759  1.00  0.00    -0.374 C  
HETATM   13  C   UNL     1     -12.679  10.344  71.200  1.00  0.00    -0.514 C  
HETATM   14  C   UNL     1     -11.945  14.717  72.198  1.00  0.00    -0.350 C  
HETATM   15  C   UNL     1     -12.217  14.178  70.820  1.00  0.00    -0.435 C  
HETATM   16  C   UNL     1     -10.684  12.244  68.003  1.00  0.00    -0.245 C  
HETATM   17  C   UNL     1     -11.493  11.158  65.970  1.00  0.00     0.254 C  
HETATM   18  C   UNL     1     -12.593  11.588  71.749  1.00  0.00    -0.225 C  
HETATM   19  C   UNL     1     -12.956  12.808  70.939  1.00  0.00    -0.080 C  
HETATM   20  C   UNL     1     -11.958  12.472  68.751  1.00  0.00    -0.283 C  
HETATM   21  C   UNL     1     -11.700  12.936  70.148  1.00  0.00    -0.234 C  
ENDROOT
BRANCH   4  22
HETATM   22  O   UNL     1     -12.558   7.569  70.271  1.00  0.00     0.292 OA 
BRANCH  22  23
HETATM   23  C   UNL     1     -12.878   6.891  71.436  1.00  0.00    -0.311 C  
HETATM   24  C   UNL     1     -14.284   7.151  71.881  1.00  0.00    -0.428 C  
HETATM   25  O   UNL     1     -12.150   6.105  72.030  1.00  0.00    -0.318 OA 
ENDBRANCH  22  23
ENDBRANCH   4  22
BRANCH   7  26
HETATM   26  O   UNL     1      -8.579   8.773  70.000  1.00  0.00    -0.123 OA 
BRANCH  26  27
HETATM   27  C   UNL     1      -7.246   8.669  70.289  1.00  0.00    -0.049 C  
HETATM   28  O   UNL     1      -6.376   9.341  69.752  1.00  0.00    -0.038 OA 
BRANCH  27  29
HETATM   29  C   UNL     1      -6.950   7.856  71.539  1.00  0.00    -0.060 A  
HETATM   30  C   UNL     1      -6.684   6.471  71.394  1.00  0.00    -0.058 A  
HETATM   31  C   UNL     1      -6.910   8.389  72.823  1.00  0.00    -0.099 A  
HETATM   32  C   UNL     1      -6.583   7.579  73.933  1.00  0.00    -0.082 A  
HETATM   33  C   UNL     1      -6.325   5.670  72.494  1.00  0.00    -0.052 A  
HETATM   34  C   UNL     1      -6.281   6.223  73.765  1.00  0.00    -0.065 A  
ENDBRANCH  27  29
ENDBRANCH  26  27
ENDBRANCH   7  26
BRANCH   9  35
HETATM   35  O   UNL     1      -9.513   9.215  66.478  1.00  0.00    -0.174 OA 
BRANCH  35  36
HETATM   36  C   UNL     1      -8.227   9.498  66.114  1.00  0.00    -0.115 C  
HETATM   37  O   UNL     1      -7.777  10.577  65.834  1.00  0.00    -0.141 OA 
HETATM   38  C   UNL     1      -7.368   8.257  66.194  1.00  0.00    -0.077 C  
ENDBRANCH  35  36
ENDBRANCH   9  35
TORSDOF 7
ENDMDL
MODEL       87
REMARK 921   NORMALIZED FREE ENERGY PREDICTED BY IDOCK:   -3.58 KCAL/MOL
REMARK 922        TOTAL FREE ENERGY PREDICTED BY IDOCK:   -5.68 KCAL/MOL
REMARK 923 INTER-LIGAND FREE ENERGY PREDICTED BY IDOCK:   -5.48 KCAL/MOL
REMARK 924 INTRA-LIGAND FREE ENERGY PREDICTED BY IDOCK:   -0.20 KCAL/MOL
REMARK 927      BINDING AFFINITY PREDICTED BY RF-SCORE:    0.00 PKD
ROOT
HETATM    1  C   UNL     1      -5.825  12.114  70.578  1.00  0.00    -0.119 C  
HETATM    2  C   UNL     1      -6.101  10.849  69.802  1.00  0.00    -0.087 C  
HETATM    3  C   UNL     1      -5.191   9.736  69.350  1.00  0.00    -0.035 C  
HETATM    4  C   UNL     1      -6.110   9.202  68.105  1.00  0.00    -0.050 C  
HETATM    5  O   UNL     1      -5.700   6.834  68.532  1.00  0.00    -0.016 OA 
HETATM    6  C   UNL     1      -7.678   9.846  68.513  1.00  0.00    -0.081 C  
HETATM    7  C   UNL     1      -7.378  10.052  70.034  1.00  0.00    -0.167 C  
HETATM    8  C   UNL     1      -6.673   8.366  65.255  1.00  0.00    -0.056 C  
HETATM    9  C   UNL     1      -9.244   9.601  68.620  1.00  0.00    -0.136 C  
HETATM   10  C   UNL     1     -10.241   9.140  67.586  1.00  0.00    -0.293 C  
HETATM   11  C   UNL     1      -6.028   7.696  67.715  1.00  0.00    -0.040 C  
HETATM   12  C   UNL     1     -10.650   4.468  65.603  1.00  0.00    -0.231 C  
HETATM   13  C   UNL     1      -6.395   7.294  66.275  1.00  0.00    -0.041 C  
HETATM   14  C   UNL     1      -8.489   3.271  65.973  1.00  0.00    -0.111 C  
HETATM   15  C   UNL     1      -9.145   4.607  65.756  1.00  0.00    -0.139 C  
HETATM   16  C   UNL     1     -10.405   7.651  67.538  1.00  0.00    -0.326 C  
HETATM   17  C   UNL     1     -11.112   9.899  66.895  1.00  0.00     0.099 C  
HETATM   18  C   UNL     1      -6.763   5.996  66.087  1.00  0.00    -0.060 C  
HETATM   19  C   UNL     1      -8.057   5.663  65.385  1.00  0.00    -0.126 C  
HETATM   20  C   UNL     1      -9.716   7.184  66.297  1.00  0.00    -0.059 C  
HETATM   21  C   UNL     1      -8.995   5.894  66.519  1.00  0.00    -0.133 C  
ENDROOT
BRANCH   4  22
HETATM   22  O   UNL     1      -5.411   9.952  67.015  1.00  0.00    -0.041 OA 
BRANCH  22  23
HETATM   23  C   UNL     1      -5.852  11.249  66.815  1.00  0.00    -0.121 C  
HETATM   24  C   UNL     1      -7.273  11.304  66.341  1.00  0.00    -0.052 C  
HETATM   25  O   UNL     1      -5.214  12.268  67.050  1.00  0.00    -0.263 OA 
ENDBRANCH  22  23
ENDBRANCH   4  22
BRANCH   7  26
HETATM   26  O   UNL     1      -7.178   8.640  70.552  1.00  0.00    -0.044 OA 
BRANCH  26  27
HETATM   27  C   UNL     1      -7.784   8.173  71.686  1.00  0.00    -0.092 C  
HETATM   28  O   UNL     1      -7.892   8.820  72.719  1.00  0.00    -0.377 OA 
BRANCH  27  29
HETATM   29  C   UNL     1      -8.571   6.889  71.477  1.00  0.00    -0.122 A  
HETATM   30  C   UNL     1      -9.310   6.368  72.568  1.00  0.00    -0.145 A  
HETATM   31  C   UNL     1      -8.624   6.195  70.272  1.00  0.00    -0.140 A  
HETATM   32  C   UNL     1      -9.414   5.032  70.142  1.00  0.00    -0.234 A  
HETATM   33  C   UNL     1     -10.125   5.229  72.430  1.00  0.00    -0.227 A  
HETATM   34  C   UNL     1     -10.172   4.558  71.218  1.00  0.00    -0.167 A  
ENDBRANCH  27  29
ENDBRANCH  26  27
ENDBRANCH   7  26
BRANCH   9  35
HETATM   35  O   UNL     1      -9.932  10.730  69.319  1.00  0.00    -0.214 OA 
BRANCH  35  36
HETATM   36  C   UNL     1     -11.078  10.565  70.046  1.00  0.00    -0.308 C  
HETATM   37  O   UNL     1     -12.126  11.130  69.881  1.00  0.00    -0.304 OA 
HETATM   38  C   UNL     1     -10.900   9.474  71.076  1.00  0.00    -0.423 C  
ENDBRANCH  35  36
ENDBRANCH   9  35
TORSDOF 7
ENDMDL
MODEL       88
REMARK 921   NORMALIZED FREE ENERGY PREDICTED BY IDOCK:   -3.52 KCAL/MOL
REMARK 922        TOTAL FREE ENERGY PREDICTED BY IDOCK:   -5.60 KCAL/MOL
REMARK 923 INTER-LIGAND FREE ENERGY PREDICTED BY IDOCK:   -5.99 KCAL/MOL
REMARK 924 INTRA-LIGAND FREE ENERGY PREDICTED BY IDOCK:    0.39 KCAL/MOL
REMARK 927      BINDING AFFINITY PREDICTED BY RF-SCORE:    0.00 PKD
ROOT
HETATM    1  C   UNL     1     -10.425   8.940  72.072  1.00  0.00    -0.383 C  
HETATM    2  C   UNL     1     -10.181   8.155  70.806  1.00  0.00    -0.215 C  
HETATM    3  C   UNL     1     -11.122   7.671  69.733  1.00  0.00    -0.115 C  
HETATM    4  C   UNL     1     -10.197   6.440  69.179  1.00  0.00    -0.182 C  
HETATM    5  O   UNL     1     -10.704   6.830  66.824  1.00  0.00    -0.294 OA 
HETATM    6  C   UNL     1      -8.616   6.886  69.759  1.00  0.00    -0.141 C  
HETATM    7  C   UNL     1      -8.939   8.404  69.960  1.00  0.00    -0.138 C  
HETATM    8  C   UNL     1      -9.606   3.592  68.353  1.00  0.00    -0.164 C  
HETATM    9  C   UNL     1      -7.062   7.023  69.454  1.00  0.00    -0.079 C  
HETATM   10  C   UNL     1      -6.062   6.004  68.968  1.00  0.00    -0.032 C  
HETATM   11  C   UNL     1     -10.327   6.030  67.681  1.00  0.00    -0.206 C  
HETATM   12  C   UNL     1      -5.786   3.976  64.305  1.00  0.00    -0.014 C  
HETATM   13  C   UNL     1      -9.946   4.593  67.282  1.00  0.00    -0.203 C  
HETATM   14  C   UNL     1      -7.997   4.287  63.187  1.00  0.00    -0.080 C  
HETATM   15  C   UNL     1      -7.287   4.100  64.500  1.00  0.00    -0.071 C  
HETATM   16  C   UNL     1      -5.952   5.943  67.473  1.00  0.00    -0.018 C  
HETATM   17  C   UNL     1      -5.149   5.341  69.701  1.00  0.00    -0.003 C  
HETATM   18  C   UNL     1      -9.622   4.398  65.973  1.00  0.00    -0.190 C  
HETATM   19  C   UNL     1      -8.327   3.719  65.599  1.00  0.00    -0.105 C  
HETATM   20  C   UNL     1      -6.632   4.682  67.047  1.00  0.00    -0.050 C  
HETATM   21  C   UNL     1      -7.405   4.874  65.782  1.00  0.00    -0.077 C  
ENDROOT
BRANCH   4  22
HETATM   22  O   UNL     1     -10.845   5.344  69.966  1.00  0.00    -0.293 OA 
BRANCH  22  23
HETATM   23  C   UNL     1     -10.342   5.158  71.243  1.00  0.00    -0.205 C  
HETATM   24  C   UNL     1     -11.388   5.329  72.301  1.00  0.00    -0.135 C  
HETATM   25  O   UNL     1      -9.197   4.823  71.520  1.00  0.00    -0.135 OA 
ENDBRANCH  22  23
ENDBRANCH   4  22
BRANCH   7  26
HETATM   26  O   UNL     1      -9.202   8.901  68.550  1.00  0.00    -0.137 OA 
BRANCH  26  27
HETATM   27  C   UNL     1      -8.748  10.107  68.092  1.00  0.00    -0.122 C  
HETATM   28  O   UNL     1      -7.570  10.355  67.875  1.00  0.00    -0.087 OA 
BRANCH  27  29
HETATM   29  C   UNL     1      -9.849  11.030  67.596  1.00  0.00    -0.192 A  
HETATM   30  C   UNL     1     -10.709  11.626  68.552  1.00  0.00    -0.250 A  
HETATM   31  C   UNL     1     -10.061  11.339  66.256  1.00  0.00    -0.271 A  
HETATM   32  C   UNL     1     -11.078  12.242  65.875  1.00  0.00    -0.360 A  
HETATM   33  C   UNL     1     -11.700  12.552  68.176  1.00  0.00    -0.400 A  
HETATM   34  C   UNL     1     -11.888  12.855  66.836  1.00  0.00    -0.444 A  
ENDBRANCH  27  29
ENDBRANCH  26  27
ENDBRANCH   7  26
BRANCH   9  35
HETATM   35  O   UNL     1      -6.347   7.749  70.548  1.00  0.00    -0.037 OA 
BRANCH  35  36
HETATM   36  C   UNL     1      -6.499   7.438  71.871  1.00  0.00    -0.043 C  
HETATM   37  O   UNL     1      -6.550   6.338  72.352  1.00  0.00    -0.064 OA 
HETATM   38  C   UNL     1      -6.507   8.692  72.713  1.00  0.00    -0.052 C  
ENDBRANCH  35  36
ENDBRANCH   9  35
TORSDOF 7
ENDMDL
MODEL       89
REMARK 921   NORMALIZED FREE ENERGY PREDICTED BY IDOCK:   -3.49 KCAL/MOL
REMARK 922        TOTAL FREE ENERGY PREDICTED BY IDOCK:   -5.56 KCAL/MOL
REMARK 923 INTER-LIGAND FREE ENERGY PREDICTED BY IDOCK:   -5.45 KCAL/MOL
REMARK 924 INTRA-LIGAND FREE ENERGY PREDICTED BY IDOCK:   -0.10 KCAL/MOL
REMARK 927      BINDING AFFINITY PREDICTED BY RF-SCORE:    0.00 PKD
ROOT
HETATM    1  C   UNL     1     -10.454  11.447  63.537  1.00  0.00    -0.477 C  
HETATM    2  C   UNL     1      -9.643  10.851  64.662  1.00  0.00    -0.305 C  
HETATM    3  C   UNL     1      -8.228  10.335  64.710  1.00  0.00    -0.163 C  
HETATM    4  C   UNL     1      -8.409   9.338  65.995  1.00  0.00    -0.113 C  
HETATM    5  O   UNL     1      -6.254   9.887  67.001  1.00  0.00    -0.062 OA 
HETATM    6  C   UNL     1      -9.847   9.974  66.747  1.00  0.00    -0.251 C  
HETATM    7  C   UNL     1      -9.765  11.388  66.083  1.00  0.00    -0.219 C  
HETATM    8  C   UNL     1      -8.204   6.729  67.508  1.00  0.00    -0.122 C  
HETATM    9  C   UNL     1     -10.588  10.394  68.088  1.00  0.00    -0.211 C  
HETATM   10  C   UNL     1     -10.864   9.611  69.346  1.00  0.00    -0.239 C  
HETATM   11  C   UNL     1      -7.174   9.073  66.908  1.00  0.00    -0.086 C  
HETATM   12  C   UNL     1      -7.468   8.158  72.851  1.00  0.00    -0.165 C  
HETATM   13  C   UNL     1      -7.137   7.768  67.724  1.00  0.00    -0.082 C  
HETATM   14  C   UNL     1      -5.198   8.220  71.810  1.00  0.00    -0.034 C  
HETATM   15  C   UNL     1      -6.668   8.013  71.568  1.00  0.00    -0.053 C  
HETATM   16  C   UNL     1      -9.776   9.726  70.372  1.00  0.00    -0.244 C  
HETATM   17  C   UNL     1     -12.023   9.032  69.710  1.00  0.00     0.663 C  
HETATM   18  C   UNL     1      -6.331   7.768  68.822  1.00  0.00    -0.043 C  
HETATM   19  C   UNL     1      -6.873   7.353  70.169  1.00  0.00    -0.055 C  
HETATM   20  C   UNL     1      -9.045   8.423  70.366  1.00  0.00    -0.155 C  
HETATM   21  C   UNL     1      -7.571   8.618  70.529  1.00  0.00    -0.077 C  
ENDROOT
BRANCH   4  22
HETATM   22  O   UNL     1      -8.634   8.074  65.226  1.00  0.00    -0.153 OA 
BRANCH  22  23
HETATM   23  C   UNL     1      -8.021   8.021  63.985  1.00  0.00    -0.134 C  
HETATM   24  C   UNL     1      -6.532   7.892  64.088  1.00  0.00    -0.061 C  
HETATM   25  O   UNL     1      -8.593   8.008  62.902  1.00  0.00    -0.008 OA 
ENDBRANCH  22  23
ENDBRANCH   4  22
BRANCH   7  26
HETATM   26  O   UNL     1      -8.495  11.981  66.664  1.00  0.00    -0.180 OA 
BRANCH  26  27
HETATM   27  C   UNL     1      -8.497  12.838  67.730  1.00  0.00    -0.177 C  
HETATM   28  O   UNL     1      -8.151  12.523  68.861  1.00  0.00     0.029 OA 
BRANCH  27  29
HETATM   29  C   UNL     1      -8.690  14.296  67.345  1.00  0.00    -0.217 A  
HETATM   30  C   UNL     1      -7.674  15.223  67.687  1.00  0.00    -0.185 A  
HETATM   31  C   UNL     1      -9.802  14.780  66.663  1.00  0.00    -0.270 A  
HETATM   32  C   UNL     1      -9.890  16.142  66.299  1.00  0.00    -0.329 A  
HETATM   33  C   UNL     1      -7.745  16.573  67.296  1.00  0.00    -0.193 A  
HETATM   34  C   UNL     1      -8.857  17.033  66.607  1.00  0.00    -0.282 A  
ENDBRANCH  27  29
ENDBRANCH  26  27
ENDBRANCH   7  26
BRANCH   9  35
HETATM   35  O   UNL     1     -11.872  11.109  67.808  1.00  0.00    -0.608 OA 
BRANCH  35  36
HETATM   36  C   UNL     1     -12.182  12.322  68.357  1.00  0.00     0.180 C  
HETATM   37  O   UNL     1     -12.232  12.593  69.526  1.00  0.00    -0.213 OA 
HETATM   38  C   UNL     1     -12.379  13.357  67.274  1.00  0.00    -0.157 C  
ENDBRANCH  35  36
ENDBRANCH   9  35
TORSDOF 7
ENDMDL
MODEL       90
REMARK 921   NORMALIZED FREE ENERGY PREDICTED BY IDOCK:   -3.49 KCAL/MOL
REMARK 922        TOTAL FREE ENERGY PREDICTED BY IDOCK:   -5.55 KCAL/MOL
REMARK 923 INTER-LIGAND FREE ENERGY PREDICTED BY IDOCK:   -5.42 KCAL/MOL
REMARK 924 INTRA-LIGAND FREE ENERGY PREDICTED BY IDOCK:   -0.13 KCAL/MOL
REMARK 927      BINDING AFFINITY PREDICTED BY RF-SCORE:    0.00 PKD
ROOT
HETATM    1  C   UNL     1     -12.073  12.010  66.073  1.00  0.00     0.062 C  
HETATM    2  C   UNL     1     -10.976  11.541  66.998  1.00  0.00    -0.347 C  
HETATM    3  C   UNL     1      -9.479  11.697  66.932  1.00  0.00    -0.195 C  
HETATM    4  C   UNL     1      -9.090  10.412  67.867  1.00  0.00    -0.132 C  
HETATM    5  O   UNL     1      -7.276  11.541  69.047  1.00  0.00    -0.109 OA 
HETATM    6  C   UNL     1     -10.577  10.132  68.733  1.00  0.00    -0.236 C  
HETATM    7  C   UNL     1     -11.167  11.564  68.510  1.00  0.00    -0.258 C  
HETATM    8  C   UNL     1      -7.652   7.845  68.565  1.00  0.00    -0.105 C  
HETATM    9  C   UNL     1     -11.284   9.807  70.118  1.00  0.00    -0.272 C  
HETATM   10  C   UNL     1     -11.074   8.672  71.088  1.00  0.00    -0.324 C  
HETATM   11  C   UNL     1      -7.773  10.469  68.697  1.00  0.00    -0.106 C  
HETATM   12  C   UNL     1      -7.043   7.937  74.110  1.00  0.00    -0.167 C  
HETATM   13  C   UNL     1      -7.106   9.141  69.101  1.00  0.00    -0.062 C  
HETATM   14  C   UNL     1      -5.130   9.254  73.192  1.00  0.00    -0.082 C  
HETATM   15  C   UNL     1      -6.393   8.507  72.861  1.00  0.00    -0.094 C  
HETATM   16  C   UNL     1     -10.037   8.962  72.131  1.00  0.00    -0.287 C  
HETATM   17  C   UNL     1     -11.838   7.574  71.238  1.00  0.00    -0.319 C  
HETATM   18  C   UNL     1      -6.267   9.190  70.172  1.00  0.00    -0.043 C  
HETATM   19  C   UNL     1      -6.443   8.233  71.326  1.00  0.00    -0.046 C  
HETATM   20  C   UNL     1      -8.830   8.160  71.767  1.00  0.00    -0.206 C  
HETATM   21  C   UNL     1      -7.568   8.920  72.019  1.00  0.00     0.064 C  
ENDROOT
BRANCH   4  22
HETATM   22  O   UNL     1      -8.841   9.437  66.759  1.00  0.00    -0.126 OA 
BRANCH  22  23
HETATM   23  C   UNL     1      -8.000   9.889  65.755  1.00  0.00    -0.120 C  
HETATM   24  C   UNL     1      -8.701  10.024  64.439  1.00  0.00    -0.217 C  
HETATM   25  O   UNL     1      -6.829  10.218  65.895  1.00  0.00    -0.110 OA 
ENDBRANCH  22  23
ENDBRANCH   4  22
BRANCH   7  26
HETATM   26  O   UNL     1     -10.212  12.464  69.272  1.00  0.00     0.138 OA 
BRANCH  26  27
HETATM   27  C   UNL     1     -10.486  13.777  69.541  1.00  0.00     0.285 C  
HETATM   28  O   UNL     1     -11.051  14.163  70.556  1.00  0.00     0.066 OA 
BRANCH  27  29
HETATM   29  C   UNL     1      -9.779  14.754  68.616  1.00  0.00    -0.225 A  
HETATM   30  C   UNL     1      -8.412  15.042  68.858  1.00  0.00    -0.192 A  
HETATM   31  C   UNL     1     -10.387  15.379  67.532  1.00  0.00    -0.264 A  
HETATM   32  C   UNL     1      -9.653  16.242  66.689  1.00  0.00    -0.264 A  
HETATM   33  C   UNL     1      -7.670  15.874  67.999  1.00  0.00    -0.139 A  
HETATM   34  C   UNL     1      -8.293  16.479  66.918  1.00  0.00    -0.245 A  
ENDBRANCH  27  29
ENDBRANCH  26  27
ENDBRANCH   7  26
BRANCH   9  35
HETATM   35  O   UNL     1     -12.771   9.942  70.024  1.00  0.00     0.115 OA 
BRANCH  35  36
HETATM   36  C   UNL     1     -13.596   9.856  71.110  1.00  0.00    -0.157 C  
HETATM   37  O   UNL     1     -14.338   8.951  71.383  1.00  0.00    -0.311 OA 
HETATM   38  C   UNL     1     -13.395  11.043  72.024  1.00  0.00    -0.393 C  
ENDBRANCH  35  36
ENDBRANCH   9  35
TORSDOF 7
ENDMDL
MODEL       91
REMARK 921   NORMALIZED FREE ENERGY PREDICTED BY IDOCK:   -3.29 KCAL/MOL
REMARK 922        TOTAL FREE ENERGY PREDICTED BY IDOCK:   -5.27 KCAL/MOL
REMARK 923 INTER-LIGAND FREE ENERGY PREDICTED BY IDOCK:   -5.88 KCAL/MOL
REMARK 924 INTRA-LIGAND FREE ENERGY PREDICTED BY IDOCK:    0.61 KCAL/MOL
REMARK 927      BINDING AFFINITY PREDICTED BY RF-SCORE:    0.00 PKD
ROOT
HETATM    1  C   UNL     1     -11.769   9.961  70.950  1.00  0.00    -0.449 C  
HETATM    2  C   UNL     1     -10.851   9.808  69.762  1.00  0.00    -0.285 C  
HETATM    3  C   UNL     1      -9.896  10.771  69.106  1.00  0.00    -0.194 C  
HETATM    4  C   UNL     1      -9.862  10.064  67.630  1.00  0.00    -0.162 C  
HETATM    5  O   UNL     1      -7.465  10.380  67.293  1.00  0.00    -0.093 OA 
HETATM    6  C   UNL     1     -10.432   8.456  67.986  1.00  0.00    -0.242 C  
HETATM    7  C   UNL     1     -10.105   8.503  69.516  1.00  0.00    -0.200 C  
HETATM    8  C   UNL     1     -10.051   9.971  64.614  1.00  0.00    -0.067 C  
HETATM    9  C   UNL     1     -10.264   6.892  67.765  1.00  0.00    -0.180 C  
HETATM   10  C   UNL     1     -10.234   6.075  66.498  1.00  0.00    -0.200 C  
HETATM   11  C   UNL     1      -8.567  10.198  66.773  1.00  0.00    -0.126 C  
HETATM   12  C   UNL     1      -6.514   5.960  63.021  1.00  0.00    -0.028 C  
HETATM   13  C   UNL     1      -8.688  10.069  65.244  1.00  0.00    -0.182 C  
HETATM   14  C   UNL     1      -5.130   8.022  63.292  1.00  0.00    -0.049 C  
HETATM   15  C   UNL     1      -6.501   7.421  63.440  1.00  0.00    -0.053 C  
HETATM   16  C   UNL     1      -8.857   5.909  65.928  1.00  0.00    -0.154 C  
HETATM   17  C   UNL     1     -11.231   5.335  65.978  1.00  0.00     0.341 C  
HETATM   18  C   UNL     1      -7.551   9.727  64.577  1.00  0.00    -0.134 C  
HETATM   19  C   UNL     1      -7.550   8.563  63.616  1.00  0.00    -0.127 C  
HETATM   20  C   UNL     1      -8.785   6.789  64.722  1.00  0.00     0.315 C  
HETATM   21  C   UNL     1      -7.451   7.454  64.605  1.00  0.00    -0.093 C  
ENDROOT
BRANCH   4  22
HETATM   22  O   UNL     1     -10.884  10.939  66.975  1.00  0.00    -0.261 OA 
BRANCH  22  23
HETATM   23  C   UNL     1     -10.790  12.287  67.280  1.00  0.00    -0.245 C  
HETATM   24  C   UNL     1     -11.968  12.781  68.063  1.00  0.00    -0.315 C  
HETATM   25  O   UNL     1      -9.840  13.015  67.022  1.00  0.00    -0.228 OA 
ENDBRANCH  22  23
ENDBRANCH   4  22
BRANCH   7  26
HETATM   26  O   UNL     1      -8.591   8.604  69.552  1.00  0.00    -0.126 OA 
BRANCH  26  27
HETATM   27  C   UNL     1      -7.911   9.182  70.589  1.00  0.00    -0.154 C  
HETATM   28  O   UNL     1      -7.496  10.333  70.577  1.00  0.00    -0.250 OA 
BRANCH  27  29
HETATM   29  C   UNL     1      -7.959   8.378  71.878  1.00  0.00    -0.180 A  
HETATM   30  C   UNL     1      -9.221   7.952  72.360  1.00  0.00    -0.239 A  
HETATM   31  C   UNL     1      -6.833   8.019  72.613  1.00  0.00    -0.092 A  
HETATM   32  C   UNL     1      -6.952   7.231  73.779  1.00  0.00    -0.085 A  
HETATM   33  C   UNL     1      -9.339   7.138  73.502  1.00  0.00    -0.231 A  
HETATM   34  C   UNL     1      -8.203   6.783  74.216  1.00  0.00    -0.149 A  
ENDBRANCH  27  29
ENDBRANCH  26  27
ENDBRANCH   7  26
BRANCH   9  35
HETATM   35  O   UNL     1     -11.139   6.107  68.690  1.00  0.00    -0.339 OA 
BRANCH  35  36
HETATM   36  C   UNL     1     -10.644   5.330  69.700  1.00  0.00    -0.191 C  
HETATM   37  O   UNL     1     -10.979   5.347  70.854  1.00  0.00    -0.184 OA 
HETATM   38  C   UNL     1      -9.642   4.335  69.162  1.00  0.00    -0.249 C  
ENDBRANCH  35  36
ENDBRANCH   9  35
TORSDOF 7
ENDMDL
MODEL       92
REMARK 921   NORMALIZED FREE ENERGY PREDICTED BY IDOCK:   -3.28 KCAL/MOL
REMARK 922        TOTAL FREE ENERGY PREDICTED BY IDOCK:   -5.26 KCAL/MOL
REMARK 923 INTER-LIGAND FREE ENERGY PREDICTED BY IDOCK:   -5.44 KCAL/MOL
REMARK 924 INTRA-LIGAND FREE ENERGY PREDICTED BY IDOCK:    0.18 KCAL/MOL
REMARK 927      BINDING AFFINITY PREDICTED BY RF-SCORE:    0.00 PKD
ROOT
HETATM    1  C   UNL     1     -11.269  11.569  69.600  1.00  0.00    -0.276 C  
HETATM    2  C   UNL     1     -10.343  12.569  68.950  1.00  0.00    -0.063 C  
HETATM    3  C   UNL     1      -9.075  12.388  68.156  1.00  0.00    -0.200 C  
HETATM    4  C   UNL     1      -8.441  13.873  68.428  1.00  0.00    -0.159 C  
HETATM    5  O   UNL     1      -7.601  14.170  66.156  1.00  0.00     1.590 OA 
HETATM    6  C   UNL     1      -9.848  14.784  68.904  1.00  0.00    -0.222 C  
HETATM    7  C   UNL     1     -10.895  13.813  68.265  1.00  0.00    -0.250 C  
HETATM    8  C   UNL     1      -6.304  15.850  69.243  1.00  0.00    -0.153 C  
HETATM    9  C   UNL     1     -10.681  16.132  68.780  1.00  0.00    -0.294 C  
HETATM   10  C   UNL     1     -10.274  17.565  69.012  1.00  0.00    -0.314 C  
HETATM   11  C   UNL     1      -7.513  14.494  67.342  1.00  0.00    -0.169 C  
HETATM   12  C   UNL     1      -7.184  20.375  66.100  1.00  0.00    -0.254 C  
HETATM   13  C   UNL     1      -6.486  15.554  67.778  1.00  0.00    -0.186 C  
HETATM   14  C   UNL     1      -5.813  18.828  64.698  1.00  0.00    -0.254 C  
HETATM   15  C   UNL     1      -6.535  19.005  66.006  1.00  0.00    -0.240 C  
HETATM   16  C   UNL     1      -9.741  18.240  67.784  1.00  0.00    -0.305 C  
HETATM   17  C   UNL     1     -10.535  18.324  70.093  1.00  0.00     1.409 C  
HETATM   18  C   UNL     1      -6.035  16.392  66.804  1.00  0.00     0.106 C  
HETATM   19  C   UNL     1      -6.086  17.888  66.999  1.00  0.00    -0.178 C  
HETATM   20  C   UNL     1      -8.263  18.356  67.969  1.00  0.00    -0.286 C  
HETATM   21  C   UNL     1      -7.527  18.107  66.692  1.00  0.00    -0.254 C  
ENDROOT
BRANCH   4  22
HETATM   22  O   UNL     1      -7.549  13.494  69.568  1.00  0.00     0.292 OA 
BRANCH  22  23
HETATM   23  C   UNL     1      -6.893  12.282  69.427  1.00  0.00     0.007 C  
HETATM   24  C   UNL     1      -5.558  12.428  68.764  1.00  0.00    -0.054 C  
HETATM   25  O   UNL     1      -7.289  11.200  69.842  1.00  0.00     0.010 OA 
ENDBRANCH  22  23
ENDBRANCH   4  22
BRANCH   7  26
HETATM   26  O   UNL     1     -10.613  13.916  66.778  1.00  0.00    -0.275 OA 
BRANCH  26  27
HETATM   27  C   UNL     1     -11.433  13.370  65.828  1.00  0.00    -0.320 C  
HETATM   28  O   UNL     1     -12.488  13.873  65.466  1.00  0.00    -0.452 OA 
BRANCH  27  29
HETATM   29  C   UNL     1     -10.794  12.235  65.045  1.00  0.00    -0.337 A  
HETATM   30  C   UNL     1     -10.441  12.466  63.692  1.00  0.00    -0.460 A  
HETATM   31  C   UNL     1     -10.521  10.979  65.577  1.00  0.00    -0.302 A  
HETATM   32  C   UNL     1      -9.884   9.987  64.799  1.00  0.00    -0.325 A  
HETATM   33  C   UNL     1      -9.776  11.491  62.926  1.00  0.00    -0.302 A  
HETATM   34  C   UNL     1      -9.503  10.248  63.479  1.00  0.00    -0.345 A  
ENDBRANCH  27  29
ENDBRANCH  26  27
ENDBRANCH   7  26
BRANCH   9  35
HETATM   35  O   UNL     1     -12.019  16.016  69.439  1.00  0.00    -0.311 OA 
BRANCH  35  36
HETATM   36  C   UNL     1     -12.175  15.636  70.743  1.00  0.00    -0.418 C  
HETATM   37  O   UNL     1     -11.802  16.232  71.718  1.00  0.00    -0.487 OA 
HETATM   38  C   UNL     1     -12.987  14.365  70.831  1.00  0.00    -0.413 C  
ENDBRANCH  35  36
ENDBRANCH   9  35
TORSDOF 7
ENDMDL
MODEL       93
REMARK 921   NORMALIZED FREE ENERGY PREDICTED BY IDOCK:   -3.22 KCAL/MOL
REMARK 922        TOTAL FREE ENERGY PREDICTED BY IDOCK:   -5.17 KCAL/MOL
REMARK 923 INTER-LIGAND FREE ENERGY PREDICTED BY IDOCK:   -4.61 KCAL/MOL
REMARK 924 INTRA-LIGAND FREE ENERGY PREDICTED BY IDOCK:   -0.56 KCAL/MOL
REMARK 927      BINDING AFFINITY PREDICTED BY RF-SCORE:    0.00 PKD
ROOT
HETATM    1  C   UNL     1     -11.694  11.578  70.382  1.00  0.00    -0.328 C  
HETATM    2  C   UNL     1     -10.870  11.328  69.142  1.00  0.00    -0.269 C  
HETATM    3  C   UNL     1     -10.185  12.274  68.189  1.00  0.00    -0.212 C  
HETATM    4  C   UNL     1     -10.138  11.273  66.895  1.00  0.00    -0.212 C  
HETATM    5  O   UNL     1      -7.890  11.923  66.200  1.00  0.00     0.168 OA 
HETATM    6  C   UNL     1     -10.343   9.710  67.638  1.00  0.00    -0.290 C  
HETATM    7  C   UNL     1      -9.902  10.153  69.073  1.00  0.00    -0.205 C  
HETATM    8  C   UNL     1     -10.563  10.479  64.009  1.00  0.00     0.214 C  
HETATM    9  C   UNL     1      -9.886   8.191  67.719  1.00  0.00    -0.166 C  
HETATM   10  C   UNL     1      -9.803   7.131  66.650  1.00  0.00    -0.237 C  
HETATM   11  C   UNL     1      -8.974  11.438  65.872  1.00  0.00    -0.177 C  
HETATM   12  C   UNL     1      -6.448   6.901  62.826  1.00  0.00    -0.047 C  
HETATM   13  C   UNL     1      -9.197  10.953  64.428  1.00  0.00    -0.223 C  
HETATM   14  C   UNL     1      -5.484   9.182  62.496  1.00  0.00    -0.085 C  
HETATM   15  C   UNL     1      -6.690   8.397  62.935  1.00  0.00    -0.090 C  
HETATM   16  C   UNL     1      -8.475   7.087  65.955  1.00  0.00    -0.141 C  
HETATM   17  C   UNL     1     -10.674   6.130  66.421  1.00  0.00    -0.081 C  
HETATM   18  C   UNL     1      -8.076  10.676  63.706  1.00  0.00     0.044 C  
HETATM   19  C   UNL     1      -7.926   9.347  63.007  1.00  0.00    -0.141 C  
HETATM   20  C   UNL     1      -8.684   7.674  64.597  1.00  0.00     0.315 C  
HETATM   21  C   UNL     1      -7.524   8.521  64.180  1.00  0.00    -0.112 C  
ENDROOT
BRANCH   4  22
HETATM   22  O   UNL     1     -11.366  11.786  66.212  1.00  0.00    -0.329 OA 
BRANCH  22  23
HETATM   23  C   UNL     1     -11.663  13.117  66.453  1.00  0.00    -0.379 C  
HETATM   24  C   UNL     1     -10.824  14.049  65.633  1.00  0.00    -0.295 C  
HETATM   25  O   UNL     1     -12.549  13.532  67.190  1.00  0.00    -0.124 OA 
ENDBRANCH  22  23
ENDBRANCH   4  22
BRANCH   7  26
HETATM   26  O   UNL     1      -8.441  10.525  68.896  1.00  0.00    -0.134 OA 
BRANCH  26  27
HETATM   27  C   UNL     1      -7.574  10.647  69.947  1.00  0.00     0.044 C  
HETATM   28  O   UNL     1      -7.320   9.742  70.730  1.00  0.00    -0.285 OA 
BRANCH  27  29
HETATM   29  C   UNL     1      -6.727  11.908  69.902  1.00  0.00     0.119 A  
HETATM   30  C   UNL     1      -6.759  12.699  68.727  1.00  0.00    -0.093 A  
HETATM   31  C   UNL     1      -5.927  12.345  70.953  1.00  0.00     0.263 A  
HETATM   32  C   UNL     1      -5.201  13.553  70.855  1.00  0.00    -0.141 A  
HETATM   33  C   UNL     1      -6.064  13.920  68.640  1.00  0.00    -0.088 A  
HETATM   34  C   UNL     1      -5.280  14.343  69.703  1.00  0.00    -0.091 A  
ENDBRANCH  27  29
ENDBRANCH  26  27
ENDBRANCH   7  26
BRANCH   9  35
HETATM   35  O   UNL     1     -10.504   7.490  68.887  1.00  0.00    -0.209 OA 
BRANCH  35  36
HETATM   36  C   UNL     1      -9.829   6.578  69.649  1.00  0.00    -0.159 C  
HETATM   37  O   UNL     1      -8.692   6.657  70.031  1.00  0.00    -0.139 OA 
HETATM   38  C   UNL     1     -10.743   5.444  70.053  1.00  0.00    -0.296 C  
ENDBRANCH  35  36
ENDBRANCH   9  35
TORSDOF 7
ENDMDL
MODEL       94
REMARK 921   NORMALIZED FREE ENERGY PREDICTED BY IDOCK:   -3.18 KCAL/MOL
REMARK 922        TOTAL FREE ENERGY PREDICTED BY IDOCK:   -5.12 KCAL/MOL
REMARK 923 INTER-LIGAND FREE ENERGY PREDICTED BY IDOCK:   -5.83 KCAL/MOL
REMARK 924 INTRA-LIGAND FREE ENERGY PREDICTED BY IDOCK:    0.71 KCAL/MOL
REMARK 927      BINDING AFFINITY PREDICTED BY RF-SCORE:    0.00 PKD
ROOT
HETATM    1  C   UNL     1      -6.689   9.708  70.674  1.00  0.00    -0.116 C  
HETATM    2  C   UNL     1      -7.562   9.932  69.463  1.00  0.00    -0.125 C  
HETATM    3  C   UNL     1      -8.231   8.964  68.521  1.00  0.00    -0.116 C  
HETATM    4  C   UNL     1      -8.365   9.974  67.240  1.00  0.00    -0.121 C  
HETATM    5  O   UNL     1     -10.601   9.227  66.607  1.00  0.00    -0.197 OA 
HETATM    6  C   UNL     1      -8.210  11.537  67.994  1.00  0.00    -0.143 C  
HETATM    7  C   UNL     1      -8.585  11.061  69.436  1.00  0.00     0.200 C  
HETATM    8  C   UNL     1      -8.067  10.815  64.352  1.00  0.00     0.150 C  
HETATM    9  C   UNL     1      -8.733  13.033  68.105  1.00  0.00    -0.190 C  
HETATM   10  C   UNL     1      -8.899  14.098  67.050  1.00  0.00    -0.237 C  
HETATM   11  C   UNL     1      -9.551   9.764  66.251  1.00  0.00    -0.213 C  
HETATM   12  C   UNL     1     -12.378  14.207  63.334  1.00  0.00     0.322 C  
HETATM   13  C   UNL     1      -9.396  10.273  64.807  1.00  0.00    -0.313 C  
HETATM   14  C   UNL     1     -13.245  11.887  63.009  1.00  0.00     0.570 C  
HETATM   15  C   UNL     1     -12.064  12.723  63.419  1.00  0.00    -0.619 C  
HETATM   16  C   UNL     1     -10.249  14.087  66.397  1.00  0.00    -0.293 C  
HETATM   17  C   UNL     1      -8.083  15.140  66.807  1.00  0.00    -0.113 C  
HETATM   18  C   UNL     1     -10.550  10.504  64.122  1.00  0.00     0.157 C  
HETATM   19  C   UNL     1     -10.784  11.832  63.443  1.00  0.00    -0.468 C  
HETATM   20  C   UNL     1     -10.055  13.522  65.027  1.00  0.00    -0.280 C  
HETATM   21  C   UNL     1     -11.187  12.627  64.636  1.00  0.00    -0.348 C  
ENDROOT
BRANCH   4  22
HETATM   22  O   UNL     1      -7.136   9.525  66.514  1.00  0.00    -0.084 OA 
BRANCH  22  23
HETATM   23  C   UNL     1      -6.958   8.153  66.447  1.00  0.00    -0.067 C  
HETATM   24  C   UNL     1      -5.660   7.714  67.051  1.00  0.00    -0.031 C  
HETATM   25  O   UNL     1      -7.771   7.345  66.015  1.00  0.00    -0.088 OA 
ENDBRANCH  22  23
ENDBRANCH   4  22
BRANCH   7  26
HETATM   26  O   UNL     1     -10.032  10.623  69.300  1.00  0.00    -0.218 OA 
BRANCH  26  27
HETATM   27  C   UNL     1     -10.856  10.440  70.376  1.00  0.00    -0.189 C  
HETATM   28  O   UNL     1     -10.719   9.542  71.197  1.00  0.00    -0.316 OA 
BRANCH  27  29
HETATM   29  C   UNL     1     -11.788  11.611  70.642  1.00  0.00    -0.238 A  
HETATM   30  C   UNL     1     -12.682  11.525  71.738  1.00  0.00    -0.340 A  
HETATM   31  C   UNL     1     -11.811  12.776  69.880  1.00  0.00    -0.371 A  
HETATM   32  C   UNL     1     -12.675  13.841  70.216  1.00  0.00    -0.208 A  
HETATM   33  C   UNL     1     -13.519  12.599  72.093  1.00  0.00    -0.561 A  
HETATM   34  C   UNL     1     -13.519  13.756  71.328  1.00  0.00    -0.234 A  
ENDBRANCH  27  29
ENDBRANCH  26  27
ENDBRANCH   7  26
BRANCH   9  35
HETATM   35  O   UNL     1      -8.112  13.751  69.261  1.00  0.00     0.192 OA 
BRANCH  35  36
HETATM   36  C   UNL     1      -8.227  15.101  69.446  1.00  0.00    -0.197 C  
HETATM   37  O   UNL     1      -9.236  15.752  69.401  1.00  0.00    -0.254 OA 
HETATM   38  C   UNL     1      -6.892  15.699  69.822  1.00  0.00    -0.134 C  
ENDBRANCH  35  36
ENDBRANCH   9  35
TORSDOF 7
ENDMDL
MODEL       95
REMARK 921   NORMALIZED FREE ENERGY PREDICTED BY IDOCK:   -3.06 KCAL/MOL
REMARK 922        TOTAL FREE ENERGY PREDICTED BY IDOCK:   -4.95 KCAL/MOL
REMARK 923 INTER-LIGAND FREE ENERGY PREDICTED BY IDOCK:   -4.66 KCAL/MOL
REMARK 924 INTRA-LIGAND FREE ENERGY PREDICTED BY IDOCK:   -0.29 KCAL/MOL
REMARK 927      BINDING AFFINITY PREDICTED BY RF-SCORE:    0.00 PKD
ROOT
HETATM    1  C   UNL     1      -7.923  12.615  69.307  1.00  0.00     0.612 C  
HETATM    2  C   UNL     1      -8.317  11.293  68.694  1.00  0.00    -0.146 C  
HETATM    3  C   UNL     1      -9.485  10.902  67.827  1.00  0.00    -0.165 C  
HETATM    4  C   UNL     1      -9.490   9.305  68.185  1.00  0.00    -0.138 C  
HETATM    5  O   UNL     1      -9.962   8.572  65.906  1.00  0.00    -0.113 OA 
HETATM    6  C   UNL     1      -7.878   9.068  68.802  1.00  0.00    -0.096 C  
HETATM    7  C   UNL     1      -7.261  10.344  68.140  1.00  0.00    -0.087 C  
HETATM    8  C   UNL     1     -10.712   6.678  69.049  1.00  0.00    -0.299 C  
HETATM    9  C   UNL     1      -6.568   8.169  68.827  1.00  0.00    -0.053 C  
HETATM   10  C   UNL     1      -6.383   6.708  69.153  1.00  0.00    -0.035 C  
HETATM   11  C   UNL     1     -10.005   8.304  67.107  1.00  0.00    -0.239 C  
HETATM   12  C   UNL     1      -7.853   2.736  66.326  1.00  0.00    -0.081 C  
HETATM   13  C   UNL     1     -10.551   6.943  67.576  1.00  0.00    -0.351 C  
HETATM   14  C   UNL     1      -9.616   3.518  64.739  1.00  0.00    -0.168 C  
HETATM   15  C   UNL     1      -8.987   3.719  66.090  1.00  0.00    -0.135 C  
HETATM   16  C   UNL     1      -6.504   5.811  67.958  1.00  0.00    -0.043 C  
HETATM   17  C   UNL     1      -5.925   6.179  70.302  1.00  0.00    -0.029 C  
HETATM   18  C   UNL     1     -10.552   5.944  66.651  1.00  0.00    -0.330 C  
HETATM   19  C   UNL     1      -9.921   4.609  66.967  1.00  0.00    -0.227 C  
HETATM   20  C   UNL     1      -7.822   5.115  68.078  1.00  0.00    -0.087 C  
HETATM   21  C   UNL     1      -8.494   4.977  66.750  1.00  0.00    -0.106 C  
ENDROOT
BRANCH   4  22
HETATM   22  O   UNL     1     -10.545   9.350  69.246  1.00  0.00    -0.219 OA 
BRANCH  22  23
HETATM   23  C   UNL     1     -11.465  10.377  69.119  1.00  0.00    -0.196 C  
HETATM   24  C   UNL     1     -11.875  10.946  70.443  1.00  0.00    -0.449 C  
HETATM   25  O   UNL     1     -11.874  10.847  68.065  1.00  0.00    -0.585 OA 
ENDBRANCH  22  23
ENDBRANCH   4  22
BRANCH   7  26
HETATM   26  O   UNL     1      -7.363  10.057  66.653  1.00  0.00    -0.099 OA 
BRANCH  26  27
HETATM   27  C   UNL     1      -6.326  10.265  65.786  1.00  0.00    -0.111 C  
HETATM   28  O   UNL     1      -5.504  11.164  65.906  1.00  0.00    -0.146 OA 
BRANCH  27  29
HETATM   29  C   UNL     1      -6.099   9.119  64.813  1.00  0.00    -0.066 A  
HETATM   30  C   UNL     1      -6.721   7.874  65.083  1.00  0.00    -0.051 A  
HETATM   31  C   UNL     1      -5.325   9.217  63.661  1.00  0.00    -0.066 A  
HETATM   32  C   UNL     1      -5.197   8.120  62.781  1.00  0.00    -0.059 A  
HETATM   33  C   UNL     1      -6.622   6.791  64.190  1.00  0.00    -0.044 A  
HETATM   34  C   UNL     1      -5.854   6.913  63.041  1.00  0.00    -0.039 A  
ENDBRANCH  27  29
ENDBRANCH  26  27
ENDBRANCH   7  26
BRANCH   9  35
HETATM   35  O   UNL     1      -5.444   8.851  69.540  1.00  0.00    -0.034 OA 
BRANCH  35  36
HETATM   36  C   UNL     1      -5.546   9.305  70.826  1.00  0.00    -0.039 C  
HETATM   37  O   UNL     1      -5.619   8.639  71.823  1.00  0.00    -0.038 OA 
HETATM   38  C   UNL     1      -5.463  10.813  70.863  1.00  0.00    -0.103 C  
ENDBRANCH  35  36
ENDBRANCH   9  35
TORSDOF 7
ENDMDL
MODEL       96
REMARK 921   NORMALIZED FREE ENERGY PREDICTED BY IDOCK:   -3.05 KCAL/MOL
REMARK 922        TOTAL FREE ENERGY PREDICTED BY IDOCK:   -4.94 KCAL/MOL
REMARK 923 INTER-LIGAND FREE ENERGY PREDICTED BY IDOCK:   -5.96 KCAL/MOL
REMARK 924 INTRA-LIGAND FREE ENERGY PREDICTED BY IDOCK:    1.03 KCAL/MOL
REMARK 927      BINDING AFFINITY PREDICTED BY RF-SCORE:    0.00 PKD
ROOT
HETATM    1  C   UNL     1     -12.275  11.795  66.172  1.00  0.00     0.796 C  
HETATM    2  C   UNL     1     -11.144  11.390  67.086  1.00  0.00    -0.366 C  
HETATM    3  C   UNL     1      -9.662  11.651  67.017  1.00  0.00    -0.201 C  
HETATM    4  C   UNL     1      -9.180  10.382  67.931  1.00  0.00    -0.139 C  
HETATM    5  O   UNL     1      -7.444  11.617  69.122  1.00  0.00    -0.089 OA 
HETATM    6  C   UNL     1     -10.640   9.986  68.797  1.00  0.00    -0.241 C  
HETATM    7  C   UNL     1     -11.329  11.376  68.598  1.00  0.00    -0.265 C  
HETATM    8  C   UNL     1      -7.564   7.912  68.585  1.00  0.00    -0.101 C  
HETATM    9  C   UNL     1     -11.317   9.592  70.180  1.00  0.00    -0.227 C  
HETATM   10  C   UNL     1     -11.024   8.459  71.131  1.00  0.00    -0.292 C  
HETATM   11  C   UNL     1      -7.866  10.519  68.758  1.00  0.00    -0.116 C  
HETATM   12  C   UNL     1      -6.938   7.963  74.129  1.00  0.00    -0.152 C  
HETATM   13  C   UNL     1      -7.107   9.235  69.139  1.00  0.00    -0.062 C  
HETATM   14  C   UNL     1      -5.125   9.425  73.225  1.00  0.00    -0.098 C  
HETATM   15  C   UNL     1      -6.335   8.596  72.887  1.00  0.00    -0.067 C  
HETATM   16  C   UNL     1     -10.005   8.806  72.175  1.00  0.00    -0.359 C  
HETATM   17  C   UNL     1     -11.709   7.309  71.267  1.00  0.00    -0.328 C  
HETATM   18  C   UNL     1      -6.268   9.326  70.208  1.00  0.00    -0.048 C  
HETATM   19  C   UNL     1      -6.372   8.342  71.348  1.00  0.00    -0.041 C  
HETATM   20  C   UNL     1      -8.746   8.095  71.795  1.00  0.00    -0.199 C  
HETATM   21  C   UNL     1      -7.539   8.938  72.055  1.00  0.00     0.064 C  
ENDROOT
BRANCH   4  22
HETATM   22  O   UNL     1      -8.868   9.444  66.808  1.00  0.00    -0.126 OA 
BRANCH  22  23
HETATM   23  C   UNL     1      -8.359  10.041  65.666  1.00  0.00    -0.145 C  
HETATM   24  C   UNL     1      -9.032   9.556  64.418  1.00  0.00    -0.255 C  
HETATM   25  O   UNL     1      -7.506  10.919  65.635  1.00  0.00    -0.083 OA 
ENDBRANCH  22  23
ENDBRANCH   4  22
BRANCH   7  26
HETATM   26  O   UNL     1     -10.436  12.330  69.370  1.00  0.00     0.090 OA 
BRANCH  26  27
HETATM   27  C   UNL     1     -10.650  13.680  69.408  1.00  0.00     0.137 C  
HETATM   28  O   UNL     1     -10.410  14.436  68.476  1.00  0.00    -0.235 OA 
BRANCH  27  29
HETATM   29  C   UNL     1     -11.480  14.138  70.596  1.00  0.00    -0.066 A  
HETATM   30  C   UNL     1     -12.654  13.413  70.917  1.00  0.00    -0.406 A  
HETATM   31  C   UNL     1     -11.151  15.223  71.403  1.00  0.00    -0.285 A  
HETATM   32  C   UNL     1     -11.948  15.561  72.519  1.00  0.00    -0.557 A  
HETATM   33  C   UNL     1     -13.430  13.728  72.048  1.00  0.00    -0.559 A  
HETATM   34  C   UNL     1     -13.080  14.807  72.846  1.00  0.00    -0.596 A  
ENDBRANCH  27  29
ENDBRANCH  26  27
ENDBRANCH   7  26
BRANCH   9  35
HETATM   35  O   UNL     1     -12.810   9.625  70.092  1.00  0.00     0.250 OA 
BRANCH  35  36
HETATM   36  C   UNL     1     -13.621   9.476  71.182  1.00  0.00    -0.169 C  
HETATM   37  O   UNL     1     -13.804  10.275  72.061  1.00  0.00    -0.160 OA 
HETATM   38  C   UNL     1     -14.370   8.166  71.110  1.00  0.00    -0.270 C  
ENDBRANCH  35  36
ENDBRANCH   9  35
TORSDOF 7
ENDMDL
MODEL       97
REMARK 921   NORMALIZED FREE ENERGY PREDICTED BY IDOCK:   -2.97 KCAL/MOL
REMARK 922        TOTAL FREE ENERGY PREDICTED BY IDOCK:   -4.82 KCAL/MOL
REMARK 923 INTER-LIGAND FREE ENERGY PREDICTED BY IDOCK:   -4.13 KCAL/MOL
REMARK 924 INTRA-LIGAND FREE ENERGY PREDICTED BY IDOCK:   -0.69 KCAL/MOL
REMARK 927      BINDING AFFINITY PREDICTED BY RF-SCORE:    0.00 PKD
ROOT
HETATM    1  C   UNL     1     -13.193  10.423  69.853  1.00  0.00     0.553 C  
HETATM    2  C   UNL     1     -12.405  11.698  69.674  1.00  0.00    -0.172 C  
HETATM    3  C   UNL     1     -11.957  12.743  70.662  1.00  0.00    -0.199 C  
HETATM    4  C   UNL     1     -11.797  13.982  69.605  1.00  0.00    -0.330 C  
HETATM    5  O   UNL     1      -9.746  14.854  70.598  1.00  0.00     0.572 OA 
HETATM    6  C   UNL     1     -11.674  13.143  68.082  1.00  0.00    -0.391 C  
HETATM    7  C   UNL     1     -11.244  11.766  68.689  1.00  0.00    -0.257 C  
HETATM    8  C   UNL     1     -12.225  16.786  68.561  1.00  0.00     1.464 C  
HETATM    9  C   UNL     1     -10.945  13.010  66.677  1.00  0.00    -0.279 C  
HETATM   10  C   UNL     1     -10.728  14.023  65.581  1.00  0.00    -0.306 C  
HETATM   11  C   UNL     1     -10.740  15.085  69.908  1.00  0.00    -0.218 C  
HETATM   12  C   UNL     1      -7.597  18.037  65.706  1.00  0.00    -0.070 C  
HETATM   13  C   UNL     1     -10.949  16.483  69.298  1.00  0.00    -0.302 C  
HETATM   14  C   UNL     1      -7.084  18.552  68.096  1.00  0.00    -0.261 C  
HETATM   15  C   UNL     1      -8.102  17.994  67.138  1.00  0.00    -0.225 C  
HETATM   16  C   UNL     1      -9.453  14.798  65.730  1.00  0.00    -0.209 C  
HETATM   17  C   UNL     1     -11.413  14.139  64.429  1.00  0.00    -0.344 C  
HETATM   18  C   UNL     1      -9.836  17.260  69.179  1.00  0.00    -0.174 C  
HETATM   19  C   UNL     1      -9.484  17.894  67.855  1.00  0.00    -0.272 C  
HETATM   20  C   UNL     1      -9.838  16.170  66.181  1.00  0.00    -0.358 C  
HETATM   21  C   UNL     1      -8.876  16.707  67.192  1.00  0.00    -0.209 C  
ENDROOT
BRANCH   4  22
HETATM   22  O   UNL     1     -13.134  14.611  69.844  1.00  0.00     0.015 OA 
BRANCH  22  23
HETATM   23  C   UNL     1     -13.374  15.006  71.150  1.00  0.00    -0.445 C  
HETATM   24  C   UNL     1     -14.332  14.098  71.857  1.00  0.00    -0.541 C  
HETATM   25  O   UNL     1     -12.835  15.943  71.725  1.00  0.00    -0.455 OA 
ENDBRANCH  22  23
ENDBRANCH   4  22
BRANCH   7  26
HETATM   26  O   UNL     1      -9.887  12.057  69.303  1.00  0.00     0.212 OA 
BRANCH  26  27
HETATM   27  C   UNL     1      -8.829  11.196  69.206  1.00  0.00     0.188 C  
HETATM   28  O   UNL     1      -8.917   9.986  69.366  1.00  0.00    -0.169 OA 
BRANCH  27  29
HETATM   29  C   UNL     1      -7.583  11.820  68.599  1.00  0.00    -0.125 A  
HETATM   30  C   UNL     1      -7.245  13.145  68.970  1.00  0.00     0.005 A  
HETATM   31  C   UNL     1      -6.741  11.165  67.706  1.00  0.00    -0.065 A  
HETATM   32  C   UNL     1      -5.575  11.794  67.218  1.00  0.00    -0.115 A  
HETATM   33  C   UNL     1      -6.065  13.761  68.512  1.00  0.00    -0.092 A  
HETATM   34  C   UNL     1      -5.233  13.086  67.630  1.00  0.00    -0.071 A  
ENDBRANCH  27  29
ENDBRANCH  26  27
ENDBRANCH   7  26
BRANCH   9  35
HETATM   35  O   UNL     1     -11.361  11.768  65.954  1.00  0.00    -0.326 OA 
BRANCH  35  36
HETATM   36  C   UNL     1     -10.685  10.584  66.060  1.00  0.00    -0.016 C  
HETATM   37  O   UNL     1     -11.049   9.594  66.635  1.00  0.00     0.109 OA 
HETATM   38  C   UNL     1      -9.405  10.632  65.258  1.00  0.00    -0.256 C  
ENDBRANCH  35  36
ENDBRANCH   9  35
TORSDOF 7
ENDMDL
MODEL       98
REMARK 921   NORMALIZED FREE ENERGY PREDICTED BY IDOCK:   -2.92 KCAL/MOL
REMARK 922        TOTAL FREE ENERGY PREDICTED BY IDOCK:   -4.75 KCAL/MOL
REMARK 923 INTER-LIGAND FREE ENERGY PREDICTED BY IDOCK:   -4.66 KCAL/MOL
REMARK 924 INTRA-LIGAND FREE ENERGY PREDICTED BY IDOCK:   -0.10 KCAL/MOL
REMARK 927      BINDING AFFINITY PREDICTED BY RF-SCORE:    0.00 PKD
ROOT
HETATM    1  C   UNL     1      -7.271  10.723  68.823  1.00  0.00    -0.091 C  
HETATM    2  C   UNL     1      -7.458  12.164  68.411  1.00  0.00    -0.114 C  
HETATM    3  C   UNL     1      -6.640  13.062  67.519  1.00  0.00    -0.160 C  
HETATM    4  C   UNL     1      -7.139  14.491  68.143  1.00  0.00    -0.122 C  
HETATM    5  O   UNL     1      -7.295  15.626  65.988  1.00  0.00     0.850 OA 
HETATM    6  C   UNL     1      -8.623  14.040  68.938  1.00  0.00     0.053 C  
HETATM    7  C   UNL     1      -8.847  12.720  68.127  1.00  0.00    -0.194 C  
HETATM    8  C   UNL     1      -6.794  17.251  69.326  1.00  0.00    -0.208 C  
HETATM    9  C   UNL     1     -10.145  14.384  69.237  1.00  0.00    -0.024 C  
HETATM   10  C   UNL     1     -10.776  15.622  69.823  1.00  0.00    -0.309 C  
HETATM   11  C   UNL     1      -7.171  15.737  67.209  1.00  0.00    -0.219 C  
HETATM   12  C   UNL     1     -11.217  20.178  67.593  1.00  0.00     0.504 C  
HETATM   13  C   UNL     1      -7.069  17.133  67.851  1.00  0.00    -0.170 C  
HETATM   14  C   UNL     1      -9.548  20.304  65.739  1.00  0.00    -0.120 C  
HETATM   15  C   UNL     1      -9.860  19.718  67.089  1.00  0.00    -0.513 C  
HETATM   16  C   UNL     1     -11.153  16.644  68.793  1.00  0.00    -0.270 C  
HETATM   17  C   UNL     1     -11.214  15.797  71.084  1.00  0.00    -0.380 C  
HETATM   18  C   UNL     1      -7.554  18.171  67.114  1.00  0.00    -0.225 C  
HETATM   19  C   UNL     1      -8.555  19.130  67.711  1.00  0.00    -0.335 C  
HETATM   20  C   UNL     1     -10.158  17.753  68.908  1.00  0.00    -0.350 C  
HETATM   21  C   UNL     1      -9.780  18.295  67.567  1.00  0.00    -0.305 C  
ENDROOT
BRANCH   4  22
HETATM   22  O   UNL     1      -5.990  14.702  69.078  1.00  0.00    -0.087 OA 
BRANCH  22  23
HETATM   23  C   UNL     1      -6.175  14.213  70.360  1.00  0.00    -0.149 C  
HETATM   24  C   UNL     1      -5.237  13.092  70.687  1.00  0.00    -0.135 C  
HETATM   25  O   UNL     1      -6.956  14.660  71.192  1.00  0.00     0.577 OA 
ENDBRANCH  22  23
ENDBRANCH   4  22
BRANCH   7  26
HETATM   26  O   UNL     1      -9.073  13.209  66.708  1.00  0.00    -0.234 OA 
BRANCH  26  27
HETATM   27  C   UNL     1      -9.777  12.493  65.780  1.00  0.00    -0.187 C  
HETATM   28  O   UNL     1     -10.256  12.976  64.763  1.00  0.00    -0.321 OA 
BRANCH  27  29
HETATM   29  C   UNL     1      -9.677  10.987  65.962  1.00  0.00    -0.265 A  
HETATM   30  C   UNL     1     -10.514  10.368  66.924  1.00  0.00    -0.300 A  
HETATM   31  C   UNL     1      -8.820  10.170  65.231  1.00  0.00    -0.201 A  
HETATM   32  C   UNL     1      -8.815   8.771  65.424  1.00  0.00    -0.221 A  
HETATM   33  C   UNL     1     -10.535   8.971  67.093  1.00  0.00    -0.333 A  
HETATM   34  C   UNL     1      -9.680   8.173  66.347  1.00  0.00    -0.275 A  
ENDBRANCH  27  29
ENDBRANCH  26  27
ENDBRANCH   7  26
BRANCH   9  35
HETATM   35  O   UNL     1     -10.842  13.253  69.924  1.00  0.00     0.244 OA 
BRANCH  35  36
HETATM   36  C   UNL     1     -12.115  12.865  69.611  1.00  0.00    -0.226 C  
HETATM   37  O   UNL     1     -12.600  12.798  68.514  1.00  0.00     0.337 OA 
HETATM   38  C   UNL     1     -12.853  12.421  70.853  1.00  0.00    -0.176 C  
ENDBRANCH  35  36
ENDBRANCH   9  35
TORSDOF 7
ENDMDL
MODEL       99
REMARK 921   NORMALIZED FREE ENERGY PREDICTED BY IDOCK:   -2.75 KCAL/MOL
REMARK 922        TOTAL FREE ENERGY PREDICTED BY IDOCK:   -4.51 KCAL/MOL
REMARK 923 INTER-LIGAND FREE ENERGY PREDICTED BY IDOCK:   -4.32 KCAL/MOL
REMARK 924 INTRA-LIGAND FREE ENERGY PREDICTED BY IDOCK:   -0.19 KCAL/MOL
REMARK 927      BINDING AFFINITY PREDICTED BY RF-SCORE:    0.00 PKD
ROOT
HETATM    1  C   UNL     1      -9.900   3.543  67.895  1.00  0.00     0.064 C  
HETATM    2  C   UNL     1      -9.602   5.022  67.840  1.00  0.00    -0.176 C  
HETATM    3  C   UNL     1     -10.073   6.103  66.902  1.00  0.00    -0.232 C  
HETATM    4  C   UNL     1      -8.830   7.142  67.132  1.00  0.00    -0.121 C  
HETATM    5  O   UNL     1     -10.220   9.147  67.142  1.00  0.00    -0.220 OA 
HETATM    6  C   UNL     1      -8.177   6.593  68.652  1.00  0.00    -0.119 C  
HETATM    7  C   UNL     1      -9.466   5.839  69.119  1.00  0.00    -0.128 C  
HETATM    8  C   UNL     1      -6.577   8.973  66.288  1.00  0.00    -0.066 C  
HETATM    9  C   UNL     1      -7.605   6.975  70.084  1.00  0.00    -0.095 C  
HETATM   10  C   UNL     1      -6.467   7.882  70.478  1.00  0.00    -0.037 C  
HETATM   11  C   UNL     1      -9.098   8.668  66.971  1.00  0.00    -0.138 C  
HETATM   12  C   UNL     1      -6.364  12.965  70.181  1.00  0.00     0.061 C  
HETATM   13  C   UNL     1      -7.913   9.584  66.615  1.00  0.00    -0.108 C  
HETATM   14  C   UNL     1      -8.121  13.686  68.560  1.00  0.00    -0.118 C  
HETATM   15  C   UNL     1      -7.154  12.598  68.936  1.00  0.00    -0.069 C  
HETATM   16  C   UNL     1      -6.886   9.305  70.698  1.00  0.00    -0.094 C  
HETATM   17  C   UNL     1      -5.224   7.521  70.849  1.00  0.00    -0.027 C  
HETATM   18  C   UNL     1      -8.054  10.901  66.931  1.00  0.00    -0.137 C  
HETATM   19  C   UNL     1      -6.995  11.612  67.738  1.00  0.00    -0.084 C  
HETATM   20  C   UNL     1      -6.387  10.083  69.524  1.00  0.00    -0.049 C  
HETATM   21  C   UNL     1      -7.374  11.119  69.091  1.00  0.00    -0.115 C  
ENDROOT
BRANCH   4  22
HETATM   22  O   UNL     1      -8.019   6.735  65.941  1.00  0.00    -0.101 OA 
BRANCH  22  23
HETATM   23  C   UNL     1      -7.189   5.644  66.138  1.00  0.00    -0.077 C  
HETATM   24  C   UNL     1      -7.385   4.581  65.100  1.00  0.00    -0.072 C  
HETATM   25  O   UNL     1      -6.329   5.544  67.004  1.00  0.00    -0.036 OA 
ENDBRANCH  22  23
ENDBRANCH   4  22
BRANCH   7  26
HETATM   26  O   UNL     1     -10.485   6.950  69.292  1.00  0.00    -0.197 OA 
BRANCH  26  27
HETATM   27  C   UNL     1     -11.444   6.932  70.267  1.00  0.00    -0.323 C  
HETATM   28  O   UNL     1     -11.619   5.996  71.036  1.00  0.00    -0.253 OA 
BRANCH  27  29
HETATM   29  C   UNL     1     -12.094   8.283  70.514  1.00  0.00     0.149 A  
HETATM   30  C   UNL     1     -13.383   8.312  71.102  1.00  0.00    -0.035 A  
HETATM   31  C   UNL     1     -11.495   9.502  70.211  1.00  0.00    -0.256 A  
HETATM   32  C   UNL     1     -12.143  10.720  70.512  1.00  0.00    -0.459 A  
HETATM   33  C   UNL     1     -14.016   9.525  71.433  1.00  0.00    -0.129 A  
HETATM   34  C   UNL     1     -13.397  10.730  71.132  1.00  0.00    -0.114 A  
ENDBRANCH  27  29
ENDBRANCH  26  27
ENDBRANCH   7  26
BRANCH   9  35
HETATM   35  O   UNL     1      -7.431   5.767  70.949  1.00  0.00    -0.085 OA 
BRANCH  35  36
HETATM   36  C   UNL     1      -8.040   5.630  72.165  1.00  0.00    -0.108 C  
HETATM   37  O   UNL     1      -8.527   6.503  72.831  1.00  0.00    -0.120 OA 
HETATM   38  C   UNL     1      -8.117   4.172  72.557  1.00  0.00    -0.095 C  
ENDBRANCH  35  36
ENDBRANCH   9  35
TORSDOF 7
ENDMDL
MODEL      100
REMARK 921   NORMALIZED FREE ENERGY PREDICTED BY IDOCK:   -2.70 KCAL/MOL
REMARK 922        TOTAL FREE ENERGY PREDICTED BY IDOCK:   -4.44 KCAL/MOL
REMARK 923 INTER-LIGAND FREE ENERGY PREDICTED BY IDOCK:   -5.97 KCAL/MOL
REMARK 924 INTRA-LIGAND FREE ENERGY PREDICTED BY IDOCK:    1.53 KCAL/MOL
REMARK 927      BINDING AFFINITY PREDICTED BY RF-SCORE:    0.00 PKD
ROOT
HETATM    1  C   UNL     1      -6.642   5.736  71.642  1.00  0.00    -0.054 C  
HETATM    2  C   UNL     1      -7.064   6.626  70.498  1.00  0.00    -0.068 C  
HETATM    3  C   UNL     1      -6.395   6.955  69.189  1.00  0.00    -0.028 C  
HETATM    4  C   UNL     1      -7.142   8.387  68.923  1.00  0.00    -0.066 C  
HETATM    5  O   UNL     1      -7.449   8.031  66.528  1.00  0.00    -0.085 OA 
HETATM    6  C   UNL     1      -8.542   8.261  69.953  1.00  0.00    -0.125 C  
HETATM    7  C   UNL     1      -8.522   6.701  70.064  1.00  0.00    -0.139 C  
HETATM    8  C   UNL     1      -7.295  11.337  68.281  1.00  0.00    -0.095 C  
HETATM    9  C   UNL     1     -10.105   8.483  70.127  1.00  0.00    -0.190 C  
HETATM   10  C   UNL     1     -10.950   9.720  69.951  1.00  0.00    -0.299 C  
HETATM   11  C   UNL     1      -7.368   8.844  67.450  1.00  0.00    -0.081 C  
HETATM   12  C   UNL     1     -12.119  12.023  65.563  1.00  0.00    -0.067 C  
HETATM   13  C   UNL     1      -7.518  10.350  67.168  1.00  0.00    -0.092 C  
HETATM   14  C   UNL     1     -10.461  11.304  63.838  1.00  0.00    -0.452 C  
HETATM   15  C   UNL     1     -10.694  11.566  65.301  1.00  0.00    -0.337 C  
HETATM   16  C   UNL     1     -11.476   9.889  68.557  1.00  0.00     0.057 C  
HETATM   17  C   UNL     1     -11.435  10.522  70.916  1.00  0.00    -0.304 C  
HETATM   18  C   UNL     1      -8.159  10.685  66.014  1.00  0.00    -0.159 C  
HETATM   19  C   UNL     1      -9.320  11.649  66.036  1.00  0.00    -0.241 C  
HETATM   20  C   UNL     1     -10.687  10.995  67.934  1.00  0.00    -0.263 C  
HETATM   21  C   UNL     1     -10.382  10.712  66.498  1.00  0.00    -0.299 C  
ENDROOT
BRANCH   4  22
HETATM   22  O   UNL     1      -6.063   9.269  69.469  1.00  0.00    -0.039 OA 
BRANCH  22  23
HETATM   23  C   UNL     1      -6.340   9.847  70.697  1.00  0.00    -0.104 C  
HETATM   24  C   UNL     1      -5.135  10.494  71.310  1.00  0.00    -0.090 C  
HETATM   25  O   UNL     1      -7.442   9.908  71.229  1.00  0.00    -0.178 OA 
ENDBRANCH  22  23
ENDBRANCH   4  22
BRANCH   7  26
HETATM   26  O   UNL     1      -8.802   6.240  68.645  1.00  0.00    -0.120 OA 
BRANCH  26  27
HETATM   27  C   UNL     1      -9.326   5.011  68.354  1.00  0.00    -0.126 C  
HETATM   28  O   UNL     1      -9.886   4.739  67.301  1.00  0.00    -0.169 OA 
BRANCH  27  29
HETATM   29  C   UNL     1      -8.906   3.919  69.325  1.00  0.00    -0.145 A  
HETATM   30  C   UNL     1      -7.638   3.311  69.147  1.00  0.00    -0.048 A  
HETATM   31  C   UNL     1      -9.686   3.485  70.392  1.00  0.00    -0.176 A  
HETATM   32  C   UNL     1      -9.209   2.495  71.280  1.00  0.00    -0.191 A  
HETATM   33  C   UNL     1      -7.148   2.349  70.050  1.00  0.00    -0.033 A  
HETATM   34  C   UNL     1      -7.937   1.937  71.114  1.00  0.00    -0.049 A  
ENDBRANCH  27  29
ENDBRANCH  26  27
ENDBRANCH   7  26
BRANCH   9  35
HETATM   35  O   UNL     1     -10.612   7.867  71.393  1.00  0.00    -0.209 OA 
BRANCH  35  36
HETATM   36  C   UNL     1      -9.984   8.020  72.597  1.00  0.00    -0.290 C  
HETATM   37  O   UNL     1      -9.175   8.859  72.888  1.00  0.00    -0.200 OA 
HETATM   38  C   UNL     1     -10.512   7.021  73.600  1.00  0.00    -0.414 C  
ENDBRANCH  35  36
ENDBRANCH   9  35
TORSDOF 7
ENDMDL
MODEL      101
REMARK 921   NORMALIZED FREE ENERGY PREDICTED BY IDOCK:   -2.67 KCAL/MOL
REMARK 922        TOTAL FREE ENERGY PREDICTED BY IDOCK:   -4.41 KCAL/MOL
REMARK 923 INTER-LIGAND FREE ENERGY PREDICTED BY IDOCK:   -5.95 KCAL/MOL
REMARK 924 INTRA-LIGAND FREE ENERGY PREDICTED BY IDOCK:    1.54 KCAL/MOL
REMARK 927      BINDING AFFINITY PREDICTED BY RF-SCORE:    0.00 PKD
ROOT
HETATM    1  C   UNL     1      -6.217   4.913  69.184  1.00  0.00    -0.030 C  
HETATM    2  C   UNL     1      -6.803   5.993  68.305  1.00  0.00    -0.070 C  
HETATM    3  C   UNL     1      -6.445   6.453  66.915  1.00  0.00    -0.046 C  
HETATM    4  C   UNL     1      -7.062   7.964  67.027  1.00  0.00    -0.078 C  
HETATM    5  O   UNL     1      -7.991   7.988  64.771  1.00  0.00    -0.130 OA 
HETATM    6  C   UNL     1      -8.168   7.805  68.364  1.00  0.00    -0.124 C  
HETATM    7  C   UNL     1      -8.304   6.249  68.279  1.00  0.00    -0.115 C  
HETATM    8  C   UNL     1      -7.024  10.979  66.806  1.00  0.00    -0.131 C  
HETATM    9  C   UNL     1      -9.603   8.127  68.966  1.00  0.00    -0.156 C  
HETATM   10  C   UNL     1     -10.315   9.441  69.166  1.00  0.00    -0.221 C  
HETATM   11  C   UNL     1      -7.591   8.648  65.731  1.00  0.00    -0.089 C  
HETATM   12  C   UNL     1     -12.257  12.448  65.543  1.00  0.00    -0.356 C  
HETATM   13  C   UNL     1      -7.629  10.186  65.680  1.00  0.00    -0.144 C  
HETATM   14  C   UNL     1     -11.173  11.854  63.373  1.00  0.00    -0.463 C  
HETATM   15  C   UNL     1     -11.004  11.918  64.866  1.00  0.00    -0.367 C  
HETATM   16  C   UNL     1     -11.146   9.854  67.988  1.00  0.00    -0.220 C  
HETATM   17  C   UNL     1     -10.448  10.132  70.313  1.00  0.00    -0.284 C  
HETATM   18  C   UNL     1      -8.492  10.737  64.782  1.00  0.00    -0.038 C  
HETATM   19  C   UNL     1      -9.491  11.780  65.222  1.00  0.00    -0.132 C  
HETATM   20  C   UNL     1     -10.412  10.971  67.318  1.00  0.00    -0.270 C  
HETATM   21  C   UNL     1     -10.507  10.876  65.829  1.00  0.00    -0.275 C  
ENDROOT
BRANCH   4  22
HETATM   22  O   UNL     1      -5.787   8.666  67.375  1.00  0.00    -0.042 OA 
BRANCH  22  23
HETATM   23  C   UNL     1      -5.537   8.797  68.731  1.00  0.00    -0.040 C  
HETATM   24  C   UNL     1      -5.869  10.165  69.244  1.00  0.00    -0.037 C  
HETATM   25  O   UNL     1      -5.154   7.906  69.479  1.00  0.00    -0.022 OA 
ENDBRANCH  22  23
ENDBRANCH   4  22
BRANCH   7  26
HETATM   26  O   UNL     1      -8.978   6.025  66.937  1.00  0.00    -0.114 OA 
BRANCH  26  27
HETATM   27  C   UNL     1      -9.625   4.863  66.618  1.00  0.00    -0.163 C  
HETATM   28  O   UNL     1     -10.343   4.245  67.393  1.00  0.00     0.040 OA 
BRANCH  27  29
HETATM   29  C   UNL     1      -9.617   4.544  65.132  1.00  0.00    -0.167 A  
HETATM   30  C   UNL     1      -8.430   4.788  64.397  1.00  0.00    -0.134 A  
HETATM   31  C   UNL     1     -10.704   4.013  64.444  1.00  0.00    -0.191 A  
HETATM   32  C   UNL     1     -10.608   3.700  63.070  1.00  0.00    -0.220 A  
HETATM   33  C   UNL     1      -8.322   4.445  63.036  1.00  0.00    -0.097 A  
HETATM   34  C   UNL     1      -9.414   3.907  62.371  1.00  0.00    -0.111 A  
ENDBRANCH  27  29
ENDBRANCH  26  27
ENDBRANCH   7  26
BRANCH   9  35
HETATM   35  O   UNL     1      -9.849   7.377  70.237  1.00  0.00    -0.186 OA 
BRANCH  35  36
HETATM   36  C   UNL     1     -11.102   7.142  70.730  1.00  0.00    -0.269 C  
HETATM   37  O   UNL     1     -12.110   6.983  70.096  1.00  0.00    -0.166 OA 
HETATM   38  C   UNL     1     -11.062   7.011  72.235  1.00  0.00    -0.287 C  
ENDBRANCH  35  36
ENDBRANCH   9  35
TORSDOF 7
ENDMDL
MODEL      102
REMARK 921   NORMALIZED FREE ENERGY PREDICTED BY IDOCK:   -2.66 KCAL/MOL
REMARK 922        TOTAL FREE ENERGY PREDICTED BY IDOCK:   -4.39 KCAL/MOL
REMARK 923 INTER-LIGAND FREE ENERGY PREDICTED BY IDOCK:   -5.66 KCAL/MOL
REMARK 924 INTRA-LIGAND FREE ENERGY PREDICTED BY IDOCK:    1.26 KCAL/MOL
REMARK 927      BINDING AFFINITY PREDICTED BY RF-SCORE:    0.00 PKD
ROOT
HETATM    1  C   UNL     1      -7.193   7.240  68.276  1.00  0.00    -0.094 C  
HETATM    2  C   UNL     1      -7.034   8.725  68.053  1.00  0.00    -0.078 C  
HETATM    3  C   UNL     1      -5.811   9.575  67.823  1.00  0.00    -0.044 C  
HETATM    4  C   UNL     1      -6.441  10.995  68.337  1.00  0.00    -0.057 C  
HETATM    5  O   UNL     1      -5.404  12.340  66.584  1.00  0.00    -0.333 OA 
HETATM    6  C   UNL     1      -8.154  10.692  68.227  1.00  0.00    -0.118 C  
HETATM    7  C   UNL     1      -8.044   9.501  67.217  1.00  0.00    -0.110 C  
HETATM    8  C   UNL     1      -6.522  13.553  69.947  1.00  0.00    -0.013 C  
HETATM    9  C   UNL     1      -9.588  11.224  67.795  1.00  0.00    -0.174 C  
HETATM   10  C   UNL     1     -10.329  12.479  68.182  1.00  0.00    -0.236 C  
HETATM   11  C   UNL     1      -5.902  12.316  67.711  1.00  0.00    -0.098 C  
HETATM   12  C   UNL     1      -9.229  17.241  66.753  1.00  0.00    -0.270 C  
HETATM   13  C   UNL     1      -6.027  13.615  68.527  1.00  0.00    -0.092 C  
HETATM   14  C   UNL     1      -6.851  17.298  65.993  1.00  0.00    -0.135 C  
HETATM   15  C   UNL     1      -7.844  16.638  66.910  1.00  0.00    -0.261 C  
HETATM   16  C   UNL     1     -10.055  13.638  67.271  1.00  0.00    -0.239 C  
HETATM   17  C   UNL     1     -11.325  12.596  69.079  1.00  0.00    -0.345 C  
HETATM   18  C   UNL     1      -5.992  14.778  67.818  1.00  0.00    -0.124 C  
HETATM   19  C   UNL     1      -7.079  15.811  67.990  1.00  0.00    -0.134 C  
HETATM   20  C   UNL     1      -9.169  14.575  68.026  1.00  0.00    -0.190 C  
HETATM   21  C   UNL     1      -8.127  15.180  67.141  1.00  0.00    -0.245 C  
ENDROOT
BRANCH   4  22
HETATM   22  O   UNL     1      -5.905  10.949  69.733  1.00  0.00    -0.051 OA 
BRANCH  22  23
HETATM   23  C   UNL     1      -6.507  10.020  70.565  1.00  0.00    -0.121 C  
HETATM   24  C   UNL     1      -5.513   9.110  71.221  1.00  0.00    -0.047 C  
HETATM   25  O   UNL     1      -7.703   9.954  70.821  1.00  0.00    -0.293 OA 
ENDBRANCH  22  23
ENDBRANCH   4  22
BRANCH   7  26
HETATM   26  O   UNL     1      -7.487  10.150  65.963  1.00  0.00    -0.107 OA 
BRANCH  26  27
HETATM   27  C   UNL     1      -7.915   9.821  64.706  1.00  0.00    -0.138 C  
HETATM   28  O   UNL     1      -8.542  10.579  63.978  1.00  0.00    -0.174 OA 
BRANCH  27  29
HETATM   29  C   UNL     1      -7.304   8.539  64.165  1.00  0.00    -0.103 A  
HETATM   30  C   UNL     1      -5.946   8.264  64.459  1.00  0.00    -0.060 A  
HETATM   31  C   UNL     1      -8.002   7.605  63.405  1.00  0.00    -0.093 A  
HETATM   32  C   UNL     1      -7.379   6.413  62.975  1.00  0.00    -0.064 A  
HETATM   33  C   UNL     1      -5.333   7.061  64.060  1.00  0.00    -0.028 A  
HETATM   34  C   UNL     1      -6.050   6.138  63.312  1.00  0.00    -0.022 A  
ENDBRANCH  27  29
ENDBRANCH  26  27
ENDBRANCH   7  26
BRANCH   9  35
HETATM   35  O   UNL     1     -10.622  10.146  67.872  1.00  0.00    -0.212 OA 
BRANCH  35  36
HETATM   36  C   UNL     1     -10.650   9.212  68.870  1.00  0.00    -0.191 C  
HETATM   37  O   UNL     1     -10.392   8.043  68.771  1.00  0.00    -0.207 OA 
HETATM   38  C   UNL     1     -10.972   9.863  70.195  1.00  0.00    -0.356 C  
ENDBRANCH  35  36
ENDBRANCH   9  35
TORSDOF 7
ENDMDL
MODEL      103
REMARK 921   NORMALIZED FREE ENERGY PREDICTED BY IDOCK:   -2.57 KCAL/MOL
REMARK 922        TOTAL FREE ENERGY PREDICTED BY IDOCK:   -4.26 KCAL/MOL
REMARK 923 INTER-LIGAND FREE ENERGY PREDICTED BY IDOCK:   -4.13 KCAL/MOL
REMARK 924 INTRA-LIGAND FREE ENERGY PREDICTED BY IDOCK:   -0.13 KCAL/MOL
REMARK 927      BINDING AFFINITY PREDICTED BY RF-SCORE:    0.00 PKD
ROOT
HETATM    1  C   UNL     1     -10.367   6.693  74.202  1.00  0.00    -0.347 C  
HETATM    2  C   UNL     1     -10.217   6.368  72.735  1.00  0.00    -0.204 C  
HETATM    3  C   UNL     1     -11.239   6.117  71.658  1.00  0.00    -0.342 C  
HETATM    4  C   UNL     1     -10.284   5.243  70.657  1.00  0.00    -0.257 C  
HETATM    5  O   UNL     1     -11.124   6.263  68.606  1.00  0.00    -0.334 OA 
HETATM    6  C   UNL     1      -8.689   5.691  71.198  1.00  0.00    -0.137 C  
HETATM    7  C   UNL     1      -9.123   7.021  71.899  1.00  0.00    -0.139 C  
HETATM    8  C   UNL     1      -9.542   2.883  68.920  1.00  0.00    -0.061 C  
HETATM    9  C   UNL     1      -7.207   6.112  70.809  1.00  0.00    -0.074 C  
HETATM   10  C   UNL     1      -6.188   5.428  69.933  1.00  0.00    -0.026 C  
HETATM   11  C   UNL     1     -10.567   5.295  69.126  1.00  0.00    -0.097 C  
HETATM   12  C   UNL     1      -6.328   4.968  64.864  1.00  0.00    -0.034 C  
HETATM   13  C   UNL     1     -10.108   4.110  68.258  1.00  0.00     0.145 C  
HETATM   14  C   UNL     1      -8.685   5.318  64.114  1.00  0.00    -0.017 C  
HETATM   15  C   UNL     1      -7.797   4.833  65.227  1.00  0.00    -0.091 C  
HETATM   16  C   UNL     1      -6.266   5.839  68.493  1.00  0.00    -0.029 C  
HETATM   17  C   UNL     1      -5.130   4.696  70.329  1.00  0.00     0.000 C  
HETATM   18  C   UNL     1      -9.939   4.365  66.930  1.00  0.00    -0.210 C  
HETATM   19  C   UNL     1      -8.646   4.005  66.241  1.00  0.00    -0.110 C  
HETATM   20  C   UNL     1      -6.875   4.691  67.755  1.00  0.00    -0.056 C  
HETATM   21  C   UNL     1      -7.820   5.158  66.694  1.00  0.00    -0.100 C  
ENDROOT
BRANCH   4  22
HETATM   22  O   UNL     1     -10.720   3.886  71.113  1.00  0.00     0.555 OA 
BRANCH  22  23
HETATM   23  C   UNL     1     -10.071   3.405  72.239  1.00  0.00    -0.149 C  
HETATM   24  C   UNL     1     -11.007   3.175  73.385  1.00  0.00    -0.302 C  
HETATM   25  O   UNL     1      -8.882   3.119  72.314  1.00  0.00    -0.084 OA 
ENDBRANCH  22  23
ENDBRANCH   4  22
BRANCH   7  26
HETATM   26  O   UNL     1      -9.611   7.885  70.751  1.00  0.00    -0.164 OA 
BRANCH  26  27
HETATM   27  C   UNL     1      -9.410   9.237  70.703  1.00  0.00    -0.270 C  
HETATM   28  O   UNL     1      -8.718   9.854  71.503  1.00  0.00     0.584 OA 
BRANCH  27  29
HETATM   29  C   UNL     1      -9.878   9.882  69.409  1.00  0.00    -0.231 A  
HETATM   30  C   UNL     1      -9.309   9.436  68.190  1.00  0.00    -0.142 A  
HETATM   31  C   UNL     1     -10.845  10.880  69.342  1.00  0.00    -0.286 A  
HETATM   32  C   UNL     1     -11.262  11.401  68.097  1.00  0.00    -0.343 A  
HETATM   33  C   UNL     1      -9.748   9.929  66.947  1.00  0.00    -0.236 A  
HETATM   34  C   UNL     1     -10.721  10.917  66.902  1.00  0.00    -0.318 A  
ENDBRANCH  27  29
ENDBRANCH  26  27
ENDBRANCH   7  26
BRANCH   9  35
HETATM   35  O   UNL     1      -6.427   6.557  72.005  1.00  0.00    -0.052 OA 
BRANCH  35  36
HETATM   36  C   UNL     1      -5.965   7.834  72.158  1.00  0.00    -0.039 C  
HETATM   37  O   UNL     1      -5.666   8.603  71.284  1.00  0.00    -0.034 OA 
HETATM   38  C   UNL     1      -5.955   8.223  73.618  1.00  0.00    -0.098 C  
ENDBRANCH  35  36
ENDBRANCH   9  35
TORSDOF 7
ENDMDL
MODEL      104
REMARK 921   NORMALIZED FREE ENERGY PREDICTED BY IDOCK:   -2.56 KCAL/MOL
REMARK 922        TOTAL FREE ENERGY PREDICTED BY IDOCK:   -4.24 KCAL/MOL
REMARK 923 INTER-LIGAND FREE ENERGY PREDICTED BY IDOCK:   -5.25 KCAL/MOL
REMARK 924 INTRA-LIGAND FREE ENERGY PREDICTED BY IDOCK:    1.01 KCAL/MOL
REMARK 927      BINDING AFFINITY PREDICTED BY RF-SCORE:    0.00 PKD
ROOT
HETATM    1  C   UNL     1      -8.455   5.509  68.471  1.00  0.00    -0.100 C  
HETATM    2  C   UNL     1      -9.064   6.885  68.593  1.00  0.00    -0.131 C  
HETATM    3  C   UNL     1     -10.493   7.333  68.760  1.00  0.00    -0.214 C  
HETATM    4  C   UNL     1     -10.315   8.843  68.154  1.00  0.00    -0.212 C  
HETATM    5  O   UNL     1     -11.754   9.913  69.809  1.00  0.00    -0.152 OA 
HETATM    6  C   UNL     1      -8.594   9.085  68.290  1.00  0.00    -0.130 C  
HETATM    7  C   UNL     1      -8.360   7.985  69.377  1.00  0.00    -0.131 C  
HETATM    8  C   UNL     1     -10.981  11.194  66.376  1.00  0.00    -0.248 C  
HETATM    9  C   UNL     1      -7.402  10.057  68.689  1.00  0.00    -0.081 C  
HETATM   10  C   UNL     1      -7.071  11.451  68.220  1.00  0.00    -0.078 C  
HETATM   11  C   UNL     1     -11.247   9.972  68.688  1.00  0.00    -0.121 C  
HETATM   12  C   UNL     1      -9.605  15.729  69.321  1.00  0.00    -0.270 C  
HETATM   13  C   UNL     1     -11.505  11.192  67.787  1.00  0.00    -0.349 C  
HETATM   14  C   UNL     1     -11.904  15.102  70.069  1.00  0.00    -0.361 C  
HETATM   15  C   UNL     1     -10.736  14.722  69.201  1.00  0.00    -0.258 C  
HETATM   16  C   UNL     1      -7.706  12.526  69.051  1.00  0.00     0.186 C  
HETATM   17  C   UNL     1      -6.136  11.811  67.321  1.00  0.00    -0.124 C  
HETATM   18  C   UNL     1     -11.909  12.331  68.416  1.00  0.00    -0.358 C  
HETATM   19  C   UNL     1     -11.186  13.634  68.177  1.00  0.00    -0.303 C  
HETATM   20  C   UNL     1      -8.818  13.097  68.231  1.00  0.00    -0.175 C  
HETATM   21  C   UNL     1     -10.015  13.409  69.070  1.00  0.00     0.152 C  
ENDROOT
BRANCH   4  22
HETATM   22  O   UNL     1     -10.778   8.546  66.763  1.00  0.00    -0.238 OA 
BRANCH  22  23
HETATM   23  C   UNL     1      -9.788   8.133  65.887  1.00  0.00     0.262 C  
HETATM   24  C   UNL     1      -9.096   9.284  65.221  1.00  0.00    -0.271 C  
HETATM   25  O   UNL     1      -9.435   6.976  65.697  1.00  0.00     0.191 OA 
ENDBRANCH  22  23
ENDBRANCH   4  22
BRANCH   7  26
HETATM   26  O   UNL     1      -9.117   8.509  70.583  1.00  0.00    -0.144 OA 
BRANCH  26  27
HETATM   27  C   UNL     1      -8.797   8.165  71.867  1.00  0.00    -0.159 C  
HETATM   28  O   UNL     1      -8.072   8.832  72.593  1.00  0.00    -0.390 OA 
BRANCH  27  29
HETATM   29  C   UNL     1      -9.642   7.032  72.428  1.00  0.00    -0.163 A  
HETATM   30  C   UNL     1      -8.991   5.835  72.814  1.00  0.00    -0.127 A  
HETATM   31  C   UNL     1     -11.021   7.102  72.599  1.00  0.00    -0.325 A  
HETATM   32  C   UNL     1     -11.733   6.024  73.170  1.00  0.00     0.247 A  
HETATM   33  C   UNL     1      -9.694   4.773  73.414  1.00  0.00    -0.153 A  
HETATM   34  C   UNL     1     -11.067   4.866  73.586  1.00  0.00    -0.370 A  
ENDBRANCH  27  29
ENDBRANCH  26  27
ENDBRANCH   7  26
BRANCH   9  35
HETATM   35  O   UNL     1      -6.086   9.345  68.688  1.00  0.00    -0.044 OA 
BRANCH  35  36
HETATM   36  C   UNL     1      -5.790   8.330  67.821  1.00  0.00    -0.043 C  
HETATM   37  O   UNL     1      -5.945   8.332  66.629  1.00  0.00    -0.049 OA 
HETATM   38  C   UNL     1      -5.132   7.184  68.552  1.00  0.00    -0.016 C  
ENDBRANCH  35  36
ENDBRANCH   9  35
TORSDOF 7
ENDMDL
MODEL      105
REMARK 921   NORMALIZED FREE ENERGY PREDICTED BY IDOCK:   -2.46 KCAL/MOL
REMARK 922        TOTAL FREE ENERGY PREDICTED BY IDOCK:   -4.10 KCAL/MOL
REMARK 923 INTER-LIGAND FREE ENERGY PREDICTED BY IDOCK:   -6.03 KCAL/MOL
REMARK 924 INTRA-LIGAND FREE ENERGY PREDICTED BY IDOCK:    1.93 KCAL/MOL
REMARK 927      BINDING AFFINITY PREDICTED BY RF-SCORE:    0.00 PKD
ROOT
HETATM    1  C   UNL     1      -9.291  14.874  65.524  1.00  0.00     0.125 C  
HETATM    2  C   UNL     1      -8.856  13.939  66.627  1.00  0.00    -0.105 C  
HETATM    3  C   UNL     1      -7.690  13.992  67.579  1.00  0.00    -0.197 C  
HETATM    4  C   UNL     1      -7.612  12.391  67.909  1.00  0.00    -0.130 C  
HETATM    5  O   UNL     1      -7.157  12.681  70.289  1.00  0.00     0.719 OA 
HETATM    6  C   UNL     1      -9.201  11.849  67.442  1.00  0.00    -0.177 C  
HETATM    7  C   UNL     1      -9.883  13.255  67.520  1.00  0.00    -0.220 C  
HETATM    8  C   UNL     1      -6.266   9.700  68.203  1.00  0.00    -0.055 C  
HETATM    9  C   UNL     1     -10.472  10.960  67.786  1.00  0.00    -0.203 C  
HETATM   10  C   UNL     1     -10.590   9.487  68.089  1.00  0.00    -0.265 C  
HETATM   11  C   UNL     1      -7.079  11.946  69.304  1.00  0.00    -0.004 C  
HETATM   12  C   UNL     1      -9.016   7.097  72.301  1.00  0.00    -0.147 C  
HETATM   13  C   UNL     1      -6.468  10.539  69.436  1.00  0.00    -0.062 C  
HETATM   14  C   UNL     1      -7.319   8.541  73.429  1.00  0.00    -0.044 C  
HETATM   15  C   UNL     1      -7.929   8.141  72.113  1.00  0.00    -0.168 C  
HETATM   16  C   UNL     1     -10.456   9.166  69.547  1.00  0.00    -0.226 C  
HETATM   17  C   UNL     1     -11.003   8.513  67.258  1.00  0.00     0.118 C  
HETATM   18  C   UNL     1      -6.445  10.008  70.690  1.00  0.00    -0.098 C  
HETATM   19  C   UNL     1      -7.014   8.634  70.949  1.00  0.00    -0.064 C  
HETATM   20  C   UNL     1      -9.109   8.543  69.725  1.00  0.00    -0.153 C  
HETATM   21  C   UNL     1      -8.458   8.993  70.994  1.00  0.00    -0.254 C  
ENDROOT
BRANCH   4  22
HETATM   22  O   UNL     1      -6.539  12.045  66.925  1.00  0.00    -0.134 OA 
BRANCH  22  23
HETATM   23  C   UNL     1      -6.929  11.199  65.901  1.00  0.00     0.123 C  
HETATM   24  C   UNL     1      -5.765  10.680  65.113  1.00  0.00    -0.112 C  
HETATM   25  O   UNL     1      -8.075  10.832  65.670  1.00  0.00    -0.161 OA 
ENDBRANCH  22  23
ENDBRANCH   4  22
BRANCH   7  26
HETATM   26  O   UNL     1      -9.800  13.608  68.994  1.00  0.00    -0.037 OA 
BRANCH  26  27
HETATM   27  C   UNL     1     -10.557  14.594  69.563  1.00  0.00    -0.149 C  
HETATM   28  O   UNL     1     -10.570  15.756  69.177  1.00  0.00    -0.214 OA 
BRANCH  27  29
HETATM   29  C   UNL     1     -11.605  14.079  70.536  1.00  0.00    -0.171 A  
HETATM   30  C   UNL     1     -12.107  14.969  71.518  1.00  0.00    -0.403 A  
HETATM   31  C   UNL     1     -12.117  12.785  70.515  1.00  0.00    -0.369 A  
HETATM   32  C   UNL     1     -13.124  12.392  71.424  1.00  0.00    -0.299 A  
HETATM   33  C   UNL     1     -13.134  14.588  72.402  1.00  0.00    -0.487 A  
HETATM   34  C   UNL     1     -13.639  13.297  72.358  1.00  0.00    -0.694 A  
ENDBRANCH  27  29
ENDBRANCH  26  27
ENDBRANCH   7  26
BRANCH   9  35
HETATM   35  O   UNL     1     -11.609  11.237  66.854  1.00  0.00    -0.464 OA 
BRANCH  35  36
HETATM   36  C   UNL     1     -11.431  11.511  65.526  1.00  0.00    -0.004 C  
HETATM   37  O   UNL     1     -10.709  10.932  64.760  1.00  0.00    -0.292 OA 
HETATM   38  C   UNL     1     -12.356  12.623  65.087  1.00  0.00    -0.547 C  
ENDBRANCH  35  36
ENDBRANCH   9  35
TORSDOF 7
ENDMDL
MODEL      106
REMARK 921   NORMALIZED FREE ENERGY PREDICTED BY IDOCK:   -2.36 KCAL/MOL
REMARK 922        TOTAL FREE ENERGY PREDICTED BY IDOCK:   -3.96 KCAL/MOL
REMARK 923 INTER-LIGAND FREE ENERGY PREDICTED BY IDOCK:   -4.14 KCAL/MOL
REMARK 924 INTRA-LIGAND FREE ENERGY PREDICTED BY IDOCK:    0.17 KCAL/MOL
REMARK 927      BINDING AFFINITY PREDICTED BY RF-SCORE:    0.00 PKD
ROOT
HETATM    1  C   UNL     1      -6.807  11.559  69.827  1.00  0.00     0.010 C  
HETATM    2  C   UNL     1      -6.822  10.126  69.355  1.00  0.00    -0.070 C  
HETATM    3  C   UNL     1      -5.834   9.332  68.540  1.00  0.00    -0.041 C  
HETATM    4  C   UNL     1      -6.880   8.208  67.973  1.00  0.00    -0.073 C  
HETATM    5  O   UNL     1      -5.338   6.333  68.216  1.00  0.00    -0.007 OA 
HETATM    6  C   UNL     1      -8.196   8.335  69.109  1.00  0.00    -0.121 C  
HETATM    7  C   UNL     1      -7.365   9.016  70.246  1.00  0.00    -0.076 C  
HETATM    8  C   UNL     1      -8.244   6.529  65.862  1.00  0.00    -0.131 C  
HETATM    9  C   UNL     1      -9.260   7.587  70.021  1.00  0.00    -0.151 C  
HETATM   10  C   UNL     1     -10.303   6.555  69.672  1.00  0.00    -0.234 C  
HETATM   11  C   UNL     1      -6.338   6.783  67.655  1.00  0.00    -0.044 C  
HETATM   12  C   UNL     1      -9.486   1.701  68.368  1.00  0.00    -0.241 C  
HETATM   13  C   UNL     1      -7.100   5.924  66.630  1.00  0.00    -0.069 C  
HETATM   14  C   UNL     1      -7.116   1.486  67.611  1.00  0.00    -0.035 C  
HETATM   15  C   UNL     1      -8.306   2.400  67.714  1.00  0.00    -0.081 C  
HETATM   16  C   UNL     1      -9.805   5.145  69.774  1.00  0.00    -0.283 C  
HETATM   17  C   UNL     1     -11.624   6.753  69.504  1.00  0.00    -0.183 C  
HETATM   18  C   UNL     1      -6.907   4.578  66.710  1.00  0.00    -0.052 C  
HETATM   19  C   UNL     1      -8.086   3.640  66.793  1.00  0.00    -0.095 C  
HETATM   20  C   UNL     1      -9.627   4.653  68.374  1.00  0.00    -0.212 C  
HETATM   21  C   UNL     1      -8.404   3.805  68.239  1.00  0.00    -0.102 C  
ENDROOT
BRANCH   4  22
HETATM   22  O   UNL     1      -7.155   8.852  66.651  1.00  0.00    -0.082 OA 
BRANCH  22  23
HETATM   23  C   UNL     1      -6.202   9.764  66.229  1.00  0.00    -0.069 C  
HETATM   24  C   UNL     1      -5.273   9.188  65.205  1.00  0.00    -0.037 C  
HETATM   25  O   UNL     1      -6.131  10.937  66.573  1.00  0.00    -0.095 OA 
ENDBRANCH  22  23
ENDBRANCH   4  22
BRANCH   7  26
HETATM   26  O   UNL     1      -6.360   7.948  70.639  1.00  0.00    -0.037 OA 
BRANCH  26  27
HETATM   27  C   UNL     1      -6.275   7.440  71.906  1.00  0.00    -0.039 C  
HETATM   28  O   UNL     1      -5.973   8.103  72.889  1.00  0.00    -0.055 OA 
BRANCH  27  29
HETATM   29  C   UNL     1      -6.865   6.046  72.049  1.00  0.00    -0.072 A  
HETATM   30  C   UNL     1      -6.290   4.991  71.298  1.00  0.00    -0.026 A  
HETATM   31  C   UNL     1      -7.934   5.736  72.885  1.00  0.00    -0.108 A  
HETATM   32  C   UNL     1      -8.399   4.408  73.000  1.00  0.00    -0.095 A  
HETATM   33  C   UNL     1      -6.731   3.661  71.438  1.00  0.00    -0.027 A  
HETATM   34  C   UNL     1      -7.791   3.371  72.285  1.00  0.00    -0.059 A  
ENDBRANCH  27  29
ENDBRANCH  26  27
ENDBRANCH   7  26
BRANCH   9  35
HETATM   35  O   UNL     1      -9.971   8.537  70.933  1.00  0.00    -0.178 OA 
BRANCH  35  36
HETATM   36  C   UNL     1     -10.804   9.520  70.478  1.00  0.00    -0.292 C  
HETATM   37  O   UNL     1     -11.520  10.223  71.139  1.00  0.00    -0.341 OA 
HETATM   38  C   UNL     1     -10.652   9.695  68.985  1.00  0.00    -0.237 C  
ENDBRANCH  35  36
ENDBRANCH   9  35
TORSDOF 7
ENDMDL
MODEL      107
REMARK 921   NORMALIZED FREE ENERGY PREDICTED BY IDOCK:   -2.26 KCAL/MOL
REMARK 922        TOTAL FREE ENERGY PREDICTED BY IDOCK:   -3.82 KCAL/MOL
REMARK 923 INTER-LIGAND FREE ENERGY PREDICTED BY IDOCK:   -5.07 KCAL/MOL
REMARK 924 INTRA-LIGAND FREE ENERGY PREDICTED BY IDOCK:    1.25 KCAL/MOL
REMARK 927      BINDING AFFINITY PREDICTED BY RF-SCORE:    0.00 PKD
ROOT
HETATM    1  C   UNL     1      -9.870   9.905  64.731  1.00  0.00    -0.239 C  
HETATM    2  C   UNL     1      -9.838   9.238  66.085  1.00  0.00    -0.363 C  
HETATM    3  C   UNL     1     -10.761   9.341  67.271  1.00  0.00    -0.244 C  
HETATM    4  C   UNL     1      -9.688   8.876  68.417  1.00  0.00    -0.161 C  
HETATM    5  O   UNL     1     -11.280   7.514  69.668  1.00  0.00    -0.147 OA 
HETATM    6  C   UNL     1      -8.480   8.055  67.467  1.00  0.00    -0.127 C  
HETATM    7  C   UNL     1      -9.399   7.786  66.230  1.00  0.00    -0.151 C  
HETATM    8  C   UNL     1      -8.167   9.098  71.020  1.00  0.00    -0.186 C  
HETATM    9  C   UNL     1      -7.518   6.800  67.312  1.00  0.00    -0.096 C  
HETATM   10  C   UNL     1      -6.466   6.245  68.240  1.00  0.00    -0.053 C  
HETATM   11  C   UNL     1     -10.225   8.150  69.686  1.00  0.00    -0.205 C  
HETATM   12  C   UNL     1      -7.249   3.845  72.662  1.00  0.00    -0.058 C  
HETATM   13  C   UNL     1      -9.388   8.219  70.976  1.00  0.00    -0.196 C  
HETATM   14  C   UNL     1      -9.543   4.419  73.465  1.00  0.00    -0.135 C  
HETATM   15  C   UNL     1      -8.351   4.891  72.679  1.00  0.00    -0.116 C  
HETATM   16  C   UNL     1      -6.997   5.227  69.203  1.00  0.00    -0.056 C  
HETATM   17  C   UNL     1      -5.132   6.399  68.148  1.00  0.00    -0.007 C  
HETATM   18  C   UNL     1      -9.612   7.236  71.892  1.00  0.00    -0.164 C  
HETATM   19  C   UNL     1      -8.462   6.429  72.445  1.00  0.00    -0.120 C  
HETATM   20  C   UNL     1      -7.054   5.893  70.540  1.00  0.00    -0.071 C  
HETATM   21  C   UNL     1      -8.276   5.492  71.303  1.00  0.00    -0.125 C  
ENDROOT
BRANCH   4  22
HETATM   22  O   UNL     1      -9.281  10.245  68.864  1.00  0.00    -0.156 OA 
BRANCH  22  23
HETATM   23  C   UNL     1      -8.264  10.828  68.126  1.00  0.00    -0.119 C  
HETATM   24  C   UNL     1      -8.679  12.127  67.505  1.00  0.00    -0.173 C  
HETATM   25  O   UNL     1      -7.120  10.404  68.022  1.00  0.00    -0.080 OA 
ENDBRANCH  22  23
ENDBRANCH   4  22
BRANCH   7  26
HETATM   26  O   UNL     1     -10.455   6.840  66.772  1.00  0.00    -0.248 OA 
BRANCH  26  27
HETATM   27  C   UNL     1     -10.167   5.572  67.196  1.00  0.00    -0.218 C  
HETATM   28  O   UNL     1     -10.187   5.223  68.369  1.00  0.00    -0.170 OA 
BRANCH  27  29
HETATM   29  C   UNL     1     -10.099   4.549  66.074  1.00  0.00    -0.282 A  
HETATM   30  C   UNL     1     -10.838   4.798  64.891  1.00  0.00     0.235 A  
HETATM   31  C   UNL     1      -9.342   3.383  66.129  1.00  0.00    -0.151 A  
HETATM   32  C   UNL     1      -9.292   2.501  65.028  1.00  0.00    -0.100 A  
HETATM   33  C   UNL     1     -10.762   3.937  63.779  1.00  0.00    -0.193 A  
HETATM   34  C   UNL     1      -9.993   2.785  63.851  1.00  0.00    -0.155 A  
ENDBRANCH  27  29
ENDBRANCH  26  27
ENDBRANCH   7  26
BRANCH   9  35
HETATM   35  O   UNL     1      -6.876   6.759  65.961  1.00  0.00    -0.060 OA 
BRANCH  35  36
HETATM   36  C   UNL     1      -7.042   5.718  65.090  1.00  0.00    -0.064 C  
HETATM   37  O   UNL     1      -7.691   5.719  64.079  1.00  0.00    -0.086 OA 
HETATM   38  C   UNL     1      -6.203   4.535  65.515  1.00  0.00    -0.031 C  
ENDBRANCH  35  36
ENDBRANCH   9  35
TORSDOF 7
ENDMDL
MODEL      108
REMARK 921   NORMALIZED FREE ENERGY PREDICTED BY IDOCK:   -2.19 KCAL/MOL
REMARK 922        TOTAL FREE ENERGY PREDICTED BY IDOCK:   -3.73 KCAL/MOL
REMARK 923 INTER-LIGAND FREE ENERGY PREDICTED BY IDOCK:   -3.67 KCAL/MOL
REMARK 924 INTRA-LIGAND FREE ENERGY PREDICTED BY IDOCK:   -0.06 KCAL/MOL
REMARK 927      BINDING AFFINITY PREDICTED BY RF-SCORE:    0.00 PKD
ROOT
HETATM    1  C   UNL     1      -5.778  12.428  71.019  1.00  0.00     0.041 C  
HETATM    2  C   UNL     1      -6.102  11.305  70.062  1.00  0.00    -0.142 C  
HETATM    3  C   UNL     1      -5.447  10.868  68.778  1.00  0.00    -0.040 C  
HETATM    4  C   UNL     1      -6.742  10.108  68.128  1.00  0.00    -0.062 C  
HETATM    5  O   UNL     1      -5.465   8.234  67.226  1.00  0.00    -0.036 OA 
HETATM    6  C   UNL     1      -7.734   9.820  69.532  1.00  0.00    -0.120 C  
HETATM    7  C   UNL     1      -6.578   9.953  70.577  1.00  0.00    -0.120 C  
HETATM    8  C   UNL     1      -8.774   9.471  65.981  1.00  0.00    -0.166 C  
HETATM    9  C   UNL     1      -8.657   8.810  70.340  1.00  0.00    -0.163 C  
HETATM   10  C   UNL     1      -9.886   8.047  69.917  1.00  0.00    -0.186 C  
HETATM   11  C   UNL     1      -6.493   8.910  67.163  1.00  0.00    -0.061 C  
HETATM   12  C   UNL     1     -10.079   4.096  66.710  1.00  0.00    -0.034 C  
HETATM   13  C   UNL     1      -7.581   8.565  66.131  1.00  0.00    -0.089 C  
HETATM   14  C   UNL     1      -7.998   4.111  65.328  1.00  0.00    -0.097 C  
HETATM   15  C   UNL     1      -8.993   4.952  66.081  1.00  0.00    -0.125 C  
HETATM   16  C   UNL     1      -9.582   6.696  69.342  1.00  0.00    -0.148 C  
HETATM   17  C   UNL     1     -11.169   8.346  70.192  1.00  0.00    -0.136 C  
HETATM   18  C   UNL     1      -7.567   7.294  65.642  1.00  0.00    -0.089 C  
HETATM   19  C   UNL     1      -8.816   6.448  65.674  1.00  0.00    -0.071 C  
HETATM   20  C   UNL     1      -9.799   6.801  67.867  1.00  0.00    -0.146 C  
HETATM   21  C   UNL     1      -8.770   6.031  67.103  1.00  0.00    -0.109 C  
ENDROOT
BRANCH   4  22
HETATM   22  O   UNL     1      -7.218  11.238  67.271  1.00  0.00    -0.099 OA 
BRANCH  22  23
HETATM   23  C   UNL     1      -7.646  12.361  67.960  1.00  0.00    -0.128 C  
HETATM   24  C   UNL     1      -6.814  13.570  67.657  1.00  0.00    -0.178 C  
HETATM   25  O   UNL     1      -8.628  12.424  68.689  1.00  0.00    -0.095 OA 
ENDBRANCH  22  23
ENDBRANCH   4  22
BRANCH   7  26
HETATM   26  O   UNL     1      -5.671   8.780  70.256  1.00  0.00    -0.027 OA 
BRANCH  26  27
HETATM   27  C   UNL     1      -5.442   7.757  71.135  1.00  0.00    -0.030 C  
HETATM   28  O   UNL     1      -5.138   7.921  72.310  1.00  0.00    -0.035 OA 
BRANCH  27  29
HETATM   29  C   UNL     1      -5.874   6.395  70.619  1.00  0.00    -0.023 A  
HETATM   30  C   UNL     1      -5.955   6.200  69.218  1.00  0.00    -0.024 A  
HETATM   31  C   UNL     1      -6.185   5.315  71.439  1.00  0.00    -0.030 A  
HETATM   32  C   UNL     1      -6.536   4.064  70.885  1.00  0.00    -0.031 A  
HETATM   33  C   UNL     1      -6.271   4.945  68.664  1.00  0.00    -0.031 A  
HETATM   34  C   UNL     1      -6.568   3.878  69.499  1.00  0.00    -0.034 A  
ENDBRANCH  27  29
ENDBRANCH  26  27
ENDBRANCH   7  26
BRANCH   9  35
HETATM   35  O   UNL     1      -9.000   9.341  71.696  1.00  0.00    -0.311 OA 
BRANCH  35  36
HETATM   36  C   UNL     1      -8.642   8.709  72.854  1.00  0.00     0.072 C  
HETATM   37  O   UNL     1      -7.777   9.041  73.619  1.00  0.00    -0.277 OA 
HETATM   38  C   UNL     1      -9.561   7.540  73.125  1.00  0.00    -0.286 C  
ENDBRANCH  35  36
ENDBRANCH   9  35
TORSDOF 7
ENDMDL
MODEL      109
REMARK 921   NORMALIZED FREE ENERGY PREDICTED BY IDOCK:   -1.86 KCAL/MOL
REMARK 922        TOTAL FREE ENERGY PREDICTED BY IDOCK:   -3.25 KCAL/MOL
REMARK 923 INTER-LIGAND FREE ENERGY PREDICTED BY IDOCK:   -4.08 KCAL/MOL
REMARK 924 INTRA-LIGAND FREE ENERGY PREDICTED BY IDOCK:    0.82 KCAL/MOL
REMARK 927      BINDING AFFINITY PREDICTED BY RF-SCORE:    0.00 PKD
ROOT
HETATM    1  C   UNL     1      -9.286  10.604  64.805  1.00  0.00    -0.255 C  
HETATM    2  C   UNL     1      -9.478   9.683  65.986  1.00  0.00    -0.284 C  
HETATM    3  C   UNL     1     -10.724   9.155  66.649  1.00  0.00    -0.049 C  
HETATM    4  C   UNL     1     -10.067   8.841  68.115  1.00  0.00    -0.190 C  
HETATM    5  O   UNL     1     -11.261   6.737  68.442  1.00  0.00    -0.174 OA 
HETATM    6  C   UNL     1      -8.367   8.765  67.740  1.00  0.00    -0.118 C  
HETATM    7  C   UNL     1      -8.549   8.496  66.210  1.00  0.00    -0.129 C  
HETATM    8  C   UNL     1      -9.878   8.948  71.130  1.00  0.00    -0.345 C  
HETATM    9  C   UNL     1      -6.980   8.016  67.939  1.00  0.00    -0.078 C  
HETATM   10  C   UNL     1      -6.222   7.666  69.195  1.00  0.00    -0.035 C  
HETATM   11  C   UNL     1     -10.671   7.683  68.966  1.00  0.00    -0.119 C  
HETATM   12  C   UNL     1      -7.484   4.142  72.646  1.00  0.00    -0.073 C  
HETATM   13  C   UNL     1     -10.491   7.730  70.494  1.00  0.00    -0.217 C  
HETATM   14  C   UNL     1      -9.919   3.642  72.396  1.00  0.00    -0.235 C  
HETATM   15  C   UNL     1      -8.846   4.686  72.248  1.00  0.00    -0.133 C  
HETATM   16  C   UNL     1      -6.582   6.322  69.754  1.00  0.00    -0.044 C  
HETATM   17  C   UNL     1      -5.155   8.305  69.710  1.00  0.00    -0.023 C  
HETATM   18  C   UNL     1     -10.596   6.540  71.149  1.00  0.00    -0.271 C  
HETATM   19  C   UNL     1      -9.509   6.089  72.094  1.00  0.00    -0.158 C  
HETATM   20  C   UNL     1      -7.411   6.575  70.972  1.00  0.00    -0.085 C  
HETATM   21  C   UNL     1      -8.530   5.590  71.090  1.00  0.00    -0.126 C  
ENDROOT
BRANCH   4  22
HETATM   22  O   UNL     1     -10.484  10.111  68.788  1.00  0.00    -0.184 OA 
BRANCH  22  23
HETATM   23  C   UNL     1     -11.839  10.392  68.729  1.00  0.00     0.073 C  
HETATM   24  C   UNL     1     -12.577   9.908  69.939  1.00  0.00     0.373 C  
HETATM   25  O   UNL     1     -12.402  11.023  67.843  1.00  0.00    -0.196 OA 
ENDBRANCH  22  23
ENDBRANCH   4  22
BRANCH   7  26
HETATM   26  O   UNL     1      -9.216   7.133  66.166  1.00  0.00    -0.155 OA 
BRANCH  26  27
HETATM   27  C   UNL     1      -8.636   6.043  65.577  1.00  0.00    -0.143 C  
HETATM   28  O   UNL     1      -9.133   4.925  65.571  1.00  0.00    -0.147 OA 
BRANCH  27  29
HETATM   29  C   UNL     1      -7.458   6.384  64.678  1.00  0.00    -0.091 A  
HETATM   30  C   UNL     1      -6.351   5.500  64.654  1.00  0.00    -0.030 A  
HETATM   31  C   UNL     1      -7.402   7.511  63.863  1.00  0.00    -0.092 A  
HETATM   32  C   UNL     1      -6.293   7.738  63.019  1.00  0.00    -0.067 A  
HETATM   33  C   UNL     1      -5.260   5.707  63.789  1.00  0.00    -0.013 A  
HETATM   34  C   UNL     1      -5.229   6.831  62.976  1.00  0.00    -0.031 A  
ENDBRANCH  27  29
ENDBRANCH  26  27
ENDBRANCH   7  26
BRANCH   9  35
HETATM   35  O   UNL     1      -5.932   8.539  67.009  1.00  0.00    -0.051 OA 
BRANCH  35  36
HETATM   36  C   UNL     1      -5.716   9.874  66.807  1.00  0.00    -0.050 C  
HETATM   37  O   UNL     1      -5.532  10.711  67.650  1.00  0.00    -0.043 OA 
HETATM   38  C   UNL     1      -5.644  10.182  65.330  1.00  0.00    -0.089 C  
ENDBRANCH  35  36
ENDBRANCH   9  35
TORSDOF 7
ENDMDL
MODEL      110
REMARK 921   NORMALIZED FREE ENERGY PREDICTED BY IDOCK:   -1.63 KCAL/MOL
REMARK 922        TOTAL FREE ENERGY PREDICTED BY IDOCK:   -2.93 KCAL/MOL
REMARK 923 INTER-LIGAND FREE ENERGY PREDICTED BY IDOCK:   -6.90 KCAL/MOL
REMARK 924 INTRA-LIGAND FREE ENERGY PREDICTED BY IDOCK:    3.97 KCAL/MOL
REMARK 927      BINDING AFFINITY PREDICTED BY RF-SCORE:    0.00 PKD
ROOT
HETATM    1  C   UNL     1     -11.768  11.969  66.258  1.00  0.00    -0.319 C  
HETATM    2  C   UNL     1     -11.147  13.236  66.793  1.00  0.00    -0.313 C  
HETATM    3  C   UNL     1     -11.702  14.627  66.963  1.00  0.00    -0.379 C  
HETATM    4  C   UNL     1     -10.275  15.429  66.946  1.00  0.00    -0.273 C  
HETATM    5  O   UNL     1     -10.883  16.992  68.719  1.00  0.00    -0.322 OA 
HETATM    6  C   UNL     1      -9.143  14.160  67.329  1.00  0.00    -0.218 C  
HETATM    7  C   UNL     1     -10.191  13.197  67.979  1.00  0.00    -0.233 C  
HETATM    8  C   UNL     1      -8.316  17.549  66.048  1.00  0.00    -0.116 C  
HETATM    9  C   UNL     1      -7.868  13.703  68.160  1.00  0.00    -0.143 C  
HETATM   10  C   UNL     1      -6.485  14.297  68.246  1.00  0.00    -0.116 C  
HETATM   11  C   UNL     1     -10.163  16.761  67.746  1.00  0.00    -0.303 C  
HETATM   12  C   UNL     1      -5.168  18.660  70.518  1.00  0.00    -0.240 C  
HETATM   13  C   UNL     1      -9.103  17.788  67.309  1.00  0.00    -0.246 C  
HETATM   14  C   UNL     1      -7.220  20.061  70.765  1.00  0.00     0.695 C  
HETATM   15  C   UNL     1      -6.528  19.011  69.940  1.00  0.00    -0.137 C  
HETATM   16  C   UNL     1      -6.342  15.320  69.333  1.00  0.00    -0.135 C  
HETATM   17  C   UNL     1      -5.370  13.866  67.628  1.00  0.00     0.057 C  
HETATM   18  C   UNL     1      -8.710  18.687  68.254  1.00  0.00    -0.349 C  
HETATM   19  C   UNL     1      -7.245  18.883  68.561  1.00  0.00    -0.320 C  
HETATM   20  C   UNL     1      -6.286  16.653  68.659  1.00  0.00    -0.148 C  
HETATM   21  C   UNL     1      -7.036  17.691  69.430  1.00  0.00    -0.033 C  
ENDROOT
BRANCH   4  22
HETATM   22  O   UNL     1     -10.289  15.813  65.500  1.00  0.00    -0.355 OA 
BRANCH  22  23
HETATM   23  C   UNL     1     -11.138  15.066  64.700  1.00  0.00    -0.321 C  
HETATM   24  C   UNL     1     -10.636  13.672  64.478  1.00  0.00    -0.428 C  
HETATM   25  O   UNL     1     -12.218  15.438  64.258  1.00  0.00    -0.524 OA 
ENDBRANCH  22  23
ENDBRANCH   4  22
BRANCH   7  26
HETATM   26  O   UNL     1     -10.654  13.954  69.210  1.00  0.00    -0.164 OA 
BRANCH  26  27
HETATM   27  C   UNL     1     -11.805  13.646  69.881  1.00  0.00    -0.320 C  
HETATM   28  O   UNL     1     -12.781  14.382  69.937  1.00  0.00    -0.263 OA 
BRANCH  27  29
HETATM   29  C   UNL     1     -11.892  12.192  70.316  1.00  0.00    -0.339 A  
HETATM   30  C   UNL     1     -13.009  11.786  71.087  1.00  0.00    -0.282 A  
HETATM   31  C   UNL     1     -10.945  11.225  69.993  1.00  0.00    -0.000 A  
HETATM   32  C   UNL     1     -11.117   9.883  70.395  1.00  0.00    -0.382 A  
HETATM   33  C   UNL     1     -13.199  10.442  71.459  1.00  0.00    -0.485 A  
HETATM   34  C   UNL     1     -12.248   9.491  71.118  1.00  0.00    -0.421 A  
ENDBRANCH  27  29
ENDBRANCH  26  27
ENDBRANCH   7  26
BRANCH   9  35
HETATM   35  O   UNL     1      -7.631  12.231  68.042  1.00  0.00    -0.106 OA 
BRANCH  35  36
HETATM   36  C   UNL     1      -7.412  11.424  69.123  1.00  0.00    -0.057 C  
HETATM   37  O   UNL     1      -7.725  11.642  70.262  1.00  0.00     1.195 OA 
HETATM   38  C   UNL     1      -6.778  10.121  68.692  1.00  0.00    -0.057 C  
ENDBRANCH  35  36
ENDBRANCH   9  35
TORSDOF 7
ENDMDL
MODEL      111
REMARK 921   NORMALIZED FREE ENERGY PREDICTED BY IDOCK:   -1.61 KCAL/MOL
REMARK 922        TOTAL FREE ENERGY PREDICTED BY IDOCK:   -2.90 KCAL/MOL
REMARK 923 INTER-LIGAND FREE ENERGY PREDICTED BY IDOCK:   -4.98 KCAL/MOL
REMARK 924 INTRA-LIGAND FREE ENERGY PREDICTED BY IDOCK:    2.08 KCAL/MOL
REMARK 927      BINDING AFFINITY PREDICTED BY RF-SCORE:    0.00 PKD
ROOT
HETATM    1  C   UNL     1      -9.292  14.728  65.383  1.00  0.00     0.335 C  
HETATM    2  C   UNL     1      -8.808  13.819  66.487  1.00  0.00    -0.006 C  
HETATM    3  C   UNL     1      -7.581  13.874  67.361  1.00  0.00    -0.160 C  
HETATM    4  C   UNL     1      -7.519  12.283  67.740  1.00  0.00    -0.126 C  
HETATM    5  O   UNL     1      -6.903  12.640  70.075  1.00  0.00     0.214 OA 
HETATM    6  C   UNL     1      -9.148  11.766  67.395  1.00  0.00    -0.175 C  
HETATM    7  C   UNL     1      -9.790  13.191  67.468  1.00  0.00    -0.216 C  
HETATM    8  C   UNL     1      -6.220   9.570  68.040  1.00  0.00    -0.056 C  
HETATM    9  C   UNL     1     -10.414  10.922  67.852  1.00  0.00    -0.195 C  
HETATM   10  C   UNL     1     -10.547   9.464  68.212  1.00  0.00    -0.256 C  
HETATM   11  C   UNL     1      -6.907  11.871  69.112  1.00  0.00    -0.099 C  
HETATM   12  C   UNL     1      -8.757   7.175  72.394  1.00  0.00    -0.138 C  
HETATM   13  C   UNL     1      -6.321  10.454  69.254  1.00  0.00    -0.048 C  
HETATM   14  C   UNL     1      -6.957   8.612  73.360  1.00  0.00     0.007 C  
HETATM   15  C   UNL     1      -7.660   8.184  72.101  1.00  0.00    -0.142 C  
HETATM   16  C   UNL     1     -10.325   9.188  69.669  1.00  0.00    -0.226 C  
HETATM   17  C   UNL     1     -11.035   8.473  67.444  1.00  0.00     0.111 C  
HETATM   18  C   UNL     1      -6.229   9.964  70.522  1.00  0.00    -0.101 C  
HETATM   19  C   UNL     1      -6.812   8.615  70.864  1.00  0.00    -0.061 C  
HETATM   20  C   UNL     1      -8.984   8.537  69.782  1.00  0.00    -0.145 C  
HETATM   21  C   UNL     1      -8.242   9.012  70.989  1.00  0.00    -0.220 C  
ENDROOT
BRANCH   4  22
HETATM   22  O   UNL     1      -6.521  11.877  66.702  1.00  0.00    -0.086 OA 
BRANCH  22  23
HETATM   23  C   UNL     1      -7.009  11.045  65.708  1.00  0.00     0.094 C  
HETATM   24  C   UNL     1      -5.971  10.710  64.681  1.00  0.00     0.001 C  
HETATM   25  O   UNL     1      -8.132  10.557  65.669  1.00  0.00    -0.156 OA 
ENDBRANCH  22  23
ENDBRANCH   4  22
BRANCH   7  26
HETATM   26  O   UNL     1      -9.602  13.591  68.920  1.00  0.00    -0.043 OA 
BRANCH  26  27
HETATM   27  C   UNL     1     -10.265  14.642  69.491  1.00  0.00    -0.022 C  
HETATM   28  O   UNL     1     -11.019  14.536  70.450  1.00  0.00    -0.082 OA 
BRANCH  27  29
HETATM   29  C   UNL     1      -9.774  16.003  69.027  1.00  0.00    -0.244 A  
HETATM   30  C   UNL     1     -10.731  16.949  68.583  1.00  0.00    -0.345 A  
HETATM   31  C   UNL     1      -8.436  16.387  69.020  1.00  0.00    -0.225 A  
HETATM   32  C   UNL     1      -8.060  17.687  68.616  1.00  0.00    -0.269 A  
HETATM   33  C   UNL     1     -10.361  18.256  68.213  1.00  0.00    -0.379 A  
HETATM   34  C   UNL     1      -9.023  18.622  68.224  1.00  0.00    -0.344 A  
ENDBRANCH  27  29
ENDBRANCH  26  27
ENDBRANCH   7  26
BRANCH   9  35
HETATM   35  O   UNL     1     -11.602  11.197  66.985  1.00  0.00    -0.463 OA 
BRANCH  35  36
HETATM   36  C   UNL     1     -11.497  11.519  65.661  1.00  0.00    -0.005 C  
HETATM   37  O   UNL     1     -10.835  10.956  64.831  1.00  0.00    -0.227 OA 
HETATM   38  C   UNL     1     -12.423  12.664  65.319  1.00  0.00    -0.483 C  
ENDBRANCH  35  36
ENDBRANCH   9  35
TORSDOF 7
ENDMDL
MODEL      112
REMARK 921   NORMALIZED FREE ENERGY PREDICTED BY IDOCK:   -1.59 KCAL/MOL
REMARK 922        TOTAL FREE ENERGY PREDICTED BY IDOCK:   -2.88 KCAL/MOL
REMARK 923 INTER-LIGAND FREE ENERGY PREDICTED BY IDOCK:   -1.95 KCAL/MOL
REMARK 924 INTRA-LIGAND FREE ENERGY PREDICTED BY IDOCK:   -0.93 KCAL/MOL
REMARK 927      BINDING AFFINITY PREDICTED BY RF-SCORE:    0.00 PKD
ROOT
HETATM    1  C   UNL     1     -10.256   7.788  68.577  1.00  0.00    -0.227 C  
HETATM    2  C   UNL     1     -10.319   9.295  68.640  1.00  0.00    -0.229 C  
HETATM    3  C   UNL     1     -10.575  10.237  69.788  1.00  0.00    -0.312 C  
HETATM    4  C   UNL     1     -11.105  11.509  68.905  1.00  0.00    -0.232 C  
HETATM    5  O   UNL     1      -9.942  13.195  70.232  1.00  0.00     2.459 OA 
HETATM    6  C   UNL     1     -10.474  11.138  67.323  1.00  0.00    -0.263 C  
HETATM    7  C   UNL     1      -9.365  10.152  67.817  1.00  0.00    -0.141 C  
HETATM    8  C   UNL     1     -13.003  13.735  68.142  1.00  0.00     1.994 C  
HETATM    9  C   UNL     1      -9.747  11.660  66.011  1.00  0.00    -0.232 C  
HETATM   10  C   UNL     1     -10.100  12.786  65.071  1.00  0.00    -0.239 C  
HETATM   11  C   UNL     1     -10.867  12.946  69.457  1.00  0.00     0.215 C  
HETATM   12  C   UNL     1      -9.790  17.777  66.030  1.00  0.00    -0.181 C  
HETATM   13  C   UNL     1     -11.806  14.073  68.989  1.00  0.00    -0.391 C  
HETATM   14  C   UNL     1      -9.744  18.094  68.507  1.00  0.00    -0.372 C  
HETATM   15  C   UNL     1     -10.233  17.231  67.376  1.00  0.00    -0.325 C  
HETATM   16  C   UNL     1      -9.492  14.100  65.461  1.00  0.00     0.105 C  
HETATM   17  C   UNL     1     -10.689  12.689  63.865  1.00  0.00    -0.465 C  
HETATM   18  C   UNL     1     -11.323  15.342  69.095  1.00  0.00    -0.323 C  
HETATM   19  C   UNL     1     -11.342  16.269  67.904  1.00  0.00    -0.141 C  
HETATM   20  C   UNL     1     -10.600  14.935  66.015  1.00  0.00    -0.321 C  
HETATM   21  C   UNL     1     -10.147  15.742  67.189  1.00  0.00    -0.251 C  
ENDROOT
BRANCH   4  22
HETATM   22  O   UNL     1     -12.571  11.246  69.051  1.00  0.00    -0.332 OA 
BRANCH  22  23
HETATM   23  C   UNL     1     -12.963  10.763  70.288  1.00  0.00    -0.071 C  
HETATM   24  C   UNL     1     -13.119  11.853  71.305  1.00  0.00    -0.228 C  
HETATM   25  O   UNL     1     -13.231   9.598  70.551  1.00  0.00    -0.021 OA 
ENDBRANCH  22  23
ENDBRANCH   4  22
BRANCH   7  26
HETATM   26  O   UNL     1      -8.433  11.040  68.621  1.00  0.00    -0.145 OA 
BRANCH  26  27
HETATM   27  C   UNL     1      -7.108  11.191  68.316  1.00  0.00    -0.073 C  
HETATM   28  O   UNL     1      -6.450  10.365  67.697  1.00  0.00    -0.057 OA 
BRANCH  27  29
HETATM   29  C   UNL     1      -6.579  12.596  68.556  1.00  0.00    -0.081 A  
HETATM   30  C   UNL     1      -5.974  12.884  69.804  1.00  0.00    -0.129 A  
HETATM   31  C   UNL     1      -6.641  13.621  67.616  1.00  0.00    -0.176 A  
HETATM   32  C   UNL     1      -6.087  14.890  67.895  1.00  0.00    -0.169 A  
HETATM   33  C   UNL     1      -5.391  14.137  70.070  1.00  0.00    -0.098 A  
HETATM   34  C   UNL     1      -5.454  15.143  69.116  1.00  0.00    -0.094 A  
ENDBRANCH  27  29
ENDBRANCH  26  27
ENDBRANCH   7  26
BRANCH   9  35
HETATM   35  O   UNL     1      -9.363  10.532  65.106  1.00  0.00    -0.185 OA 
BRANCH  35  36
HETATM   36  C   UNL     1      -8.073  10.102  64.960  1.00  0.00    -0.149 C  
HETATM   37  O   UNL     1      -7.090  10.788  64.875  1.00  0.00     0.059 OA 
HETATM   38  C   UNL     1      -8.008   8.593  65.008  1.00  0.00    -0.131 C  
ENDBRANCH  35  36
ENDBRANCH   9  35
TORSDOF 7
ENDMDL
MODEL      113
REMARK 921   NORMALIZED FREE ENERGY PREDICTED BY IDOCK:   -1.56 KCAL/MOL
REMARK 922        TOTAL FREE ENERGY PREDICTED BY IDOCK:   -2.83 KCAL/MOL
REMARK 923 INTER-LIGAND FREE ENERGY PREDICTED BY IDOCK:   -5.01 KCAL/MOL
REMARK 924 INTRA-LIGAND FREE ENERGY PREDICTED BY IDOCK:    2.18 KCAL/MOL
REMARK 927      BINDING AFFINITY PREDICTED BY RF-SCORE:    0.00 PKD
ROOT
HETATM    1  C   UNL     1      -6.793  14.015  69.262  1.00  0.00    -0.105 C  
HETATM    2  C   UNL     1      -7.412  12.719  68.796  1.00  0.00    -0.048 C  
HETATM    3  C   UNL     1      -8.137  12.358  67.526  1.00  0.00    -0.173 C  
HETATM    4  C   UNL     1      -8.982  11.087  68.117  1.00  0.00    -0.152 C  
HETATM    5  O   UNL     1      -8.695   9.692  66.135  1.00  0.00    -0.132 OA 
HETATM    6  C   UNL     1      -8.068  10.678  69.543  1.00  0.00    -0.056 C  
HETATM    7  C   UNL     1      -6.745  11.383  69.096  1.00  0.00    -0.106 C  
HETATM    8  C   UNL     1     -11.454   9.432  68.654  1.00  0.00     0.429 C  
HETATM    9  C   UNL     1      -7.426   9.539  70.446  1.00  0.00    -0.151 C  
HETATM   10  C   UNL     1      -8.048   8.325  71.089  1.00  0.00    -0.124 C  
HETATM   11  C   UNL     1      -9.359   9.929  67.145  1.00  0.00    -0.146 C  
HETATM   12  C   UNL     1      -9.714   4.132  68.728  1.00  0.00    -0.166 C  
HETATM   13  C   UNL     1     -10.580   9.057  67.488  1.00  0.00    -0.306 C  
HETATM   14  C   UNL     1     -10.096   4.690  66.324  1.00  0.00    -0.292 C  
HETATM   15  C   UNL     1     -10.089   5.216  67.733  1.00  0.00    -0.197 C  
HETATM   16  C   UNL     1      -8.018   7.106  70.215  1.00  0.00    -0.116 C  
HETATM   17  C   UNL     1      -8.406   8.175  72.378  1.00  0.00    -0.227 C  
HETATM   18  C   UNL     1     -10.615   7.819  66.920  1.00  0.00    -0.347 C  
HETATM   19  C   UNL     1     -10.825   6.592  67.774  1.00  0.00    -0.372 C  
HETATM   20  C   UNL     1      -9.416   6.896  69.728  1.00  0.00    -0.145 C  
HETATM   21  C   UNL     1      -9.440   6.447  68.303  1.00  0.00    -0.121 C  
ENDROOT
BRANCH   4  22
HETATM   22  O   UNL     1     -10.255  11.821  68.402  1.00  0.00    -0.195 OA 
BRANCH  22  23
HETATM   23  C   UNL     1     -10.679  12.678  67.400  1.00  0.00    -0.229 C  
HETATM   24  C   UNL     1     -11.102  14.013  67.930  1.00  0.00    -0.274 C  
HETATM   25  O   UNL     1     -10.662  12.440  66.199  1.00  0.00    -0.250 OA 
ENDBRANCH  22  23
ENDBRANCH   4  22
BRANCH   7  26
HETATM   26  O   UNL     1      -6.311  10.585  67.880  1.00  0.00    -0.058 OA 
BRANCH  26  27
HETATM   27  C   UNL     1      -5.910  11.174  66.712  1.00  0.00    -0.111 C  
HETATM   28  O   UNL     1      -5.535  12.336  66.627  1.00  0.00    -0.321 OA 
BRANCH  27  29
HETATM   29  C   UNL     1      -5.690  10.192  65.573  1.00  0.00    -0.081 A  
HETATM   30  C   UNL     1      -5.678  10.691  64.247  1.00  0.00    -0.039 A  
HETATM   31  C   UNL     1      -5.485   8.827  65.751  1.00  0.00    -0.037 A  
HETATM   32  C   UNL     1      -5.242   7.983  64.645  1.00  0.00    -0.036 A  
HETATM   33  C   UNL     1      -5.402   9.857  63.147  1.00  0.00    -0.092 A  
HETATM   34  C   UNL     1      -5.190   8.501  63.347  1.00  0.00    -0.062 A  
ENDBRANCH  27  29
ENDBRANCH  26  27
ENDBRANCH   7  26
BRANCH   9  35
HETATM   35  O   UNL     1      -6.545  10.110  71.512  1.00  0.00    -0.215 OA 
BRANCH  35  36
HETATM   36  C   UNL     1      -5.634   9.362  72.203  1.00  0.00    -0.037 C  
HETATM   37  O   UNL     1      -5.145   8.320  71.858  1.00  0.00    -0.034 OA 
HETATM   38  C   UNL     1      -5.221  10.071  73.472  1.00  0.00     0.109 C  
ENDBRANCH  35  36
ENDBRANCH   9  35
TORSDOF 7
ENDMDL
MODEL      114
REMARK 921   NORMALIZED FREE ENERGY PREDICTED BY IDOCK:   -1.46 KCAL/MOL
REMARK 922        TOTAL FREE ENERGY PREDICTED BY IDOCK:   -2.70 KCAL/MOL
REMARK 923 INTER-LIGAND FREE ENERGY PREDICTED BY IDOCK:   -3.68 KCAL/MOL
REMARK 924 INTRA-LIGAND FREE ENERGY PREDICTED BY IDOCK:    0.99 KCAL/MOL
REMARK 927      BINDING AFFINITY PREDICTED BY RF-SCORE:    0.00 PKD
ROOT
HETATM    1  C   UNL     1      -9.357   8.416  72.942  1.00  0.00    -0.283 C  
HETATM    2  C   UNL     1      -9.238   7.568  71.699  1.00  0.00    -0.152 C  
HETATM    3  C   UNL     1     -10.182   7.349  70.545  1.00  0.00    -0.196 C  
HETATM    4  C   UNL     1      -9.601   5.895  70.069  1.00  0.00    -0.163 C  
HETATM    5  O   UNL     1      -9.772   6.364  67.680  1.00  0.00    -0.117 OA 
HETATM    6  C   UNL     1      -8.014   5.887  70.788  1.00  0.00    -0.114 C  
HETATM    7  C   UNL     1      -7.908   7.437  70.967  1.00  0.00    -0.092 C  
HETATM    8  C   UNL     1      -9.776   2.980  69.285  1.00  0.00     0.078 C  
HETATM    9  C   UNL     1      -6.466   5.571  70.622  1.00  0.00    -0.035 C  
HETATM   10  C   UNL     1      -5.758   4.301  70.221  1.00  0.00    -0.013 C  
HETATM   11  C   UNL     1      -9.713   5.508  68.563  1.00  0.00    -0.134 C  
HETATM   12  C   UNL     1      -5.670   2.181  65.592  1.00  0.00    -0.017 C  
HETATM   13  C   UNL     1      -9.723   4.014  68.192  1.00  0.00    -0.138 C  
HETATM   14  C   UNL     1      -7.597   3.084  64.284  1.00  0.00    -0.076 C  
HETATM   15  C   UNL     1      -7.086   2.730  65.654  1.00  0.00    -0.064 C  
HETATM   16  C   UNL     1      -5.542   4.179  68.742  1.00  0.00    -0.013 C  
HETATM   17  C   UNL     1      -5.138   3.421  71.029  1.00  0.00     0.000 C  
HETATM   18  C   UNL     1      -9.357   3.708  66.917  1.00  0.00    -0.217 C  
HETATM   19  C   UNL     1      -8.281   2.682  66.655  1.00  0.00    -0.085 C  
HETATM   20  C   UNL     1      -6.513   3.155  68.252  1.00  0.00    -0.036 C  
HETATM   21  C   UNL     1      -7.089   3.532  66.925  1.00  0.00    -0.059 C  
ENDROOT
BRANCH   4  22
HETATM   22  O   UNL     1     -10.599   5.045  70.790  1.00  0.00    -0.193 OA 
BRANCH  22  23
HETATM   23  C   UNL     1     -10.279   4.746  72.104  1.00  0.00    -0.195 C  
HETATM   24  C   UNL     1      -9.340   3.584  72.215  1.00  0.00    -0.171 C  
HETATM   25  O   UNL     1     -10.641   5.374  73.091  1.00  0.00    -0.202 OA 
ENDBRANCH  22  23
ENDBRANCH   4  22
BRANCH   7  26
HETATM   26  O   UNL     1      -7.898   7.959  69.542  1.00  0.00    -0.105 OA 
BRANCH  26  27
HETATM   27  C   UNL     1      -6.928   8.799  69.067  1.00  0.00    -0.064 C  
HETATM   28  O   UNL     1      -5.912   9.088  69.685  1.00  0.00    -0.032 OA 
BRANCH  27  29
HETATM   29  C   UNL     1      -7.066   9.122  67.588  1.00  0.00    -0.082 A  
HETATM   30  C   UNL     1      -7.858  10.236  67.214  1.00  0.00    -0.103 A  
HETATM   31  C   UNL     1      -6.450   8.398  66.572  1.00  0.00    -0.055 A  
HETATM   32  C   UNL     1      -6.588   8.787  65.221  1.00  0.00    -0.067 A  
HETATM   33  C   UNL     1      -7.969  10.645  65.872  1.00  0.00    -0.157 A  
HETATM   34  C   UNL     1      -7.338   9.915  64.875  1.00  0.00    -0.136 A  
ENDBRANCH  27  29
ENDBRANCH  26  27
ENDBRANCH   7  26
BRANCH   9  35
HETATM   35  O   UNL     1      -5.670   6.087  71.779  1.00  0.00    -0.025 OA 
BRANCH  35  36
HETATM   36  C   UNL     1      -6.120   6.044  73.069  1.00  0.00    -0.053 C  
HETATM   37  O   UNL     1      -6.561   5.088  73.648  1.00  0.00    -0.060 OA 
HETATM   38  C   UNL     1      -5.910   7.378  73.748  1.00  0.00    -0.056 C  
ENDBRANCH  35  36
ENDBRANCH   9  35
TORSDOF 7
ENDMDL
MODEL      115
REMARK 921   NORMALIZED FREE ENERGY PREDICTED BY IDOCK:   -1.31 KCAL/MOL
REMARK 922        TOTAL FREE ENERGY PREDICTED BY IDOCK:   -2.49 KCAL/MOL
REMARK 923 INTER-LIGAND FREE ENERGY PREDICTED BY IDOCK:   -1.28 KCAL/MOL
REMARK 924 INTRA-LIGAND FREE ENERGY PREDICTED BY IDOCK:   -1.21 KCAL/MOL
REMARK 927      BINDING AFFINITY PREDICTED BY RF-SCORE:    0.00 PKD
ROOT
HETATM    1  C   UNL     1      -6.638   5.275  62.924  1.00  0.00    -0.026 C  
HETATM    2  C   UNL     1      -7.166   5.318  64.338  1.00  0.00    -0.055 C  
HETATM    3  C   UNL     1      -7.108   4.311  65.457  1.00  0.00    -0.063 C  
HETATM    4  C   UNL     1      -8.405   4.851  66.296  1.00  0.00    -0.111 C  
HETATM    5  O   UNL     1      -7.382   4.557  68.493  1.00  0.00    -0.059 OA 
HETATM    6  C   UNL     1      -8.579   6.475  65.688  1.00  0.00    -0.132 C  
HETATM    7  C   UNL     1      -7.114   6.605  65.152  1.00  0.00    -0.064 C  
HETATM    8  C   UNL     1     -11.051   4.607  67.738  1.00  0.00     2.074 C  
HETATM    9  C   UNL     1      -8.841   8.009  66.008  1.00  0.00    -0.162 C  
HETATM   10  C   UNL     1      -9.977   8.681  66.737  1.00  0.00    -0.343 C  
HETATM   11  C   UNL     1      -8.424   4.655  67.842  1.00  0.00    -0.102 C  
HETATM   12  C   UNL     1     -10.936   8.499  71.735  1.00  0.00    -0.376 C  
HETATM   13  C   UNL     1      -9.787   4.610  68.556  1.00  0.00    -0.181 C  
HETATM   14  C   UNL     1      -9.755   6.512  72.683  1.00  0.00    -0.168 C  
HETATM   15  C   UNL     1     -10.423   7.094  71.467  1.00  0.00    -0.221 C  
HETATM   16  C   UNL     1      -9.742   8.816  68.212  1.00  0.00    -0.175 C  
HETATM   17  C   UNL     1     -11.021   9.336  66.197  1.00  0.00     1.055 C  
HETATM   18  C   UNL     1      -9.780   4.904  69.886  1.00  0.00    -0.276 C  
HETATM   19  C   UNL     1     -10.711   5.954  70.442  1.00  0.00    -0.373 C  
HETATM   20  C   UNL     1     -10.625   7.810  68.878  1.00  0.00    -0.168 C  
HETATM   21  C   UNL     1      -9.945   7.168  70.044  1.00  0.00    -0.182 C  
ENDROOT
BRANCH   4  22
HETATM   22  O   UNL     1      -9.406   3.886  65.743  1.00  0.00    -0.145 OA 
BRANCH  22  23
HETATM   23  C   UNL     1      -9.053   2.550  65.840  1.00  0.00    -0.098 C  
HETATM   24  C   UNL     1      -9.633   1.723  64.734  1.00  0.00     0.009 C  
HETATM   25  O   UNL     1      -8.300   2.066  66.676  1.00  0.00    -0.083 OA 
ENDBRANCH  22  23
ENDBRANCH   4  22
BRANCH   7  26
HETATM   26  O   UNL     1      -6.269   6.544  66.411  1.00  0.00    -0.035 OA 
BRANCH  26  27
HETATM   27  C   UNL     1      -5.601   7.628  66.909  1.00  0.00    -0.031 C  
HETATM   28  O   UNL     1      -5.126   8.517  66.214  1.00  0.00    -0.030 OA 
BRANCH  27  29
HETATM   29  C   UNL     1      -5.742   7.799  68.413  1.00  0.00    -0.028 A  
HETATM   30  C   UNL     1      -5.732   9.112  68.946  1.00  0.00    -0.040 A  
HETATM   31  C   UNL     1      -5.895   6.742  69.305  1.00  0.00    -0.018 A  
HETATM   32  C   UNL     1      -6.065   6.981  70.687  1.00  0.00    -0.031 A  
HETATM   33  C   UNL     1      -5.936   9.353  70.317  1.00  0.00    -0.040 A  
HETATM   34  C   UNL     1      -6.097   8.286  71.189  1.00  0.00    -0.035 A  
ENDBRANCH  27  29
ENDBRANCH  26  27
ENDBRANCH   7  26
BRANCH   9  35
HETATM   35  O   UNL     1      -8.611   8.871  64.807  1.00  0.00    -0.175 OA 
BRANCH  35  36
HETATM   36  C   UNL     1      -7.720   9.908  64.796  1.00  0.00    -0.138 C  
HETATM   37  O   UNL     1      -7.615  10.778  65.618  1.00  0.00    -0.131 OA 
HETATM   38  C   UNL     1      -6.776   9.782  63.623  1.00  0.00    -0.119 C  
ENDBRANCH  35  36
ENDBRANCH   9  35
TORSDOF 7
ENDMDL
MODEL      116
REMARK 921   NORMALIZED FREE ENERGY PREDICTED BY IDOCK:   -1.23 KCAL/MOL
REMARK 922        TOTAL FREE ENERGY PREDICTED BY IDOCK:   -2.37 KCAL/MOL
REMARK 923 INTER-LIGAND FREE ENERGY PREDICTED BY IDOCK:   -2.74 KCAL/MOL
REMARK 924 INTRA-LIGAND FREE ENERGY PREDICTED BY IDOCK:    0.38 KCAL/MOL
REMARK 927      BINDING AFFINITY PREDICTED BY RF-SCORE:    0.00 PKD
ROOT
HETATM    1  C   UNL     1      -8.868   5.098  69.575  1.00  0.00    -0.120 C  
HETATM    2  C   UNL     1      -9.125   6.585  69.526  1.00  0.00    -0.140 C  
HETATM    3  C   UNL     1      -9.617   7.549  70.574  1.00  0.00    -0.168 C  
HETATM    4  C   UNL     1     -10.204   8.688  69.556  1.00  0.00    -0.209 C  
HETATM    5  O   UNL     1      -9.408  10.586  70.869  1.00  0.00     1.193 OA 
HETATM    6  C   UNL     1      -9.368   8.313  68.074  1.00  0.00    -0.141 C  
HETATM    7  C   UNL     1      -8.203   7.511  68.742  1.00  0.00    -0.129 C  
HETATM    8  C   UNL     1     -12.273  10.598  68.457  1.00  0.00     0.453 C  
HETATM    9  C   UNL     1      -8.577   8.850  66.805  1.00  0.00    -0.115 C  
HETATM   10  C   UNL     1      -8.966   9.864  65.759  1.00  0.00    -0.189 C  
HETATM   11  C   UNL     1     -10.207  10.174  70.026  1.00  0.00    -0.220 C  
HETATM   12  C   UNL     1      -9.383  14.900  66.389  1.00  0.00    -0.327 C  
HETATM   13  C   UNL     1     -11.224  11.139  69.391  1.00  0.00    -0.334 C  
HETATM   14  C   UNL     1      -9.640  15.362  68.830  1.00  0.00    -0.220 C  
HETATM   15  C   UNL     1      -9.895  14.378  67.721  1.00  0.00    -0.221 C  
HETATM   16  C   UNL     1      -8.571  11.267  66.112  1.00  0.00    -0.156 C  
HETATM   17  C   UNL     1      -9.407   9.622  64.511  1.00  0.00    -0.247 C  
HETATM   18  C   UNL     1     -10.917  12.464  69.454  1.00  0.00    -0.072 C  
HETATM   19  C   UNL     1     -10.926  13.311  68.204  1.00  0.00    -0.278 C  
HETATM   20  C   UNL     1      -9.827  11.980  66.495  1.00  0.00    -0.225 C  
HETATM   21  C   UNL     1      -9.605  12.905  67.649  1.00  0.00    -0.196 C  
ENDROOT
BRANCH   4  22
HETATM   22  O   UNL     1     -11.633   8.244  69.577  1.00  0.00     0.316 OA 
BRANCH  22  23
HETATM   23  C   UNL     1     -12.012   7.526  70.699  1.00  0.00    -0.133 C  
HETATM   24  C   UNL     1     -11.523   8.151  71.970  1.00  0.00    -0.380 C  
HETATM   25  O   UNL     1     -12.722   6.529  70.706  1.00  0.00    -0.087 OA 
ENDBRANCH  22  23
ENDBRANCH   4  22
BRANCH   7  26
HETATM   26  O   UNL     1      -7.479   8.558  69.568  1.00  0.00    -0.076 OA 
BRANCH  26  27
HETATM   27  C   UNL     1      -6.193   8.399  70.005  1.00  0.00    -0.034 C  
HETATM   28  O   UNL     1      -5.210   8.806  69.400  1.00  0.00    -0.034 OA 
BRANCH  27  29
HETATM   29  C   UNL     1      -6.088   7.928  71.446  1.00  0.00    -0.035 A  
HETATM   30  C   UNL     1      -6.876   8.580  72.427  1.00  0.00    -0.086 A  
HETATM   31  C   UNL     1      -5.271   6.882  71.866  1.00  0.00    -0.028 A  
HETATM   32  C   UNL     1      -5.260   6.471  73.217  1.00  0.00    -0.037 A  
HETATM   33  C   UNL     1      -6.891   8.150  73.767  1.00  0.00    -0.151 A  
HETATM   34  C   UNL     1      -6.078   7.098  74.163  1.00  0.00    -0.073 A  
ENDBRANCH  27  29
ENDBRANCH  26  27
ENDBRANCH   7  26
BRANCH   9  35
HETATM   35  O   UNL     1      -7.962   7.732  66.024  1.00  0.00    -0.098 OA 
BRANCH  35  36
HETATM   36  C   UNL     1      -8.619   6.563  65.756  1.00  0.00    -0.144 C  
HETATM   37  O   UNL     1      -9.798   6.424  65.572  1.00  0.00     0.479 OA 
HETATM   38  C   UNL     1      -7.637   5.423  65.623  1.00  0.00    -0.082 C  
ENDBRANCH  35  36
ENDBRANCH   9  35
TORSDOF 7
ENDMDL
MODEL      117
REMARK 921   NORMALIZED FREE ENERGY PREDICTED BY IDOCK:   -1.12 KCAL/MOL
REMARK 922        TOTAL FREE ENERGY PREDICTED BY IDOCK:   -2.22 KCAL/MOL
REMARK 923 INTER-LIGAND FREE ENERGY PREDICTED BY IDOCK:   -2.55 KCAL/MOL
REMARK 924 INTRA-LIGAND FREE ENERGY PREDICTED BY IDOCK:    0.33 KCAL/MOL
REMARK 927      BINDING AFFINITY PREDICTED BY RF-SCORE:    0.00 PKD
ROOT
HETATM    1  C   UNL     1      -5.565  14.678  71.404  1.00  0.00    -0.085 C  
HETATM    2  C   UNL     1      -6.583  14.254  70.373  1.00  0.00    -0.001 C  
HETATM    3  C   UNL     1      -7.270  12.935  70.131  1.00  0.00     1.395 C  
HETATM    4  C   UNL     1      -7.630  13.170  68.552  1.00  0.00    -0.122 C  
HETATM    5  O   UNL     1      -9.852  12.169  68.684  1.00  0.00    -0.188 OA 
HETATM    6  C   UNL     1      -7.523  14.904  68.411  1.00  0.00    -0.115 C  
HETATM    7  C   UNL     1      -7.694  15.202  69.938  1.00  0.00     0.041 C  
HETATM    8  C   UNL     1      -7.728  12.467  65.613  1.00  0.00     2.253 C  
HETATM    9  C   UNL     1      -8.155  16.247  67.845  1.00  0.00    -0.146 C  
HETATM   10  C   UNL     1      -8.526  16.643  66.438  1.00  0.00    -0.348 C  
HETATM   11  C   UNL     1      -8.897  12.476  67.968  1.00  0.00    -0.187 C  
HETATM   12  C   UNL     1     -12.395  14.828  63.670  1.00  0.00     0.444 C  
HETATM   13  C   UNL     1      -8.947  12.200  66.455  1.00  0.00    -0.138 C  
HETATM   14  C   UNL     1     -13.095  12.639  64.649  1.00  0.00    -0.036 C  
HETATM   15  C   UNL     1     -11.949  13.589  64.428  1.00  0.00    -0.466 C  
HETATM   16  C   UNL     1      -9.934  16.285  66.069  1.00  0.00    -0.370 C  
HETATM   17  C   UNL     1      -7.832  17.440  65.604  1.00  0.00     0.455 C  
HETATM   18  C   UNL     1     -10.186  12.040  65.912  1.00  0.00    -0.263 C  
HETATM   19  C   UNL     1     -10.604  12.850  64.709  1.00  0.00    -0.362 C  
HETATM   20  C   UNL     1      -9.848  15.117  65.140  1.00  0.00    -0.170 C  
HETATM   21  C   UNL     1     -10.937  14.126  65.401  1.00  0.00    -0.328 C  
ENDROOT
BRANCH   4  22
HETATM   22  O   UNL     1      -6.456  12.441  67.977  1.00  0.00    -0.065 OA 
BRANCH  22  23
HETATM   23  C   UNL     1      -6.065  11.310  68.675  1.00  0.00    -0.043 C  
HETATM   24  C   UNL     1      -6.737  10.068  68.176  1.00  0.00    -0.059 C  
HETATM   25  O   UNL     1      -5.219  11.271  69.560  1.00  0.00    -0.044 OA 
ENDBRANCH  22  23
ENDBRANCH   4  22
BRANCH   7  26
HETATM   26  O   UNL     1      -9.105  14.729  70.236  1.00  0.00     0.573 OA 
BRANCH  26  27
HETATM   27  C   UNL     1     -10.150  15.590  70.430  1.00  0.00     0.102 C  
HETATM   28  O   UNL     1     -10.246  16.682  69.885  1.00  0.00    -0.107 OA 
BRANCH  27  29
HETATM   29  C   UNL     1     -11.332  14.968  71.154  1.00  0.00    -0.315 A  
HETATM   30  C   UNL     1     -11.722  15.516  72.402  1.00  0.00    -0.570 A  
HETATM   31  C   UNL     1     -12.070  13.896  70.662  1.00  0.00    -0.417 A  
HETATM   32  C   UNL     1     -13.186  13.400  71.371  1.00  0.00    -0.329 A  
HETATM   33  C   UNL     1     -12.854  15.045  73.093  1.00  0.00    -0.615 A  
HETATM   34  C   UNL     1     -13.582  13.982  72.580  1.00  0.00    -0.670 A  
ENDBRANCH  27  29
ENDBRANCH  26  27
ENDBRANCH   7  26
BRANCH   9  35
HETATM   35  O   UNL     1      -7.471  17.456  68.401  1.00  0.00    -0.214 OA 
BRANCH  35  36
HETATM   36  C   UNL     1      -8.093  18.666  68.534  1.00  0.00    -0.341 C  
HETATM   37  O   UNL     1      -9.276  18.874  68.531  1.00  0.00    -0.335 OA 
HETATM   38  C   UNL     1      -7.078  19.757  68.787  1.00  0.00    -0.365 C  
ENDBRANCH  35  36
ENDBRANCH   9  35
TORSDOF 7
ENDMDL
MODEL      118
REMARK 921   NORMALIZED FREE ENERGY PREDICTED BY IDOCK:   -0.89 KCAL/MOL
REMARK 922        TOTAL FREE ENERGY PREDICTED BY IDOCK:   -1.89 KCAL/MOL
REMARK 923 INTER-LIGAND FREE ENERGY PREDICTED BY IDOCK:   -3.05 KCAL/MOL
REMARK 924 INTRA-LIGAND FREE ENERGY PREDICTED BY IDOCK:    1.16 KCAL/MOL
REMARK 927      BINDING AFFINITY PREDICTED BY RF-SCORE:    0.00 PKD
ROOT
HETATM    1  C   UNL     1      -6.971  13.441  67.582  1.00  0.00    -0.168 C  
HETATM    2  C   UNL     1      -7.268  11.986  67.853  1.00  0.00    -0.102 C  
HETATM    3  C   UNL     1      -7.826  11.290  69.068  1.00  0.00    -0.079 C  
HETATM    4  C   UNL     1      -7.208   9.805  68.765  1.00  0.00    -0.072 C  
HETATM    5  O   UNL     1      -9.204   8.590  69.468  1.00  0.00    -0.149 OA 
HETATM    6  C   UNL     1      -6.867   9.897  67.058  1.00  0.00    -0.083 C  
HETATM    7  C   UNL     1      -7.838  11.088  66.762  1.00  0.00    -0.149 C  
HETATM    8  C   UNL     1      -5.701   7.264  69.406  1.00  0.00    -0.023 C  
HETATM    9  C   UNL     1      -6.931   9.193  65.636  1.00  0.00    -0.081 C  
HETATM   10  C   UNL     1      -6.403   7.858  65.174  1.00  0.00    -0.041 C  
HETATM   11  C   UNL     1      -7.987   8.558  69.278  1.00  0.00    -0.111 C  
HETATM   12  C   UNL     1      -8.196   3.260  66.427  1.00  0.00    -0.097 C  
HETATM   13  C   UNL     1      -7.202   7.256  69.523  1.00  0.00    -0.080 C  
HETATM   14  C   UNL     1      -9.541   3.491  68.519  1.00  0.00    -0.151 C  
HETATM   15  C   UNL     1      -8.382   4.028  67.724  1.00  0.00    -0.097 C  
HETATM   16  C   UNL     1      -7.385   6.737  65.339  1.00  0.00    -0.080 C  
HETATM   17  C   UNL     1      -5.284   7.624  64.463  1.00  0.00    -0.029 C  
HETATM   18  C   UNL     1      -7.928   6.104  69.512  1.00  0.00    -0.107 C  
HETATM   19  C   UNL     1      -7.512   4.946  68.637  1.00  0.00    -0.069 C  
HETATM   20  C   UNL     1      -6.908   5.919  66.495  1.00  0.00    -0.059 C  
HETATM   21  C   UNL     1      -8.047   5.442  67.339  1.00  0.00    -0.101 C  
ENDROOT
BRANCH   4  22
HETATM   22  O   UNL     1      -5.994   9.923  69.633  1.00  0.00    -0.040 OA 
BRANCH  22  23
HETATM   23  C   UNL     1      -6.249  10.154  70.974  1.00  0.00     0.032 C  
HETATM   24  C   UNL     1      -5.420  11.271  71.530  1.00  0.00     0.178 C  
HETATM   25  O   UNL     1      -7.095   9.584  71.652  1.00  0.00    -0.311 OA 
ENDBRANCH  22  23
ENDBRANCH   4  22
BRANCH   7  26
HETATM   26  O   UNL     1      -9.210  10.507  67.051  1.00  0.00    -0.149 OA 
BRANCH  26  27
HETATM   27  C   UNL     1     -10.343  11.272  67.100  1.00  0.00    -0.209 C  
HETATM   28  O   UNL     1     -10.864  11.785  66.118  1.00  0.00    -0.270 OA 
BRANCH  27  29
HETATM   29  C   UNL     1     -11.075  11.201  68.430  1.00  0.00    -0.303 A  
HETATM   30  C   UNL     1     -10.796  12.191  69.405  1.00  0.00    -0.032 A  
HETATM   31  C   UNL     1     -12.017  10.228  68.749  1.00  0.00     0.272 A  
HETATM   32  C   UNL     1     -12.690  10.253  69.991  1.00  0.00     0.005 A  
HETATM   33  C   UNL     1     -11.490  12.237  70.629  1.00  0.00     0.703 A  
HETATM   34  C   UNL     1     -12.433  11.263  70.923  1.00  0.00    -0.493 A  
ENDBRANCH  27  29
ENDBRANCH  26  27
ENDBRANCH   7  26
BRANCH   9  35
HETATM   35  O   UNL     1      -6.563  10.136  64.535  1.00  0.00    -0.126 OA 
BRANCH  35  36
HETATM   36  C   UNL     1      -6.751   9.845  63.212  1.00  0.00    -0.124 C  
HETATM   37  O   UNL     1      -5.948   9.367  62.458  1.00  0.00    -0.093 OA 
HETATM   38  C   UNL     1      -8.180  10.123  62.807  1.00  0.00    -0.159 C  
ENDBRANCH  35  36
ENDBRANCH   9  35
TORSDOF 7
ENDMDL
MODEL      119
REMARK 921   NORMALIZED FREE ENERGY PREDICTED BY IDOCK:   -0.49 KCAL/MOL
REMARK 922        TOTAL FREE ENERGY PREDICTED BY IDOCK:   -1.32 KCAL/MOL
REMARK 923 INTER-LIGAND FREE ENERGY PREDICTED BY IDOCK:   -4.84 KCAL/MOL
REMARK 924 INTRA-LIGAND FREE ENERGY PREDICTED BY IDOCK:    3.52 KCAL/MOL
REMARK 927      BINDING AFFINITY PREDICTED BY RF-SCORE:    0.00 PKD
ROOT
HETATM    1  C   UNL     1     -10.025  16.909  70.727  1.00  0.00     2.431 C  
HETATM    2  C   UNL     1     -10.144  15.917  69.595  1.00  0.00    -0.271 C  
HETATM    3  C   UNL     1     -11.250  15.661  68.604  1.00  0.00    -0.338 C  
HETATM    4  C   UNL     1     -10.860  14.112  68.246  1.00  0.00    -0.247 C  
HETATM    5  O   UNL     1     -11.311  14.320  65.857  1.00  0.00    -0.317 OA 
HETATM    6  C   UNL     1      -9.197  14.031  68.760  1.00  0.00    -0.050 C  
HETATM    7  C   UNL     1      -8.941  15.574  68.727  1.00  0.00    -0.204 C  
HETATM    8  C   UNL     1     -11.378  11.159  67.864  1.00  0.00    -0.378 C  
HETATM    9  C   UNL     1      -7.716  13.548  68.445  1.00  0.00    -0.135 C  
HETATM   10  C   UNL     1      -7.176  12.177  68.123  1.00  0.00    -0.096 C  
HETATM   11  C   UNL     1     -11.205  13.569  66.827  1.00  0.00    -0.310 C  
HETATM   12  C   UNL     1      -7.886   9.544  63.823  1.00  0.00    -0.133 C  
HETATM   13  C   UNL     1     -11.387  12.051  66.652  1.00  0.00    -0.399 C  
HETATM   14  C   UNL     1      -9.890  10.476  62.660  1.00  0.00    -0.115 C  
HETATM   15  C   UNL     1      -9.230  10.232  63.989  1.00  0.00    -0.311 C  
HETATM   16  C   UNL     1      -7.171  11.867  66.656  1.00  0.00     0.074 C  
HETATM   17  C   UNL     1      -6.528  11.339  68.953  1.00  0.00    -0.063 C  
HETATM   18  C   UNL     1     -11.222  11.566  65.389  1.00  0.00    -0.207 C  
HETATM   19  C   UNL     1     -10.280  10.417  65.129  1.00  0.00    -0.326 C  
HETATM   20  C   UNL     1      -8.281  10.893  66.422  1.00  0.00    -0.163 C  
HETATM   21  C   UNL     1      -8.996  11.171  65.140  1.00  0.00    -0.106 C  
ENDROOT
BRANCH   4  22
HETATM   22  O   UNL     1     -11.818  13.452  69.187  1.00  0.00    -0.301 OA 
BRANCH  22  23
HETATM   23  C   UNL     1     -12.117  14.176  70.330  1.00  0.00    -0.342 C  
HETATM   24  C   UNL     1     -13.396  14.945  70.203  1.00  0.00     0.276 C  
HETATM   25  O   UNL     1     -11.475  14.166  71.373  1.00  0.00     0.135 OA 
ENDBRANCH  22  23
ENDBRANCH   4  22
BRANCH   7  26
HETATM   26  O   UNL     1      -9.079  15.926  67.257  1.00  0.00    -0.199 OA 
BRANCH  26  27
HETATM   27  C   UNL     1      -9.578  17.124  66.825  1.00  0.00    -0.270 C  
HETATM   28  O   UNL     1     -10.770  17.347  66.660  1.00  0.00    -0.225 OA 
BRANCH  27  29
HETATM   29  C   UNL     1      -8.563  18.254  66.840  1.00  0.00    -0.270 A  
HETATM   30  C   UNL     1      -7.276  18.010  66.299  1.00  0.00    -0.310 A  
HETATM   31  C   UNL     1      -8.821  19.526  67.342  1.00  0.00    -0.363 A  
HETATM   32  C   UNL     1      -7.840  20.540  67.279  1.00  0.00    -0.367 A  
HETATM   33  C   UNL     1      -6.309  19.029  66.205  1.00  0.00    -0.206 A  
HETATM   34  C   UNL     1      -6.590  20.293  66.702  1.00  0.00    -0.261 A  
ENDBRANCH  27  29
ENDBRANCH  26  27
ENDBRANCH   7  26
BRANCH   9  35
HETATM   35  O   UNL     1      -6.732  14.113  69.420  1.00  0.00    -0.115 OA 
BRANCH  35  36
HETATM   36  C   UNL     1      -6.248  15.388  69.333  1.00  0.00    -0.128 C  
HETATM   37  O   UNL     1      -6.558  16.326  70.016  1.00  0.00    -0.119 OA 
HETATM   38  C   UNL     1      -5.159  15.470  68.288  1.00  0.00    -0.107 C  
ENDBRANCH  35  36
ENDBRANCH   9  35
TORSDOF 7
ENDMDL
MODEL      120
REMARK 921   NORMALIZED FREE ENERGY PREDICTED BY IDOCK:   -0.44 KCAL/MOL
REMARK 922        TOTAL FREE ENERGY PREDICTED BY IDOCK:   -1.26 KCAL/MOL
REMARK 923 INTER-LIGAND FREE ENERGY PREDICTED BY IDOCK:   -0.59 KCAL/MOL
REMARK 924 INTRA-LIGAND FREE ENERGY PREDICTED BY IDOCK:   -0.67 KCAL/MOL
REMARK 927      BINDING AFFINITY PREDICTED BY RF-SCORE:    0.00 PKD
ROOT
HETATM    1  C   UNL     1      -6.695  17.670  70.575  1.00  0.00     1.531 C  
HETATM    2  C   UNL     1      -7.441  17.066  69.410  1.00  0.00     0.033 C  
HETATM    3  C   UNL     1      -7.185  17.114  67.926  1.00  0.00    -0.177 C  
HETATM    4  C   UNL     1      -8.718  16.818  67.436  1.00  0.00    -0.191 C  
HETATM    5  O   UNL     1      -8.080  15.339  65.603  1.00  0.00     1.541 OA 
HETATM    6  C   UNL     1      -9.420  16.098  68.860  1.00  0.00    -0.244 C  
HETATM    7  C   UNL     1      -8.063  15.679  69.516  1.00  0.00    -0.174 C  
HETATM    8  C   UNL     1     -11.252  17.312  65.864  1.00  0.00     0.654 C  
HETATM    9  C   UNL     1     -10.333  14.952  69.474  1.00  0.00    -0.155 C  
HETATM   10  C   UNL     1     -11.755  14.557  69.167  1.00  0.00    -0.349 C  
HETATM   11  C   UNL     1      -8.935  16.088  66.077  1.00  0.00    -0.310 C  
HETATM   12  C   UNL     1     -13.446  12.265  64.945  1.00  0.00     1.663 C  
HETATM   13  C   UNL     1     -10.269  16.302  65.338  1.00  0.00    -0.259 C  
HETATM   14  C   UNL     1     -11.756  12.613  63.139  1.00  0.00    -0.290 C  
HETATM   15  C   UNL     1     -12.369  13.182  64.389  1.00  0.00    -0.426 C  
HETATM   16  C   UNL     1     -11.866  13.525  68.084  1.00  0.00    -0.400 C  
HETATM   17  C   UNL     1     -12.858  14.854  69.878  1.00  0.00    -0.035 C  
HETATM   18  C   UNL     1     -10.622  15.339  64.442  1.00  0.00     0.326 C  
HETATM   19  C   UNL     1     -11.981  14.688  64.516  1.00  0.00    -0.473 C  
HETATM   20  C   UNL     1     -12.372  14.234  66.870  1.00  0.00    -0.240 C  
HETATM   21  C   UNL     1     -11.713  13.731  65.625  1.00  0.00    -0.360 C  
ENDROOT
BRANCH   4  22
HETATM   22  O   UNL     1      -9.125  18.241  67.213  1.00  0.00    -0.252 OA 
BRANCH  22  23
HETATM   23  C   UNL     1      -8.168  19.041  66.612  1.00  0.00    -0.291 C  
HETATM   24  C   UNL     1      -8.195  20.449  67.122  1.00  0.00    -0.374 C  
HETATM   25  O   UNL     1      -7.327  18.668  65.802  1.00  0.00    -0.435 OA 
ENDBRANCH  22  23
ENDBRANCH   4  22
BRANCH   7  26
HETATM   26  O   UNL     1      -7.508  14.644  68.554  1.00  0.00    -0.107 OA 
BRANCH  26  27
HETATM   27  C   UNL     1      -7.252  13.352  68.923  1.00  0.00    -0.062 C  
HETATM   28  O   UNL     1      -6.549  13.040  69.875  1.00  0.00    -0.022 OA 
BRANCH  27  29
HETATM   29  C   UNL     1      -8.140  12.329  68.233  1.00  0.00    -0.166 A  
HETATM   30  C   UNL     1      -8.341  12.446  66.836  1.00  0.00    -0.117 A  
HETATM   31  C   UNL     1      -8.762  11.271  68.889  1.00  0.00    -0.053 A  
HETATM   32  C   UNL     1      -9.538  10.333  68.173  1.00  0.00    -0.151 A  
HETATM   33  C   UNL     1      -9.086  11.493  66.116  1.00  0.00    -0.217 A  
HETATM   34  C   UNL     1      -9.689  10.439  66.786  1.00  0.00    -0.224 A  
ENDBRANCH  27  29
ENDBRANCH  26  27
ENDBRANCH   7  26
BRANCH   9  35
HETATM   35  O   UNL     1     -10.258  14.929  70.968  1.00  0.00     0.446 OA 
BRANCH  35  36
HETATM   36  C   UNL     1     -11.063  15.695  71.765  1.00  0.00    -0.099 C  
HETATM   37  O   UNL     1     -11.372  16.842  71.588  1.00  0.00     0.022 OA 
HETATM   38  C   UNL     1     -11.621  14.871  72.902  1.00  0.00    -0.150 C  
ENDBRANCH  35  36
ENDBRANCH   9  35
TORSDOF 7
ENDMDL
MODEL      121
REMARK 921   NORMALIZED FREE ENERGY PREDICTED BY IDOCK:   -0.38 KCAL/MOL
REMARK 922        TOTAL FREE ENERGY PREDICTED BY IDOCK:   -1.17 KCAL/MOL
REMARK 923 INTER-LIGAND FREE ENERGY PREDICTED BY IDOCK:   -1.01 KCAL/MOL
REMARK 924 INTRA-LIGAND FREE ENERGY PREDICTED BY IDOCK:   -0.17 KCAL/MOL
REMARK 927      BINDING AFFINITY PREDICTED BY RF-SCORE:    0.00 PKD
ROOT
HETATM    1  C   UNL     1     -11.276  16.050  64.824  1.00  0.00    -0.348 C  
HETATM    2  C   UNL     1     -10.413  15.368  65.859  1.00  0.00    -0.354 C  
HETATM    3  C   UNL     1     -10.058  15.750  67.272  1.00  0.00    -0.247 C  
HETATM    4  C   UNL     1      -8.666  14.896  67.380  1.00  0.00    -0.194 C  
HETATM    5  O   UNL     1      -9.049  14.143  69.670  1.00  0.00     0.542 OA 
HETATM    6  C   UNL     1      -8.855  13.733  66.096  1.00  0.00     0.372 C  
HETATM    7  C   UNL     1     -10.413  13.851  65.998  1.00  0.00    -0.298 C  
HETATM    8  C   UNL     1      -5.731  14.474  67.965  1.00  0.00    -0.140 C  
HETATM    9  C   UNL     1      -8.711  12.225  65.617  1.00  0.00     0.581 C  
HETATM   10  C   UNL     1      -7.518  11.303  65.618  1.00  0.00     0.361 C  
HETATM   11  C   UNL     1      -8.229  14.362  68.777  1.00  0.00    -0.126 C  
HETATM   12  C   UNL     1      -5.297   9.183  69.681  1.00  0.00    -0.034 C  
HETATM   13  C   UNL     1      -6.734  14.086  69.018  1.00  0.00    -0.109 C  
HETATM   14  C   UNL     1      -5.943  10.503  71.700  1.00  0.00     0.490 C  
HETATM   15  C   UNL     1      -5.685  10.549  70.219  1.00  0.00    -0.079 C  
HETATM   16  C   UNL     1      -7.382  10.505  66.881  1.00  0.00    -0.110 C  
HETATM   17  C   UNL     1      -6.735  10.978  64.573  1.00  0.00     0.754 C  
HETATM   18  C   UNL     1      -6.436  13.215  70.022  1.00  0.00     0.079 C  
HETATM   19  C   UNL     1      -5.531  12.035  69.768  1.00  0.00    -0.089 C  
HETATM   20  C   UNL     1      -6.241  11.101  67.641  1.00  0.00    -0.053 C  
HETATM   21  C   UNL     1      -6.516  11.132  69.110  1.00  0.00    -0.074 C  
ENDROOT
BRANCH   4  22
HETATM   22  O   UNL     1      -7.729  16.016  67.052  1.00  0.00    -0.183 OA 
BRANCH  22  23
HETATM   23  C   UNL     1      -8.061  17.242  67.602  1.00  0.00    -0.191 C  
HETATM   24  C   UNL     1      -7.035  17.727  68.581  1.00  0.00    -0.247 C  
HETATM   25  O   UNL     1      -9.034  17.923  67.303  1.00  0.00    -0.245 OA 
ENDBRANCH  22  23
ENDBRANCH   4  22
BRANCH   7  26
HETATM   26  O   UNL     1     -10.894  13.321  67.336  1.00  0.00    -0.261 OA 
BRANCH  26  27
HETATM   27  C   UNL     1     -12.199  13.397  67.738  1.00  0.00    -0.130 C  
HETATM   28  O   UNL     1     -13.144  13.007  67.065  1.00  0.00     0.976 OA 
BRANCH  27  29
HETATM   29  C   UNL     1     -12.371  13.740  69.208  1.00  0.00    -0.185 A  
HETATM   30  C   UNL     1     -12.716  15.070  69.553  1.00  0.00     0.088 A  
HETATM   31  C   UNL     1     -12.221  12.823  70.244  1.00  0.00    -0.351 A  
HETATM   32  C   UNL     1     -12.441  13.206  71.585  1.00  0.00    -0.119 A  
HETATM   33  C   UNL     1     -12.969  15.445  70.886  1.00  0.00    -0.539 A  
HETATM   34  C   UNL     1     -12.825  14.513  71.903  1.00  0.00    -0.410 A  
ENDBRANCH  27  29
ENDBRANCH  26  27
ENDBRANCH   7  26
BRANCH   9  35
HETATM   35  O   UNL     1      -9.344  12.008  64.279  1.00  0.00     0.074 OA 
BRANCH  35  36
HETATM   36  C   UNL     1     -10.378  11.136  64.080  1.00  0.00    -0.376 C  
HETATM   37  O   UNL     1     -11.544  11.410  63.985  1.00  0.00    -0.272 OA 
HETATM   38  C   UNL     1      -9.857   9.730  63.892  1.00  0.00     0.439 C  
ENDBRANCH  35  36
ENDBRANCH   9  35
TORSDOF 7
ENDMDL
MODEL      122
REMARK 921   NORMALIZED FREE ENERGY PREDICTED BY IDOCK:   -0.12 KCAL/MOL
REMARK 922        TOTAL FREE ENERGY PREDICTED BY IDOCK:   -0.81 KCAL/MOL
REMARK 923 INTER-LIGAND FREE ENERGY PREDICTED BY IDOCK:   -2.01 KCAL/MOL
REMARK 924 INTRA-LIGAND FREE ENERGY PREDICTED BY IDOCK:    1.19 KCAL/MOL
REMARK 927      BINDING AFFINITY PREDICTED BY RF-SCORE:    0.00 PKD
ROOT
HETATM    1  C   UNL     1      -7.961  12.277  68.785  1.00  0.00     0.025 C  
HETATM    2  C   UNL     1      -8.284  10.803  68.749  1.00  0.00    -0.145 C  
HETATM    3  C   UNL     1      -9.390  10.039  68.068  1.00  0.00    -0.139 C  
HETATM    4  C   UNL     1      -9.376   8.727  69.046  1.00  0.00    -0.145 C  
HETATM    5  O   UNL     1      -9.693   7.109  67.247  1.00  0.00    -0.140 OA 
HETATM    6  C   UNL     1      -7.796   8.837  69.775  1.00  0.00    -0.090 C  
HETATM    7  C   UNL     1      -7.174   9.761  68.677  1.00  0.00    -0.073 C  
HETATM    8  C   UNL     1     -10.580   6.624  70.853  1.00  0.00    -0.263 C  
HETATM    9  C   UNL     1      -6.468   8.089  70.222  1.00  0.00    -0.037 C  
HETATM   10  C   UNL     1      -6.266   6.897  71.124  1.00  0.00    -0.037 C  
HETATM   11  C   UNL     1      -9.800   7.351  68.450  1.00  0.00    -0.158 C  
HETATM   12  C   UNL     1      -7.467   2.054  70.106  1.00  0.00    -0.039 C  
HETATM   13  C   UNL     1     -10.339   6.275  69.409  1.00  0.00    -0.266 C  
HETATM   14  C   UNL     1      -9.153   2.040  68.262  1.00  0.00    -0.211 C  
HETATM   15  C   UNL     1      -8.609   2.803  69.440  1.00  0.00    -0.115 C  
HETATM   16  C   UNL     1      -6.294   5.586  70.396  1.00  0.00    -0.027 C  
HETATM   17  C   UNL     1      -5.864   6.903  72.408  1.00  0.00    -0.038 C  
HETATM   18  C   UNL     1     -10.260   4.987  68.974  1.00  0.00    -0.207 C  
HETATM   19  C   UNL     1      -9.616   3.927  69.835  1.00  0.00    -0.270 C  
HETATM   20  C   UNL     1      -7.599   4.939  70.733  1.00  0.00    -0.066 C  
HETATM   21  C   UNL     1      -8.189   4.242  69.549  1.00  0.00    -0.066 C  
ENDROOT
BRANCH   4  22
HETATM   22  O   UNL     1     -10.492   9.150  69.949  1.00  0.00    -0.206 OA 
BRANCH  22  23
HETATM   23  C   UNL     1     -11.656   9.535  69.306  1.00  0.00     0.329 C  
HETATM   24  C   UNL     1     -12.887   9.129  70.058  1.00  0.00     1.306 C  
HETATM   25  O   UNL     1     -11.722  10.195  68.276  1.00  0.00    -0.178 OA 
ENDBRANCH  22  23
ENDBRANCH   4  22
BRANCH   7  26
HETATM   26  O   UNL     1      -7.181   8.890  67.434  1.00  0.00    -0.079 OA 
BRANCH  26  27
HETATM   27  C   UNL     1      -6.469   9.200  66.308  1.00  0.00    -0.066 C  
HETATM   28  O   UNL     1      -5.324   9.632  66.321  1.00  0.00    -0.042 OA 
BRANCH  27  29
HETATM   29  C   UNL     1      -7.104   8.696  65.022  1.00  0.00    -0.080 A  
HETATM   30  C   UNL     1      -7.503   7.338  64.956  1.00  0.00    -0.089 A  
HETATM   31  C   UNL     1      -7.331   9.490  63.903  1.00  0.00    -0.114 A  
HETATM   32  C   UNL     1      -7.968   8.962  62.759  1.00  0.00    -0.147 A  
HETATM   33  C   UNL     1      -8.168   6.818  63.830  1.00  0.00     0.092 A  
HETATM   34  C   UNL     1      -8.395   7.630  62.728  1.00  0.00     0.038 A  
ENDBRANCH  27  29
ENDBRANCH  26  27
ENDBRANCH   7  26
BRANCH   9  35
HETATM   35  O   UNL     1      -5.406   9.054  70.643  1.00  0.00    -0.026 OA 
BRANCH  35  36
HETATM   36  C   UNL     1      -5.642  10.094  71.498  1.00  0.00     0.028 C  
HETATM   37  O   UNL     1      -6.027  11.195  71.207  1.00  0.00    -0.358 OA 
HETATM   38  C   UNL     1      -5.443   9.657  72.931  1.00  0.00     0.091 C  
ENDBRANCH  35  36
ENDBRANCH   9  35
TORSDOF 7
ENDMDL
MODEL      123
REMARK 921   NORMALIZED FREE ENERGY PREDICTED BY IDOCK:    0.64 KCAL/MOL
REMARK 922        TOTAL FREE ENERGY PREDICTED BY IDOCK:    0.26 KCAL/MOL
REMARK 923 INTER-LIGAND FREE ENERGY PREDICTED BY IDOCK:   -0.92 KCAL/MOL
REMARK 924 INTRA-LIGAND FREE ENERGY PREDICTED BY IDOCK:    1.18 KCAL/MOL
REMARK 927      BINDING AFFINITY PREDICTED BY RF-SCORE:    0.00 PKD
ROOT
HETATM    1  C   UNL     1     -12.375   9.399  69.698  1.00  0.00     1.032 C  
HETATM    2  C   UNL     1     -11.334  10.394  69.246  1.00  0.00    -0.296 C  
HETATM    3  C   UNL     1     -10.121  10.241  68.366  1.00  0.00    -0.178 C  
HETATM    4  C   UNL     1      -9.280  11.523  68.937  1.00  0.00     0.018 C  
HETATM    5  O   UNL     1      -8.456  12.235  66.753  1.00  0.00    -0.183 OA 
HETATM    6  C   UNL     1     -10.534  12.473  69.686  1.00  0.00     0.711 C  
HETATM    7  C   UNL     1     -11.721  11.826  68.898  1.00  0.00    -0.323 C  
HETATM    8  C   UNL     1      -6.870  12.955  70.068  1.00  0.00     0.503 C  
HETATM    9  C   UNL     1     -11.173  13.909  69.920  1.00  0.00    -0.032 C  
HETATM   10  C   UNL     1     -10.564  15.181  70.454  1.00  0.00    -0.166 C  
HETATM   11  C   UNL     1      -8.298  12.255  67.974  1.00  0.00    -0.165 C  
HETATM   12  C   UNL     1      -7.175  18.168  68.105  1.00  0.00    -0.247 C  
HETATM   13  C   UNL     1      -7.123  13.039  68.587  1.00  0.00    -0.103 C  
HETATM   14  C   UNL     1      -6.065  16.829  66.312  1.00  0.00     0.358 C  
HETATM   15  C   UNL     1      -6.727  16.786  67.662  1.00  0.00    -0.163 C  
HETATM   16  C   UNL     1      -9.969  16.051  69.387  1.00  0.00    -0.262 C  
HETATM   17  C   UNL     1     -10.692  15.691  71.693  1.00  0.00     0.418 C  
HETATM   18  C   UNL     1      -6.581  14.017  67.809  1.00  0.00    -0.188 C  
HETATM   19  C   UNL     1      -6.417  15.418  68.346  1.00  0.00    -0.111 C  
HETATM   20  C   UNL     1      -8.485  15.925  69.514  1.00  0.00    -0.089 C  
HETATM   21  C   UNL     1      -7.819  15.889  68.176  1.00  0.00    -0.134 C  
ENDROOT
BRANCH   4  22
HETATM   22  O   UNL     1      -8.425  10.773  69.910  1.00  0.00     0.212 OA 
BRANCH  22  23
HETATM   23  C   UNL     1      -7.832   9.625  69.410  1.00  0.00    -0.104 C  
HETATM   24  C   UNL     1      -6.378   9.817  69.106  1.00  0.00    -0.040 C  
HETATM   25  O   UNL     1      -8.376   8.535  69.281  1.00  0.00    -0.116 OA 
ENDBRANCH  22  23
ENDBRANCH   4  22
BRANCH   7  26
HETATM   26  O   UNL     1     -11.460  12.237  67.461  1.00  0.00    -0.302 OA 
BRANCH  26  27
HETATM   27  C   UNL     1     -12.188  13.203  66.822  1.00  0.00    -0.243 C  
HETATM   28  O   UNL     1     -13.406  13.171  66.700  1.00  0.00     1.169 OA 
BRANCH  27  29
HETATM   29  C   UNL     1     -11.402  14.469  66.523  1.00  0.00    -0.354 A  
HETATM   30  C   UNL     1     -10.231  14.363  65.732  1.00  0.00    -0.355 A  
HETATM   31  C   UNL     1     -11.768  15.735  66.968  1.00  0.00     0.386 A  
HETATM   32  C   UNL     1     -11.011  16.873  66.611  1.00  0.00     0.151 A  
HETATM   33  C   UNL     1      -9.496  15.499  65.347  1.00  0.00    -0.033 A  
HETATM   34  C   UNL     1      -9.883  16.754  65.793  1.00  0.00    -0.209 A  
ENDBRANCH  27  29
ENDBRANCH  26  27
ENDBRANCH   7  26
BRANCH   9  35
HETATM   35  O   UNL     1     -12.499  13.818  70.606  1.00  0.00    -0.340 OA 
BRANCH  35  36
HETATM   36  C   UNL     1     -13.245  14.916  70.932  1.00  0.00    -0.368 C  
HETATM   37  O   UNL     1     -13.206  15.996  70.406  1.00  0.00    -0.143 OA 
HETATM   38  C   UNL     1     -14.235  14.580  72.022  1.00  0.00    -0.630 C  
ENDBRANCH  35  36
ENDBRANCH   9  35
TORSDOF 7
ENDMDL
MODEL      124
REMARK 921   NORMALIZED FREE ENERGY PREDICTED BY IDOCK:    0.86 KCAL/MOL
REMARK 922        TOTAL FREE ENERGY PREDICTED BY IDOCK:    0.57 KCAL/MOL
REMARK 923 INTER-LIGAND FREE ENERGY PREDICTED BY IDOCK:   -3.12 KCAL/MOL
REMARK 924 INTRA-LIGAND FREE ENERGY PREDICTED BY IDOCK:    3.69 KCAL/MOL
REMARK 927      BINDING AFFINITY PREDICTED BY RF-SCORE:    0.00 PKD
ROOT
HETATM    1  C   UNL     1      -7.045  16.777  65.846  1.00  0.00     0.546 C  
HETATM    2  C   UNL     1      -7.446  15.584  66.680  1.00  0.00     0.206 C  
HETATM    3  C   UNL     1      -6.693  14.793  67.718  1.00  0.00    -0.193 C  
HETATM    4  C   UNL     1      -7.553  13.406  67.592  1.00  0.00    -0.174 C  
HETATM    5  O   UNL     1      -7.594  12.956  69.990  1.00  0.00     1.205 OA 
HETATM    6  C   UNL     1      -9.024  13.960  66.839  1.00  0.00    -0.236 C  
HETATM    7  C   UNL     1      -8.856  15.462  67.242  1.00  0.00    -0.195 C  
HETATM    8  C   UNL     1      -7.944  10.428  67.250  1.00  0.00    -0.110 C  
HETATM    9  C   UNL     1     -10.611  13.911  66.796  1.00  0.00    -0.277 C  
HETATM   10  C   UNL     1     -11.556  12.743  66.662  1.00  0.00    -0.430 C  
HETATM   11  C   UNL     1      -7.684  12.497  68.851  1.00  0.00     0.085 C  
HETATM   12  C   UNL     1     -12.534   9.182  70.167  1.00  0.00     0.663 C  
HETATM   13  C   UNL     1      -7.959  10.997  68.643  1.00  0.00    -0.143 C  
HETATM   14  C   UNL     1     -10.656   9.172  71.814  1.00  0.00    -0.383 C  
HETATM   15  C   UNL     1     -11.052   9.432  70.386  1.00  0.00    -0.311 C  
HETATM   16  C   UNL     1     -11.963  12.151  67.977  1.00  0.00    -0.233 C  
HETATM   17  C   UNL     1     -12.209  12.344  65.555  1.00  0.00    -0.356 C  
HETATM   18  C   UNL     1      -8.519  10.336  69.694  1.00  0.00    -0.132 C  
HETATM   19  C   UNL     1      -9.769   9.512  69.501  1.00  0.00    -0.201 C  
HETATM   20  C   UNL     1     -11.235  10.852  68.104  1.00  0.00    -0.363 C  
HETATM   21  C   UNL     1     -10.768  10.616  69.504  1.00  0.00    -0.290 C  
ENDROOT
BRANCH   4  22
HETATM   22  O   UNL     1      -6.626  12.690  66.659  1.00  0.00     0.145 OA 
BRANCH  22  23
HETATM   23  C   UNL     1      -5.632  11.946  67.272  1.00  0.00    -0.125 C  
HETATM   24  C   UNL     1      -5.141  10.825  66.408  1.00  0.00    -0.076 C  
HETATM   25  O   UNL     1      -5.130  12.181  68.364  1.00  0.00    -0.050 OA 
ENDBRANCH  22  23
ENDBRANCH   4  22
BRANCH   7  26
HETATM   26  O   UNL     1      -8.952  15.437  68.756  1.00  0.00    -0.173 OA 
BRANCH  26  27
HETATM   27  C   UNL     1      -9.594  16.408  69.475  1.00  0.00    -0.045 C  
HETATM   28  O   UNL     1     -10.094  16.225  70.576  1.00  0.00     0.402 OA 
BRANCH  27  29
HETATM   29  C   UNL     1      -9.389  17.812  68.929  1.00  0.00    -0.157 A  
HETATM   30  C   UNL     1      -8.071  18.332  68.887  1.00  0.00    -0.188 A  
HETATM   31  C   UNL     1     -10.417  18.621  68.455  1.00  0.00    -0.259 A  
HETATM   32  C   UNL     1     -10.143  19.899  67.921  1.00  0.00    -0.571 A  
HETATM   33  C   UNL     1      -7.793  19.591  68.323  1.00  0.00    -0.362 A  
HETATM   34  C   UNL     1      -8.831  20.378  67.846  1.00  0.00    -0.177 A  
ENDBRANCH  27  29
ENDBRANCH  26  27
ENDBRANCH   7  26
BRANCH   9  35
HETATM   35  O   UNL     1     -11.170  14.947  65.873  1.00  0.00    -0.335 OA 
BRANCH  35  36
HETATM   36  C   UNL     1     -11.451  14.697  64.559  1.00  0.00    -0.335 C  
HETATM   37  O   UNL     1     -12.390  15.108  63.931  1.00  0.00    -0.673 OA 
HETATM   38  C   UNL     1     -10.349  13.879  63.927  1.00  0.00     1.185 C  
ENDBRANCH  35  36
ENDBRANCH   9  35
TORSDOF 7
ENDMDL
MODEL      125
REMARK 921   NORMALIZED FREE ENERGY PREDICTED BY IDOCK:    1.13 KCAL/MOL
REMARK 922        TOTAL FREE ENERGY PREDICTED BY IDOCK:    0.96 KCAL/MOL
REMARK 923 INTER-LIGAND FREE ENERGY PREDICTED BY IDOCK:   -0.76 KCAL/MOL
REMARK 924 INTRA-LIGAND FREE ENERGY PREDICTED BY IDOCK:    1.72 KCAL/MOL
REMARK 927      BINDING AFFINITY PREDICTED BY RF-SCORE:    0.00 PKD
ROOT
HETATM    1  C   UNL     1      -6.814  17.236  65.479  1.00  0.00     0.749 C  
HETATM    2  C   UNL     1      -7.842  16.840  66.510  1.00  0.00    -0.338 C  
HETATM    3  C   UNL     1      -8.663  17.663  67.469  1.00  0.00    -0.234 C  
HETATM    4  C   UNL     1      -8.949  16.486  68.569  1.00  0.00    -0.231 C  
HETATM    5  O   UNL     1     -11.271  17.120  68.971  1.00  0.00    -0.018 OA 
HETATM    6  C   UNL     1      -8.645  15.042  67.640  1.00  0.00    -0.179 C  
HETATM    7  C   UNL     1      -8.827  15.711  66.238  1.00  0.00    -0.329 C  
HETATM    8  C   UNL     1      -9.037  15.256  71.330  1.00  0.00     3.167 C  
HETATM    9  C   UNL     1      -9.107  13.572  67.254  1.00  0.00    -0.225 C  
HETATM   10  C   UNL     1      -9.390  12.370  68.120  1.00  0.00    -0.209 C  
HETATM   11  C   UNL     1     -10.267  16.547  69.397  1.00  0.00    -0.264 C  
HETATM   12  C   UNL     1     -13.353  11.721  71.251  1.00  0.00     0.111 C  
HETATM   13  C   UNL     1     -10.302  15.845  70.767  1.00  0.00     0.432 C  
HETATM   14  C   UNL     1     -14.320  13.967  71.760  1.00  0.00    -0.262 C  
HETATM   15  C   UNL     1     -13.070  13.205  71.413  1.00  0.00    -0.352 C  
HETATM   16  C   UNL     1     -10.818  12.280  68.568  1.00  0.00    -0.267 C  
HETATM   17  C   UNL     1      -8.587  11.311  68.334  1.00  0.00    -0.155 C  
HETATM   18  C   UNL     1     -11.535  15.512  71.242  1.00  0.00    -0.462 C  
HETATM   19  C   UNL     1     -11.825  14.102  71.694  1.00  0.00     0.099 C  
HETATM   20  C   UNL     1     -10.834  12.652  70.016  1.00  0.00     0.843 C  
HETATM   21  C   UNL     1     -12.034  13.476  70.359  1.00  0.00    -0.367 C  
ENDROOT
BRANCH   4  22
HETATM   22  O   UNL     1      -7.846  16.839  69.518  1.00  0.00    -0.022 OA 
BRANCH  22  23
HETATM   23  C   UNL     1      -6.587  16.396  69.150  1.00  0.00    -0.195 C  
HETATM   24  C   UNL     1      -5.622  17.522  68.940  1.00  0.00    -0.163 C  
HETATM   25  O   UNL     1      -6.236  15.225  69.062  1.00  0.00    -0.099 OA 
ENDBRANCH  22  23
ENDBRANCH   4  22
BRANCH   7  26
HETATM   26  O   UNL     1     -10.290  16.114  66.224  1.00  0.00    -0.303 OA 
BRANCH  26  27
HETATM   27  C   UNL     1     -11.053  16.099  65.088  1.00  0.00    -0.249 C  
HETATM   28  O   UNL     1     -11.079  17.009  64.270  1.00  0.00    -1.092 OA 
BRANCH  27  29
HETATM   29  C   UNL     1     -11.650  14.738  64.768  1.00  0.00    -0.418 A  
HETATM   30  C   UNL     1     -11.016  13.939  63.785  1.00  0.00     0.559 A  
HETATM   31  C   UNL     1     -12.781  14.219  65.391  1.00  0.00    -0.385 A  
HETATM   32  C   UNL     1     -13.252  12.926  65.072  1.00  0.00     0.337 A  
HETATM   33  C   UNL     1     -11.464  12.637  63.491  1.00  0.00    -0.557 A  
HETATM   34  C   UNL     1     -12.587  12.134  64.131  1.00  0.00    -0.466 A  
ENDBRANCH  27  29
ENDBRANCH  26  27
ENDBRANCH   7  26
BRANCH   9  35
HETATM   35  O   UNL     1      -8.310  13.026  66.112  1.00  0.00     0.523 OA 
BRANCH  35  36
HETATM   36  C   UNL     1      -8.555  11.802  65.553  1.00  0.00     0.383 C  
HETATM   37  O   UNL     1      -9.579  11.433  65.045  1.00  0.00    -0.230 OA 
HETATM   38  C   UNL     1      -7.304  10.955  65.565  1.00  0.00     0.106 C  
ENDBRANCH  35  36
ENDBRANCH   9  35
TORSDOF 7
ENDMDL
MODEL      126
REMARK 921   NORMALIZED FREE ENERGY PREDICTED BY IDOCK:    1.24 KCAL/MOL
REMARK 922        TOTAL FREE ENERGY PREDICTED BY IDOCK:    1.11 KCAL/MOL
REMARK 923 INTER-LIGAND FREE ENERGY PREDICTED BY IDOCK:   -1.72 KCAL/MOL
REMARK 924 INTRA-LIGAND FREE ENERGY PREDICTED BY IDOCK:    2.83 KCAL/MOL
REMARK 927      BINDING AFFINITY PREDICTED BY RF-SCORE:    0.00 PKD
ROOT
HETATM    1  C   UNL     1     -10.220   7.888  73.185  1.00  0.00    -0.358 C  
HETATM    2  C   UNL     1      -9.927   7.466  71.766  1.00  0.00    -0.192 C  
HETATM    3  C   UNL     1     -10.604   7.807  70.463  1.00  0.00    -0.226 C  
HETATM    4  C   UNL     1     -10.114   6.492  69.620  1.00  0.00    -0.181 C  
HETATM    5  O   UNL     1      -9.677   7.711  67.551  1.00  0.00    -0.143 OA 
HETATM    6  C   UNL     1      -8.746   5.953  70.555  1.00  0.00    -0.140 C  
HETATM    7  C   UNL     1      -8.493   7.318  71.275  1.00  0.00    -0.115 C  
HETATM    8  C   UNL     1     -10.464   4.062  67.857  1.00  0.00     1.004 C  
HETATM    9  C   UNL     1      -7.252   5.412  70.560  1.00  0.00    -0.066 C  
HETATM   10  C   UNL     1      -6.634   4.220  69.872  1.00  0.00    -0.033 C  
HETATM   11  C   UNL     1      -9.927   6.626  68.079  1.00  0.00    -0.142 C  
HETATM   12  C   UNL     1      -5.757   3.685  64.885  1.00  0.00    -0.017 C  
HETATM   13  C   UNL     1     -10.037   5.355  67.217  1.00  0.00    -0.229 C  
HETATM   14  C   UNL     1      -7.209   5.306  63.659  1.00  0.00    -0.050 C  
HETATM   15  C   UNL     1      -7.070   4.448  64.887  1.00  0.00    -0.062 C  
HETATM   16  C   UNL     1      -6.104   4.530  68.504  1.00  0.00    -0.031 C  
HETATM   17  C   UNL     1      -6.328   3.029  70.419  1.00  0.00    -0.027 C  
HETATM   18  C   UNL     1      -9.431   5.400  65.998  1.00  0.00    -0.161 C  
HETATM   19  C   UNL     1      -8.459   4.321  65.587  1.00  0.00    -0.114 C  
HETATM   20  C   UNL     1      -7.057   3.918  67.529  1.00  0.00    -0.056 C  
HETATM   21  C   UNL     1      -7.263   4.797  66.337  1.00  0.00    -0.077 C  
ENDROOT
BRANCH   4  22
HETATM   22  O   UNL     1     -11.347   5.668  69.818  1.00  0.00    -0.160 OA 
BRANCH  22  23
HETATM   23  C   UNL     1     -11.744   5.507  71.135  1.00  0.00     0.707 C  
HETATM   24  C   UNL     1     -10.840   4.587  71.897  1.00  0.00     0.137 C  
HETATM   25  O   UNL     1     -12.678   6.084  71.678  1.00  0.00     0.251 OA 
ENDBRANCH  22  23
ENDBRANCH   4  22
BRANCH   7  26
HETATM   26  O   UNL     1      -8.093   8.248  70.144  1.00  0.00    -0.106 OA 
BRANCH  26  27
HETATM   27  C   UNL     1      -7.259   9.317  70.323  1.00  0.00    -0.087 C  
HETATM   28  O   UNL     1      -6.215   9.270  70.960  1.00  0.00    -0.059 OA 
BRANCH  27  29
HETATM   29  C   UNL     1      -7.581  10.503  69.429  1.00  0.00    -0.145 A  
HETATM   30  C   UNL     1      -6.880  11.716  69.642  1.00  0.00    -0.006 A  
HETATM   31  C   UNL     1      -8.517  10.471  68.399  1.00  0.00    -0.128 A  
HETATM   32  C   UNL     1      -8.729  11.601  67.580  1.00  0.00    -0.156 A  
HETATM   33  C   UNL     1      -7.066  12.832  68.805  1.00  0.00    -0.089 A  
HETATM   34  C   UNL     1      -7.996  12.776  67.777  1.00  0.00    -0.157 A  
ENDBRANCH  27  29
ENDBRANCH  26  27
ENDBRANCH   7  26
BRANCH   9  35
HETATM   35  O   UNL     1      -6.683   5.376  71.943  1.00  0.00    -0.056 OA 
BRANCH  35  36
HETATM   36  C   UNL     1      -7.368   4.878  73.016  1.00  0.00    -0.087 C  
HETATM   37  O   UNL     1      -7.839   5.506  73.926  1.00  0.00    -0.103 OA 
HETATM   38  C   UNL     1      -7.555   3.385  72.879  1.00  0.00    -0.060 C  
ENDBRANCH  35  36
ENDBRANCH   9  35
TORSDOF 7
ENDMDL
MODEL      127
REMARK 921   NORMALIZED FREE ENERGY PREDICTED BY IDOCK:    1.66 KCAL/MOL
REMARK 922        TOTAL FREE ENERGY PREDICTED BY IDOCK:    1.71 KCAL/MOL
REMARK 923 INTER-LIGAND FREE ENERGY PREDICTED BY IDOCK:    1.53 KCAL/MOL
REMARK 924 INTRA-LIGAND FREE ENERGY PREDICTED BY IDOCK:    0.18 KCAL/MOL
REMARK 927      BINDING AFFINITY PREDICTED BY RF-SCORE:    0.00 PKD
ROOT
HETATM    1  C   UNL     1     -11.877   5.889  68.422  1.00  0.00     2.091 C  
HETATM    2  C   UNL     1     -11.030   7.123  68.618  1.00  0.00    -0.083 C  
HETATM    3  C   UNL     1     -10.783   7.984  69.830  1.00  0.00    -0.231 C  
HETATM    4  C   UNL     1     -10.353   9.349  69.037  1.00  0.00    -0.210 C  
HETATM    5  O   UNL     1      -8.551   9.936  70.576  1.00  0.00    -0.127 OA 
HETATM    6  C   UNL     1      -9.916   8.732  67.466  1.00  0.00    -0.254 C  
HETATM    7  C   UNL     1      -9.676   7.258  67.932  1.00  0.00    -0.140 C  
HETATM    8  C   UNL     1     -10.449  12.296  68.372  1.00  0.00    -0.244 C  
HETATM    9  C   UNL     1      -8.894   8.757  66.250  1.00  0.00    -0.157 C  
HETATM   10  C   UNL     1      -8.405   9.901  65.399  1.00  0.00    -0.150 C  
HETATM   11  C   UNL     1      -9.357  10.327  69.730  1.00  0.00    -0.080 C  
HETATM   12  C   UNL     1      -5.262  13.646  66.822  1.00  0.00     1.807 C  
HETATM   13  C   UNL     1      -9.380  11.809  69.313  1.00  0.00     0.533 C  
HETATM   14  C   UNL     1      -5.283  13.776  69.316  1.00  0.00    -0.081 C  
HETATM   15  C   UNL     1      -6.076  13.429  68.086  1.00  0.00    -0.112 C  
HETATM   16  C   UNL     1      -7.173  10.563  65.939  1.00  0.00    -0.135 C  
HETATM   17  C   UNL     1      -8.810  10.226  64.157  1.00  0.00    -0.239 C  
HETATM   18  C   UNL     1      -8.247  12.522  69.561  1.00  0.00     1.293 C  
HETATM   19  C   UNL     1      -7.587  13.316  68.460  1.00  0.00    -0.128 C  
HETATM   20  C   UNL     1      -7.608  11.877  66.503  1.00  0.00     0.133 C  
HETATM   21  C   UNL     1      -6.882  12.200  67.769  1.00  0.00    -0.106 C  
ENDROOT
BRANCH   4  22
HETATM   22  O   UNL     1     -11.689  10.022  69.075  1.00  0.00    -0.022 OA 
BRANCH  22  23
HETATM   23  C   UNL     1     -12.126  10.395  70.335  1.00  0.00    -0.315 C  
HETATM   24  C   UNL     1     -12.613  11.811  70.376  1.00  0.00    -0.186 C  
HETATM   25  O   UNL     1     -12.191   9.665  71.316  1.00  0.00    -0.316 OA 
ENDBRANCH  22  23
ENDBRANCH   4  22
BRANCH   7  26
HETATM   26  O   UNL     1      -8.484   7.369  68.864  1.00  0.00    -0.128 OA 
BRANCH  26  27
HETATM   27  C   UNL     1      -7.829   6.277  69.364  1.00  0.00    -0.104 C  
HETATM   28  O   UNL     1      -7.041   5.598  68.718  1.00  0.00    -0.068 OA 
BRANCH  27  29
HETATM   29  C   UNL     1      -7.932   6.137  70.874  1.00  0.00    -0.116 A  
HETATM   30  C   UNL     1      -9.107   5.560  71.417  1.00  0.00    -0.157 A  
HETATM   31  C   UNL     1      -6.936   6.530  71.762  1.00  0.00    -0.076 A  
HETATM   32  C   UNL     1      -7.085   6.326  73.151  1.00  0.00    -0.083 A  
HETATM   33  C   UNL     1      -9.242   5.325  72.798  1.00  0.00    -0.141 A  
HETATM   34  C   UNL     1      -8.232   5.714  73.666  1.00  0.00    -0.112 A  
ENDBRANCH  27  29
ENDBRANCH  26  27
ENDBRANCH   7  26
BRANCH   9  35
HETATM   35  O   UNL     1      -9.175   7.661  65.271  1.00  0.00     0.237 OA 
BRANCH  35  36
HETATM   36  C   UNL     1      -8.201   6.842  64.772  1.00  0.00    -0.052 C  
HETATM   37  O   UNL     1      -7.176   7.178  64.244  1.00  0.00    -0.062 OA 
HETATM   38  C   UNL     1      -8.532   5.394  65.054  1.00  0.00    -0.150 C  
ENDBRANCH  35  36
ENDBRANCH   9  35
TORSDOF 7
ENDMDL
MODEL      128
REMARK 921   NORMALIZED FREE ENERGY PREDICTED BY IDOCK:    1.83 KCAL/MOL
REMARK 922        TOTAL FREE ENERGY PREDICTED BY IDOCK:    1.95 KCAL/MOL
REMARK 923 INTER-LIGAND FREE ENERGY PREDICTED BY IDOCK:   -1.04 KCAL/MOL
REMARK 924 INTRA-LIGAND FREE ENERGY PREDICTED BY IDOCK:    2.99 KCAL/MOL
REMARK 927      BINDING AFFINITY PREDICTED BY RF-SCORE:    0.00 PKD
ROOT
HETATM    1  C   UNL     1     -10.066   4.619  67.584  1.00  0.00    -0.111 C  
HETATM    2  C   UNL     1      -9.528   5.968  67.999  1.00  0.00    -0.113 C  
HETATM    3  C   UNL     1      -9.602   6.714  69.305  1.00  0.00    -0.145 C  
HETATM    4  C   UNL     1      -9.392   8.221  68.702  1.00  0.00    -0.143 C  
HETATM    5  O   UNL     1      -7.932   8.977  70.505  1.00  0.00    -0.104 OA 
HETATM    6  C   UNL     1      -8.669   7.890  67.150  1.00  0.00    -0.133 C  
HETATM    7  C   UNL     1      -8.169   6.451  67.507  1.00  0.00    -0.117 C  
HETATM    8  C   UNL     1     -10.046  11.145  68.301  1.00  0.00    -0.196 C  
HETATM    9  C   UNL     1      -7.552   8.261  66.083  1.00  0.00    -0.085 C  
HETATM   10  C   UNL     1      -7.232   9.571  65.408  1.00  0.00    -0.095 C  
HETATM   11  C   UNL     1      -8.708   9.293  69.602  1.00  0.00    -0.153 C  
HETATM   12  C   UNL     1      -5.133  13.683  67.556  1.00  0.00     0.153 C  
HETATM   13  C   UNL     1      -9.004  10.777  69.323  1.00  0.00    -0.047 C  
HETATM   14  C   UNL     1      -5.447  13.517  70.029  1.00  0.00    -0.105 C  
HETATM   15  C   UNL     1      -6.012  13.162  68.681  1.00  0.00    -0.075 C  
HETATM   16  C   UNL     1      -6.236  10.402  66.160  1.00  0.00    -0.101 C  
HETATM   17  C   UNL     1      -7.563   9.950  64.159  1.00  0.00    -0.139 C  
HETATM   18  C   UNL     1      -8.082  11.671  69.777  1.00  0.00     1.246 C  
HETATM   19  C   UNL     1      -7.494  12.703  68.847  1.00  0.00     0.018 C  
HETATM   20  C   UNL     1      -6.999  11.527  66.780  1.00  0.00    -0.108 C  
HETATM   21  C   UNL     1      -6.497  11.840  68.154  1.00  0.00    -0.051 C  
ENDROOT
BRANCH   4  22
HETATM   22  O   UNL     1     -10.837   8.601  68.629  1.00  0.00    -0.106 OA 
BRANCH  22  23
HETATM   23  C   UNL     1     -11.571   8.351  69.777  1.00  0.00     0.403 C  
HETATM   24  C   UNL     1     -12.045   6.932  69.856  1.00  0.00     0.080 C  
HETATM   25  O   UNL     1     -11.776   9.148  70.684  1.00  0.00    -0.271 OA 
ENDBRANCH  22  23
ENDBRANCH   4  22
BRANCH   7  26
HETATM   26  O   UNL     1      -7.135   6.692  68.590  1.00  0.00    -0.077 OA 
BRANCH  26  27
HETATM   27  C   UNL     1      -7.094   5.969  69.751  1.00  0.00    -0.072 C  
HETATM   28  O   UNL     1      -7.685   6.287  70.774  1.00  0.00    -0.097 OA 
BRANCH  27  29
HETATM   29  C   UNL     1      -6.489   4.584  69.590  1.00  0.00    -0.032 A  
HETATM   30  C   UNL     1      -6.537   3.972  68.313  1.00  0.00    -0.046 A  
HETATM   31  C   UNL     1      -5.877   3.878  70.621  1.00  0.00    -0.014 A  
HETATM   32  C   UNL     1      -5.297   2.613  70.386  1.00  0.00    -0.008 A  
HETATM   33  C   UNL     1      -5.930   2.726  68.069  1.00  0.00    -0.024 A  
HETATM   34  C   UNL     1      -5.314   2.044  69.108  1.00  0.00    -0.013 A  
ENDBRANCH  27  29
ENDBRANCH  26  27
ENDBRANCH   7  26
BRANCH   9  35
HETATM   35  O   UNL     1      -7.487   7.253  64.980  1.00  0.00    -0.077 OA 
BRANCH  35  36
HETATM   36  C   UNL     1      -6.352   6.552  64.680  1.00  0.00    -0.038 C  
HETATM   37  O   UNL     1      -5.402   6.377  65.394  1.00  0.00    -0.016 OA 
HETATM   38  C   UNL     1      -6.468   5.915  63.314  1.00  0.00    -0.028 C  
ENDBRANCH  35  36
ENDBRANCH   9  35
TORSDOF 7
ENDMDL
MODEL      129
REMARK 921   NORMALIZED FREE ENERGY PREDICTED BY IDOCK:    2.63 KCAL/MOL
REMARK 922        TOTAL FREE ENERGY PREDICTED BY IDOCK:    3.07 KCAL/MOL
REMARK 923 INTER-LIGAND FREE ENERGY PREDICTED BY IDOCK:    0.54 KCAL/MOL
REMARK 924 INTRA-LIGAND FREE ENERGY PREDICTED BY IDOCK:    2.54 KCAL/MOL
REMARK 927      BINDING AFFINITY PREDICTED BY RF-SCORE:    0.00 PKD
ROOT
HETATM    1  C   UNL     1      -8.173  13.258  69.688  1.00  0.00     1.464 C  
HETATM    2  C   UNL     1      -8.289  11.819  69.246  1.00  0.00     0.483 C  
HETATM    3  C   UNL     1      -8.435  10.541  70.031  1.00  0.00     0.397 C  
HETATM    4  C   UNL     1      -7.838   9.525  68.895  1.00  0.00    -0.080 C  
HETATM    5  O   UNL     1      -9.472   7.759  69.302  1.00  0.00    -0.155 OA 
HETATM    6  C   UNL     1      -8.004  10.472  67.441  1.00  0.00    -0.110 C  
HETATM    7  C   UNL     1      -9.090  11.447  68.004  1.00  0.00    -0.171 C  
HETATM    8  C   UNL     1      -6.057   7.330  67.824  1.00  0.00    -0.035 C  
HETATM    9  C   UNL     1      -8.427  10.520  65.910  1.00  0.00    -0.162 C  
HETATM   10  C   UNL     1      -7.970   9.690  64.737  1.00  0.00    -0.129 C  
HETATM   11  C   UNL     1      -8.360   8.058  68.863  1.00  0.00    -0.126 C  
HETATM   12  C   UNL     1      -9.044   4.792  63.853  1.00  0.00    -0.033 C  
HETATM   13  C   UNL     1      -7.459   6.975  68.242  1.00  0.00    -0.099 C  
HETATM   14  C   UNL     1      -9.750   3.747  66.009  1.00  0.00    -0.136 C  
HETATM   15  C   UNL     1      -8.901   4.809  65.365  1.00  0.00    -0.146 C  
HETATM   16  C   UNL     1      -8.793   8.456  64.522  1.00  0.00     0.183 C  
HETATM   17  C   UNL     1      -7.087  10.040  63.783  1.00  0.00    -0.129 C  
HETATM   18  C   UNL     1      -8.086   5.846  67.808  1.00  0.00    -0.105 C  
HETATM   19  C   UNL     1      -7.865   5.341  66.403  1.00  0.00    -0.103 C  
HETATM   20  C   UNL     1      -7.957   7.301  64.972  1.00  0.00    -0.129 C  
HETATM   21  C   UNL     1      -8.777   6.273  65.683  1.00  0.00    -0.122 C  
ENDROOT
BRANCH   4  22
HETATM   22  O   UNL     1      -6.437   9.456  69.417  1.00  0.00    -0.043 OA 
BRANCH  22  23
HETATM   23  C   UNL     1      -5.612  10.499  69.032  1.00  0.00    -0.041 C  
HETATM   24  C   UNL     1      -5.146  10.368  67.614  1.00  0.00    -0.033 C  
HETATM   25  O   UNL     1      -5.324  11.475  69.714  1.00  0.00    -0.060 OA 
ENDBRANCH  22  23
ENDBRANCH   4  22
BRANCH   7  26
HETATM   26  O   UNL     1     -10.285  10.543  68.249  1.00  0.00    -0.153 OA 
BRANCH  26  27
HETATM   27  C   UNL     1     -11.577  10.977  68.136  1.00  0.00    -0.272 C  
HETATM   28  O   UNL     1     -12.431  10.813  68.998  1.00  0.00    -0.379 OA 
BRANCH  27  29
HETATM   29  C   UNL     1     -11.805  11.935  66.978  1.00  0.00    -0.192 A  
HETATM   30  C   UNL     1     -11.406  11.529  65.680  1.00  0.00    -0.151 A  
HETATM   31  C   UNL     1     -12.396  13.188  67.109  1.00  0.00    -0.091 A  
HETATM   32  C   UNL     1     -12.616  14.005  65.979  1.00  0.00    -0.452 A  
HETATM   33  C   UNL     1     -11.655  12.327  64.549  1.00  0.00    -0.418 A  
HETATM   34  C   UNL     1     -12.255  13.569  64.699  1.00  0.00    -0.450 A  
ENDBRANCH  27  29
ENDBRANCH  26  27
ENDBRANCH   7  26
BRANCH   9  35
HETATM   35  O   UNL     1      -8.446  11.921  65.387  1.00  0.00     0.406 OA 
BRANCH  35  36
HETATM   36  C   UNL     1      -7.965  12.986  66.096  1.00  0.00     1.505 C  
HETATM   37  O   UNL     1      -6.845  13.133  66.507  1.00  0.00     0.752 OA 
HETATM   38  C   UNL     1      -9.027  14.052  66.235  1.00  0.00     0.053 C  
ENDBRANCH  35  36
ENDBRANCH   9  35
TORSDOF 7
ENDMDL
MODEL      130
REMARK 921   NORMALIZED FREE ENERGY PREDICTED BY IDOCK:    2.77 KCAL/MOL
REMARK 922        TOTAL FREE ENERGY PREDICTED BY IDOCK:    3.26 KCAL/MOL
REMARK 923 INTER-LIGAND FREE ENERGY PREDICTED BY IDOCK:    1.92 KCAL/MOL
REMARK 924 INTRA-LIGAND FREE ENERGY PREDICTED BY IDOCK:    1.34 KCAL/MOL
REMARK 927      BINDING AFFINITY PREDICTED BY RF-SCORE:    0.00 PKD
ROOT
HETATM    1  C   UNL     1      -5.534  18.176  65.265  1.00  0.00    -0.157 C  
HETATM    2  C   UNL     1      -6.772  17.810  66.048  1.00  0.00    -0.316 C  
HETATM    3  C   UNL     1      -8.189  18.317  65.970  1.00  0.00    -0.087 C  
HETATM    4  C   UNL     1      -8.639  17.923  67.493  1.00  0.00    -0.239 C  
HETATM    5  O   UNL     1     -10.868  17.148  66.867  1.00  0.00    -0.171 OA 
HETATM    6  C   UNL     1      -7.449  16.724  67.923  1.00  0.00    -0.169 C  
HETATM    7  C   UNL     1      -7.040  16.367  66.455  1.00  0.00    -0.032 C  
HETATM    8  C   UNL     1      -9.819  18.415  70.232  1.00  0.00     1.648 C  
HETATM    9  C   UNL     1      -7.141  15.318  68.594  1.00  0.00    -0.116 C  
HETATM   10  C   UNL     1      -7.455  14.796  69.973  1.00  0.00     0.171 C  
HETATM   11  C   UNL     1     -10.136  17.581  67.759  1.00  0.00    -0.330 C  
HETATM   12  C   UNL     1     -12.042  13.543  71.797  1.00  0.00     0.405 C  
HETATM   13  C   UNL     1     -10.686  17.771  69.184  1.00  0.00     0.247 C  
HETATM   14  C   UNL     1     -13.774  14.660  70.386  1.00  0.00     0.506 C  
HETATM   15  C   UNL     1     -12.372  14.743  70.927  1.00  0.00    -0.388 C  
HETATM   16  C   UNL     1      -8.785  14.108  70.063  1.00  0.00     1.586 C  
HETATM   17  C   UNL     1      -6.615  14.694  71.019  1.00  0.00     0.401 C  
HETATM   18  C   UNL     1     -11.801  17.056  69.500  1.00  0.00     1.569 C  
HETATM   19  C   UNL     1     -11.832  16.195  70.739  1.00  0.00    -0.281 C  
HETATM   20  C   UNL     1      -9.698  15.038  70.795  1.00  0.00     1.187 C  
HETATM   21  C   UNL     1     -11.077  15.022  70.218  1.00  0.00    -0.261 C  
ENDROOT
BRANCH   4  22
HETATM   22  O   UNL     1      -8.403  19.263  68.115  1.00  0.00    -0.300 OA 
BRANCH  22  23
HETATM   23  C   UNL     1      -8.653  20.348  67.291  1.00  0.00    -0.329 C  
HETATM   24  C   UNL     1      -7.398  21.061  66.887  1.00  0.00    -0.204 C  
HETATM   25  O   UNL     1      -9.748  20.683  66.859  1.00  0.00    -0.410 OA 
ENDBRANCH  22  23
ENDBRANCH   4  22
BRANCH   7  26
HETATM   26  O   UNL     1      -8.300  15.752  65.875  1.00  0.00     0.020 OA 
BRANCH  26  27
HETATM   27  C   UNL     1      -8.682  14.464  66.131  1.00  0.00     0.428 C  
HETATM   28  O   UNL     1      -7.975  13.641  66.697  1.00  0.00     0.253 OA 
BRANCH  27  29
HETATM   29  C   UNL     1     -10.164  14.208  65.914  1.00  0.00    -0.332 A  
HETATM   30  C   UNL     1     -10.945  13.794  67.022  1.00  0.00    -0.297 A  
HETATM   31  C   UNL     1     -10.811  14.367  64.692  1.00  0.00    -0.363 A  
HETATM   32  C   UNL     1     -12.203  14.153  64.578  1.00  0.00    -0.468 A  
HETATM   33  C   UNL     1     -12.337  13.614  66.917  1.00  0.00    -0.309 A  
HETATM   34  C   UNL     1     -12.965  13.788  65.693  1.00  0.00    -0.346 A  
ENDBRANCH  27  29
ENDBRANCH  26  27
ENDBRANCH   7  26
BRANCH   9  35
HETATM   35  O   UNL     1      -5.730  14.886  68.348  1.00  0.00    -0.093 OA 
BRANCH  35  36
HETATM   36  C   UNL     1      -5.379  13.584  68.125  1.00  0.00    -0.107 C  
HETATM   37  O   UNL     1      -5.211  13.054  67.059  1.00  0.00    -0.321 OA 
HETATM   38  C   UNL     1      -5.126  12.872  69.433  1.00  0.00    -0.074 C  
ENDBRANCH  35  36
ENDBRANCH   9  35
TORSDOF 7
ENDMDL
MODEL      131
REMARK 921   NORMALIZED FREE ENERGY PREDICTED BY IDOCK:    2.80 KCAL/MOL
REMARK 922        TOTAL FREE ENERGY PREDICTED BY IDOCK:    3.31 KCAL/MOL
REMARK 923 INTER-LIGAND FREE ENERGY PREDICTED BY IDOCK:   -3.88 KCAL/MOL
REMARK 924 INTRA-LIGAND FREE ENERGY PREDICTED BY IDOCK:    7.19 KCAL/MOL
REMARK 927      BINDING AFFINITY PREDICTED BY RF-SCORE:    0.00 PKD
ROOT
HETATM    1  C   UNL     1     -11.591  15.677  65.056  1.00  0.00    -0.079 C  
HETATM    2  C   UNL     1     -10.849  14.409  65.400  1.00  0.00    -0.351 C  
HETATM    3  C   UNL     1     -10.073  13.441  64.544  1.00  0.00    -0.220 C  
HETATM    4  C   UNL     1     -10.204  12.138  65.525  1.00  0.00    -0.265 C  
HETATM    5  O   UNL     1      -7.913  11.373  65.179  1.00  0.00     0.402 OA 
HETATM    6  C   UNL     1     -10.597  12.875  67.055  1.00  0.00    -0.261 C  
HETATM    7  C   UNL     1     -10.053  14.297  66.695  1.00  0.00    -0.273 C  
HETATM    8  C   UNL     1     -10.827   9.261  66.217  1.00  0.00     0.506 C  
HETATM    9  C   UNL     1     -10.350  12.927  68.623  1.00  0.00    -0.188 C  
HETATM   10  C   UNL     1     -10.447  11.847  69.671  1.00  0.00     0.478 C  
HETATM   11  C   UNL     1      -9.063  11.077  65.507  1.00  0.00    -0.207 C  
HETATM   12  C   UNL     1      -7.279   7.911  70.306  1.00  0.00    -0.057 C  
HETATM   13  C   UNL     1      -9.396   9.638  65.938  1.00  0.00    -0.275 C  
HETATM   14  C   UNL     1      -6.024   7.568  68.174  1.00  0.00    -0.035 C  
HETATM   15  C   UNL     1      -7.311   8.040  68.793  1.00  0.00    -0.085 C  
HETATM   16  C   UNL     1      -9.160  11.108  69.887  1.00  0.00     1.215 C  
HETATM   17  C   UNL     1     -11.453  11.640  70.541  1.00  0.00     0.168 C  
HETATM   18  C   UNL     1      -8.348   8.876  66.356  1.00  0.00    -0.117 C  
HETATM   19  C   UNL     1      -8.403   8.162  67.685  1.00  0.00    -0.127 C  
HETATM   20  C   UNL     1      -9.330   9.762  69.259  1.00  0.00    -0.198 C  
HETATM   21  C   UNL     1      -8.080   9.313  68.573  1.00  0.00    -0.106 C  
ENDROOT
BRANCH   4  22
HETATM   22  O   UNL     1     -11.373  11.500  64.841  1.00  0.00    -0.230 OA 
BRANCH  22  23
HETATM   23  C   UNL     1     -12.422  12.355  64.546  1.00  0.00    -0.435 C  
HETATM   24  C   UNL     1     -12.362  12.872  63.141  1.00  0.00    -0.256 C  
HETATM   25  O   UNL     1     -13.353  12.632  65.292  1.00  0.00    -0.373 OA 
ENDBRANCH  22  23
ENDBRANCH   4  22
BRANCH   7  26
HETATM   26  O   UNL     1      -8.562  14.074  66.523  1.00  0.00    -0.040 OA 
BRANCH  26  27
HETATM   27  C   UNL     1      -7.625  14.703  67.295  1.00  0.00    -0.143 C  
HETATM   28  O   UNL     1      -6.622  14.156  67.735  1.00  0.00    -0.154 OA 
BRANCH  27  29
HETATM   29  C   UNL     1      -7.772  16.216  67.328  1.00  0.00    -0.212 A  
HETATM   30  C   UNL     1      -7.303  16.963  66.219  1.00  0.00    -0.248 A  
HETATM   31  C   UNL     1      -8.353  16.918  68.380  1.00  0.00    -0.238 A  
HETATM   32  C   UNL     1      -8.496  18.321  68.321  1.00  0.00    -0.309 A  
HETATM   33  C   UNL     1      -7.476  18.358  66.144  1.00  0.00    -0.280 A  
HETATM   34  C   UNL     1      -8.067  19.038  67.198  1.00  0.00    -0.280 A  
ENDBRANCH  27  29
ENDBRANCH  26  27
ENDBRANCH   7  26
BRANCH   9  35
HETATM   35  O   UNL     1     -11.020  14.109  69.249  1.00  0.00    -0.247 OA 
BRANCH  35  36
HETATM   36  C   UNL     1     -10.692  15.399  68.939  1.00  0.00    -0.244 C  
HETATM   37  O   UNL     1     -11.121  16.054  68.028  1.00  0.00    -0.341 OA 
HETATM   38  C   UNL     1      -9.749  15.969  69.973  1.00  0.00     0.226 C  
ENDBRANCH  35  36
ENDBRANCH   9  35
TORSDOF 7
ENDMDL
MODEL      132
REMARK 921   NORMALIZED FREE ENERGY PREDICTED BY IDOCK:    3.33 KCAL/MOL
REMARK 922        TOTAL FREE ENERGY PREDICTED BY IDOCK:    4.06 KCAL/MOL
REMARK 923 INTER-LIGAND FREE ENERGY PREDICTED BY IDOCK:    2.46 KCAL/MOL
REMARK 924 INTRA-LIGAND FREE ENERGY PREDICTED BY IDOCK:    1.60 KCAL/MOL
REMARK 927      BINDING AFFINITY PREDICTED BY RF-SCORE:    0.00 PKD
ROOT
HETATM    1  C   UNL     1      -9.047  10.552  69.832  1.00  0.00     0.258 C  
HETATM    2  C   UNL     1      -8.376  11.688  69.100  1.00  0.00     0.248 C  
HETATM    3  C   UNL     1      -6.951  11.882  68.648  1.00  0.00    -0.095 C  
HETATM    4  C   UNL     1      -6.971  13.517  68.580  1.00  0.00    -0.100 C  
HETATM    5  O   UNL     1      -5.669  13.666  66.521  1.00  0.00     1.533 OA 
HETATM    6  C   UNL     1      -8.679  13.855  68.492  1.00  0.00    -0.134 C  
HETATM    7  C   UNL     1      -9.099  12.435  67.986  1.00  0.00    -0.195 C  
HETATM    8  C   UNL     1      -5.971  16.312  69.156  1.00  0.00    -0.141 C  
HETATM    9  C   UNL     1      -9.850  14.692  67.820  1.00  0.00    -0.216 C  
HETATM   10  C   UNL     1     -10.043  16.182  67.688  1.00  0.00    -0.248 C  
HETATM   11  C   UNL     1      -6.042  14.229  67.552  1.00  0.00     0.071 C  
HETATM   12  C   UNL     1      -7.405  19.355  64.705  1.00  0.00     1.433 C  
HETATM   13  C   UNL     1      -5.612  15.679  67.838  1.00  0.00    -0.152 C  
HETATM   14  C   UNL     1      -5.246  18.250  64.108  1.00  0.00     0.111 C  
HETATM   15  C   UNL     1      -6.329  18.378  65.145  1.00  0.00    -0.141 C  
HETATM   16  C   UNL     1      -9.445  16.753  66.437  1.00  0.00    -0.307 C  
HETATM   17  C   UNL     1     -10.847  16.970  68.426  1.00  0.00    -0.333 C  
HETATM   18  C   UNL     1      -5.216  16.414  66.761  1.00  0.00     0.208 C  
HETATM   19  C   UNL     1      -5.829  17.765  66.490  1.00  0.00    -0.217 C  
HETATM   20  C   UNL     1      -8.215  17.494  66.853  1.00  0.00    -0.253 C  
HETATM   21  C   UNL     1      -7.105  17.313  65.868  1.00  0.00    -0.061 C  
ENDROOT
BRANCH   4  22
HETATM   22  O   UNL     1      -6.371  13.772  69.927  1.00  0.00    -0.134 OA 
BRANCH  22  23
HETATM   23  C   UNL     1      -7.179  14.466  70.811  1.00  0.00     1.124 C  
HETATM   24  C   UNL     1      -6.611  14.505  72.197  1.00  0.00     1.479 C  
HETATM   25  O   UNL     1      -8.213  15.058  70.525  1.00  0.00     0.713 OA 
ENDBRANCH  22  23
ENDBRANCH   4  22
BRANCH   7  26
HETATM   26  O   UNL     1      -8.454  12.341  66.616  1.00  0.00    -0.154 OA 
BRANCH  26  27
HETATM   27  C   UNL     1      -8.987  11.604  65.595  1.00  0.00    -0.015 C  
HETATM   28  O   UNL     1      -8.582  10.496  65.268  1.00  0.00    -0.170 OA 
BRANCH  27  29
HETATM   29  C   UNL     1     -10.312  12.139  65.077  1.00  0.00    -0.320 A  
HETATM   30  C   UNL     1     -10.302  12.954  63.917  1.00  0.00    -0.264 A  
HETATM   31  C   UNL     1     -11.544  11.869  65.665  1.00  0.00    -0.275 A  
HETATM   32  C   UNL     1     -12.739  12.365  65.099  1.00  0.00    -0.053 A  
HETATM   33  C   UNL     1     -11.495  13.421  63.333  1.00  0.00     0.055 A  
HETATM   34  C   UNL     1     -12.713  13.131  63.929  1.00  0.00    -0.120 A  
ENDBRANCH  27  29
ENDBRANCH  26  27
ENDBRANCH   7  26
BRANCH   9  35
HETATM   35  O   UNL     1     -11.196  14.179  68.222  1.00  0.00    -0.251 OA 
BRANCH  35  36
HETATM   36  C   UNL     1     -11.459  13.675  69.465  1.00  0.00    -0.263 C  
HETATM   37  O   UNL     1     -11.214  14.194  70.521  1.00  0.00    -0.037 OA 
HETATM   38  C   UNL     1     -12.209  12.367  69.359  1.00  0.00    -0.121 C  
ENDBRANCH  35  36
ENDBRANCH   9  35
TORSDOF 7
ENDMDL
MODEL      133
REMARK 921   NORMALIZED FREE ENERGY PREDICTED BY IDOCK:    3.41 KCAL/MOL
REMARK 922        TOTAL FREE ENERGY PREDICTED BY IDOCK:    4.16 KCAL/MOL
REMARK 923 INTER-LIGAND FREE ENERGY PREDICTED BY IDOCK:   -2.58 KCAL/MOL
REMARK 924 INTRA-LIGAND FREE ENERGY PREDICTED BY IDOCK:    6.74 KCAL/MOL
REMARK 927      BINDING AFFINITY PREDICTED BY RF-SCORE:    0.00 PKD
ROOT
HETATM    1  C   UNL     1      -5.716  11.253  68.484  1.00  0.00    -0.042 C  
HETATM    2  C   UNL     1      -6.423   9.948  68.206  1.00  0.00    -0.055 C  
HETATM    3  C   UNL     1      -7.206   9.472  67.010  1.00  0.00    -0.087 C  
HETATM    4  C   UNL     1      -8.105   8.342  67.781  1.00  0.00    -0.122 C  
HETATM    5  O   UNL     1      -7.959   6.689  65.992  1.00  0.00    -0.103 OA 
HETATM    6  C   UNL     1      -7.173   8.065  69.227  1.00  0.00    -0.076 C  
HETATM    7  C   UNL     1      -5.825   8.623  68.662  1.00  0.00    -0.044 C  
HETATM    8  C   UNL     1     -10.651   6.926  68.586  1.00  0.00    -0.254 C  
HETATM    9  C   UNL     1      -6.570   7.014  70.256  1.00  0.00    -0.048 C  
HETATM   10  C   UNL     1      -7.242   5.934  71.066  1.00  0.00    -0.074 C  
HETATM   11  C   UNL     1      -8.578   7.094  66.977  1.00  0.00    -0.122 C  
HETATM   12  C   UNL     1      -9.219   1.582  69.311  1.00  0.00    -0.169 C  
HETATM   13  C   UNL     1      -9.837   6.350  67.459  1.00  0.00    -0.146 C  
HETATM   14  C   UNL     1      -9.642   1.848  66.863  1.00  0.00     0.298 C  
HETATM   15  C   UNL     1      -9.562   2.550  68.191  1.00  0.00    -0.099 C  
HETATM   16  C   UNL     1      -7.310   4.614  70.358  1.00  0.00    -0.050 C  
HETATM   17  C   UNL     1      -7.568   5.974  72.371  1.00  0.00    -0.100 C  
HETATM   18  C   UNL     1      -9.960   5.054  67.058  1.00  0.00    -0.231 C  
HETATM   19  C   UNL     1     -10.214   3.962  68.069  1.00  0.00     0.517 C  
HETATM   20  C   UNL     1      -8.731   4.429  69.935  1.00  0.00    -0.111 C  
HETATM   21  C   UNL     1      -8.825   3.801  68.581  1.00  0.00    -0.155 C  
ENDROOT
BRANCH   4  22
HETATM   22  O   UNL     1      -9.324   9.183  67.997  1.00  0.00    -0.137 OA 
BRANCH  22  23
HETATM   23  C   UNL     1      -9.528  10.179  67.056  1.00  0.00    -0.167 C  
HETATM   24  C   UNL     1      -9.526  11.549  67.662  1.00  0.00    -0.170 C  
HETATM   25  O   UNL     1      -9.632  10.012  65.847  1.00  0.00    -0.190 OA 
ENDBRANCH  22  23
ENDBRANCH   4  22
BRANCH   7  26
HETATM   26  O   UNL     1      -5.476   7.651  67.550  1.00  0.00    -0.032 OA 
BRANCH  26  27
HETATM   27  C   UNL     1      -5.477   8.005  66.229  1.00  0.00    -0.028 C  
HETATM   28  O   UNL     1      -5.254   9.138  65.825  1.00  0.00    -0.038 OA 
BRANCH  27  29
HETATM   29  C   UNL     1      -5.494   6.820  65.276  1.00  0.00    -0.027 A  
HETATM   30  C   UNL     1      -5.783   7.060  63.910  1.00  0.00    -0.032 A  
HETATM   31  C   UNL     1      -5.230   5.509  65.660  1.00  0.00    -0.009 A  
HETATM   32  C   UNL     1      -5.220   4.466  64.709  1.00  0.00    -0.012 A  
HETATM   33  C   UNL     1      -5.740   6.026  62.955  1.00  0.00    -0.018 A  
HETATM   34  C   UNL     1      -5.464   4.728  63.356  1.00  0.00    -0.010 A  
ENDBRANCH  27  29
ENDBRANCH  26  27
ENDBRANCH   7  26
BRANCH   9  35
HETATM   35  O   UNL     1      -5.626   7.663  71.218  1.00  0.00    -0.034 OA 
BRANCH  35  36
HETATM   36  C   UNL     1      -5.945   8.786  71.929  1.00  0.00    -0.063 C  
HETATM   37  O   UNL     1      -5.859   9.925  71.556  1.00  0.00    -0.215 OA 
HETATM   38  C   UNL     1      -6.530   8.415  73.271  1.00  0.00    -0.122 C  
ENDBRANCH  35  36
ENDBRANCH   9  35
TORSDOF 7
ENDMDL
MODEL      134
REMARK 921   NORMALIZED FREE ENERGY PREDICTED BY IDOCK:    3.59 KCAL/MOL
REMARK 922        TOTAL FREE ENERGY PREDICTED BY IDOCK:    4.42 KCAL/MOL
REMARK 923 INTER-LIGAND FREE ENERGY PREDICTED BY IDOCK:    3.86 KCAL/MOL
REMARK 924 INTRA-LIGAND FREE ENERGY PREDICTED BY IDOCK:    0.57 KCAL/MOL
REMARK 927      BINDING AFFINITY PREDICTED BY RF-SCORE:    0.00 PKD
ROOT
HETATM    1  C   UNL     1      -5.748  17.816  65.926  1.00  0.00    -0.217 C  
HETATM    2  C   UNL     1      -6.535  16.775  66.684  1.00  0.00    -0.176 C  
HETATM    3  C   UNL     1      -6.122  15.788  67.745  1.00  0.00    -0.171 C  
HETATM    4  C   UNL     1      -7.326  14.705  67.507  1.00  0.00    -0.197 C  
HETATM    5  O   UNL     1      -7.684  14.252  69.878  1.00  0.00     0.266 OA 
HETATM    6  C   UNL     1      -8.516  15.665  66.670  1.00  0.00    -0.323 C  
HETATM    7  C   UNL     1      -7.963  17.052  67.138  1.00  0.00    -0.188 C  
HETATM    8  C   UNL     1      -8.516  11.967  67.030  1.00  0.00    -0.177 C  
HETATM    9  C   UNL     1     -10.044  16.071  66.511  1.00  0.00    -0.287 C  
HETATM   10  C   UNL     1     -11.266  15.224  66.266  1.00  0.00    -0.223 C  
HETATM   11  C   UNL     1      -7.809  13.854  68.719  1.00  0.00    -0.079 C  
HETATM   12  C   UNL     1     -13.488  12.039  69.560  1.00  0.00     3.229 C  
HETATM   13  C   UNL     1      -8.480  12.497  68.438  1.00  0.00    -0.125 C  
HETATM   14  C   UNL     1     -11.827  11.472  71.337  1.00  0.00     0.680 C  
HETATM   15  C   UNL     1     -12.018  11.854  69.895  1.00  0.00    -0.398 C  
HETATM   16  C   UNL     1     -11.928  14.753  67.527  1.00  0.00    -0.239 C  
HETATM   17  C   UNL     1     -11.915  15.043  65.101  1.00  0.00    -0.135 C  
HETATM   18  C   UNL     1      -9.286  12.008  69.421  1.00  0.00     0.988 C  
HETATM   19  C   UNL     1     -10.698  11.577  69.109  1.00  0.00    -0.210 C  
HETATM   20  C   UNL     1     -11.610  13.299  67.658  1.00  0.00    -0.386 C  
HETATM   21  C   UNL     1     -11.342  12.920  69.079  1.00  0.00    -0.341 C  
ENDROOT
BRANCH   4  22
HETATM   22  O   UNL     1      -6.569  13.769  66.619  1.00  0.00     0.830 OA 
BRANCH  22  23
HETATM   23  C   UNL     1      -5.688  12.920  67.270  1.00  0.00     0.058 C  
HETATM   24  C   UNL     1      -5.377  11.694  66.469  1.00  0.00    -0.061 C  
HETATM   25  O   UNL     1      -5.147  13.139  68.347  1.00  0.00    -0.064 OA 
ENDBRANCH  22  23
ENDBRANCH   4  22
BRANCH   7  26
HETATM   26  O   UNL     1      -8.182  17.034  68.640  1.00  0.00    -0.245 OA 
BRANCH  26  27
HETATM   27  C   UNL     1      -8.553  18.144  69.348  1.00  0.00     0.477 C  
HETATM   28  O   UNL     1      -9.687  18.340  69.767  1.00  0.00     0.382 OA 
BRANCH  27  29
HETATM   29  C   UNL     1      -7.383  18.987  69.827  1.00  0.00     0.244 A  
HETATM   30  C   UNL     1      -6.889  20.001  68.970  1.00  0.00    -0.302 A  
HETATM   31  C   UNL     1      -6.769  18.833  71.066  1.00  0.00     1.716 A  
HETATM   32  C   UNL     1      -5.714  19.685  71.461  1.00  0.00    -0.286 A  
HETATM   33  C   UNL     1      -5.860  20.873  69.375  1.00  0.00    -0.251 A  
HETATM   34  C   UNL     1      -5.268  20.710  70.619  1.00  0.00    -0.289 A  
ENDBRANCH  27  29
ENDBRANCH  26  27
ENDBRANCH   7  26
BRANCH   9  35
HETATM   35  O   UNL     1     -10.211  17.237  65.587  1.00  0.00    -0.579 OA 
BRANCH  35  36
HETATM   36  C   UNL     1     -10.822  18.401  65.963  1.00  0.00    -0.008 C  
HETATM   37  O   UNL     1     -10.808  19.446  65.371  1.00  0.00    -0.452 OA 
HETATM   38  C   UNL     1     -11.630  18.192  67.223  1.00  0.00     1.393 C  
ENDBRANCH  35  36
ENDBRANCH   9  35
TORSDOF 7
ENDMDL
MODEL      135
REMARK 921   NORMALIZED FREE ENERGY PREDICTED BY IDOCK:    4.17 KCAL/MOL
REMARK 922        TOTAL FREE ENERGY PREDICTED BY IDOCK:    5.24 KCAL/MOL
REMARK 923 INTER-LIGAND FREE ENERGY PREDICTED BY IDOCK:   -0.51 KCAL/MOL
REMARK 924 INTRA-LIGAND FREE ENERGY PREDICTED BY IDOCK:    5.75 KCAL/MOL
REMARK 927      BINDING AFFINITY PREDICTED BY RF-SCORE:    0.00 PKD
ROOT
HETATM    1  C   UNL     1     -10.160   4.130  68.022  1.00  0.00     0.103 C  
HETATM    2  C   UNL     1      -9.473   5.451  68.272  1.00  0.00    -0.146 C  
HETATM    3  C   UNL     1      -9.242   6.642  67.379  1.00  0.00    -0.124 C  
HETATM    4  C   UNL     1      -7.945   7.251  68.168  1.00  0.00    -0.123 C  
HETATM    5  O   UNL     1      -8.632   9.583  67.950  1.00  0.00    -0.119 OA 
HETATM    6  C   UNL     1      -8.089   6.501  69.735  1.00  0.00    -0.125 C  
HETATM    7  C   UNL     1      -9.612   6.162  69.612  1.00  0.00    -0.148 C  
HETATM    8  C   UNL     1      -5.133   8.333  68.426  1.00  0.00    -0.033 C  
HETATM    9  C   UNL     1      -8.018   6.663  71.313  1.00  0.00    -0.107 C  
HETATM   10  C   UNL     1      -6.912   7.175  72.201  1.00  0.00    -0.067 C  
HETATM   11  C   UNL     1      -7.705   8.790  68.126  1.00  0.00    -0.101 C  
HETATM   12  C   UNL     1      -5.323  11.994  72.632  1.00  0.00     0.736 C  
HETATM   13  C   UNL     1      -6.272   9.312  68.336  1.00  0.00    -0.053 C  
HETATM   14  C   UNL     1      -6.071  13.246  70.604  1.00  0.00     0.005 C  
HETATM   15  C   UNL     1      -5.653  11.908  71.151  1.00  0.00     0.050 C  
HETATM   16  C   UNL     1      -6.978   8.653  72.444  1.00  0.00    -0.031 C  
HETATM   17  C   UNL     1      -6.051   6.448  72.936  1.00  0.00    -0.054 C  
HETATM   18  C   UNL     1      -6.157  10.604  68.752  1.00  0.00    -0.040 C  
HETATM   19  C   UNL     1      -5.329  10.945  69.968  1.00  0.00    -0.054 C  
HETATM   20  C   UNL     1      -5.882   9.268  71.636  1.00  0.00    -0.070 C  
HETATM   21  C   UNL     1      -6.310  10.562  71.022  1.00  0.00     0.241 C  
ENDROOT
BRANCH   4  22
HETATM   22  O   UNL     1      -6.889   6.643  67.299  1.00  0.00    -0.067 OA 
BRANCH  22  23
HETATM   23  C   UNL     1      -6.548   5.338  67.612  1.00  0.00    -0.053 C  
HETATM   24  C   UNL     1      -6.273   4.510  66.393  1.00  0.00    -0.032 C  
HETATM   25  O   UNL     1      -6.406   4.884  68.741  1.00  0.00    -0.033 OA 
ENDBRANCH  22  23
ENDBRANCH   4  22
BRANCH   7  26
HETATM   26  O   UNL     1     -10.276   7.525  69.558  1.00  0.00    -0.196 OA 
BRANCH  26  27
HETATM   27  C   UNL     1     -10.971   7.968  68.467  1.00  0.00     0.219 C  
HETATM   28  O   UNL     1     -11.408   7.234  67.591  1.00  0.00     0.066 OA 
BRANCH  27  29
HETATM   29  C   UNL     1     -11.413   9.419  68.567  1.00  0.00     0.456 A  
HETATM   30  C   UNL     1     -11.382  10.215  67.395  1.00  0.00     0.132 A  
HETATM   31  C   UNL     1     -11.861  10.017  69.741  1.00  0.00    -0.087 A  
HETATM   32  C   UNL     1     -12.298  11.360  69.748  1.00  0.00    -0.250 A  
HETATM   33  C   UNL     1     -11.850  11.542  67.392  1.00  0.00    -0.108 A  
HETATM   34  C   UNL     1     -12.302  12.117  68.571  1.00  0.00     0.381 A  
ENDBRANCH  27  29
ENDBRANCH  26  27
ENDBRANCH   7  26
BRANCH   9  35
HETATM   35  O   UNL     1      -8.520   5.441  72.017  1.00  0.00    -0.124 OA 
BRANCH  35  36
HETATM   36  C   UNL     1      -9.677   5.425  72.745  1.00  0.00    -0.149 C  
HETATM   37  O   UNL     1     -10.340   6.374  73.066  1.00  0.00    -0.192 OA 
HETATM   38  C   UNL     1     -10.097   4.004  73.040  1.00  0.00    -0.212 C  
ENDBRANCH  35  36
ENDBRANCH   9  35
TORSDOF 7
ENDMDL
MODEL      136
REMARK 921   NORMALIZED FREE ENERGY PREDICTED BY IDOCK:    4.29 KCAL/MOL
REMARK 922        TOTAL FREE ENERGY PREDICTED BY IDOCK:    5.41 KCAL/MOL
REMARK 923 INTER-LIGAND FREE ENERGY PREDICTED BY IDOCK:    5.40 KCAL/MOL
REMARK 924 INTRA-LIGAND FREE ENERGY PREDICTED BY IDOCK:    0.00 KCAL/MOL
REMARK 927      BINDING AFFINITY PREDICTED BY RF-SCORE:    0.00 PKD
ROOT
HETATM    1  C   UNL     1      -6.669  17.724  65.162  1.00  0.00     0.856 C  
HETATM    2  C   UNL     1      -7.763  17.279  66.103  1.00  0.00    -0.317 C  
HETATM    3  C   UNL     1      -8.999  17.982  66.600  1.00  0.00    -0.285 C  
HETATM    4  C   UNL     1      -9.197  17.117  67.975  1.00  0.00    -0.250 C  
HETATM    5  O   UNL     1     -11.627  16.972  67.795  1.00  0.00     0.209 OA 
HETATM    6  C   UNL     1      -8.266  15.683  67.637  1.00  0.00    -0.165 C  
HETATM    7  C   UNL     1      -8.277  15.845  66.081  1.00  0.00     0.072 C  
HETATM    8  C   UNL     1      -9.613  16.716  70.943  1.00  0.00     3.390 C  
HETATM    9  C   UNL     1      -8.170  14.098  67.700  1.00  0.00    -0.186 C  
HETATM   10  C   UNL     1      -8.300  13.150  68.865  1.00  0.00     0.243 C  
HETATM   11  C   UNL     1     -10.640  16.926  68.531  1.00  0.00    -0.367 C  
HETATM   12  C   UNL     1     -12.556  11.999  71.412  1.00  0.00    -0.330 C  
HETATM   13  C   UNL     1     -10.812  16.648  70.035  1.00  0.00    -0.173 C  
HETATM   14  C   UNL     1     -14.228  13.807  70.994  1.00  0.00     0.762 C  
HETATM   15  C   UNL     1     -12.766  13.473  71.110  1.00  0.00    -0.425 C  
HETATM   16  C   UNL     1      -9.705  12.684  69.102  1.00  0.00     0.495 C  
HETATM   17  C   UNL     1      -7.305  12.540  69.537  1.00  0.00     0.469 C  
HETATM   18  C   UNL     1     -11.973  16.040  70.407  1.00  0.00    -0.245 C  
HETATM   19  C   UNL     1     -11.945  14.792  71.256  1.00  0.00    -0.404 C  
HETATM   20  C   UNL     1     -10.190  13.396  70.323  1.00  0.00     2.441 C  
HETATM   21  C   UNL     1     -11.623  13.802  70.190  1.00  0.00    -0.230 C  
ENDROOT
BRANCH   4  22
HETATM   22  O   UNL     1      -8.519  18.076  68.903  1.00  0.00    -0.236 OA 
BRANCH  22  23
HETATM   23  C   UNL     1      -8.667  19.414  68.579  1.00  0.00    -0.367 C  
HETATM   24  C   UNL     1     -10.028  19.939  68.920  1.00  0.00    -0.430 C  
HETATM   25  O   UNL     1      -7.792  20.144  68.130  1.00  0.00    -0.264 OA 
ENDBRANCH  22  23
ENDBRANCH   4  22
BRANCH   7  26
HETATM   26  O   UNL     1      -9.742  15.687  65.717  1.00  0.00    -0.328 OA 
BRANCH  26  27
HETATM   27  C   UNL     1     -10.213  14.636  64.979  1.00  0.00    -0.361 C  
HETATM   28  O   UNL     1      -9.912  14.432  63.811  1.00  0.00     1.661 OA 
BRANCH  27  29
HETATM   29  C   UNL     1     -10.917  13.572  65.806  1.00  0.00    -0.285 A  
HETATM   30  C   UNL     1     -10.545  12.218  65.618  1.00  0.00    -0.295 A  
HETATM   31  C   UNL     1     -11.902  13.845  66.750  1.00  0.00    -0.452 A  
HETATM   32  C   UNL     1     -12.480  12.807  67.513  1.00  0.00     0.615 A  
HETATM   33  C   UNL     1     -11.095  11.186  66.401  1.00  0.00    -0.204 A  
HETATM   34  C   UNL     1     -12.068  11.481  67.345  1.00  0.00     0.358 A  
ENDBRANCH  27  29
ENDBRANCH  26  27
ENDBRANCH   7  26
BRANCH   9  35
HETATM   35  O   UNL     1      -6.990  13.586  66.937  1.00  0.00     0.142 OA 
BRANCH  35  36
HETATM   36  C   UNL     1      -6.836  12.270  66.601  1.00  0.00     0.392 C  
HETATM   37  O   UNL     1      -7.658  11.553  66.096  1.00  0.00     0.015 OA 
HETATM   38  C   UNL     1      -5.418  11.819  66.865  1.00  0.00    -0.122 C  
ENDBRANCH  35  36
ENDBRANCH   9  35
TORSDOF 7
ENDMDL
MODEL      137
REMARK 921   NORMALIZED FREE ENERGY PREDICTED BY IDOCK:    4.71 KCAL/MOL
REMARK 922        TOTAL FREE ENERGY PREDICTED BY IDOCK:    6.00 KCAL/MOL
REMARK 923 INTER-LIGAND FREE ENERGY PREDICTED BY IDOCK:    4.17 KCAL/MOL
REMARK 924 INTRA-LIGAND FREE ENERGY PREDICTED BY IDOCK:    1.82 KCAL/MOL
REMARK 927      BINDING AFFINITY PREDICTED BY RF-SCORE:    0.00 PKD
ROOT
HETATM    1  C   UNL     1     -12.632  14.536  65.905  1.00  0.00    -0.157 C  
HETATM    2  C   UNL     1     -11.895  15.501  66.802  1.00  0.00     0.377 C  
HETATM    3  C   UNL     1     -12.391  16.590  67.717  1.00  0.00     1.866 C  
HETATM    4  C   UNL     1     -11.022  17.487  67.741  1.00  0.00    -0.122 C  
HETATM    5  O   UNL     1     -11.147  18.014  70.121  1.00  0.00     1.430 OA 
HETATM    6  C   UNL     1      -9.825  16.331  67.222  1.00  0.00    -0.243 C  
HETATM    7  C   UNL     1     -10.662  15.059  67.579  1.00  0.00    -0.284 C  
HETATM    8  C   UNL     1      -9.376  20.010  67.493  1.00  0.00    -0.485 C  
HETATM    9  C   UNL     1      -8.375  15.715  67.428  1.00  0.00    -0.177 C  
HETATM   10  C   UNL     1      -7.019  16.376  67.455  1.00  0.00    -0.196 C  
HETATM   11  C   UNL     1     -10.708  18.329  69.014  1.00  0.00     0.488 C  
HETATM   12  C   UNL     1      -5.166  19.405  71.104  1.00  0.00    -0.288 C  
HETATM   13  C   UNL     1      -9.804  19.566  68.866  1.00  0.00    -0.522 C  
HETATM   14  C   UNL     1      -7.086  20.285  72.437  1.00  0.00     1.751 C  
HETATM   15  C   UNL     1      -6.631  19.804  71.086  1.00  0.00     0.281 C  
HETATM   16  C   UNL     1      -6.599  16.821  68.824  1.00  0.00    -0.180 C  
HETATM   17  C   UNL     1      -6.105  16.406  66.467  1.00  0.00     0.451 C  
HETATM   18  C   UNL     1      -9.179  19.994  69.998  1.00  0.00     0.902 C  
HETATM   19  C   UNL     1      -7.686  20.213  70.011  1.00  0.00     0.727 C  
HETATM   20  C   UNL     1      -6.727  18.310  68.847  1.00  0.00    -0.259 C  
HETATM   21  C   UNL     1      -7.252  18.796  70.160  1.00  0.00     0.838 C  
ENDROOT
BRANCH   4  22
HETATM   22  O   UNL     1     -11.417  18.468  66.682  1.00  0.00     0.714 OA 
BRANCH  22  23
HETATM   23  C   UNL     1     -10.796  18.295  65.456  1.00  0.00     0.179 C  
HETATM   24  C   UNL     1      -9.456  18.962  65.394  1.00  0.00     1.245 C  
HETATM   25  O   UNL     1     -11.223  17.624  64.524  1.00  0.00    -0.811 OA 
ENDBRANCH  22  23
ENDBRANCH   4  22
BRANCH   7  26
HETATM   26  O   UNL     1     -10.786  15.128  69.090  1.00  0.00    -0.231 OA 
BRANCH  26  27
HETATM   27  C   UNL     1     -11.290  14.101  69.840  1.00  0.00    -0.173 C  
HETATM   28  O   UNL     1     -11.014  12.922  69.657  1.00  0.00     0.007 OA 
BRANCH  27  29
HETATM   29  C   UNL     1     -11.998  14.554  71.106  1.00  0.00    -0.401 A  
HETATM   30  C   UNL     1     -13.398  14.356  71.203  1.00  0.00    -0.392 A  
HETATM   31  C   UNL     1     -11.353  15.144  72.189  1.00  0.00    -0.333 A  
HETATM   32  C   UNL     1     -12.071  15.499  73.352  1.00  0.00    -0.609 A  
HETATM   33  C   UNL     1     -14.109  14.678  72.374  1.00  0.00    -0.542 A  
HETATM   34  C   UNL     1     -13.446  15.255  73.447  1.00  0.00    -0.261 A  
ENDBRANCH  27  29
ENDBRANCH  26  27
ENDBRANCH   7  26
BRANCH   9  35
HETATM   35  O   UNL     1      -8.172  14.490  66.594  1.00  0.00    -0.027 OA 
BRANCH  35  36
HETATM   36  C   UNL     1      -8.050  13.238  67.129  1.00  0.00    -0.088 C  
HETATM   37  O   UNL     1      -8.656  12.253  66.805  1.00  0.00    -0.194 OA 
HETATM   38  C   UNL     1      -6.950  13.210  68.165  1.00  0.00    -0.108 C  
ENDBRANCH  35  36
ENDBRANCH   9  35
TORSDOF 7
ENDMDL
MODEL      138
REMARK 921   NORMALIZED FREE ENERGY PREDICTED BY IDOCK:    4.99 KCAL/MOL
REMARK 922        TOTAL FREE ENERGY PREDICTED BY IDOCK:    6.39 KCAL/MOL
REMARK 923 INTER-LIGAND FREE ENERGY PREDICTED BY IDOCK:    3.97 KCAL/MOL
REMARK 924 INTRA-LIGAND FREE ENERGY PREDICTED BY IDOCK:    2.42 KCAL/MOL
REMARK 927      BINDING AFFINITY PREDICTED BY RF-SCORE:    0.00 PKD
ROOT
HETATM    1  C   UNL     1      -8.751  17.147  67.386  1.00  0.00    -0.211 C  
HETATM    2  C   UNL     1      -8.810  15.686  67.009  1.00  0.00    -0.250 C  
HETATM    3  C   UNL     1      -8.307  14.946  65.797  1.00  0.00     1.852 C  
HETATM    4  C   UNL     1      -9.320  13.665  65.894  1.00  0.00     0.074 C  
HETATM    5  O   UNL     1      -7.636  12.007  65.284  1.00  0.00     1.659 OA 
HETATM    6  C   UNL     1      -9.832  13.734  67.558  1.00  0.00    -0.230 C  
HETATM    7  C   UNL     1      -8.630  14.600  68.062  1.00  0.00    -0.162 C  
HETATM    8  C   UNL     1     -11.342  11.667  64.865  1.00  0.00    -0.252 C  
HETATM    9  C   UNL     1     -10.127  12.948  68.907  1.00  0.00     0.060 C  
HETATM   10  C   UNL     1     -11.036  11.777  69.184  1.00  0.00    -0.261 C  
HETATM   11  C   UNL     1      -8.833  12.290  65.346  1.00  0.00     0.663 C  
HETATM   12  C   UNL     1     -10.354   6.957  67.689  1.00  0.00    -0.260 C  
HETATM   13  C   UNL     1      -9.892  11.265  64.901  1.00  0.00    -0.310 C  
HETATM   14  C   UNL     1      -8.749   6.954  65.775  1.00  0.00    -0.120 C  
HETATM   15  C   UNL     1      -9.818   7.729  66.496  1.00  0.00    -0.255 C  
HETATM   16  C   UNL     1     -10.364  10.447  69.014  1.00  0.00    -0.232 C  
HETATM   17  C   UNL     1     -12.255  11.805  69.753  1.00  0.00    -0.270 C  
HETATM   18  C   UNL     1      -9.496   9.962  64.876  1.00  0.00    -0.355 C  
HETATM   19  C   UNL     1     -10.302   8.904  65.591  1.00  0.00     0.955 C  
HETATM   20  C   UNL     1     -10.891   9.862  67.743  1.00  0.00    -0.321 C  
HETATM   21  C   UNL     1      -9.820   9.153  66.978  1.00  0.00    -0.267 C  
ENDROOT
BRANCH   4  22
HETATM   22  O   UNL     1     -10.346  14.159  64.922  1.00  0.00    -0.411 OA 
BRANCH  22  23
HETATM   23  C   UNL     1     -11.043  15.286  65.323  1.00  0.00    -0.376 C  
HETATM   24  C   UNL     1     -10.588  16.524  64.611  1.00  0.00     0.351 C  
HETATM   25  O   UNL     1     -11.978  15.308  66.114  1.00  0.00     0.066 OA 
ENDBRANCH  22  23
ENDBRANCH   4  22
BRANCH   7  26
HETATM   26  O   UNL     1      -7.430  13.693  67.860  1.00  0.00    -0.124 OA 
BRANCH  26  27
HETATM   27  C   UNL     1      -6.160  14.053  68.219  1.00  0.00    -0.117 C  
HETATM   28  O   UNL     1      -5.185  13.938  67.487  1.00  0.00    -0.327 OA 
BRANCH  27  29
HETATM   29  C   UNL     1      -6.092  14.876  69.494  1.00  0.00    -0.113 A  
HETATM   30  C   UNL     1      -5.233  16.003  69.523  1.00  0.00    -0.111 A  
HETATM   31  C   UNL     1      -6.833  14.601  70.639  1.00  0.00     0.338 A  
HETATM   32  C   UNL     1      -6.750  15.439  71.773  1.00  0.00     2.176 A  
HETATM   33  C   UNL     1      -5.175  16.858  70.639  1.00  0.00    -0.220 A  
HETATM   34  C   UNL     1      -5.930  16.572  71.767  1.00  0.00     1.709 A  
ENDBRANCH  27  29
ENDBRANCH  26  27
ENDBRANCH   7  26
BRANCH   9  35
HETATM   35  O   UNL     1     -10.371  13.883  70.049  1.00  0.00     0.569 OA 
BRANCH  35  36
HETATM   36  C   UNL     1     -11.227  14.945  69.970  1.00  0.00    -0.259 C  
HETATM   37  O   UNL     1     -11.007  16.013  69.466  1.00  0.00    -0.276 OA 
HETATM   38  C   UNL     1     -12.579  14.579  70.537  1.00  0.00    -0.413 C  
ENDBRANCH  35  36
ENDBRANCH   9  35
TORSDOF 7
ENDMDL
MODEL      139
REMARK 921   NORMALIZED FREE ENERGY PREDICTED BY IDOCK:    5.17 KCAL/MOL
REMARK 922        TOTAL FREE ENERGY PREDICTED BY IDOCK:    6.65 KCAL/MOL
REMARK 923 INTER-LIGAND FREE ENERGY PREDICTED BY IDOCK:    1.30 KCAL/MOL
REMARK 924 INTRA-LIGAND FREE ENERGY PREDICTED BY IDOCK:    5.35 KCAL/MOL
REMARK 927      BINDING AFFINITY PREDICTED BY RF-SCORE:    0.00 PKD
ROOT
HETATM    1  C   UNL     1     -11.163  13.545  70.653  1.00  0.00     0.854 C  
HETATM    2  C   UNL     1     -10.244  14.283  69.709  1.00  0.00     0.369 C  
HETATM    3  C   UNL     1      -9.190  13.791  68.752  1.00  0.00     0.016 C  
HETATM    4  C   UNL     1      -8.309  15.168  68.680  1.00  0.00    -0.160 C  
HETATM    5  O   UNL     1      -7.884  15.029  66.281  1.00  0.00     0.468 OA 
HETATM    6  C   UNL     1      -9.453  16.358  69.239  1.00  0.00    -0.182 C  
HETATM    7  C   UNL     1     -10.732  15.507  68.943  1.00  0.00    -0.242 C  
HETATM    8  C   UNL     1      -5.794  16.840  68.807  1.00  0.00    -0.141 C  
HETATM    9  C   UNL     1     -10.091  17.801  69.049  1.00  0.00    -0.294 C  
HETATM   10  C   UNL     1      -9.445  19.162  68.984  1.00  0.00    -0.361 C  
HETATM   11  C   UNL     1      -7.525  15.480  67.370  1.00  0.00    -0.204 C  
HETATM   12  C   UNL     1      -6.594  21.016  65.194  1.00  0.00    -0.053 C  
HETATM   13  C   UNL     1      -6.292  16.397  67.458  1.00  0.00    -0.192 C  
HETATM   14  C   UNL     1      -5.753  19.094  63.839  1.00  0.00    -0.281 C  
HETATM   15  C   UNL     1      -6.180  19.554  65.206  1.00  0.00    -0.287 C  
HETATM   16  C   UNL     1      -9.064  19.576  67.594  1.00  0.00    -0.381 C  
HETATM   17  C   UNL     1      -9.382  20.084  69.962  1.00  0.00     0.812 C  
HETATM   18  C   UNL     1      -5.919  17.017  66.304  1.00  0.00     0.046 C  
HETATM   19  C   UNL     1      -5.715  18.512  66.270  1.00  0.00    -0.191 C  
HETATM   20  C   UNL     1      -7.576  19.462  67.508  1.00  0.00    -0.282 C  
HETATM   21  C   UNL     1      -7.141  18.932  66.179  1.00  0.00    -0.284 C  
ENDROOT
BRANCH   4  22
HETATM   22  O   UNL     1      -7.280  14.790  69.698  1.00  0.00    -0.169 OA 
BRANCH  22  23
HETATM   23  C   UNL     1      -6.566  13.638  69.416  1.00  0.00    -0.090 C  
HETATM   24  C   UNL     1      -5.130  13.919  69.092  1.00  0.00    -0.074 C  
HETATM   25  O   UNL     1      -6.997  12.493  69.478  1.00  0.00     0.018 OA 
ENDBRANCH  22  23
ENDBRANCH   4  22
BRANCH   7  26
HETATM   26  O   UNL     1     -10.726  15.371  67.432  1.00  0.00    -0.284 OA 
BRANCH  26  27
HETATM   27  C   UNL     1     -11.692  14.688  66.745  1.00  0.00    -0.341 C  
HETATM   28  O   UNL     1     -12.750  15.184  66.379  1.00  0.00     0.668 OA 
BRANCH  27  29
HETATM   29  C   UNL     1     -11.233  13.339  66.216  1.00  0.00    -0.321 A  
HETATM   30  C   UNL     1     -10.339  12.575  67.007  1.00  0.00    -0.236 A  
HETATM   31  C   UNL     1     -11.647  12.797  65.003  1.00  0.00    -0.372 A  
HETATM   32  C   UNL     1     -11.212  11.516  64.599  1.00  0.00    -0.276 A  
HETATM   33  C   UNL     1      -9.932  11.284  66.621  1.00  0.00    -0.242 A  
HETATM   34  C   UNL     1     -10.364  10.757  65.413  1.00  0.00    -0.315 A  
ENDBRANCH  27  29
ENDBRANCH  26  27
ENDBRANCH   7  26
BRANCH   9  35
HETATM   35  O   UNL     1     -11.281  17.999  69.933  1.00  0.00     1.603 OA 
BRANCH  35  36
HETATM   36  C   UNL     1     -11.863  16.980  70.635  1.00  0.00     1.808 C  
HETATM   37  O   UNL     1     -12.803  16.313  70.294  1.00  0.00     0.117 OA 
HETATM   38  C   UNL     1     -11.100  16.713  71.912  1.00  0.00     0.772 C  
ENDBRANCH  35  36
ENDBRANCH   9  35
TORSDOF 7
ENDMDL
MODEL      140
REMARK 921   NORMALIZED FREE ENERGY PREDICTED BY IDOCK:    6.12 KCAL/MOL
REMARK 922        TOTAL FREE ENERGY PREDICTED BY IDOCK:    7.98 KCAL/MOL
REMARK 923 INTER-LIGAND FREE ENERGY PREDICTED BY IDOCK:    6.76 KCAL/MOL
REMARK 924 INTRA-LIGAND FREE ENERGY PREDICTED BY IDOCK:    1.22 KCAL/MOL
REMARK 927      BINDING AFFINITY PREDICTED BY RF-SCORE:    0.00 PKD
ROOT
HETATM    1  C   UNL     1      -7.796  10.092  71.434  1.00  0.00     2.203 C  
HETATM    2  C   UNL     1      -8.423  10.362  70.087  1.00  0.00     0.406 C  
HETATM    3  C   UNL     1      -8.208   9.724  68.739  1.00  0.00    -0.108 C  
HETATM    4  C   UNL     1      -8.726  10.979  67.825  1.00  0.00    -0.130 C  
HETATM    5  O   UNL     1      -9.913   9.593  66.205  1.00  0.00    -0.256 OA 
HETATM    6  C   UNL     1      -9.674  11.892  68.969  1.00  0.00     0.159 C  
HETATM    7  C   UNL     1      -9.901  10.711  69.970  1.00  0.00     0.388 C  
HETATM    8  C   UNL     1      -8.555  13.034  65.614  1.00  0.00     1.437 C  
HETATM    9  C   UNL     1     -11.009  12.701  69.264  1.00  0.00    -0.066 C  
HETATM   10  C   UNL     1     -11.621  13.882  68.554  1.00  0.00    -0.367 C  
HETATM   11  C   UNL     1      -9.368  10.673  66.439  1.00  0.00    -0.169 C  
HETATM   12  C   UNL     1     -13.815  13.884  63.959  1.00  0.00     4.422 C  
HETATM   13  C   UNL     1      -9.331  11.769  65.359  1.00  0.00    -0.095 C  
HETATM   14  C   UNL     1     -13.028  11.865  62.718  1.00  0.00     0.791 C  
HETATM   15  C   UNL     1     -12.681  12.893  63.759  1.00  0.00    -0.214 C  
HETATM   16  C   UNL     1     -12.563  13.494  67.454  1.00  0.00     0.346 C  
HETATM   17  C   UNL     1     -11.582  15.173  68.932  1.00  0.00    -0.361 C  
HETATM   18  C   UNL     1     -10.263  11.673  64.371  1.00  0.00    -0.346 C  
HETATM   19  C   UNL     1     -11.146  12.850  64.036  1.00  0.00    -0.455 C  
HETATM   20  C   UNL     1     -11.855  13.774  66.168  1.00  0.00    -0.424 C  
HETATM   21  C   UNL     1     -12.130  12.717  65.147  1.00  0.00    -0.508 C  
ENDROOT
BRANCH   4  22
HETATM   22  O   UNL     1      -7.383  11.574  67.539  1.00  0.00    -0.098 OA 
BRANCH  22  23
HETATM   23  C   UNL     1      -6.439  10.689  67.047  1.00  0.00    -0.079 C  
HETATM   24  C   UNL     1      -5.398  11.368  66.210  1.00  0.00    -0.099 C  
HETATM   25  O   UNL     1      -6.379   9.492  67.299  1.00  0.00    -0.066 OA 
ENDBRANCH  22  23
ENDBRANCH   4  22
BRANCH   7  26
HETATM   26  O   UNL     1     -10.739   9.727  69.175  1.00  0.00    -0.212 OA 
BRANCH  26  27
HETATM   27  C   UNL     1     -11.327   8.628  69.739  1.00  0.00     0.122 C  
HETATM   28  O   UNL     1     -12.441   8.634  70.247  1.00  0.00     0.400 OA 
BRANCH  27  29
HETATM   29  C   UNL     1     -10.611   7.323  69.433  1.00  0.00    -0.238 A  
HETATM   30  C   UNL     1     -10.630   6.841  68.100  1.00  0.00    -0.279 A  
HETATM   31  C   UNL     1      -9.922   6.572  70.381  1.00  0.00    -0.202 A  
HETATM   32  C   UNL     1      -9.242   5.391  70.012  1.00  0.00    -0.175 A  
HETATM   33  C   UNL     1      -9.924   5.683  67.725  1.00  0.00    -0.175 A  
HETATM   34  C   UNL     1      -9.235   4.955  68.683  1.00  0.00    -0.159 A  
ENDBRANCH  27  29
ENDBRANCH  26  27
ENDBRANCH   7  26
BRANCH   9  35
HETATM   35  O   UNL     1     -11.142  13.034  70.717  1.00  0.00     1.225 OA 
BRANCH  35  36
HETATM   36  C   UNL     1     -12.228  13.684  71.233  1.00  0.00    -0.171 C  
HETATM   37  O   UNL     1     -13.308  13.805  70.721  1.00  0.00    -0.118 OA 
HETATM   38  C   UNL     1     -11.933  14.181  72.629  1.00  0.00     0.431 C  
ENDBRANCH  35  36
ENDBRANCH   9  35
TORSDOF 7
ENDMDL
MODEL      141
REMARK 921   NORMALIZED FREE ENERGY PREDICTED BY IDOCK:    6.14 KCAL/MOL
REMARK 922        TOTAL FREE ENERGY PREDICTED BY IDOCK:    8.02 KCAL/MOL
REMARK 923 INTER-LIGAND FREE ENERGY PREDICTED BY IDOCK:    6.22 KCAL/MOL
REMARK 924 INTRA-LIGAND FREE ENERGY PREDICTED BY IDOCK:    1.80 KCAL/MOL
REMARK 927      BINDING AFFINITY PREDICTED BY RF-SCORE:    0.00 PKD
ROOT
HETATM    1  C   UNL     1      -6.805   5.715  62.869  1.00  0.00    -0.029 C  
HETATM    2  C   UNL     1      -7.654   5.879  64.106  1.00  0.00    -0.085 C  
HETATM    3  C   UNL     1      -8.157   4.877  65.113  1.00  0.00    -0.112 C  
HETATM    4  C   UNL     1      -9.440   5.741  65.649  1.00  0.00     0.095 C  
HETATM    5  O   UNL     1      -9.141   5.140  67.996  1.00  0.00    -0.109 OA 
HETATM    6  C   UNL     1      -9.015   7.359  65.160  1.00  0.00     0.334 C  
HETATM    7  C   UNL     1      -7.481   7.088  65.017  1.00  0.00    -0.093 C  
HETATM    8  C   UNL     1     -12.338   6.214  66.366  1.00  0.00     4.645 C  
HETATM    9  C   UNL     1      -8.940   8.900  65.539  1.00  0.00    -0.197 C  
HETATM   10  C   UNL     1     -10.009   9.849  66.020  1.00  0.00    -0.338 C  
HETATM   11  C   UNL     1      -9.913   5.533  67.119  1.00  0.00    -0.169 C  
HETATM   12  C   UNL     1     -12.255   9.858  70.590  1.00  0.00    -0.325 C  
HETATM   13  C   UNL     1     -11.377   5.855  67.467  1.00  0.00     0.413 C  
HETATM   14  C   UNL     1     -11.928   7.608  71.624  1.00  0.00    -0.329 C  
HETATM   15  C   UNL     1     -12.077   8.371  70.336  1.00  0.00     0.273 C  
HETATM   16  C   UNL     1     -10.142   9.890  67.513  1.00  0.00    -0.244 C  
HETATM   17  C   UNL     1     -10.666  10.775  65.297  1.00  0.00    -0.153 C  
HETATM   18  C   UNL     1     -11.641   6.114  68.778  1.00  0.00     0.358 C  
HETATM   19  C   UNL     1     -12.376   7.371  69.176  1.00  0.00     2.326 C  
HETATM   20  C   UNL     1     -11.400   9.156  67.850  1.00  0.00     0.626 C  
HETATM   21  C   UNL     1     -11.241   8.332  69.087  1.00  0.00     0.329 C  
ENDROOT
BRANCH   4  22
HETATM   22  O   UNL     1     -10.478   5.099  64.784  1.00  0.00     0.551 OA 
BRANCH  22  23
HETATM   23  C   UNL     1     -10.108   3.890  64.217  1.00  0.00    -0.211 C  
HETATM   24  C   UNL     1     -10.275   3.881  62.729  1.00  0.00    -0.178 C  
HETATM   25  O   UNL     1      -9.628   2.935  64.815  1.00  0.00    -0.153 OA 
ENDBRANCH  22  23
ENDBRANCH   4  22
BRANCH   7  26
HETATM   26  O   UNL     1      -7.041   6.776  66.435  1.00  0.00    -0.067 OA 
BRANCH  26  27
HETATM   27  C   UNL     1      -6.371   7.675  67.219  1.00  0.00    -0.054 C  
HETATM   28  O   UNL     1      -5.992   8.772  66.829  1.00  0.00    -0.054 OA 
BRANCH  27  29
HETATM   29  C   UNL     1      -6.383   7.328  68.699  1.00  0.00    -0.036 A  
HETATM   30  C   UNL     1      -6.722   6.006  69.078  1.00  0.00    -0.060 A  
HETATM   31  C   UNL     1      -6.068   8.229  69.711  1.00  0.00    -0.029 A  
HETATM   32  C   UNL     1      -6.056   7.822  71.063  1.00  0.00    -0.034 A  
HETATM   33  C   UNL     1      -6.678   5.590  70.421  1.00  0.00    -0.047 A  
HETATM   34  C   UNL     1      -6.351   6.500  71.415  1.00  0.00    -0.042 A  
ENDBRANCH  27  29
ENDBRANCH  26  27
ENDBRANCH   7  26
BRANCH   9  35
HETATM   35  O   UNL     1      -8.186   9.685  64.511  1.00  0.00    -0.132 OA 
BRANCH  35  36
HETATM   36  C   UNL     1      -8.140   9.330  63.192  1.00  0.00    -0.158 C  
HETATM   37  O   UNL     1      -7.296   8.665  62.653  1.00  0.00    -0.097 OA 
HETATM   38  C   UNL     1      -9.375   9.815  62.470  1.00  0.00    -0.198 C  
ENDBRANCH  35  36
ENDBRANCH   9  35
TORSDOF 7
ENDMDL
MODEL      142
REMARK 921   NORMALIZED FREE ENERGY PREDICTED BY IDOCK:    6.35 KCAL/MOL
REMARK 922        TOTAL FREE ENERGY PREDICTED BY IDOCK:    8.31 KCAL/MOL
REMARK 923 INTER-LIGAND FREE ENERGY PREDICTED BY IDOCK:    4.05 KCAL/MOL
REMARK 924 INTRA-LIGAND FREE ENERGY PREDICTED BY IDOCK:    4.26 KCAL/MOL
REMARK 927      BINDING AFFINITY PREDICTED BY RF-SCORE:    0.00 PKD
ROOT
HETATM    1  C   UNL     1     -10.546  15.045  71.476  1.00  0.00     0.681 C  
HETATM    2  C   UNL     1      -9.643  15.389  70.316  1.00  0.00     0.360 C  
HETATM    3  C   UNL     1      -8.623  14.571  69.568  1.00  0.00     0.302 C  
HETATM    4  C   UNL     1      -7.723  15.817  69.004  1.00  0.00    -0.202 C  
HETATM    5  O   UNL     1      -7.365  14.846  66.794  1.00  0.00     0.035 OA 
HETATM    6  C   UNL     1      -8.834  17.153  69.139  1.00  0.00    -0.002 C  
HETATM    7  C   UNL     1     -10.133  16.282  69.183  1.00  0.00    -0.264 C  
HETATM    8  C   UNL     1      -5.181  17.370  68.492  1.00  0.00    -0.139 C  
HETATM    9  C   UNL     1      -9.456  18.455  68.473  1.00  0.00    -0.334 C  
HETATM   10  C   UNL     1      -8.792  19.694  67.927  1.00  0.00    -0.379 C  
HETATM   11  C   UNL     1      -6.971  15.637  67.652  1.00  0.00    -0.172 C  
HETATM   12  C   UNL     1      -6.017  20.053  63.672  1.00  0.00    -0.240 C  
HETATM   13  C   UNL     1      -5.722  16.499  67.391  1.00  0.00    -0.188 C  
HETATM   14  C   UNL     1      -5.242  17.761  63.051  1.00  0.00     1.700 C  
HETATM   15  C   UNL     1      -5.625  18.676  64.182  1.00  0.00    -0.085 C  
HETATM   16  C   UNL     1      -8.442  19.592  66.472  1.00  0.00    -0.365 C  
HETATM   17  C   UNL     1      -8.689  20.896  68.523  1.00  0.00     0.992 C  
HETATM   18  C   UNL     1      -5.372  16.672  66.086  1.00  0.00     0.866 C  
HETATM   19  C   UNL     1      -5.147  18.057  65.532  1.00  0.00    -0.209 C  
HETATM   20  C   UNL     1      -6.959  19.420  66.401  1.00  0.00    -0.228 C  
HETATM   21  C   UNL     1      -6.569  18.453  65.330  1.00  0.00    -0.220 C  
ENDROOT
BRANCH   4  22
HETATM   22  O   UNL     1      -6.673  15.792  70.070  1.00  0.00    -0.122 OA 
BRANCH  22  23
HETATM   23  C   UNL     1      -6.375  14.537  70.574  1.00  0.00    -0.125 C  
HETATM   24  C   UNL     1      -6.103  13.535  69.494  1.00  0.00    -0.112 C  
HETATM   25  O   UNL     1      -6.265  14.248  71.760  1.00  0.00    -0.060 OA 
ENDBRANCH  22  23
ENDBRANCH   4  22
BRANCH   7  26
HETATM   26  O   UNL     1     -10.170  15.631  67.813  1.00  0.00    -0.245 OA 
BRANCH  26  27
HETATM   27  C   UNL     1     -10.695  14.386  67.598  1.00  0.00    -0.263 C  
HETATM   28  O   UNL     1     -10.900  13.568  68.485  1.00  0.00    -0.248 OA 
BRANCH  27  29
HETATM   29  C   UNL     1     -11.276  14.196  66.206  1.00  0.00    -0.329 A  
HETATM   30  C   UNL     1     -10.920  15.124  65.196  1.00  0.00    -0.428 A  
HETATM   31  C   UNL     1     -12.131  13.156  65.855  1.00  0.00    -0.501 A  
HETATM   32  C   UNL     1     -12.596  13.019  64.528  1.00  0.00    -0.387 A  
HETATM   33  C   UNL     1     -11.355  14.969  63.866  1.00  0.00     0.563 A  
HETATM   34  C   UNL     1     -12.198  13.919  63.534  1.00  0.00    -0.132 A  
ENDBRANCH  27  29
ENDBRANCH  26  27
ENDBRANCH   7  26
BRANCH   9  35
HETATM   35  O   UNL     1     -10.618  18.975  69.258  1.00  0.00     0.225 OA 
BRANCH  35  36
HETATM   36  C   UNL     1     -10.507  19.989  70.167  1.00  0.00     0.943 C  
HETATM   37  O   UNL     1      -9.946  19.949  71.229  1.00  0.00     1.364 OA 
HETATM   38  C   UNL     1     -11.121  21.258  69.623  1.00  0.00     1.996 C  
ENDBRANCH  35  36
ENDBRANCH   9  35
TORSDOF 7
ENDMDL
MODEL      143
REMARK 921   NORMALIZED FREE ENERGY PREDICTED BY IDOCK:    6.62 KCAL/MOL
REMARK 922        TOTAL FREE ENERGY PREDICTED BY IDOCK:    8.69 KCAL/MOL
REMARK 923 INTER-LIGAND FREE ENERGY PREDICTED BY IDOCK:    4.82 KCAL/MOL
REMARK 924 INTRA-LIGAND FREE ENERGY PREDICTED BY IDOCK:    3.87 KCAL/MOL
REMARK 927      BINDING AFFINITY PREDICTED BY RF-SCORE:    0.00 PKD
ROOT
HETATM    1  C   UNL     1      -8.606   8.886  70.241  1.00  0.00    -0.178 C  
HETATM    2  C   UNL     1      -8.893  10.257  69.680  1.00  0.00    -0.124 C  
HETATM    3  C   UNL     1      -8.719  11.634  70.267  1.00  0.00     3.650 C  
HETATM    4  C   UNL     1      -9.826  12.403  69.338  1.00  0.00     0.871 C  
HETATM    5  O   UNL     1      -8.481  14.414  69.017  1.00  0.00    -0.111 OA 
HETATM    6  C   UNL     1      -9.991  11.307  67.992  1.00  0.00    -0.191 C  
HETATM    7  C   UNL     1      -8.627  10.572  68.213  1.00  0.00    -0.127 C  
HETATM    8  C   UNL     1     -12.212  14.177  68.793  1.00  0.00    -0.234 C  
HETATM    9  C   UNL     1     -10.098  11.120  66.418  1.00  0.00    -0.226 C  
HETATM   10  C   UNL     1     -11.055  11.720  65.419  1.00  0.00    -0.336 C  
HETATM   11  C   UNL     1      -9.606  13.912  69.017  1.00  0.00     0.139 C  
HETATM   12  C   UNL     1     -11.199  16.563  63.852  1.00  0.00     1.281 C  
HETATM   13  C   UNL     1     -10.835  14.771  68.669  1.00  0.00    -0.257 C  
HETATM   14  C   UNL     1     -10.011  17.965  65.543  1.00  0.00     0.418 C  
HETATM   15  C   UNL     1     -10.828  16.723  65.317  1.00  0.00    -0.148 C  
HETATM   16  C   UNL     1     -10.576  13.017  64.839  1.00  0.00    -0.355 C  
HETATM   17  C   UNL     1     -12.129  11.132  64.861  1.00  0.00     1.230 C  
HETATM   18  C   UNL     1     -10.593  15.909  67.961  1.00  0.00    -0.287 C  
HETATM   19  C   UNL     1     -11.352  16.193  66.687  1.00  0.00     0.332 C  
HETATM   20  C   UNL     1     -11.401  14.095  65.465  1.00  0.00    -0.319 C  
HETATM   21  C   UNL     1     -10.584  15.310  65.766  1.00  0.00    -0.359 C  
ENDROOT
BRANCH   4  22
HETATM   22  O   UNL     1     -10.963  12.347  70.309  1.00  0.00     0.594 OA 
BRANCH  22  23
HETATM   23  C   UNL     1     -11.829  11.279  70.142  1.00  0.00    -0.364 C  
HETATM   24  C   UNL     1     -13.036  11.376  71.024  1.00  0.00    -0.280 C  
HETATM   25  O   UNL     1     -11.700  10.372  69.329  1.00  0.00    -0.222 OA 
ENDBRANCH  22  23
ENDBRANCH   4  22
BRANCH   7  26
HETATM   26  O   UNL     1      -7.595  11.654  67.958  1.00  0.00    -0.104 OA 
BRANCH  26  27
HETATM   27  C   UNL     1      -7.171  11.994  66.703  1.00  0.00     0.140 C  
HETATM   28  O   UNL     1      -7.075  13.147  66.303  1.00  0.00     1.358 OA 
BRANCH  27  29
HETATM   29  C   UNL     1      -6.553  10.841  65.930  1.00  0.00    -0.090 A  
HETATM   30  C   UNL     1      -5.746   9.914  66.635  1.00  0.00    -0.050 A  
HETATM   31  C   UNL     1      -6.740  10.628  64.567  1.00  0.00     0.184 A  
HETATM   32  C   UNL     1      -6.169   9.507  63.926  1.00  0.00    -0.098 A  
HETATM   33  C   UNL     1      -5.205   8.778  66.004  1.00  0.00    -0.030 A  
HETATM   34  C   UNL     1      -5.412   8.578  64.647  1.00  0.00    -0.043 A  
ENDBRANCH  27  29
ENDBRANCH  26  27
ENDBRANCH   7  26
BRANCH   9  35
HETATM   35  O   UNL     1     -10.011   9.679  66.027  1.00  0.00    -0.266 OA 
BRANCH  35  36
HETATM   36  C   UNL     1      -9.959   8.663  66.940  1.00  0.00    -0.260 C  
HETATM   37  O   UNL     1     -10.880   8.194  67.552  1.00  0.00    -0.194 OA 
HETATM   38  C   UNL     1      -8.557   8.106  67.032  1.00  0.00    -0.124 C  
ENDBRANCH  35  36
ENDBRANCH   9  35
TORSDOF 7
ENDMDL
MODEL      144
REMARK 921   NORMALIZED FREE ENERGY PREDICTED BY IDOCK:    6.92 KCAL/MOL
REMARK 922        TOTAL FREE ENERGY PREDICTED BY IDOCK:    9.12 KCAL/MOL
REMARK 923 INTER-LIGAND FREE ENERGY PREDICTED BY IDOCK:    3.06 KCAL/MOL
REMARK 924 INTRA-LIGAND FREE ENERGY PREDICTED BY IDOCK:    6.06 KCAL/MOL
REMARK 927      BINDING AFFINITY PREDICTED BY RF-SCORE:    0.00 PKD
ROOT
HETATM    1  C   UNL     1      -9.889   3.637  68.358  1.00  0.00     0.060 C  
HETATM    2  C   UNL     1      -9.364   5.013  68.026  1.00  0.00    -0.152 C  
HETATM    3  C   UNL     1      -9.135   5.704  66.706  1.00  0.00    -0.120 C  
HETATM    4  C   UNL     1      -8.009   6.775  67.219  1.00  0.00    -0.114 C  
HETATM    5  O   UNL     1      -8.878   8.646  65.915  1.00  0.00    -0.163 OA 
HETATM    6  C   UNL     1      -8.278   6.785  68.941  1.00  0.00    -0.121 C  
HETATM    7  C   UNL     1      -9.735   6.218  68.881  1.00  0.00    -0.129 C  
HETATM    8  C   UNL     1      -5.365   8.239  67.150  1.00  0.00    -0.037 C  
HETATM    9  C   UNL     1      -8.420   7.639  70.273  1.00  0.00    -0.134 C  
HETATM   10  C   UNL     1      -7.486   8.640  70.904  1.00  0.00    -0.083 C  
HETATM   11  C   UNL     1      -7.911   8.152  66.496  1.00  0.00    -0.093 C  
HETATM   12  C   UNL     1      -6.419  13.319  69.201  1.00  0.00    -0.106 C  
HETATM   13  C   UNL     1      -6.570   8.907  66.545  1.00  0.00    -0.067 C  
HETATM   14  C   UNL     1      -7.021  13.424  66.779  1.00  0.00     1.185 C  
HETATM   15  C   UNL     1      -6.552  12.541  67.903  1.00  0.00    -0.104 C  
HETATM   16  C   UNL     1      -7.720  10.047  70.441  1.00  0.00     0.006 C  
HETATM   17  C   UNL     1      -6.660   8.443  71.948  1.00  0.00    -0.072 C  
HETATM   18  C   UNL     1      -6.629  10.252  66.334  1.00  0.00    -0.092 C  
HETATM   19  C   UNL     1      -5.995  11.208  67.314  1.00  0.00    -0.064 C  
HETATM   20  C   UNL     1      -6.593  10.386  69.521  1.00  0.00    -0.073 C  
HETATM   21  C   UNL     1      -7.059  11.200  68.356  1.00  0.00    -0.076 C  
ENDROOT
BRANCH   4  22
HETATM   22  O   UNL     1      -6.801   5.998  66.798  1.00  0.00    -0.056 OA 
BRANCH  22  23
HETATM   23  C   UNL     1      -6.442   6.141  65.468  1.00  0.00    -0.043 C  
HETATM   24  C   UNL     1      -7.569   5.821  64.534  1.00  0.00    -0.084 C  
HETATM   25  O   UNL     1      -5.362   6.546  65.056  1.00  0.00    -0.020 OA 
ENDBRANCH  22  23
ENDBRANCH   4  22
BRANCH   7  26
HETATM   26  O   UNL     1     -10.511   7.308  68.166  1.00  0.00    -0.194 OA 
BRANCH  26  27
HETATM   27  C   UNL     1     -11.385   8.141  68.810  1.00  0.00     0.738 C  
HETATM   28  O   UNL     1     -11.637   9.282  68.444  1.00  0.00     0.480 OA 
BRANCH  27  29
HETATM   29  C   UNL     1     -12.240   7.444  69.855  1.00  0.00     0.607 A  
HETATM   30  C   UNL     1     -11.669   6.375  70.589  1.00  0.00    -0.377 A  
HETATM   31  C   UNL     1     -13.554   7.799  70.147  1.00  0.00     2.225 A  
HETATM   32  C   UNL     1     -14.272   7.134  71.165  1.00  0.00    -0.151 A  
HETATM   33  C   UNL     1     -12.373   5.734  71.626  1.00  0.00     0.682 A  
HETATM   34  C   UNL     1     -13.677   6.110  71.909  1.00  0.00     0.686 A  
ENDBRANCH  27  29
ENDBRANCH  26  27
ENDBRANCH   7  26
BRANCH   9  35
HETATM   35  O   UNL     1      -8.890   6.799  71.419  1.00  0.00    -0.131 OA 
BRANCH  35  36
HETATM   36  C   UNL     1      -9.745   7.264  72.379  1.00  0.00    -0.154 C  
HETATM   37  O   UNL     1     -10.004   6.740  73.430  1.00  0.00    -0.180 OA 
HETATM   38  C   UNL     1     -10.287   8.620  71.994  1.00  0.00    -0.416 C  
ENDBRANCH  35  36
ENDBRANCH   9  35
TORSDOF 7
ENDMDL
MODEL      145
REMARK 921   NORMALIZED FREE ENERGY PREDICTED BY IDOCK:    7.28 KCAL/MOL
REMARK 922        TOTAL FREE ENERGY PREDICTED BY IDOCK:    9.62 KCAL/MOL
REMARK 923 INTER-LIGAND FREE ENERGY PREDICTED BY IDOCK:   -0.24 KCAL/MOL
REMARK 924 INTRA-LIGAND FREE ENERGY PREDICTED BY IDOCK:    9.86 KCAL/MOL
REMARK 927      BINDING AFFINITY PREDICTED BY RF-SCORE:    0.00 PKD
ROOT
HETATM    1  C   UNL     1     -12.440  11.163  64.365  1.00  0.00     1.582 C  
HETATM    2  C   UNL     1     -11.672  11.961  65.391  1.00  0.00    -0.228 C  
HETATM    3  C   UNL     1     -12.043  13.186  66.186  1.00  0.00    -0.479 C  
HETATM    4  C   UNL     1     -10.522  13.715  66.483  1.00  0.00    -0.281 C  
HETATM    5  O   UNL     1     -10.970  14.380  68.788  1.00  0.00    -0.233 OA 
HETATM    6  C   UNL     1      -9.580  12.273  66.218  1.00  0.00    -0.248 C  
HETATM    7  C   UNL     1     -10.765  11.268  66.400  1.00  0.00    -0.267 C  
HETATM    8  C   UNL     1      -8.274  15.734  66.568  1.00  0.00    -0.278 C  
HETATM    9  C   UNL     1      -8.402  11.328  66.712  1.00  0.00    -0.156 C  
HETATM   10  C   UNL     1      -6.956  11.632  67.009  1.00  0.00    -0.144 C  
HETATM   11  C   UNL     1     -10.258  14.518  67.792  1.00  0.00    -0.226 C  
HETATM   12  C   UNL     1      -5.140  14.293  70.953  1.00  0.00    -0.116 C  
HETATM   13  C   UNL     1      -9.059  15.482  67.827  1.00  0.00    -0.178 C  
HETATM   14  C   UNL     1      -6.995  15.691  71.871  1.00  0.00     3.705 C  
HETATM   15  C   UNL     1      -6.424  15.042  70.640  1.00  0.00     0.121 C  
HETATM   16  C   UNL     1      -6.710  12.030  68.434  1.00  0.00    -0.065 C  
HETATM   17  C   UNL     1      -5.890  11.382  66.226  1.00  0.00    -0.059 C  
HETATM   18  C   UNL     1      -8.579  15.801  69.061  1.00  0.00    -0.236 C  
HETATM   19  C   UNL     1      -7.111  15.643  69.374  1.00  0.00    -0.198 C  
HETATM   20  C   UNL     1      -6.459  13.503  68.429  1.00  0.00    -0.094 C  
HETATM   21  C   UNL     1      -7.087  14.172  69.609  1.00  0.00     0.046 C  
ENDROOT
BRANCH   4  22
HETATM   22  O   UNL     1     -10.443  14.706  65.365  1.00  0.00    -0.327 OA 
BRANCH  22  23
HETATM   23  C   UNL     1     -11.203  14.398  64.249  1.00  0.00    -0.094 C  
HETATM   24  C   UNL     1     -10.925  13.021  63.728  1.00  0.00    -0.316 C  
HETATM   25  O   UNL     1     -12.066  15.111  63.750  1.00  0.00    -0.438 OA 
ENDBRANCH  22  23
ENDBRANCH   4  22
BRANCH   7  26
HETATM   26  O   UNL     1     -11.160  11.445  67.855  1.00  0.00    -0.223 OA 
BRANCH  26  27
HETATM   27  C   UNL     1     -10.407  10.963  68.891  1.00  0.00    -0.204 C  
HETATM   28  O   UNL     1     -10.264  11.543  69.959  1.00  0.00     0.712 OA 
BRANCH  27  29
HETATM   29  C   UNL     1      -9.992   9.510  68.725  1.00  0.00    -0.185 A  
HETATM   30  C   UNL     1      -8.772   9.088  69.309  1.00  0.00    -0.138 A  
HETATM   31  C   UNL     1     -10.744   8.559  68.042  1.00  0.00    -0.122 A  
HETATM   32  C   UNL     1     -10.314   7.216  67.967  1.00  0.00    -0.238 A  
HETATM   33  C   UNL     1      -8.360   7.743  69.266  1.00  0.00    -0.136 A  
HETATM   34  C   UNL     1      -9.129   6.808  68.588  1.00  0.00    -0.127 A  
ENDBRANCH  27  29
ENDBRANCH  26  27
ENDBRANCH   7  26
BRANCH   9  35
HETATM   35  O   UNL     1      -8.359  10.049  65.937  1.00  0.00    -0.121 OA 
BRANCH  35  36
HETATM   36  C   UNL     1      -7.273   9.218  65.935  1.00  0.00    -0.091 C  
HETATM   37  O   UNL     1      -7.099   8.256  66.633  1.00  0.00    -0.074 OA 
HETATM   38  C   UNL     1      -6.309   9.611  64.840  1.00  0.00    -0.090 C  
ENDBRANCH  35  36
ENDBRANCH   9  35
TORSDOF 7
ENDMDL
MODEL      146
REMARK 921   NORMALIZED FREE ENERGY PREDICTED BY IDOCK:    7.84 KCAL/MOL
REMARK 922        TOTAL FREE ENERGY PREDICTED BY IDOCK:   10.42 KCAL/MOL
REMARK 923 INTER-LIGAND FREE ENERGY PREDICTED BY IDOCK:    5.73 KCAL/MOL
REMARK 924 INTRA-LIGAND FREE ENERGY PREDICTED BY IDOCK:    4.69 KCAL/MOL
REMARK 927      BINDING AFFINITY PREDICTED BY RF-SCORE:    0.00 PKD
ROOT
HETATM    1  C   UNL     1      -8.415  12.439  62.546  1.00  0.00     3.392 C  
HETATM    2  C   UNL     1      -8.964  12.162  63.925  1.00  0.00     0.897 C  
HETATM    3  C   UNL     1      -9.669  13.051  64.917  1.00  0.00     0.078 C  
HETATM    4  C   UNL     1      -9.304  12.197  66.265  1.00  0.00    -0.218 C  
HETATM    5  O   UNL     1     -11.499  12.470  67.297  1.00  0.00    -0.310 OA 
HETATM    6  C   UNL     1      -8.900  10.636  65.605  1.00  0.00    -0.201 C  
HETATM    7  C   UNL     1      -9.645  10.837  64.243  1.00  0.00    -0.283 C  
HETATM    8  C   UNL     1      -8.273  11.798  69.078  1.00  0.00     0.150 C  
HETATM    9  C   UNL     1      -9.040   9.057  65.709  1.00  0.00    -0.219 C  
HETATM   10  C   UNL     1      -8.732   8.115  66.846  1.00  0.00    -0.136 C  
HETATM   11  C   UNL     1     -10.300  12.239  67.462  1.00  0.00    -0.203 C  
HETATM   12  C   UNL     1     -11.320   7.636  71.205  1.00  0.00    -0.286 C  
HETATM   13  C   UNL     1      -9.756  11.956  68.874  1.00  0.00     0.041 C  
HETATM   14  C   UNL     1     -12.670   9.710  71.543  1.00  0.00    -0.480 C  
HETATM   15  C   UNL     1     -11.412   9.131  70.954  1.00  0.00    -0.357 C  
HETATM   16  C   UNL     1      -9.896   7.887  67.764  1.00  0.00    -0.204 C  
HETATM   17  C   UNL     1      -7.648   7.329  66.985  1.00  0.00    -0.106 C  
HETATM   18  C   UNL     1     -10.667  11.544  69.799  1.00  0.00     0.161 C  
HETATM   19  C   UNL     1     -10.427  10.288  70.602  1.00  0.00     0.066 C  
HETATM   20  C   UNL     1      -9.601   8.640  69.021  1.00  0.00    -0.163 C  
HETATM   21  C   UNL     1     -10.829   9.285  69.577  1.00  0.00    -0.211 C  
ENDROOT
BRANCH   4  22
HETATM   22  O   UNL     1      -8.116  13.004  66.685  1.00  0.00     0.087 OA 
BRANCH  22  23
HETATM   23  C   UNL     1      -8.407  14.247  67.223  1.00  0.00    -0.204 C  
HETATM   24  C   UNL     1      -9.124  15.136  66.254  1.00  0.00    -0.313 C  
HETATM   25  O   UNL     1      -8.185  14.599  68.375  1.00  0.00    -0.139 OA 
ENDBRANCH  22  23
ENDBRANCH   4  22
BRANCH   7  26
HETATM   26  O   UNL     1     -11.104  10.937  64.648  1.00  0.00    -0.110 OA 
BRANCH  26  27
HETATM   27  C   UNL     1     -12.054  11.524  63.858  1.00  0.00    -0.017 C  
HETATM   28  O   UNL     1     -12.848  10.900  63.167  1.00  0.00     1.098 OA 
BRANCH  27  29
HETATM   29  C   UNL     1     -12.240  13.009  64.121  1.00  0.00    -0.471 A  
HETATM   30  C   UNL     1     -11.692  13.932  63.196  1.00  0.00     0.802 A  
HETATM   31  C   UNL     1     -12.930  13.525  65.214  1.00  0.00    -0.290 A  
HETATM   32  C   UNL     1     -13.101  14.918  65.369  1.00  0.00     0.589 A  
HETATM   33  C   UNL     1     -11.891  15.318  63.330  1.00  0.00     1.530 A  
HETATM   34  C   UNL     1     -12.591  15.812  64.422  1.00  0.00     0.524 A  
ENDBRANCH  27  29
ENDBRANCH  26  27
ENDBRANCH   7  26
BRANCH   9  35
HETATM   35  O   UNL     1      -8.483   8.372  64.501  1.00  0.00    -0.149 OA 
BRANCH  35  36
HETATM   36  C   UNL     1      -8.586   7.024  64.297  1.00  0.00     0.411 C  
HETATM   37  O   UNL     1      -9.523   6.323  64.568  1.00  0.00     1.037 OA 
HETATM   38  C   UNL     1      -7.365   6.503  63.575  1.00  0.00    -0.067 C  
ENDBRANCH  35  36
ENDBRANCH   9  35
TORSDOF 7
ENDMDL
MODEL      147
REMARK 921   NORMALIZED FREE ENERGY PREDICTED BY IDOCK:    8.02 KCAL/MOL
REMARK 922        TOTAL FREE ENERGY PREDICTED BY IDOCK:   10.66 KCAL/MOL
REMARK 923 INTER-LIGAND FREE ENERGY PREDICTED BY IDOCK:    1.60 KCAL/MOL
REMARK 924 INTRA-LIGAND FREE ENERGY PREDICTED BY IDOCK:    9.06 KCAL/MOL
REMARK 927      BINDING AFFINITY PREDICTED BY RF-SCORE:    0.00 PKD
ROOT
HETATM    1  C   UNL     1      -5.760   8.340  71.595  1.00  0.00    -0.037 C  
HETATM    2  C   UNL     1      -6.340   9.046  70.393  1.00  0.00    -0.044 C  
HETATM    3  C   UNL     1      -5.687   9.649  69.177  1.00  0.00    -0.035 C  
HETATM    4  C   UNL     1      -6.881  10.703  68.796  1.00  0.00    -0.062 C  
HETATM    5  O   UNL     1      -6.728  10.344  66.387  1.00  0.00    -0.092 OA 
HETATM    6  C   UNL     1      -8.246  10.022  69.638  1.00  0.00    -0.185 C  
HETATM    7  C   UNL     1      -7.652   8.581  69.773  1.00  0.00    -0.083 C  
HETATM    8  C   UNL     1      -8.057  13.399  68.098  1.00  0.00    -0.155 C  
HETATM    9  C   UNL     1      -9.786   9.632  69.605  1.00  0.00    -0.213 C  
HETATM   10  C   UNL     1     -11.006  10.465  69.303  1.00  0.00    -0.287 C  
HETATM   11  C   UNL     1      -7.077  11.093  67.300  1.00  0.00    -0.109 C  
HETATM   12  C   UNL     1     -12.401  12.313  64.768  1.00  0.00    -0.416 C  
HETATM   13  C   UNL     1      -7.749  12.440  66.979  1.00  0.00    -0.065 C  
HETATM   14  C   UNL     1     -10.392  12.334  63.284  1.00  0.00    -0.279 C  
HETATM   15  C   UNL     1     -10.888  12.436  64.700  1.00  0.00    -0.346 C  
HETATM   16  C   UNL     1     -11.378  10.473  67.851  1.00  0.00    -0.297 C  
HETATM   17  C   UNL     1     -11.875  10.990  70.186  1.00  0.00    -0.441 C  
HETATM   18  C   UNL     1      -8.319  12.550  65.747  1.00  0.00     1.164 C  
HETATM   19  C   UNL     1      -9.751  13.004  65.605  1.00  0.00    -0.110 C  
HETATM   20  C   UNL     1     -10.995  11.816  67.320  1.00  0.00    -0.318 C  
HETATM   21  C   UNL     1     -10.428  11.720  65.940  1.00  0.00    -0.296 C  
ENDROOT
BRANCH   4  22
HETATM   22  O   UNL     1      -6.294  11.906  69.464  1.00  0.00    -0.102 OA 
BRANCH  22  23
HETATM   23  C   UNL     1      -6.040  11.764  70.818  1.00  0.00     0.269 C  
HETATM   24  C   UNL     1      -6.890  12.667  71.659  1.00  0.00     4.869 C  
HETATM   25  O   UNL     1      -5.269  10.956  71.322  1.00  0.00    -0.107 OA 
ENDBRANCH  22  23
ENDBRANCH   4  22
BRANCH   7  26
HETATM   26  O   UNL     1      -7.556   8.100  68.337  1.00  0.00    -0.100 OA 
BRANCH  26  27
HETATM   27  C   UNL     1      -8.657   7.828  67.572  1.00  0.00    -0.122 C  
HETATM   28  O   UNL     1      -9.796   8.165  67.868  1.00  0.00    -0.156 OA 
BRANCH  27  29
HETATM   29  C   UNL     1      -8.325   7.323  66.177  1.00  0.00    -0.133 A  
HETATM   30  C   UNL     1      -9.225   6.420  65.556  1.00  0.00     0.198 A  
HETATM   31  C   UNL     1      -7.194   7.702  65.460  1.00  0.00    -0.068 A  
HETATM   32  C   UNL     1      -6.976   7.225  64.149  1.00  0.00    -0.056 A  
HETATM   33  C   UNL     1      -9.026   5.971  64.237  1.00  0.00     0.566 A  
HETATM   34  C   UNL     1      -7.897   6.369  63.536  1.00  0.00    -0.110 A  
ENDBRANCH  27  29
ENDBRANCH  26  27
ENDBRANCH   7  26
BRANCH   9  35
HETATM   35  O   UNL     1     -10.176   8.825  70.803  1.00  0.00    -0.191 OA 
BRANCH  35  36
HETATM   36  C   UNL     1      -9.453   7.752  71.245  1.00  0.00    -0.153 C  
HETATM   37  O   UNL     1      -8.758   7.703  72.224  1.00  0.00    -0.114 OA 
HETATM   38  C   UNL     1      -9.708   6.546  70.370  1.00  0.00    -0.186 C  
ENDBRANCH  35  36
ENDBRANCH   9  35
TORSDOF 7
ENDMDL
MODEL      148
REMARK 921   NORMALIZED FREE ENERGY PREDICTED BY IDOCK:    8.94 KCAL/MOL
REMARK 922        TOTAL FREE ENERGY PREDICTED BY IDOCK:   11.96 KCAL/MOL
REMARK 923 INTER-LIGAND FREE ENERGY PREDICTED BY IDOCK:   10.78 KCAL/MOL
REMARK 924 INTRA-LIGAND FREE ENERGY PREDICTED BY IDOCK:    1.18 KCAL/MOL
REMARK 927      BINDING AFFINITY PREDICTED BY RF-SCORE:    0.00 PKD
ROOT
HETATM    1  C   UNL     1     -13.634  12.378  68.904  1.00  0.00     5.766 C  
HETATM    2  C   UNL     1     -12.481  13.320  69.156  1.00  0.00     0.194 C  
HETATM    3  C   UNL     1     -11.931  13.906  70.430  1.00  0.00    -0.393 C  
HETATM    4  C   UNL     1     -11.217  15.221  69.767  1.00  0.00    -0.286 C  
HETATM    5  O   UNL     1      -9.218  15.111  71.162  1.00  0.00     1.693 OA 
HETATM    6  C   UNL     1     -11.073  14.750  68.095  1.00  0.00    -0.288 C  
HETATM    7  C   UNL     1     -11.194  13.211  68.349  1.00  0.00    -0.271 C  
HETATM    8  C   UNL     1     -10.587  18.164  69.479  1.00  0.00     0.688 C  
HETATM    9  C   UNL     1     -10.171  14.695  66.788  1.00  0.00    -0.268 C  
HETATM   10  C   UNL     1      -9.463  15.792  66.034  1.00  0.00    -0.392 C  
HETATM   11  C   UNL     1      -9.952  15.809  70.462  1.00  0.00     0.526 C  
HETATM   12  C   UNL     1      -5.355  18.388  67.554  1.00  0.00    -0.143 C  
HETATM   13  C   UNL     1      -9.617  17.294  70.234  1.00  0.00     2.022 C  
HETATM   14  C   UNL     1      -5.159  18.156  70.034  1.00  0.00    -0.206 C  
HETATM   15  C   UNL     1      -6.103  18.200  68.863  1.00  0.00    -0.209 C  
HETATM   16  C   UNL     1      -8.065  16.041  66.515  1.00  0.00    -0.304 C  
HETATM   17  C   UNL     1      -9.858  16.385  64.892  1.00  0.00     1.105 C  
HETATM   18  C   UNL     1      -8.322  17.658  70.442  1.00  0.00     3.689 C  
HETATM   19  C   UNL     1      -7.559  18.414  69.381  1.00  0.00     0.141 C  
HETATM   20  C   UNL     1      -8.098  17.326  67.278  1.00  0.00    -0.210 C  
HETATM   21  C   UNL     1      -7.223  17.270  68.488  1.00  0.00    -0.224 C  
ENDROOT
BRANCH   4  22
HETATM   22  O   UNL     1     -12.324  16.193  70.030  1.00  0.00    -0.136 OA 
BRANCH  22  23
HETATM   23  C   UNL     1     -13.219  15.815  71.017  1.00  0.00    -0.162 C  
HETATM   24  C   UNL     1     -12.800  16.281  72.378  1.00  0.00    -0.139 C  
HETATM   25  O   UNL     1     -14.278  15.227  70.838  1.00  0.00    -0.320 OA 
ENDBRANCH  22  23
ENDBRANCH   4  22
BRANCH   7  26
HETATM   26  O   UNL     1      -9.949  12.885  69.154  1.00  0.00     0.157 OA 
BRANCH  26  27
HETATM   27  C   UNL     1      -9.046  11.932  68.770  1.00  0.00     0.051 C  
HETATM   28  O   UNL     1      -7.991  12.180  68.201  1.00  0.00    -0.133 OA 
BRANCH  27  29
HETATM   29  C   UNL     1      -9.315  10.557  69.360  1.00  0.00    -0.139 A  
HETATM   30  C   UNL     1      -9.848  10.480  70.671  1.00  0.00     1.181 A  
HETATM   31  C   UNL     1      -9.082   9.362  68.686  1.00  0.00    -0.132 A  
HETATM   32  C   UNL     1      -9.400   8.122  69.283  1.00  0.00    -0.151 A  
HETATM   33  C   UNL     1     -10.197   9.247  71.253  1.00  0.00    -0.383 A  
HETATM   34  C   UNL     1      -9.967   8.067  70.560  1.00  0.00    -0.193 A  
ENDBRANCH  27  29
ENDBRANCH  26  27
ENDBRANCH   7  26
BRANCH   9  35
HETATM   35  O   UNL     1     -10.800  13.858  65.719  1.00  0.00    -0.283 OA 
BRANCH  35  36
HETATM   36  C   UNL     1     -12.078  14.056  65.275  1.00  0.00    -0.408 C  
HETATM   37  O   UNL     1     -13.062  13.460  65.621  1.00  0.00    -0.442 OA 
HETATM   38  C   UNL     1     -12.131  15.226  64.320  1.00  0.00    -0.222 C  
ENDBRANCH  35  36
ENDBRANCH   9  35
TORSDOF 7
ENDMDL
MODEL      149
REMARK 921   NORMALIZED FREE ENERGY PREDICTED BY IDOCK:    9.10 KCAL/MOL
REMARK 922        TOTAL FREE ENERGY PREDICTED BY IDOCK:   12.18 KCAL/MOL
REMARK 923 INTER-LIGAND FREE ENERGY PREDICTED BY IDOCK:   -2.55 KCAL/MOL
REMARK 924 INTRA-LIGAND FREE ENERGY PREDICTED BY IDOCK:   14.73 KCAL/MOL
REMARK 927      BINDING AFFINITY PREDICTED BY RF-SCORE:    0.00 PKD
ROOT
HETATM    1  C   UNL     1     -11.401  11.064  70.299  1.00  0.00    -0.291 C  
HETATM    2  C   UNL     1     -10.873   9.666  70.087  1.00  0.00    -0.325 C  
HETATM    3  C   UNL     1     -11.534   8.318  70.216  1.00  0.00    -0.065 C  
HETATM    4  C   UNL     1     -10.176   7.438  70.464  1.00  0.00    -0.193 C  
HETATM    5  O   UNL     1     -10.875   5.560  69.071  1.00  0.00    -0.227 OA 
HETATM    6  C   UNL     1      -8.940   8.499  69.844  1.00  0.00    -0.145 C  
HETATM    7  C   UNL     1      -9.897   9.363  68.957  1.00  0.00    -0.169 C  
HETATM    8  C   UNL     1      -8.408   5.441  71.887  1.00  0.00    -0.123 C  
HETATM    9  C   UNL     1      -7.619   8.660  68.977  1.00  0.00    -0.090 C  
HETATM   10  C   UNL     1      -6.286   7.961  69.077  1.00  0.00    -0.039 C  
HETATM   11  C   UNL     1     -10.156   5.954  69.991  1.00  0.00    -0.198 C  
HETATM   12  C   UNL     1      -5.280   3.111  67.898  1.00  0.00    -0.012 C  
HETATM   13  C   UNL     1      -9.189   4.979  70.686  1.00  0.00    -0.195 C  
HETATM   14  C   UNL     1      -7.433   1.845  67.903  1.00  0.00    -0.054 C  
HETATM   15  C   UNL     1      -6.674   3.002  68.493  1.00  0.00    -0.040 C  
HETATM   16  C   UNL     1      -6.205   6.709  68.256  1.00  0.00    -0.030 C  
HETATM   17  C   UNL     1      -5.151   8.440  69.620  1.00  0.00    -0.030 C  
HETATM   18  C   UNL     1      -8.852   3.862  69.984  1.00  0.00    -0.142 C  
HETATM   19  C   UNL     1      -7.403   3.494  69.781  1.00  0.00    -0.045 C  
HETATM   20  C   UNL     1      -6.268   5.565  69.215  1.00  0.00    -0.029 C  
HETATM   21  C   UNL     1      -7.084   4.436  68.673  1.00  0.00    -0.052 C  
ENDROOT
BRANCH   4  22
HETATM   22  O   UNL     1     -10.246   7.397  71.958  1.00  0.00    -0.188 OA 
BRANCH  22  23
HETATM   23  C   UNL     1     -11.314   6.685  72.479  1.00  0.00    -0.253 C  
HETATM   24  C   UNL     1     -10.986   6.036  73.789  1.00  0.00     0.029 C  
HETATM   25  O   UNL     1     -12.438   6.622  71.995  1.00  0.00    -0.325 OA 
ENDBRANCH  22  23
ENDBRANCH   4  22
BRANCH   7  26
HETATM   26  O   UNL     1     -10.396   8.380  67.914  1.00  0.00    -0.211 OA 
BRANCH  26  27
HETATM   27  C   UNL     1      -9.842   7.143  67.736  1.00  0.00    -0.145 C  
HETATM   28  O   UNL     1      -9.819   6.274  68.597  1.00  0.00    -0.131 OA 
BRANCH  27  29
HETATM   29  C   UNL     1      -9.509   6.821  66.288  1.00  0.00    -0.116 A  
HETATM   30  C   UNL     1      -9.233   7.896  65.406  1.00  0.00     0.251 A  
HETATM   31  C   UNL     1      -9.445   5.530  65.772  1.00  0.00    -0.071 A  
HETATM   32  C   UNL     1      -9.084   5.307  64.425  1.00  0.00     0.156 A  
HETATM   33  C   UNL     1      -8.840   7.673  64.073  1.00  0.00     0.811 A  
HETATM   34  C   UNL     1      -8.772   6.378  63.581  1.00  0.00     0.560 A  
ENDBRANCH  27  29
ENDBRANCH  26  27
ENDBRANCH   7  26
BRANCH   9  35
HETATM   35  O   UNL     1      -7.267  10.098  68.768  1.00  0.00    -0.075 OA 
BRANCH  35  36
HETATM   36  C   UNL     1      -7.442  10.740  67.573  1.00  0.00    -0.093 C  
HETATM   37  O   UNL     1      -6.950  10.446  66.517  1.00  0.00    -0.099 OA 
HETATM   38  C   UNL     1      -8.443  11.863  67.717  1.00  0.00    -0.154 C  
ENDBRANCH  35  36
ENDBRANCH   9  35
TORSDOF 7
ENDMDL
MODEL      150
REMARK 921   NORMALIZED FREE ENERGY PREDICTED BY IDOCK:   10.90 KCAL/MOL
REMARK 922        TOTAL FREE ENERGY PREDICTED BY IDOCK:   14.73 KCAL/MOL
REMARK 923 INTER-LIGAND FREE ENERGY PREDICTED BY IDOCK:   10.30 KCAL/MOL
REMARK 924 INTRA-LIGAND FREE ENERGY PREDICTED BY IDOCK:    4.42 KCAL/MOL
REMARK 927      BINDING AFFINITY PREDICTED BY RF-SCORE:    0.00 PKD
ROOT
HETATM    1  C   UNL     1      -7.088   5.031  69.285  1.00  0.00    -0.056 C  
HETATM    2  C   UNL     1      -7.605   6.075  68.325  1.00  0.00    -0.091 C  
HETATM    3  C   UNL     1      -8.574   5.982  67.175  1.00  0.00    -0.106 C  
HETATM    4  C   UNL     1      -8.054   7.298  66.352  1.00  0.00    -0.119 C  
HETATM    5  O   UNL     1     -10.286   8.060  65.724  1.00  0.00     0.554 OA 
HETATM    6  C   UNL     1      -7.206   8.186  67.589  1.00  0.00    -0.092 C  
HETATM    7  C   UNL     1      -7.910   7.490  68.800  1.00  0.00    -0.121 C  
HETATM    8  C   UNL     1      -7.089   8.830  63.931  1.00  0.00    -0.091 C  
HETATM    9  C   UNL     1      -6.911   9.590  68.271  1.00  0.00    -0.070 C  
HETATM   10  C   UNL     1      -6.411  10.885  67.682  1.00  0.00    -0.056 C  
HETATM   11  C   UNL     1      -9.079   8.080  65.477  1.00  0.00     0.068 C  
HETATM   12  C   UNL     1      -8.974  14.037  64.612  1.00  0.00     3.493 C  
HETATM   13  C   UNL     1      -8.546   8.912  64.296  1.00  0.00    -0.133 C  
HETATM   14  C   UNL     1     -10.856  12.760  63.579  1.00  0.00    -0.281 C  
HETATM   15  C   UNL     1      -9.461  12.678  64.137  1.00  0.00     0.481 C  
HETATM   16  C   UNL     1      -7.510  11.787  67.206  1.00  0.00    -0.151 C  
HETATM   17  C   UNL     1      -5.161  11.380  67.741  1.00  0.00    -0.046 C  
HETATM   18  C   UNL     1      -9.352   9.918  63.857  1.00  0.00    -0.262 C  
HETATM   19  C   UNL     1      -8.816  11.322  63.716  1.00  0.00     0.163 C  
HETATM   20  C   UNL     1      -7.494  11.728  65.713  1.00  0.00     0.933 C  
HETATM   21  C   UNL     1      -8.878  11.730  65.147  1.00  0.00     0.387 C  
ENDROOT
BRANCH   4  22
HETATM   22  O   UNL     1      -7.154   6.581  65.395  1.00  0.00    -0.061 OA 
BRANCH  22  23
HETATM   23  C   UNL     1      -6.212   5.751  65.980  1.00  0.00    -0.034 C  
HETATM   24  C   UNL     1      -6.559   4.301  65.839  1.00  0.00    -0.041 C  
HETATM   25  O   UNL     1      -5.164   6.113  66.502  1.00  0.00    -0.008 OA 
ENDBRANCH  22  23
ENDBRANCH   4  22
BRANCH   7  26
HETATM   26  O   UNL     1      -9.359   7.923  68.664  1.00  0.00    -0.146 OA 
BRANCH  26  27
HETATM   27  C   UNL     1      -9.884   8.981  69.353  1.00  0.00    -0.183 C  
HETATM   28  O   UNL     1      -9.312  10.053  69.499  1.00  0.00    -0.207 OA 
BRANCH  27  29
HETATM   29  C   UNL     1     -11.360   8.827  69.684  1.00  0.00     0.164 A  
HETATM   30  C   UNL     1     -11.913   7.523  69.700  1.00  0.00     0.720 A  
HETATM   31  C   UNL     1     -12.205   9.890  69.987  1.00  0.00     0.048 A  
HETATM   32  C   UNL     1     -13.556   9.665  70.329  1.00  0.00     0.726 A  
HETATM   33  C   UNL     1     -13.251   7.293  70.074  1.00  0.00     2.054 A  
HETATM   34  C   UNL     1     -14.074   8.367  70.382  1.00  0.00     1.394 A  
ENDBRANCH  27  29
ENDBRANCH  26  27
ENDBRANCH   7  26
BRANCH   9  35
HETATM   35  O   UNL     1      -6.130   9.434  69.538  1.00  0.00    -0.039 OA 
BRANCH  35  36
HETATM   36  C   UNL     1      -6.701   9.062  70.723  1.00  0.00    -0.067 C  
HETATM   37  O   UNL     1      -6.459   8.074  71.362  1.00  0.00    -0.037 OA 
HETATM   38  C   UNL     1      -7.656  10.128  71.208  1.00  0.00     1.617 C  
ENDBRANCH  35  36
ENDBRANCH   9  35
TORSDOF 7
ENDMDL
MODEL      151
REMARK 921   NORMALIZED FREE ENERGY PREDICTED BY IDOCK:   11.52 KCAL/MOL
REMARK 922        TOTAL FREE ENERGY PREDICTED BY IDOCK:   15.59 KCAL/MOL
REMARK 923 INTER-LIGAND FREE ENERGY PREDICTED BY IDOCK:   12.49 KCAL/MOL
REMARK 924 INTRA-LIGAND FREE ENERGY PREDICTED BY IDOCK:    3.11 KCAL/MOL
REMARK 927      BINDING AFFINITY PREDICTED BY RF-SCORE:    0.00 PKD
ROOT
HETATM    1  C   UNL     1     -12.685   4.546  71.192  1.00  0.00     8.374 C  
HETATM    2  C   UNL     1     -11.922   5.760  70.719  1.00  0.00     0.824 C  
HETATM    3  C   UNL     1     -12.315   7.211  70.622  1.00  0.00    -0.201 C  
HETATM    4  C   UNL     1     -11.239   7.646  69.468  1.00  0.00     0.082 C  
HETATM    5  O   UNL     1     -10.694   9.800  70.478  1.00  0.00    -0.275 OA 
HETATM    6  C   UNL     1     -10.056   6.370  69.578  1.00  0.00    -0.203 C  
HETATM    7  C   UNL     1     -10.438   5.919  71.027  1.00  0.00    -0.237 C  
HETATM    8  C   UNL     1     -10.344   8.889  66.862  1.00  0.00    -0.332 C  
HETATM    9  C   UNL     1      -8.522   5.960  69.609  1.00  0.00    -0.117 C  
HETATM   10  C   UNL     1      -7.407   6.246  68.635  1.00  0.00    -0.086 C  
HETATM   11  C   UNL     1     -10.716   9.114  69.455  1.00  0.00    -0.215 C  
HETATM   12  C   UNL     1      -5.163  10.739  67.793  1.00  0.00    -0.039 C  
HETATM   13  C   UNL     1     -10.197   9.692  68.126  1.00  0.00    -0.225 C  
HETATM   14  C   UNL     1      -6.688  12.539  68.616  1.00  0.00    -0.087 C  
HETATM   15  C   UNL     1      -6.605  11.154  68.033  1.00  0.00    -0.058 C  
HETATM   16  C   UNL     1      -6.670   7.519  68.930  1.00  0.00    -0.049 C  
HETATM   17  C   UNL     1      -6.892   5.411  67.714  1.00  0.00    -0.060 C  
HETATM   18  C   UNL     1      -9.346  10.751  68.222  1.00  0.00    -0.161 C  
HETATM   19  C   UNL     1      -8.013  10.727  67.514  1.00  0.00    -0.110 C  
HETATM   20  C   UNL     1      -7.100   8.509  67.896  1.00  0.00    -0.086 C  
HETATM   21  C   UNL     1      -7.261   9.877  68.478  1.00  0.00    -0.076 C  
ENDROOT
BRANCH   4  22
HETATM   22  O   UNL     1     -12.157   7.522  68.293  1.00  0.00     2.073 OA 
BRANCH  22  23
HETATM   23  C   UNL     1     -11.769   6.600  67.335  1.00  0.00     1.041 C  
HETATM   24  C   UNL     1     -11.266   5.325  67.938  1.00  0.00     1.170 C  
HETATM   25  O   UNL     1     -11.871   6.741  66.123  1.00  0.00     2.179 OA 
ENDBRANCH  22  23
ENDBRANCH   4  22
BRANCH   7  26
HETATM   26  O   UNL     1     -10.077   7.121  71.880  1.00  0.00    -0.182 OA 
BRANCH  26  27
HETATM   27  C   UNL     1      -9.461   7.009  73.096  1.00  0.00    -0.157 C  
HETATM   28  O   UNL     1      -9.724   6.141  73.918  1.00  0.00    -0.158 OA 
BRANCH  27  29
HETATM   29  C   UNL     1      -8.217   7.871  73.236  1.00  0.00    -0.234 A  
HETATM   30  C   UNL     1      -7.355   7.997  72.118  1.00  0.00    -0.102 A  
HETATM   31  C   UNL     1      -7.874   8.560  74.395  1.00  0.00    -0.174 A  
HETATM   32  C   UNL     1      -6.725   9.379  74.436  1.00  0.00     0.405 A  
HETATM   33  C   UNL     1      -6.229   8.839  72.146  1.00  0.00    -0.069 A  
HETATM   34  C   UNL     1      -5.910   9.526  73.309  1.00  0.00     0.269 A  
ENDBRANCH  27  29
ENDBRANCH  26  27
ENDBRANCH   7  26
BRANCH   9  35
HETATM   35  O   UNL     1      -8.343   4.517  69.961  1.00  0.00    -0.066 OA 
BRANCH  35  36
HETATM   36  C   UNL     1      -7.683   4.101  71.083  1.00  0.00    -0.066 C  
HETATM   37  O   UNL     1      -6.995   4.771  71.806  1.00  0.00    -0.048 OA 
HETATM   38  C   UNL     1      -8.001   2.654  71.380  1.00  0.00    -0.051 C  
ENDBRANCH  35  36
ENDBRANCH   9  35
TORSDOF 7
ENDMDL
MODEL      152
REMARK 921   NORMALIZED FREE ENERGY PREDICTED BY IDOCK:   11.70 KCAL/MOL
REMARK 922        TOTAL FREE ENERGY PREDICTED BY IDOCK:   15.85 KCAL/MOL
REMARK 923 INTER-LIGAND FREE ENERGY PREDICTED BY IDOCK:   -2.34 KCAL/MOL
REMARK 924 INTRA-LIGAND FREE ENERGY PREDICTED BY IDOCK:   18.19 KCAL/MOL
REMARK 927      BINDING AFFINITY PREDICTED BY RF-SCORE:    0.00 PKD
ROOT
HETATM    1  C   UNL     1      -8.722   4.860  67.590  1.00  0.00    -0.103 C  
HETATM    2  C   UNL     1      -8.471   6.341  67.440  1.00  0.00    -0.108 C  
HETATM    3  C   UNL     1      -8.566   7.254  66.246  1.00  0.00    -0.147 C  
HETATM    4  C   UNL     1      -7.545   8.415  66.784  1.00  0.00    -0.090 C  
HETATM    5  O   UNL     1      -8.885  10.282  65.964  1.00  0.00    -0.143 OA 
HETATM    6  C   UNL     1      -7.529   8.114  68.501  1.00  0.00    -0.099 C  
HETATM    7  C   UNL     1      -8.874   7.316  68.539  1.00  0.00    -0.129 C  
HETATM    8  C   UNL     1      -5.197  10.312  66.619  1.00  0.00    -0.041 C  
HETATM    9  C   UNL     1      -7.578   8.715  69.970  1.00  0.00    -0.068 C  
HETATM   10  C   UNL     1      -6.715   9.756  70.637  1.00  0.00    -0.111 C  
HETATM   11  C   UNL     1      -7.773   9.882  66.311  1.00  0.00    -0.105 C  
HETATM   12  C   UNL     1      -6.654  14.755  69.665  1.00  0.00    -0.161 C  
HETATM   13  C   UNL     1      -6.572  10.844  66.311  1.00  0.00    -0.126 C  
HETATM   14  C   UNL     1      -7.651  15.121  67.404  1.00  0.00    -0.232 C  
HETATM   15  C   UNL     1      -6.878  14.173  68.279  1.00  0.00    -0.107 C  
HETATM   16  C   UNL     1      -7.230  11.155  70.468  1.00  0.00     1.402 C  
HETATM   17  C   UNL     1      -5.710   9.549  71.507  1.00  0.00    -0.067 C  
HETATM   18  C   UNL     1      -6.865  12.173  66.353  1.00  0.00     0.679 C  
HETATM   19  C   UNL     1      -6.230  13.064  67.393  1.00  0.00    -0.082 C  
HETATM   20  C   UNL     1      -6.331  11.823  69.478  1.00  0.00    -0.123 C  
HETATM   21  C   UNL     1      -7.098  12.711  68.551  1.00  0.00    -0.101 C  
ENDROOT
BRANCH   4  22
HETATM   22  O   UNL     1      -6.319   7.935  66.072  1.00  0.00    -0.044 OA 
BRANCH  22  23
HETATM   23  C   UNL     1      -6.494   6.804  65.293  1.00  0.00    -0.043 C  
HETATM   24  C   UNL     1      -5.549   5.702  65.664  1.00  0.00    -0.013 C  
HETATM   25  O   UNL     1      -7.354   6.650  64.435  1.00  0.00    -0.074 OA 
ENDBRANCH  22  23
ENDBRANCH   4  22
BRANCH   7  26
HETATM   26  O   UNL     1      -9.911   8.350  68.140  1.00  0.00    -0.177 OA 
BRANCH  26  27
HETATM   27  C   UNL     1     -10.473   8.394  66.894  1.00  0.00    -0.289 C  
HETATM   28  O   UNL     1     -11.140   7.488  66.413  1.00  0.00     0.592 OA 
BRANCH  27  29
HETATM   29  C   UNL     1     -10.449   9.775  66.258  1.00  0.00    -0.160 A  
HETATM   30  C   UNL     1     -10.049   9.885  64.903  1.00  0.00    -0.055 A  
HETATM   31  C   UNL     1     -10.810  10.943  66.921  1.00  0.00    -0.307 A  
HETATM   32  C   UNL     1     -10.806  12.186  66.250  1.00  0.00    -0.317 A  
HETATM   33  C   UNL     1     -10.077  11.117  64.223  1.00  0.00    -0.382 A  
HETATM   34  C   UNL     1     -10.450  12.269  64.900  1.00  0.00    -0.321 A  
ENDBRANCH  27  29
ENDBRANCH  26  27
ENDBRANCH   7  26
BRANCH   9  35
HETATM   35  O   UNL     1      -7.724   7.641  71.001  1.00  0.00    -0.085 OA 
BRANCH  35  36
HETATM   36  C   UNL     1      -8.875   7.445  71.713  1.00  0.00    -0.115 C  
HETATM   37  O   UNL     1      -9.177   6.466  72.341  1.00  0.00    -0.139 OA 
HETATM   38  C   UNL     1      -9.728   8.692  71.694  1.00  0.00    -0.348 C  
ENDBRANCH  35  36
ENDBRANCH   9  35
TORSDOF 7
ENDMDL
MODEL      153
REMARK 921   NORMALIZED FREE ENERGY PREDICTED BY IDOCK:   11.91 KCAL/MOL
REMARK 922        TOTAL FREE ENERGY PREDICTED BY IDOCK:   16.15 KCAL/MOL
REMARK 923 INTER-LIGAND FREE ENERGY PREDICTED BY IDOCK:    6.29 KCAL/MOL
REMARK 924 INTRA-LIGAND FREE ENERGY PREDICTED BY IDOCK:    9.87 KCAL/MOL
REMARK 927      BINDING AFFINITY PREDICTED BY RF-SCORE:    0.00 PKD
ROOT
HETATM    1  C   UNL     1     -12.017  18.223  65.257  1.00  0.00     4.780 C  
HETATM    2  C   UNL     1     -10.904  17.488  65.965  1.00  0.00     0.031 C  
HETATM    3  C   UNL     1      -9.850  17.963  66.932  1.00  0.00    -0.321 C  
HETATM    4  C   UNL     1      -8.760  16.774  66.659  1.00  0.00    -0.248 C  
HETATM    5  O   UNL     1      -8.124  16.518  69.001  1.00  0.00    -0.235 OA 
HETATM    6  C   UNL     1      -9.751  15.533  65.941  1.00  0.00    -0.392 C  
HETATM    7  C   UNL     1     -11.112  16.074  66.490  1.00  0.00     0.024 C  
HETATM    8  C   UNL     1      -6.037  15.625  66.022  1.00  0.00     4.056 C  
HETATM    9  C   UNL     1     -10.131  13.992  65.869  1.00  0.00    -0.321 C  
HETATM   10  C   UNL     1      -9.275  12.778  65.607  1.00  0.00     0.269 C  
HETATM   11  C   UNL     1      -7.810  16.356  67.821  1.00  0.00    -0.152 C  
HETATM   12  C   UNL     1      -5.802  10.754  68.734  1.00  0.00    -0.040 C  
HETATM   13  C   UNL     1      -6.462  15.704  67.464  1.00  0.00    -0.201 C  
HETATM   14  C   UNL     1      -5.145  12.495  70.401  1.00  0.00    -0.106 C  
HETATM   15  C   UNL     1      -5.628  12.240  68.999  1.00  0.00    -0.064 C  
HETATM   16  C   UNL     1      -8.696  12.176  66.853  1.00  0.00    -0.194 C  
HETATM   17  C   UNL     1      -9.165  12.088  64.457  1.00  0.00     0.392 C  
HETATM   18  C   UNL     1      -5.882  14.947  68.437  1.00  0.00    -0.106 C  
HETATM   19  C   UNL     1      -5.442  13.533  68.146  1.00  0.00    -0.108 C  
HETATM   20  C   UNL     1      -7.244  12.530  66.863  1.00  0.00     0.141 C  
HETATM   21  C   UNL     1      -6.768  12.861  68.241  1.00  0.00    -0.093 C  
ENDROOT
BRANCH   4  22
HETATM   22  O   UNL     1      -7.910  17.516  65.675  1.00  0.00    -0.507 OA 
BRANCH  22  23
HETATM   23  C   UNL     1      -6.719  18.010  66.180  1.00  0.00    -0.268 C  
HETATM   24  C   UNL     1      -5.525  17.275  65.652  1.00  0.00     0.511 C  
HETATM   25  O   UNL     1      -6.601  18.979  66.920  1.00  0.00    -0.194 OA 
ENDBRANCH  22  23
ENDBRANCH   4  22
BRANCH   7  26
HETATM   26  O   UNL     1     -10.978  15.913  67.994  1.00  0.00    -0.315 OA 
BRANCH  26  27
HETATM   27  C   UNL     1     -11.071  14.702  68.621  1.00  0.00    -0.262 C  
HETATM   28  O   UNL     1     -10.268  13.791  68.471  1.00  0.00    -0.233 OA 
BRANCH  27  29
HETATM   29  C   UNL     1     -12.093  14.669  69.745  1.00  0.00    -0.371 A  
HETATM   30  C   UNL     1     -11.708  15.155  71.020  1.00  0.00    -0.385 A  
HETATM   31  C   UNL     1     -13.396  14.201  69.600  1.00  0.00     1.556 A  
HETATM   32  C   UNL     1     -14.304  14.245  70.680  1.00  0.00     1.111 A  
HETATM   33  C   UNL     1     -12.622  15.230  72.088  1.00  0.00    -0.428 A  
HETATM   34  C   UNL     1     -13.919  14.768  71.919  1.00  0.00    -0.577 A  
ENDBRANCH  27  29
ENDBRANCH  26  27
ENDBRANCH   7  26
BRANCH   9  35
HETATM   35  O   UNL     1     -11.357  13.764  65.043  1.00  0.00    -0.310 OA 
BRANCH  35  36
HETATM   36  C   UNL     1     -12.616  13.728  65.575  1.00  0.00    -0.512 C  
HETATM   37  O   UNL     1     -13.622  14.157  65.077  1.00  0.00    -0.115 OA 
HETATM   38  C   UNL     1     -12.617  12.974  66.884  1.00  0.00     0.471 C  
ENDBRANCH  35  36
ENDBRANCH   9  35
TORSDOF 7
ENDMDL
MODEL      154
REMARK 921   NORMALIZED FREE ENERGY PREDICTED BY IDOCK:   12.10 KCAL/MOL
REMARK 922        TOTAL FREE ENERGY PREDICTED BY IDOCK:   16.41 KCAL/MOL
REMARK 923 INTER-LIGAND FREE ENERGY PREDICTED BY IDOCK:   14.47 KCAL/MOL
REMARK 924 INTRA-LIGAND FREE ENERGY PREDICTED BY IDOCK:    1.95 KCAL/MOL
REMARK 927      BINDING AFFINITY PREDICTED BY RF-SCORE:    0.00 PKD
ROOT
HETATM    1  C   UNL     1      -8.256  16.316  67.852  1.00  0.00    -0.156 C  
HETATM    2  C   UNL     1      -9.177  15.276  68.442  1.00  0.00    -0.194 C  
HETATM    3  C   UNL     1     -10.557  15.385  69.037  1.00  0.00    -0.247 C  
HETATM    4  C   UNL     1     -10.497  14.035  69.961  1.00  0.00     0.698 C  
HETATM    5  O   UNL     1     -12.792  13.349  69.493  1.00  0.00     0.249 OA 
HETATM    6  C   UNL     1      -9.207  13.138  69.206  1.00  0.00     0.868 C  
HETATM    7  C   UNL     1      -9.273  13.883  67.832  1.00  0.00    -0.198 C  
HETATM    8  C   UNL     1     -10.765  12.421  72.503  1.00  0.00    12.681 C  
HETATM    9  C   UNL     1      -8.675  11.737  68.680  1.00  0.00    -0.058 C  
HETATM   10  C   UNL     1      -8.528  10.412  69.386  1.00  0.00    -0.145 C  
HETATM   11  C   UNL     1     -11.827  13.277  70.255  1.00  0.00    -0.234 C  
HETATM   12  C   UNL     1     -12.280   7.306  70.869  1.00  0.00    -0.308 C  
HETATM   13  C   UNL     1     -11.904  12.403  71.519  1.00  0.00     1.390 C  
HETATM   14  C   UNL     1     -14.391   8.636  70.991  1.00  0.00    -0.026 C  
HETATM   15  C   UNL     1     -12.893   8.673  71.121  1.00  0.00    -0.118 C  
HETATM   16  C   UNL     1      -9.747   9.545  69.287  1.00  0.00    -0.180 C  
HETATM   17  C   UNL     1      -7.399   9.869  69.877  1.00  0.00    -0.147 C  
HETATM   18  C   UNL     1     -12.848  11.421  71.516  1.00  0.00    -0.508 C  
HETATM   19  C   UNL     1     -12.470   9.995  71.833  1.00  0.00    -0.408 C  
HETATM   20  C   UNL     1     -10.403   9.575  70.629  1.00  0.00    -0.369 C  
HETATM   21  C   UNL     1     -11.893   9.616  70.514  1.00  0.00    -0.284 C  
ENDROOT
BRANCH   4  22
HETATM   22  O   UNL     1     -10.105  14.698  71.244  1.00  0.00     1.363 OA 
BRANCH  22  23
HETATM   23  C   UNL     1     -10.886  15.782  71.610  1.00  0.00     0.347 C  
HETATM   24  C   UNL     1     -10.422  17.060  70.982  1.00  0.00     1.806 C  
HETATM   25  O   UNL     1     -11.891  15.738  72.308  1.00  0.00    -0.410 OA 
ENDBRANCH  22  23
ENDBRANCH   4  22
BRANCH   7  26
HETATM   26  O   UNL     1     -10.639  13.505  67.288  1.00  0.00    -0.260 OA 
BRANCH  26  27
HETATM   27  C   UNL     1     -10.956  12.233  66.898  1.00  0.00    -0.267 C  
HETATM   28  O   UNL     1     -11.414  11.382  67.649  1.00  0.00    -0.376 OA 
BRANCH  27  29
HETATM   29  C   UNL     1     -10.966  12.037  65.391  1.00  0.00    -0.347 A  
HETATM   30  C   UNL     1     -10.203  10.975  64.845  1.00  0.00    -0.373 A  
HETATM   31  C   UNL     1     -11.691  12.832  64.508  1.00  0.00    -0.420 A  
HETATM   32  C   UNL     1     -11.686  12.560  63.122  1.00  0.00    -0.321 A  
HETATM   33  C   UNL     1     -10.224  10.683  63.469  1.00  0.00    -0.201 A  
HETATM   34  C   UNL     1     -10.962  11.480  62.606  1.00  0.00     0.714 A  
ENDBRANCH  27  29
ENDBRANCH  26  27
ENDBRANCH   7  26
BRANCH   9  35
HETATM   35  O   UNL     1      -7.404  11.885  67.905  1.00  0.00    -0.091 OA 
BRANCH  35  36
HETATM   36  C   UNL     1      -7.045  11.035  66.896  1.00  0.00    -0.125 C  
HETATM   37  O   UNL     1      -6.669   9.899  67.008  1.00  0.00    -0.073 OA 
HETATM   38  C   UNL     1      -7.270  11.686  65.551  1.00  0.00     1.193 C  
ENDBRANCH  35  36
ENDBRANCH   9  35
TORSDOF 7
ENDMDL
MODEL      155
REMARK 921   NORMALIZED FREE ENERGY PREDICTED BY IDOCK:   12.21 KCAL/MOL
REMARK 922        TOTAL FREE ENERGY PREDICTED BY IDOCK:   16.56 KCAL/MOL
REMARK 923 INTER-LIGAND FREE ENERGY PREDICTED BY IDOCK:    9.37 KCAL/MOL
REMARK 924 INTRA-LIGAND FREE ENERGY PREDICTED BY IDOCK:    7.20 KCAL/MOL
REMARK 927      BINDING AFFINITY PREDICTED BY RF-SCORE:    0.00 PKD
ROOT
HETATM    1  C   UNL     1     -12.746  11.201  63.855  1.00  0.00     1.394 C  
HETATM    2  C   UNL     1     -11.837  11.763  64.921  1.00  0.00    -0.135 C  
HETATM    3  C   UNL     1     -11.760  13.130  65.549  1.00  0.00    -0.393 C  
HETATM    4  C   UNL     1     -10.200  13.052  66.037  1.00  0.00    -0.287 C  
HETATM    5  O   UNL     1     -10.587  14.146  68.184  1.00  0.00    -0.237 OA 
HETATM    6  C   UNL     1      -9.907  11.334  66.037  1.00  0.00    -0.267 C  
HETATM    7  C   UNL     1     -11.412  10.913  66.112  1.00  0.00     0.580 C  
HETATM    8  C   UNL     1      -7.346  14.013  66.311  1.00  0.00     2.926 C  
HETATM    9  C   UNL     1      -9.282  10.078  66.783  1.00  0.00    -0.148 C  
HETATM   10  C   UNL     1      -7.880   9.825  67.277  1.00  0.00    -0.098 C  
HETATM   11  C   UNL     1      -9.776  13.856  67.303  1.00  0.00    -0.245 C  
HETATM   12  C   UNL     1      -5.583  12.063  71.232  1.00  0.00     0.126 C  
HETATM   13  C   UNL     1      -8.300  14.264  67.448  1.00  0.00    -0.212 C  
HETATM   14  C   UNL     1      -6.792  14.189  71.735  1.00  0.00     2.156 C  
HETATM   15  C   UNL     1      -6.404  13.207  70.664  1.00  0.00     0.379 C  
HETATM   16  C   UNL     1      -7.653  10.283  68.687  1.00  0.00    -0.089 C  
HETATM   17  C   UNL     1      -6.931   9.071  66.692  1.00  0.00    -0.081 C  
HETATM   18  C   UNL     1      -7.870  14.532  68.713  1.00  0.00    -0.145 C  
HETATM   19  C   UNL     1      -6.640  13.852  69.263  1.00  0.00    -0.113 C  
HETATM   20  C   UNL     1      -6.821  11.522  68.604  1.00  0.00    -0.077 C  
HETATM   21  C   UNL     1      -7.247  12.538  69.614  1.00  0.00     0.502 C  
ENDROOT
BRANCH   4  22
HETATM   22  O   UNL     1      -9.598  13.770  64.870  1.00  0.00     0.062 OA 
BRANCH  22  23
HETATM   23  C   UNL     1     -10.211  13.531  63.651  1.00  0.00     1.511 C  
HETATM   24  C   UNL     1      -9.884  12.176  63.101  1.00  0.00     0.006 C  
HETATM   25  O   UNL     1     -10.993  14.282  63.082  1.00  0.00     1.915 OA 
ENDBRANCH  22  23
ENDBRANCH   4  22
BRANCH   7  26
HETATM   26  O   UNL     1     -11.858  11.426  67.469  1.00  0.00    -0.614 OA 
BRANCH  26  27
HETATM   27  C   UNL     1     -11.579  10.773  68.637  1.00  0.00    -0.272 C  
HETATM   28  O   UNL     1     -10.540  10.159  68.846  1.00  0.00    -0.194 OA 
BRANCH  27  29
HETATM   29  C   UNL     1     -12.536  11.104  69.771  1.00  0.00    -0.230 A  
HETATM   30  C   UNL     1     -13.132  10.035  70.483  1.00  0.00    -0.119 A  
HETATM   31  C   UNL     1     -12.856  12.400  70.164  1.00  0.00     0.377 A  
HETATM   32  C   UNL     1     -13.720  12.630  71.258  1.00  0.00     0.715 A  
HETATM   33  C   UNL     1     -13.966  10.262  71.594  1.00  0.00     0.235 A  
HETATM   34  C   UNL     1     -14.265  11.562  71.977  1.00  0.00     1.133 A  
ENDBRANCH  27  29
ENDBRANCH  26  27
ENDBRANCH   7  26
BRANCH   9  35
HETATM   35  O   UNL     1      -9.680   8.793  66.128  1.00  0.00    -0.258 OA 
BRANCH  35  36
HETATM   36  C   UNL     1      -9.078   7.598  66.408  1.00  0.00    -0.174 C  
HETATM   37  O   UNL     1      -9.326   6.862  67.325  1.00  0.00    -0.130 OA 
HETATM   38  C   UNL     1      -8.076   7.246  65.333  1.00  0.00    -0.133 C  
ENDBRANCH  35  36
ENDBRANCH   9  35
TORSDOF 7
ENDMDL
MODEL      156
REMARK 921   NORMALIZED FREE ENERGY PREDICTED BY IDOCK:   13.38 KCAL/MOL
REMARK 922        TOTAL FREE ENERGY PREDICTED BY IDOCK:   18.22 KCAL/MOL
REMARK 923 INTER-LIGAND FREE ENERGY PREDICTED BY IDOCK:    8.75 KCAL/MOL
REMARK 924 INTRA-LIGAND FREE ENERGY PREDICTED BY IDOCK:    9.47 KCAL/MOL
REMARK 927      BINDING AFFINITY PREDICTED BY RF-SCORE:    0.00 PKD
ROOT
HETATM    1  C   UNL     1      -8.395  11.695  64.665  1.00  0.00     1.071 C  
HETATM    2  C   UNL     1      -8.567  11.159  66.066  1.00  0.00    -0.154 C  
HETATM    3  C   UNL     1      -9.360  11.670  67.241  1.00  0.00    -0.170 C  
HETATM    4  C   UNL     1      -8.493  10.936  68.418  1.00  0.00    -0.141 C  
HETATM    5  O   UNL     1     -10.432  10.325  69.769  1.00  0.00    -0.241 OA 
HETATM    6  C   UNL     1      -7.682   9.671  67.535  1.00  0.00    -0.095 C  
HETATM    7  C   UNL     1      -8.670   9.661  66.322  1.00  0.00    -0.142 C  
HETATM    8  C   UNL     1      -6.923  10.785  70.998  1.00  0.00     1.505 C  
HETATM    9  C   UNL     1      -7.235   8.148  67.477  1.00  0.00    -0.091 C  
HETATM   10  C   UNL     1      -6.425   7.322  68.444  1.00  0.00    -0.044 C  
HETATM   11  C   UNL     1      -9.219  10.541  69.739  1.00  0.00     0.151 C  
HETATM   12  C   UNL     1      -7.892   5.682  73.037  1.00  0.00    -0.101 C  
HETATM   13  C   UNL     1      -8.378  10.399  71.021  1.00  0.00     2.502 C  
HETATM   14  C   UNL     1      -9.809   7.094  73.793  1.00  0.00    -0.355 C  
HETATM   15  C   UNL     1      -8.548   7.051  72.973  1.00  0.00    -0.137 C  
HETATM   16  C   UNL     1      -7.258   6.632  69.483  1.00  0.00    -0.082 C  
HETATM   17  C   UNL     1      -5.127   6.983  68.342  1.00  0.00    -0.016 C  
HETATM   18  C   UNL     1      -8.912   9.630  72.009  1.00  0.00     2.051 C  
HETATM   19  C   UNL     1      -8.111   8.507  72.622  1.00  0.00    -0.113 C  
HETATM   20  C   UNL     1      -7.038   7.368  70.765  1.00  0.00    -0.063 C  
HETATM   21  C   UNL     1      -8.302   7.486  71.555  1.00  0.00    -0.111 C  
ENDROOT
BRANCH   4  22
HETATM   22  O   UNL     1      -7.613  12.097  68.760  1.00  0.00    -0.114 OA 
BRANCH  22  23
HETATM   23  C   UNL     1      -6.317  12.018  68.277  1.00  0.00    -0.052 C  
HETATM   24  C   UNL     1      -5.523  13.255  68.562  1.00  0.00    -0.078 C  
HETATM   25  O   UNL     1      -5.813  11.042  67.735  1.00  0.00    -0.046 OA 
ENDBRANCH  22  23
ENDBRANCH   4  22
BRANCH   7  26
HETATM   26  O   UNL     1      -9.979   9.196  66.933  1.00  0.00    -0.198 OA 
BRANCH  26  27
HETATM   27  C   UNL     1     -10.041   8.251  67.921  1.00  0.00    -0.202 C  
HETATM   28  O   UNL     1     -10.113   8.513  69.114  1.00  0.00    -0.192 OA 
BRANCH  27  29
HETATM   29  C   UNL     1     -10.306   6.844  67.409  1.00  0.00    -0.297 A  
HETATM   30  C   UNL     1     -11.612   6.525  66.961  1.00  0.00     0.583 A  
HETATM   31  C   UNL     1      -9.338   5.847  67.340  1.00  0.00    -0.111 A  
HETATM   32  C   UNL     1      -9.648   4.575  66.810  1.00  0.00    -0.206 A  
HETATM   33  C   UNL     1     -11.913   5.270  66.401  1.00  0.00     3.273 A  
HETATM   34  C   UNL     1     -10.931   4.292  66.331  1.00  0.00     1.360 A  
ENDBRANCH  27  29
ENDBRANCH  26  27
ENDBRANCH   7  26
BRANCH   9  35
HETATM   35  O   UNL     1      -6.687   7.784  66.133  1.00  0.00    -0.052 OA 
BRANCH  35  36
HETATM   36  C   UNL     1      -7.461   7.278  65.126  1.00  0.00    -0.087 C  
HETATM   37  O   UNL     1      -8.592   7.585  64.861  1.00  0.00    -0.023 OA 
HETATM   38  C   UNL     1      -6.667   6.305  64.286  1.00  0.00    -0.038 C  
ENDBRANCH  35  36
ENDBRANCH   9  35
TORSDOF 7
ENDMDL
MODEL      157
REMARK 921   NORMALIZED FREE ENERGY PREDICTED BY IDOCK:   13.47 KCAL/MOL
REMARK 922        TOTAL FREE ENERGY PREDICTED BY IDOCK:   18.34 KCAL/MOL
REMARK 923 INTER-LIGAND FREE ENERGY PREDICTED BY IDOCK:   14.56 KCAL/MOL
REMARK 924 INTRA-LIGAND FREE ENERGY PREDICTED BY IDOCK:    3.78 KCAL/MOL
REMARK 927      BINDING AFFINITY PREDICTED BY RF-SCORE:    0.00 PKD
ROOT
HETATM    1  C   UNL     1      -5.973  12.679  70.680  1.00  0.00     0.010 C  
HETATM    2  C   UNL     1      -6.325  11.902  69.434  1.00  0.00    -0.115 C  
HETATM    3  C   UNL     1      -5.558  11.656  68.161  1.00  0.00    -0.043 C  
HETATM    4  C   UNL     1      -6.843  11.347  67.196  1.00  0.00    -0.124 C  
HETATM    5  O   UNL     1      -5.772   9.519  65.985  1.00  0.00    -0.047 OA 
HETATM    6  C   UNL     1      -8.079  10.944  68.357  1.00  0.00    -0.131 C  
HETATM    7  C   UNL     1      -7.097  10.592  69.523  1.00  0.00    -0.124 C  
HETATM    8  C   UNL     1      -8.587  11.657  64.746  1.00  0.00     0.709 C  
HETATM    9  C   UNL     1      -9.274   9.981  68.767  1.00  0.00    -0.159 C  
HETATM   10  C   UNL     1     -10.532   9.603  68.025  1.00  0.00    -0.276 C  
HETATM   11  C   UNL     1      -6.649  10.384  65.986  1.00  0.00    -0.120 C  
HETATM   12  C   UNL     1     -10.875   6.639  63.899  1.00  0.00    10.673 C  
HETATM   13  C   UNL     1      -7.603  10.519  64.785  1.00  0.00     0.016 C  
HETATM   14  C   UNL     1      -8.629   6.556  62.809  1.00  0.00     0.279 C  
HETATM   15  C   UNL     1      -9.575   7.380  63.640  1.00  0.00     3.701 C  
HETATM   16  C   UNL     1     -10.371   8.392  67.156  1.00  0.00    -0.381 C  
HETATM   17  C   UNL     1     -11.773  10.083  68.225  1.00  0.00     0.446 C  
HETATM   18  C   UNL     1      -7.724   9.422  63.987  1.00  0.00    -0.121 C  
HETATM   19  C   UNL     1      -9.087   8.863  63.659  1.00  0.00     0.406 C  
HETATM   20  C   UNL     1     -10.331   8.882  65.745  1.00  0.00     0.701 C  
HETATM   21  C   UNL     1      -9.338   8.121  64.926  1.00  0.00     0.864 C  
ENDROOT
BRANCH   4  22
HETATM   22  O   UNL     1      -6.981  12.719  66.616  1.00  0.00     0.277 OA 
BRANCH  22  23
HETATM   23  C   UNL     1      -7.646  13.634  67.415  1.00  0.00    -0.130 C  
HETATM   24  C   UNL     1      -8.676  12.987  68.290  1.00  0.00    -0.173 C  
HETATM   25  O   UNL     1      -7.408  14.833  67.484  1.00  0.00    -0.175 OA 
ENDBRANCH  22  23
ENDBRANCH   4  22
BRANCH   7  26
HETATM   26  O   UNL     1      -6.361   9.368  69.010  1.00  0.00    -0.042 OA 
BRANCH  26  27
HETATM   27  C   UNL     1      -6.457   8.141  69.606  1.00  0.00    -0.037 C  
HETATM   28  O   UNL     1      -6.768   7.973  70.778  1.00  0.00    -0.037 OA 
BRANCH  27  29
HETATM   29  C   UNL     1      -6.428   6.978  68.628  1.00  0.00    -0.036 A  
HETATM   30  C   UNL     1      -6.310   7.265  67.245  1.00  0.00    -0.054 A  
HETATM   31  C   UNL     1      -6.497   5.641  69.006  1.00  0.00    -0.042 A  
HETATM   32  C   UNL     1      -6.419   4.612  68.041  1.00  0.00    -0.041 A  
HETATM   33  C   UNL     1      -6.198   6.241  66.286  1.00  0.00    -0.037 A  
HETATM   34  C   UNL     1      -6.259   4.914  66.684  1.00  0.00    -0.032 A  
ENDBRANCH  27  29
ENDBRANCH  26  27
ENDBRANCH   7  26
BRANCH   9  35
HETATM   35  O   UNL     1      -9.734  10.237  70.167  1.00  0.00    -0.114 OA 
BRANCH  35  36
HETATM   36  C   UNL     1     -10.063   9.234  71.036  1.00  0.00    -0.303 C  
HETATM   37  O   UNL     1      -9.334   8.377  71.459  1.00  0.00    -0.162 OA 
HETATM   38  C   UNL     1     -11.493   9.384  71.500  1.00  0.00    -0.467 C  
ENDBRANCH  35  36
ENDBRANCH   9  35
TORSDOF 7
ENDMDL
MODEL      158
REMARK 921   NORMALIZED FREE ENERGY PREDICTED BY IDOCK:   13.65 KCAL/MOL
REMARK 922        TOTAL FREE ENERGY PREDICTED BY IDOCK:   18.60 KCAL/MOL
REMARK 923 INTER-LIGAND FREE ENERGY PREDICTED BY IDOCK:    2.20 KCAL/MOL
REMARK 924 INTRA-LIGAND FREE ENERGY PREDICTED BY IDOCK:   16.40 KCAL/MOL
REMARK 927      BINDING AFFINITY PREDICTED BY RF-SCORE:    0.00 PKD
ROOT
HETATM    1  C   UNL     1      -6.730  14.360  69.654  1.00  0.00    -0.137 C  
HETATM    2  C   UNL     1      -7.414  13.220  68.940  1.00  0.00     0.002 C  
HETATM    3  C   UNL     1      -7.948  13.097  67.536  1.00  0.00    -0.179 C  
HETATM    4  C   UNL     1      -9.032  11.905  67.825  1.00  0.00    -0.173 C  
HETATM    5  O   UNL     1      -8.581  10.694  65.754  1.00  0.00    -0.170 OA 
HETATM    6  C   UNL     1      -8.434  11.226  69.314  1.00  0.00     0.197 C  
HETATM    7  C   UNL     1      -6.978  11.779  69.172  1.00  0.00    -0.091 C  
HETATM    8  C   UNL     1     -11.744  10.571  67.757  1.00  0.00     0.285 C  
HETATM    9  C   UNL     1      -8.102   9.921  70.158  1.00  0.00    -0.146 C  
HETATM   10  C   UNL     1      -8.969   8.748  70.539  1.00  0.00    -0.203 C  
HETATM   11  C   UNL     1      -9.375  10.918  66.669  1.00  0.00    -0.171 C  
HETATM   12  C   UNL     1     -10.705   5.098  67.442  1.00  0.00    -0.004 C  
HETATM   13  C   UNL     1     -10.735  10.197  66.704  1.00  0.00    -0.156 C  
HETATM   14  C   UNL     1     -10.597   5.948  65.096  1.00  0.00     2.112 C  
HETATM   15  C   UNL     1     -10.768   6.321  66.543  1.00  0.00    -0.177 C  
HETATM   16  C   UNL     1      -8.940   7.634  69.536  1.00  0.00    -0.139 C  
HETATM   17  C   UNL     1      -9.559   8.520  71.727  1.00  0.00    -0.337 C  
HETATM   18  C   UNL     1     -10.823   9.041  65.989  1.00  0.00     1.314 C  
HETATM   19  C   UNL     1     -11.325   7.775  66.639  1.00  0.00     1.766 C  
HETATM   20  C   UNL     1     -10.247   7.675  68.813  1.00  0.00    -0.210 C  
HETATM   21  C   UNL     1     -10.081   7.382  67.357  1.00  0.00    -0.274 C  
ENDROOT
BRANCH   4  22
HETATM   22  O   UNL     1     -10.235  12.778  67.995  1.00  0.00    -0.215 OA 
BRANCH  22  23
HETATM   23  C   UNL     1     -10.441  13.703  66.985  1.00  0.00    -0.270 C  
HETATM   24  C   UNL     1     -11.369  14.805  67.397  1.00  0.00    -0.361 C  
HETATM   25  O   UNL     1      -9.895  13.701  65.889  1.00  0.00    -0.289 OA 
ENDBRANCH  22  23
ENDBRANCH   4  22
BRANCH   7  26
HETATM   26  O   UNL     1      -6.442  11.057  67.949  1.00  0.00    -0.060 OA 
BRANCH  26  27
HETATM   27  C   UNL     1      -7.088   9.999  67.371  1.00  0.00    -0.084 C  
HETATM   28  O   UNL     1      -7.874  10.105  66.439  1.00  0.00    -0.108 OA 
BRANCH  27  29
HETATM   29  C   UNL     1      -6.537   8.644  67.783  1.00  0.00    -0.062 A  
HETATM   30  C   UNL     1      -6.543   7.596  66.829  1.00  0.00    -0.061 A  
HETATM   31  C   UNL     1      -6.014   8.367  69.043  1.00  0.00    -0.043 A  
HETATM   32  C   UNL     1      -5.478   7.094  69.339  1.00  0.00    -0.015 A  
HETATM   33  C   UNL     1      -5.978   6.338  67.112  1.00  0.00    -0.021 A  
HETATM   34  C   UNL     1      -5.452   6.086  68.370  1.00  0.00    -0.008 A  
ENDBRANCH  27  29
ENDBRANCH  26  27
ENDBRANCH   7  26
BRANCH   9  35
HETATM   35  O   UNL     1      -7.355  10.250  71.411  1.00  0.00     0.603 OA 
BRANCH  35  36
HETATM   36  C   UNL     1      -6.925   9.297  72.292  1.00  0.00     0.513 C  
HETATM   37  O   UNL     1      -7.561   8.795  73.179  1.00  0.00    -0.375 OA 
HETATM   38  C   UNL     1      -5.519   8.858  71.953  1.00  0.00    -0.055 C  
ENDBRANCH  35  36
ENDBRANCH   9  35
TORSDOF 7
ENDMDL
MODEL      159
REMARK 921   NORMALIZED FREE ENERGY PREDICTED BY IDOCK:   13.93 KCAL/MOL
REMARK 922        TOTAL FREE ENERGY PREDICTED BY IDOCK:   18.99 KCAL/MOL
REMARK 923 INTER-LIGAND FREE ENERGY PREDICTED BY IDOCK:   14.72 KCAL/MOL
REMARK 924 INTRA-LIGAND FREE ENERGY PREDICTED BY IDOCK:    4.27 KCAL/MOL
REMARK 927      BINDING AFFINITY PREDICTED BY RF-SCORE:    0.00 PKD
ROOT
HETATM    1  C   UNL     1      -5.973  12.679  70.680  1.00  0.00     0.010 C  
HETATM    2  C   UNL     1      -6.325  11.902  69.434  1.00  0.00    -0.115 C  
HETATM    3  C   UNL     1      -5.558  11.656  68.161  1.00  0.00    -0.043 C  
HETATM    4  C   UNL     1      -6.843  11.347  67.196  1.00  0.00    -0.124 C  
HETATM    5  O   UNL     1      -5.772   9.519  65.985  1.00  0.00    -0.047 OA 
HETATM    6  C   UNL     1      -8.079  10.944  68.357  1.00  0.00    -0.131 C  
HETATM    7  C   UNL     1      -7.097  10.592  69.523  1.00  0.00    -0.124 C  
HETATM    8  C   UNL     1      -8.587  11.657  64.746  1.00  0.00     0.709 C  
HETATM    9  C   UNL     1      -9.274   9.981  68.767  1.00  0.00    -0.159 C  
HETATM   10  C   UNL     1     -10.532   9.603  68.025  1.00  0.00    -0.276 C  
HETATM   11  C   UNL     1      -6.649  10.384  65.986  1.00  0.00    -0.120 C  
HETATM   12  C   UNL     1     -10.875   6.639  63.899  1.00  0.00    10.673 C  
HETATM   13  C   UNL     1      -7.603  10.519  64.785  1.00  0.00     0.016 C  
HETATM   14  C   UNL     1      -8.629   6.556  62.809  1.00  0.00     0.279 C  
HETATM   15  C   UNL     1      -9.575   7.380  63.640  1.00  0.00     3.701 C  
HETATM   16  C   UNL     1     -10.371   8.392  67.156  1.00  0.00    -0.381 C  
HETATM   17  C   UNL     1     -11.773  10.083  68.225  1.00  0.00     0.446 C  
HETATM   18  C   UNL     1      -7.724   9.422  63.987  1.00  0.00    -0.121 C  
HETATM   19  C   UNL     1      -9.087   8.863  63.659  1.00  0.00     0.406 C  
HETATM   20  C   UNL     1     -10.331   8.882  65.745  1.00  0.00     0.701 C  
HETATM   21  C   UNL     1      -9.338   8.121  64.926  1.00  0.00     0.864 C  
ENDROOT
BRANCH   4  22
HETATM   22  O   UNL     1      -6.981  12.719  66.616  1.00  0.00     0.277 OA 
BRANCH  22  23
HETATM   23  C   UNL     1      -7.646  13.634  67.415  1.00  0.00    -0.130 C  
HETATM   24  C   UNL     1      -8.676  12.987  68.290  1.00  0.00    -0.173 C  
HETATM   25  O   UNL     1      -7.408  14.833  67.484  1.00  0.00    -0.175 OA 
ENDBRANCH  22  23
ENDBRANCH   4  22
BRANCH   7  26
HETATM   26  O   UNL     1      -6.361   9.368  69.010  1.00  0.00    -0.042 OA 
BRANCH  26  27
HETATM   27  C   UNL     1      -6.457   8.141  69.606  1.00  0.00    -0.037 C  
HETATM   28  O   UNL     1      -6.508   7.084  68.991  1.00  0.00    -0.034 OA 
BRANCH  27  29
HETATM   29  C   UNL     1      -6.205   8.164  71.105  1.00  0.00    -0.034 A  
HETATM   30  C   UNL     1      -5.906   9.407  71.718  1.00  0.00    -0.038 A  
HETATM   31  C   UNL     1      -6.263   7.039  71.922  1.00  0.00    -0.038 A  
HETATM   32  C   UNL     1      -6.062   7.147  73.316  1.00  0.00    -0.057 A  
HETATM   33  C   UNL     1      -5.739   9.521  73.111  1.00  0.00     0.190 A  
HETATM   34  C   UNL     1      -5.811   8.389  73.909  1.00  0.00    -0.108 A  
ENDBRANCH  27  29
ENDBRANCH  26  27
ENDBRANCH   7  26
BRANCH   9  35
HETATM   35  O   UNL     1      -9.734  10.237  70.167  1.00  0.00    -0.114 OA 
BRANCH  35  36
HETATM   36  C   UNL     1     -10.063   9.234  71.036  1.00  0.00    -0.303 C  
HETATM   37  O   UNL     1      -9.334   8.377  71.459  1.00  0.00    -0.162 OA 
HETATM   38  C   UNL     1     -11.493   9.384  71.500  1.00  0.00    -0.467 C  
ENDBRANCH  35  36
ENDBRANCH   9  35
TORSDOF 7
ENDMDL
MODEL      160
REMARK 921   NORMALIZED FREE ENERGY PREDICTED BY IDOCK:   14.37 KCAL/MOL
REMARK 922        TOTAL FREE ENERGY PREDICTED BY IDOCK:   19.61 KCAL/MOL
REMARK 923 INTER-LIGAND FREE ENERGY PREDICTED BY IDOCK:   14.41 KCAL/MOL
REMARK 924 INTRA-LIGAND FREE ENERGY PREDICTED BY IDOCK:    5.19 KCAL/MOL
REMARK 927      BINDING AFFINITY PREDICTED BY RF-SCORE:    0.00 PKD
ROOT
HETATM    1  C   UNL     1     -10.444  14.857  69.051  1.00  0.00    -0.247 C  
HETATM    2  C   UNL     1      -9.959  13.428  69.111  1.00  0.00     0.287 C  
HETATM    3  C   UNL     1     -10.181  12.339  70.128  1.00  0.00     2.405 C  
HETATM    4  C   UNL     1      -8.852  11.449  69.781  1.00  0.00     1.346 C  
HETATM    5  O   UNL     1      -9.973   9.292  69.993  1.00  0.00    -0.185 OA 
HETATM    6  C   UNL     1      -8.453  12.008  68.179  1.00  0.00    -0.171 C  
HETATM    7  C   UNL     1      -9.870  12.581  67.848  1.00  0.00    -0.207 C  
HETATM    8  C   UNL     1      -6.307   9.941  70.400  1.00  0.00    -0.106 C  
HETATM    9  C   UNL     1      -8.005  11.638  66.700  1.00  0.00    -0.098 C  
HETATM   10  C   UNL     1      -6.816  10.859  66.198  1.00  0.00    -0.100 C  
HETATM   11  C   UNL     1      -8.908   9.910  70.015  1.00  0.00    -0.160 C  
HETATM   12  C   UNL     1      -6.046   5.843  66.622  1.00  0.00    -0.026 C  
HETATM   13  C   UNL     1      -7.585   9.160  70.252  1.00  0.00    -0.108 C  
HETATM   14  C   UNL     1      -7.501   4.984  68.461  1.00  0.00    -0.074 C  
HETATM   15  C   UNL     1      -6.727   6.164  67.941  1.00  0.00    -0.064 C  
HETATM   16  C   UNL     1      -7.077   9.388  66.069  1.00  0.00    -0.091 C  
HETATM   17  C   UNL     1      -5.680  11.352  65.671  1.00  0.00     0.424 C  
HETATM   18  C   UNL     1      -7.595   7.823  69.992  1.00  0.00    -0.085 C  
HETATM   19  C   UNL     1      -6.555   7.212  69.085  1.00  0.00    -0.044 C  
HETATM   20  C   UNL     1      -6.353   8.726  67.196  1.00  0.00    -0.060 C  
HETATM   21  C   UNL     1      -7.146   7.598  67.773  1.00  0.00    -0.085 C  
ENDROOT
BRANCH   4  22
HETATM   22  O   UNL     1      -7.967  12.001  70.854  1.00  0.00     4.767 OA 
BRANCH  22  23
HETATM   23  C   UNL     1      -6.888  12.744  70.405  1.00  0.00     1.208 C  
HETATM   24  C   UNL     1      -5.575  12.095  70.717  1.00  0.00    -0.129 C  
HETATM   25  O   UNL     1      -6.953  13.784  69.761  1.00  0.00     0.022 OA 
ENDBRANCH  22  23
ENDBRANCH   4  22
BRANCH   7  26
HETATM   26  O   UNL     1     -10.756  11.348  67.829  1.00  0.00    -0.191 OA 
BRANCH  26  27
HETATM   27  C   UNL     1     -11.950  11.303  67.164  1.00  0.00     0.602 C  
HETATM   28  O   UNL     1     -12.944  10.726  67.583  1.00  0.00     3.657 OA 
BRANCH  27  29
HETATM   29  C   UNL     1     -12.038  12.269  65.994  1.00  0.00    -0.229 A  
HETATM   30  C   UNL     1     -11.726  13.632  66.221  1.00  0.00    -0.396 A  
HETATM   31  C   UNL     1     -12.396  11.895  64.702  1.00  0.00    -0.108 A  
HETATM   32  C   UNL     1     -12.412  12.842  63.654  1.00  0.00    -0.438 A  
HETATM   33  C   UNL     1     -11.708  14.570  65.171  1.00  0.00    -0.376 A  
HETATM   34  C   UNL     1     -12.058  14.175  63.888  1.00  0.00    -0.301 A  
ENDBRANCH  27  29
ENDBRANCH  26  27
ENDBRANCH   7  26
BRANCH   9  35
HETATM   35  O   UNL     1      -8.085  12.820  65.787  1.00  0.00     1.342 OA 
BRANCH  35  36
HETATM   36  C   UNL     1      -7.880  14.103  66.213  1.00  0.00     1.809 C  
HETATM   37  O   UNL     1      -6.877  14.549  66.703  1.00  0.00     0.601 OA 
HETATM   38  C   UNL     1      -9.083  14.963  65.903  1.00  0.00     0.022 C  
ENDBRANCH  35  36
ENDBRANCH   9  35
TORSDOF 7
ENDMDL
MODEL      161
REMARK 921   NORMALIZED FREE ENERGY PREDICTED BY IDOCK:   15.52 KCAL/MOL
REMARK 922        TOTAL FREE ENERGY PREDICTED BY IDOCK:   21.23 KCAL/MOL
REMARK 923 INTER-LIGAND FREE ENERGY PREDICTED BY IDOCK:   16.56 KCAL/MOL
REMARK 924 INTRA-LIGAND FREE ENERGY PREDICTED BY IDOCK:    4.67 KCAL/MOL
REMARK 927      BINDING AFFINITY PREDICTED BY RF-SCORE:    0.00 PKD
ROOT
HETATM    1  C   UNL     1     -11.913  11.437  70.347  1.00  0.00    -0.465 C  
HETATM    2  C   UNL     1     -11.162  10.782  69.213  1.00  0.00    -0.333 C  
HETATM    3  C   UNL     1     -10.708  11.312  67.878  1.00  0.00    -0.250 C  
HETATM    4  C   UNL     1     -10.612   9.875  67.100  1.00  0.00    -0.228 C  
HETATM    5  O   UNL     1      -8.552  10.410  65.906  1.00  0.00    -0.146 OA 
HETATM    6  C   UNL     1     -10.518   8.751  68.429  1.00  0.00    -0.220 C  
HETATM    7  C   UNL     1     -10.036   9.795  69.490  1.00  0.00    -0.214 C  
HETATM    8  C   UNL     1     -11.142   7.913  64.863  1.00  0.00     9.653 C  
HETATM    9  C   UNL     1      -9.831   7.460  69.049  1.00  0.00    -0.168 C  
HETATM   10  C   UNL     1      -9.674   6.067  68.495  1.00  0.00    -0.142 C  
HETATM   11  C   UNL     1      -9.573   9.722  65.950  1.00  0.00    -0.250 C  
HETATM   12  C   UNL     1      -6.639   4.623  64.669  1.00  0.00    -0.043 C  
HETATM   13  C   UNL     1      -9.835   8.660  64.866  1.00  0.00     1.367 C  
HETATM   14  C   UNL     1      -6.063   6.647  63.325  1.00  0.00    -0.038 C  
HETATM   15  C   UNL     1      -7.096   5.994  64.201  1.00  0.00    -0.053 C  
HETATM   16  C   UNL     1      -8.414   5.878  67.704  1.00  0.00    -0.103 C  
HETATM   17  C   UNL     1     -10.398   4.976  68.808  1.00  0.00    -0.109 C  
HETATM   18  C   UNL     1      -8.746   8.227  64.172  1.00  0.00     0.251 C  
HETATM   19  C   UNL     1      -8.452   6.751  64.052  1.00  0.00     0.297 C  
HETATM   20  C   UNL     1      -8.818   5.822  66.266  1.00  0.00    -0.140 C  
HETATM   21  C   UNL     1      -7.837   6.535  65.391  1.00  0.00    -0.106 C  
ENDROOT
BRANCH   4  22
HETATM   22  O   UNL     1     -11.955   9.925  66.442  1.00  0.00     2.369 OA 
BRANCH  22  23
HETATM   23  C   UNL     1     -12.171  11.022  65.624  1.00  0.00     2.624 C  
HETATM   24  C   UNL     1     -12.066  10.682  64.169  1.00  0.00     3.101 C  
HETATM   25  O   UNL     1     -12.484  12.145  66.000  1.00  0.00    -0.421 OA 
ENDBRANCH  22  23
ENDBRANCH   4  22
BRANCH   7  26
HETATM   26  O   UNL     1      -8.667  10.211  68.983  1.00  0.00    -0.140 OA 
BRANCH  26  27
HETATM   27  C   UNL     1      -7.807  10.981  69.717  1.00  0.00     0.375 C  
HETATM   28  O   UNL     1      -7.441  10.705  70.852  1.00  0.00     0.535 OA 
BRANCH  27  29
HETATM   29  C   UNL     1      -7.110  12.063  68.909  1.00  0.00    -0.104 A  
HETATM   30  C   UNL     1      -6.235  11.668  67.867  1.00  0.00    -0.050 A  
HETATM   31  C   UNL     1      -7.287  13.428  69.119  1.00  0.00     0.098 A  
HETATM   32  C   UNL     1      -6.639  14.376  68.298  1.00  0.00    -0.116 A  
HETATM   33  C   UNL     1      -5.616  12.611  67.026  1.00  0.00     0.216 A  
HETATM   34  C   UNL     1      -5.813  13.966  67.246  1.00  0.00     0.488 A  
ENDBRANCH  27  29
ENDBRANCH  26  27
ENDBRANCH   7  26
BRANCH   9  35
HETATM   35  O   UNL     1     -10.240   7.248  70.473  1.00  0.00    -0.195 OA 
BRANCH  35  36
HETATM   36  C   UNL     1     -11.533   7.367  70.900  1.00  0.00    -0.286 C  
HETATM   37  O   UNL     1     -12.213   6.507  71.391  1.00  0.00    -0.338 OA 
HETATM   38  C   UNL     1     -12.007   8.796  70.760  1.00  0.00    -0.161 C  
ENDBRANCH  35  36
ENDBRANCH   9  35
TORSDOF 7
ENDMDL
MODEL      162
REMARK 921   NORMALIZED FREE ENERGY PREDICTED BY IDOCK:   15.99 KCAL/MOL
REMARK 922        TOTAL FREE ENERGY PREDICTED BY IDOCK:   21.89 KCAL/MOL
REMARK 923 INTER-LIGAND FREE ENERGY PREDICTED BY IDOCK:    8.29 KCAL/MOL
REMARK 924 INTRA-LIGAND FREE ENERGY PREDICTED BY IDOCK:   13.60 KCAL/MOL
REMARK 927      BINDING AFFINITY PREDICTED BY RF-SCORE:    0.00 PKD
ROOT
HETATM    1  C   UNL     1     -11.699  13.376  65.465  1.00  0.00    -0.366 C  
HETATM    2  C   UNL     1     -10.746  12.224  65.674  1.00  0.00    -0.302 C  
HETATM    3  C   UNL     1      -9.494  11.818  64.940  1.00  0.00    -0.054 C  
HETATM    4  C   UNL     1      -9.511  10.234  65.351  1.00  0.00    -0.232 C  
HETATM    5  O   UNL     1      -7.103  10.076  65.714  1.00  0.00    -0.103 OA 
HETATM    6  C   UNL     1     -10.549  10.235  66.751  1.00  0.00    -0.252 C  
HETATM    7  C   UNL     1     -10.381  11.756  67.077  1.00  0.00    -0.214 C  
HETATM    8  C   UNL     1      -9.409   7.255  64.847  1.00  0.00     1.268 C  
HETATM    9  C   UNL     1     -10.812   9.714  68.229  1.00  0.00    -0.182 C  
HETATM   10  C   UNL     1     -10.887   8.311  68.779  1.00  0.00     0.019 C  
HETATM   11  C   UNL     1      -8.152   9.481  65.462  1.00  0.00    -0.116 C  
HETATM   12  C   UNL     1      -7.018   5.056  69.384  1.00  0.00    -0.055 C  
HETATM   13  C   UNL     1      -8.146   7.953  65.275  1.00  0.00    -0.135 C  
HETATM   14  C   UNL     1      -5.139   5.796  67.914  1.00  0.00    -0.004 C  
HETATM   15  C   UNL     1      -6.632   5.758  68.093  1.00  0.00    -0.049 C  
HETATM   16  C   UNL     1      -9.564   7.783  69.246  1.00  0.00    -0.159 C  
HETATM   17  C   UNL     1     -11.995   7.610  69.081  1.00  0.00     1.519 C  
HETATM   18  C   UNL     1      -7.092   7.284  65.819  1.00  0.00    -0.065 C  
HETATM   19  C   UNL     1      -7.324   6.110  66.739  1.00  0.00    -0.079 C  
HETATM   20  C   UNL     1      -9.120   6.782  68.229  1.00  0.00    -0.124 C  
HETATM   21  C   UNL     1      -7.648   6.861  67.984  1.00  0.00    -0.108 C  
ENDROOT
BRANCH   4  22
HETATM   22  O   UNL     1     -10.169   9.721  64.109  1.00  0.00     0.431 OA 
BRANCH  22  23
HETATM   23  C   UNL     1      -9.684   8.511  63.641  1.00  0.00     3.060 C  
HETATM   24  C   UNL     1      -8.522   8.681  62.710  1.00  0.00    -0.143 C  
HETATM   25  O   UNL     1     -10.081   7.402  63.975  1.00  0.00     5.007 OA 
ENDBRANCH  22  23
ENDBRANCH   4  22
BRANCH   7  26
HETATM   26  O   UNL     1      -8.914  11.881  67.442  1.00  0.00    -0.163 OA 
BRANCH  26  27
HETATM   27  C   UNL     1      -8.489  12.269  68.683  1.00  0.00     0.007 C  
HETATM   28  O   UNL     1      -8.232  11.490  69.591  1.00  0.00     0.502 OA 
BRANCH  27  29
HETATM   29  C   UNL     1      -8.081  13.731  68.764  1.00  0.00    -0.022 A  
HETATM   30  C   UNL     1      -6.700  14.044  68.803  1.00  0.00    -0.100 A  
HETATM   31  C   UNL     1      -8.984  14.790  68.789  1.00  0.00    -0.179 A  
HETATM   32  C   UNL     1      -8.529  16.126  68.820  1.00  0.00    -0.236 A  
HETATM   33  C   UNL     1      -6.244  15.375  68.799  1.00  0.00    -0.098 A  
HETATM   34  C   UNL     1      -7.160  16.417  68.813  1.00  0.00    -0.180 A  
ENDBRANCH  27  29
ENDBRANCH  26  27
ENDBRANCH   7  26
BRANCH   9  35
HETATM   35  O   UNL     1     -11.965  10.422  68.867  1.00  0.00    -0.190 OA 
BRANCH  35  36
HETATM   36  C   UNL     1     -11.844  11.639  69.478  1.00  0.00    -0.348 C  
HETATM   37  O   UNL     1     -12.160  12.707  69.028  1.00  0.00    -0.261 OA 
HETATM   38  C   UNL     1     -11.324  11.475  70.887  1.00  0.00     0.997 C  
ENDBRANCH  35  36
ENDBRANCH   9  35
TORSDOF 7
ENDMDL
MODEL      163
REMARK 921   NORMALIZED FREE ENERGY PREDICTED BY IDOCK:   17.49 KCAL/MOL
REMARK 922        TOTAL FREE ENERGY PREDICTED BY IDOCK:   24.01 KCAL/MOL
REMARK 923 INTER-LIGAND FREE ENERGY PREDICTED BY IDOCK:   16.62 KCAL/MOL
REMARK 924 INTRA-LIGAND FREE ENERGY PREDICTED BY IDOCK:    7.39 KCAL/MOL
REMARK 927      BINDING AFFINITY PREDICTED BY RF-SCORE:    0.00 PKD
ROOT
HETATM    1  C   UNL     1      -9.652  19.115  68.177  1.00  0.00    -0.411 C  
HETATM    2  C   UNL     1      -8.981  17.763  68.197  1.00  0.00    -0.271 C  
HETATM    3  C   UNL     1      -7.622  17.315  67.725  1.00  0.00    -0.189 C  
HETATM    4  C   UNL     1      -7.982  15.732  67.513  1.00  0.00    -0.150 C  
HETATM    5  O   UNL     1      -5.870  14.906  68.416  1.00  0.00    -0.092 OA 
HETATM    6  C   UNL     1      -9.414  15.553  68.491  1.00  0.00    -0.200 C  
HETATM    7  C   UNL     1      -9.164  16.818  69.378  1.00  0.00     0.088 C  
HETATM    8  C   UNL     1      -8.112  13.113  66.009  1.00  0.00     1.702 C  
HETATM    9  C   UNL     1     -10.215  14.685  69.553  1.00  0.00    -0.022 C  
HETATM   10  C   UNL     1     -10.650  13.242  69.517  1.00  0.00     0.320 C  
HETATM   11  C   UNL     1      -6.846  14.682  67.698  1.00  0.00    -0.183 C  
HETATM   12  C   UNL     1      -7.660   9.137  69.898  1.00  0.00    -0.080 C  
HETATM   13  C   UNL     1      -6.980  13.328  66.978  1.00  0.00     0.429 C  
HETATM   14  C   UNL     1      -5.321   9.822  69.348  1.00  0.00    -0.035 C  
HETATM   15  C   UNL     1      -6.781  10.086  69.100  1.00  0.00    -0.055 C  
HETATM   16  C   UNL     1      -9.636  12.298  70.092  1.00  0.00     3.562 C  
HETATM   17  C   UNL     1     -11.877  12.765  69.240  1.00  0.00    -0.358 C  
HETATM   18  C   UNL     1      -6.261  12.295  67.500  1.00  0.00    -0.140 C  
HETATM   19  C   UNL     1      -6.936  10.987  67.836  1.00  0.00    -0.073 C  
HETATM   20  C   UNL     1      -9.018  11.579  68.936  1.00  0.00     0.029 C  
HETATM   21  C   UNL     1      -7.550  11.378  69.135  1.00  0.00    -0.038 C  
ENDROOT
BRANCH   4  22
HETATM   22  O   UNL     1      -8.255  15.794  66.043  1.00  0.00    -0.049 OA 
BRANCH  22  23
HETATM   23  C   UNL     1      -7.872  16.970  65.420  1.00  0.00     1.750 C  
HETATM   24  C   UNL     1      -8.920  18.036  65.516  1.00  0.00     1.016 C  
HETATM   25  O   UNL     1      -6.784  17.184  64.899  1.00  0.00     1.673 OA 
ENDBRANCH  22  23
ENDBRANCH   4  22
BRANCH   7  26
HETATM   26  O   UNL     1      -7.895  16.475  70.137  1.00  0.00     0.978 OA 
BRANCH  26  27
HETATM   27  C   UNL     1      -7.129  17.417  70.765  1.00  0.00     3.194 C  
HETATM   28  O   UNL     1      -6.446  17.194  71.756  1.00  0.00     2.890 OA 
BRANCH  27  29
HETATM   29  C   UNL     1      -6.960  18.701  69.969  1.00  0.00     0.457 A  
HETATM   30  C   UNL     1      -5.843  18.816  69.105  1.00  0.00    -0.235 A  
HETATM   31  C   UNL     1      -7.845  19.774  70.026  1.00  0.00     0.673 A  
HETATM   32  C   UNL     1      -7.647  20.918  69.222  1.00  0.00     1.702 A  
HETATM   33  C   UNL     1      -5.663  19.941  68.279  1.00  0.00    -0.246 A  
HETATM   34  C   UNL     1      -6.562  20.995  68.342  1.00  0.00    -0.032 A  
ENDBRANCH  27  29
ENDBRANCH  26  27
ENDBRANCH   7  26
BRANCH   9  35
HETATM   35  O   UNL     1     -11.410  15.417  70.076  1.00  0.00    -0.257 OA 
BRANCH  35  36
HETATM   36  C   UNL     1     -11.650  15.590  71.411  1.00  0.00    -0.419 C  
HETATM   37  O   UNL     1     -11.232  16.473  72.111  1.00  0.00     0.100 OA 
HETATM   38  C   UNL     1     -12.620  14.546  71.914  1.00  0.00    -0.413 C  
ENDBRANCH  35  36
ENDBRANCH   9  35
TORSDOF 7
ENDMDL
MODEL      164
REMARK 921   NORMALIZED FREE ENERGY PREDICTED BY IDOCK:   18.60 KCAL/MOL
REMARK 922        TOTAL FREE ENERGY PREDICTED BY IDOCK:   25.58 KCAL/MOL
REMARK 923 INTER-LIGAND FREE ENERGY PREDICTED BY IDOCK:    8.12 KCAL/MOL
REMARK 924 INTRA-LIGAND FREE ENERGY PREDICTED BY IDOCK:   17.46 KCAL/MOL
REMARK 927      BINDING AFFINITY PREDICTED BY RF-SCORE:    0.00 PKD
ROOT
HETATM    1  C   UNL     1      -7.514   5.115  69.228  1.00  0.00    -0.058 C  
HETATM    2  C   UNL     1      -8.350   6.350  69.462  1.00  0.00    -0.126 C  
HETATM    3  C   UNL     1      -9.103   6.831  70.676  1.00  0.00    -0.155 C  
HETATM    4  C   UNL     1     -10.177   7.787  69.894  1.00  0.00    -0.213 C  
HETATM    5  O   UNL     1     -10.110   9.585  71.542  1.00  0.00    -0.219 OA 
HETATM    6  C   UNL     1      -9.381   8.050  68.366  1.00  0.00    -0.138 C  
HETATM    7  C   UNL     1      -7.943   7.693  68.868  1.00  0.00    -0.125 C  
HETATM    8  C   UNL     1     -12.920   8.840  69.181  1.00  0.00     5.215 C  
HETATM    9  C   UNL     1      -8.975   9.075  67.222  1.00  0.00    -0.127 C  
HETATM   10  C   UNL     1      -9.821  10.004  66.388  1.00  0.00    -0.283 C  
HETATM   11  C   UNL     1     -10.740   9.035  70.638  1.00  0.00    -0.239 C  
HETATM   12  C   UNL     1     -12.176  14.234  67.966  1.00  0.00    -0.168 C  
HETATM   13  C   UNL     1     -12.106   9.592  70.199  1.00  0.00     0.121 C  
HETATM   14  C   UNL     1     -12.403  14.120  70.451  1.00  0.00    -0.428 C  
HETATM   15  C   UNL     1     -12.328  13.327  69.175  1.00  0.00    -0.016 C  
HETATM   16  C   UNL     1      -9.997  11.361  67.001  1.00  0.00    -0.227 C  
HETATM   17  C   UNL     1     -10.225   9.823  65.117  1.00  0.00     0.120 C  
HETATM   18  C   UNL     1     -12.354  10.894  70.513  1.00  0.00    -0.463 C  
HETATM   19  C   UNL     1     -12.801  11.865  69.447  1.00  0.00     0.939 C  
HETATM   20  C   UNL     1     -11.399  11.419  67.515  1.00  0.00    -0.362 C  
HETATM   21  C   UNL     1     -11.477  12.139  68.823  1.00  0.00    -0.359 C  
ENDROOT
BRANCH   4  22
HETATM   22  O   UNL     1     -11.300   6.800  69.831  1.00  0.00    -0.315 OA 
BRANCH  22  23
HETATM   23  C   UNL     1     -11.032   5.646  69.113  1.00  0.00    -0.118 C  
HETATM   24  C   UNL     1     -10.274   5.920  67.851  1.00  0.00    -0.225 C  
HETATM   25  O   UNL     1     -11.303   4.504  69.465  1.00  0.00     2.797 OA 
ENDBRANCH  22  23
ENDBRANCH   4  22
BRANCH   7  26
HETATM   26  O   UNL     1      -7.638   8.784  69.877  1.00  0.00    -0.060 OA 
BRANCH  26  27
HETATM   27  C   UNL     1      -7.795   8.613  71.225  1.00  0.00    -0.128 C  
HETATM   28  O   UNL     1      -8.436   7.699  71.727  1.00  0.00    -0.105 OA 
BRANCH  27  29
HETATM   29  C   UNL     1      -6.873   9.480  72.066  1.00  0.00     0.587 A  
HETATM   30  C   UNL     1      -6.336  10.654  71.483  1.00  0.00     1.002 A  
HETATM   31  C   UNL     1      -6.531   9.200  73.386  1.00  0.00     0.297 A  
HETATM   32  C   UNL     1      -5.703  10.078  74.119  1.00  0.00     0.394 A  
HETATM   33  C   UNL     1      -5.539  11.547  72.223  1.00  0.00     0.999 A  
HETATM   34  C   UNL     1      -5.218  11.255  73.541  1.00  0.00     0.637 A  
ENDBRANCH  27  29
ENDBRANCH  26  27
ENDBRANCH   7  26
BRANCH   9  35
HETATM   35  O   UNL     1      -8.027   8.460  66.242  1.00  0.00    -0.095 OA 
BRANCH  35  36
HETATM   36  C   UNL     1      -7.514   7.202  66.392  1.00  0.00    -0.087 C  
HETATM   37  O   UNL     1      -8.094   6.162  66.231  1.00  0.00    -0.107 OA 
HETATM   38  C   UNL     1      -6.039   7.266  66.713  1.00  0.00    -0.042 C  
ENDBRANCH  35  36
ENDBRANCH   9  35
TORSDOF 7
ENDMDL
MODEL      165
REMARK 921   NORMALIZED FREE ENERGY PREDICTED BY IDOCK:   19.96 KCAL/MOL
REMARK 922        TOTAL FREE ENERGY PREDICTED BY IDOCK:   27.49 KCAL/MOL
REMARK 923 INTER-LIGAND FREE ENERGY PREDICTED BY IDOCK:   24.66 KCAL/MOL
REMARK 924 INTRA-LIGAND FREE ENERGY PREDICTED BY IDOCK:    2.83 KCAL/MOL
REMARK 927      BINDING AFFINITY PREDICTED BY RF-SCORE:    0.00 PKD
ROOT
HETATM    1  C   UNL     1      -7.380  16.355  64.697  1.00  0.00     8.894 C  
HETATM    2  C   UNL     1      -8.369  16.376  65.837  1.00  0.00     0.090 C  
HETATM    3  C   UNL     1      -9.664  17.124  66.023  1.00  0.00    -0.213 C  
HETATM    4  C   UNL     1      -9.694  17.096  67.659  1.00  0.00    -0.263 C  
HETATM    5  O   UNL     1     -12.090  16.667  67.826  1.00  0.00     0.719 OA 
HETATM    6  C   UNL     1      -8.603  15.784  68.017  1.00  0.00    -0.163 C  
HETATM    7  C   UNL     1      -8.697  15.105  66.611  1.00  0.00    -0.272 C  
HETATM    8  C   UNL     1      -9.933  18.276  70.432  1.00  0.00     1.895 C  
HETATM    9  C   UNL     1      -8.303  14.484  68.878  1.00  0.00    -0.112 C  
HETATM   10  C   UNL     1      -8.263  14.280  70.372  1.00  0.00     1.964 C  
HETATM   11  C   UNL     1     -11.077  17.099  68.377  1.00  0.00    -0.107 C  
HETATM   12  C   UNL     1     -12.230  14.270  73.564  1.00  0.00     0.225 C  
HETATM   13  C   UNL     1     -11.150  17.638  69.817  1.00  0.00     1.329 C  
HETATM   14  C   UNL     1     -14.135  15.436  72.444  1.00  0.00    -0.645 C  
HETATM   15  C   UNL     1     -12.638  15.342  72.567  1.00  0.00    -0.446 C  
HETATM   16  C   UNL     1      -9.586  13.887  70.956  1.00  0.00     5.414 C  
HETATM   17  C   UNL     1      -7.172  14.203  71.157  1.00  0.00     2.143 C  
HETATM   18  C   UNL     1     -12.208  17.216  70.564  1.00  0.00     3.880 C  
HETATM   19  C   UNL     1     -11.987  16.607  71.927  1.00  0.00     0.037 C  
HETATM   20  C   UNL     1     -10.108  15.088  71.677  1.00  0.00     2.068 C  
HETATM   21  C   UNL     1     -11.585  15.238  71.500  1.00  0.00    -0.456 C  
ENDROOT
BRANCH   4  22
HETATM   22  O   UNL     1      -9.106  18.453  67.884  1.00  0.00    -0.274 OA 
BRANCH  22  23
HETATM   23  C   UNL     1      -9.815  19.503  67.326  1.00  0.00    -0.357 C  
HETATM   24  C   UNL     1     -10.637  20.241  68.337  1.00  0.00    -0.100 C  
HETATM   25  O   UNL     1      -9.754  19.868  66.158  1.00  0.00    -0.410 OA 
ENDBRANCH  22  23
ENDBRANCH   4  22
BRANCH   7  26
HETATM   26  O   UNL     1     -10.144  14.652  66.532  1.00  0.00    -0.263 OA 
BRANCH  26  27
HETATM   27  C   UNL     1     -10.550  13.401  66.905  1.00  0.00    -0.273 C  
HETATM   28  O   UNL     1     -11.169  13.162  67.934  1.00  0.00    -0.246 OA 
BRANCH  27  29
HETATM   29  C   UNL     1     -10.428  12.361  65.803  1.00  0.00    -0.288 A  
HETATM   30  C   UNL     1      -9.150  12.130  65.235  1.00  0.00     0.345 A  
HETATM   31  C   UNL     1     -11.494  11.608  65.322  1.00  0.00    -0.173 A  
HETATM   32  C   UNL     1     -11.294  10.626  64.326  1.00  0.00     1.273 A  
HETATM   33  C   UNL     1      -8.944  11.129  64.267  1.00  0.00     0.029 A  
HETATM   34  C   UNL     1     -10.018  10.381  63.809  1.00  0.00    -0.230 A  
ENDBRANCH  27  29
ENDBRANCH  26  27
ENDBRANCH   7  26
BRANCH   9  35
HETATM   35  O   UNL     1      -7.099  13.753  68.374  1.00  0.00    -0.087 OA 
BRANCH  35  36
HETATM   36  C   UNL     1      -5.868  13.854  68.960  1.00  0.00    -0.086 C  
HETATM   37  O   UNL     1      -5.357  13.064  69.707  1.00  0.00    -0.079 OA 
HETATM   38  C   UNL     1      -5.148  15.089  68.469  1.00  0.00    -0.102 C  
ENDBRANCH  35  36
ENDBRANCH   9  35
TORSDOF 7
ENDMDL
MODEL      166
REMARK 921   NORMALIZED FREE ENERGY PREDICTED BY IDOCK:   20.13 KCAL/MOL
REMARK 922        TOTAL FREE ENERGY PREDICTED BY IDOCK:   27.73 KCAL/MOL
REMARK 923 INTER-LIGAND FREE ENERGY PREDICTED BY IDOCK:    4.01 KCAL/MOL
REMARK 924 INTRA-LIGAND FREE ENERGY PREDICTED BY IDOCK:   23.72 KCAL/MOL
REMARK 927      BINDING AFFINITY PREDICTED BY RF-SCORE:    0.00 PKD
ROOT
HETATM    1  C   UNL     1      -7.683   1.868  68.577  1.00  0.00    -0.046 C  
HETATM    2  C   UNL     1      -8.480   3.136  68.765  1.00  0.00    -0.096 C  
HETATM    3  C   UNL     1      -9.595   3.744  67.954  1.00  0.00    -0.187 C  
HETATM    4  C   UNL     1      -9.393   5.292  68.444  1.00  0.00    -0.118 C  
HETATM    5  O   UNL     1     -11.779   5.779  68.617  1.00  0.00     0.717 OA 
HETATM    6  C   UNL     1      -8.492   5.089  69.921  1.00  0.00    -0.092 C  
HETATM    7  C   UNL     1      -8.898   3.597  70.156  1.00  0.00    -0.081 C  
HETATM    8  C   UNL     1      -9.036   8.272  68.082  1.00  0.00    -0.139 C  
HETATM    9  C   UNL     1      -8.288   5.511  71.439  1.00  0.00    -0.126 C  
HETATM   10  C   UNL     1      -8.068   6.866  72.063  1.00  0.00    -0.099 C  
HETATM   11  C   UNL     1     -10.639   6.227  68.482  1.00  0.00    -0.262 C  
HETATM   12  C   UNL     1     -11.483  10.616  72.515  1.00  0.00     4.254 C  
HETATM   13  C   UNL     1     -10.416   7.746  68.371  1.00  0.00    -0.207 C  
HETATM   14  C   UNL     1     -13.311  10.209  70.863  1.00  0.00    -0.272 C  
HETATM   15  C   UNL     1     -11.849  10.026  71.164  1.00  0.00    -0.481 C  
HETATM   16  C   UNL     1      -9.340   7.560  72.447  1.00  0.00    -0.192 C  
HETATM   17  C   UNL     1      -6.903   7.390  72.489  1.00  0.00    -0.067 C  
HETATM   18  C   UNL     1     -11.410   8.538  68.861  1.00  0.00     0.591 C  
HETATM   19  C   UNL     1     -11.098   9.631  69.854  1.00  0.00    -0.268 C  
HETATM   20  C   UNL     1      -9.549   8.653  71.449  1.00  0.00    -0.313 C  
HETATM   21  C   UNL     1     -10.991   8.794  71.082  1.00  0.00    -0.334 C  
ENDROOT
BRANCH   4  22
HETATM   22  O   UNL     1      -8.565   5.753  67.286  1.00  0.00    -0.111 OA 
BRANCH  22  23
HETATM   23  C   UNL     1      -9.256   5.927  66.098  1.00  0.00    -0.150 C  
HETATM   24  C   UNL     1     -10.296   4.871  65.881  1.00  0.00    -0.271 C  
HETATM   25  O   UNL     1      -9.116   6.861  65.318  1.00  0.00     0.181 OA 
ENDBRANCH  22  23
ENDBRANCH   4  22
BRANCH   7  26
HETATM   26  O   UNL     1     -10.395   3.669  70.394  1.00  0.00     0.393 OA 
BRANCH  26  27
HETATM   27  C   UNL     1     -10.938   3.976  71.611  1.00  0.00     0.968 C  
HETATM   28  O   UNL     1     -10.788   3.295  72.617  1.00  0.00    -0.043 OA 
BRANCH  27  29
HETATM   29  C   UNL     1     -11.507   5.383  71.693  1.00  0.00     0.161 A  
HETATM   30  C   UNL     1     -12.522   5.753  70.776  1.00  0.00     1.973 A  
HETATM   31  C   UNL     1     -11.101   6.334  72.624  1.00  0.00    -0.298 A  
HETATM   32  C   UNL     1     -11.708   7.608  72.668  1.00  0.00    -0.323 A  
HETATM   33  C   UNL     1     -13.151   7.010  70.840  1.00  0.00    -0.060 A  
HETATM   34  C   UNL     1     -12.739   7.940  71.783  1.00  0.00    -0.353 A  
ENDBRANCH  27  29
ENDBRANCH  26  27
ENDBRANCH   7  26
BRANCH   9  35
HETATM   35  O   UNL     1      -7.306   4.622  72.132  1.00  0.00    -0.074 OA 
BRANCH  35  36
HETATM   36  C   UNL     1      -7.043   4.705  73.471  1.00  0.00    -0.072 C  
HETATM   37  O   UNL     1      -7.662   5.329  74.291  1.00  0.00    -0.092 OA 
HETATM   38  C   UNL     1      -5.882   3.811  73.840  1.00  0.00    -0.004 C  
ENDBRANCH  35  36
ENDBRANCH   9  35
TORSDOF 7
ENDMDL
MODEL      167
REMARK 921   NORMALIZED FREE ENERGY PREDICTED BY IDOCK:   20.99 KCAL/MOL
REMARK 922        TOTAL FREE ENERGY PREDICTED BY IDOCK:   28.94 KCAL/MOL
REMARK 923 INTER-LIGAND FREE ENERGY PREDICTED BY IDOCK:   20.95 KCAL/MOL
REMARK 924 INTRA-LIGAND FREE ENERGY PREDICTED BY IDOCK:    7.98 KCAL/MOL
REMARK 927      BINDING AFFINITY PREDICTED BY RF-SCORE:    0.00 PKD
ROOT
HETATM    1  C   UNL     1     -13.634  12.378  68.904  1.00  0.00     5.766 C  
HETATM    2  C   UNL     1     -12.480  13.320  69.145  1.00  0.00     0.194 C  
HETATM    3  C   UNL     1     -11.926  13.917  70.413  1.00  0.00    -0.393 C  
HETATM    4  C   UNL     1     -11.211  15.225  69.738  1.00  0.00    -0.286 C  
HETATM    5  O   UNL     1      -9.209  15.123  71.130  1.00  0.00     1.693 OA 
HETATM    6  C   UNL     1     -11.071  14.739  68.070  1.00  0.00    -0.294 C  
HETATM    7  C   UNL     1     -11.193  13.202  68.337  1.00  0.00    -0.271 C  
HETATM    8  C   UNL     1     -10.577  18.164  69.424  1.00  0.00     0.544 C  
HETATM    9  C   UNL     1     -10.172  14.672  66.761  1.00  0.00    -0.268 C  
HETATM   10  C   UNL     1      -9.464  15.762  65.997  1.00  0.00    -0.392 C  
HETATM   11  C   UNL     1      -9.944  15.817  70.425  1.00  0.00     0.335 C  
HETATM   12  C   UNL     1      -5.349  18.364  67.487  1.00  0.00    -0.143 C  
HETATM   13  C   UNL     1      -9.608  17.299  70.184  1.00  0.00     1.642 C  
HETATM   14  C   UNL     1      -5.149  18.153  69.968  1.00  0.00    -0.206 C  
HETATM   15  C   UNL     1      -6.095  18.188  68.798  1.00  0.00    -0.202 C  
HETATM   16  C   UNL     1      -8.065  16.012  66.473  1.00  0.00    -0.304 C  
HETATM   17  C   UNL     1      -9.860  16.345  64.850  1.00  0.00     1.105 C  
HETATM   18  C   UNL     1      -8.311  17.663  70.387  1.00  0.00     3.689 C  
HETATM   19  C   UNL     1      -7.549  18.408  69.318  1.00  0.00     0.014 C  
HETATM   20  C   UNL     1      -8.095  17.304  67.225  1.00  0.00    -0.210 C  
HETATM   21  C   UNL     1      -7.217  17.257  68.434  1.00  0.00    -0.220 C  
ENDROOT
BRANCH   4  22
HETATM   22  O   UNL     1     -12.316  16.201  69.995  1.00  0.00    -0.136 OA 
BRANCH  22  23
HETATM   23  C   UNL     1     -12.759  16.897  68.882  1.00  0.00     3.553 C  
HETATM   24  C   UNL     1     -11.666  17.687  68.229  1.00  0.00     1.522 C  
HETATM   25  O   UNL     1     -13.887  16.849  68.408  1.00  0.00     4.982 OA 
ENDBRANCH  22  23
ENDBRANCH   4  22
BRANCH   7  26
HETATM   26  O   UNL     1      -9.948  12.882  69.142  1.00  0.00     0.157 OA 
BRANCH  26  27
HETATM   27  C   UNL     1      -8.713  12.738  68.572  1.00  0.00    -0.045 C  
HETATM   28  O   UNL     1      -7.663  13.018  69.135  1.00  0.00     0.115 OA 
BRANCH  27  29
HETATM   29  C   UNL     1      -8.721  11.930  67.285  1.00  0.00    -0.171 A  
HETATM   30  C   UNL     1      -9.656  10.872  67.159  1.00  0.00    -0.187 A  
HETATM   31  C   UNL     1      -7.873  12.172  66.209  1.00  0.00     0.469 A  
HETATM   32  C   UNL     1      -7.970  11.407  65.025  1.00  0.00     0.786 A  
HETATM   33  C   UNL     1      -9.777  10.132  65.969  1.00  0.00    -0.285 A  
HETATM   34  C   UNL     1      -8.929  10.396  64.903  1.00  0.00    -0.225 A  
ENDBRANCH  27  29
ENDBRANCH  26  27
ENDBRANCH   7  26
BRANCH   9  35
HETATM   35  O   UNL     1     -10.804  13.827  65.701  1.00  0.00    -0.280 OA 
BRANCH  35  36
HETATM   36  C   UNL     1     -12.140  13.537  65.679  1.00  0.00    -0.430 C  
HETATM   37  O   UNL     1     -12.991  14.001  66.389  1.00  0.00    -0.126 OA 
HETATM   38  C   UNL     1     -12.457  12.586  64.549  1.00  0.00    -0.539 C  
ENDBRANCH  35  36
ENDBRANCH   9  35
TORSDOF 7
ENDMDL
MODEL      168
REMARK 921   NORMALIZED FREE ENERGY PREDICTED BY IDOCK:   21.97 KCAL/MOL
REMARK 922        TOTAL FREE ENERGY PREDICTED BY IDOCK:   30.32 KCAL/MOL
REMARK 923 INTER-LIGAND FREE ENERGY PREDICTED BY IDOCK:   27.97 KCAL/MOL
REMARK 924 INTRA-LIGAND FREE ENERGY PREDICTED BY IDOCK:    2.35 KCAL/MOL
REMARK 927      BINDING AFFINITY PREDICTED BY RF-SCORE:    0.00 PKD
ROOT
HETATM    1  C   UNL     1     -12.612  11.021  66.464  1.00  0.00     4.551 C  
HETATM    2  C   UNL     1     -11.804  11.934  67.354  1.00  0.00    -0.239 C  
HETATM    3  C   UNL     1     -12.021  12.395  68.772  1.00  0.00    -0.276 C  
HETATM    4  C   UNL     1     -11.135  13.769  68.687  1.00  0.00    -0.267 C  
HETATM    5  O   UNL     1     -10.141  13.524  70.903  1.00  0.00     3.838 OA 
HETATM    6  C   UNL     1     -10.125  13.462  67.301  1.00  0.00    -0.238 C  
HETATM    7  C   UNL     1     -10.281  11.905  67.327  1.00  0.00    -0.200 C  
HETATM    8  C   UNL     1     -10.598  16.726  69.013  1.00  0.00    -0.343 C  
HETATM    9  C   UNL     1      -8.677  13.534  66.651  1.00  0.00     0.003 C  
HETATM   10  C   UNL     1      -7.739  14.700  66.467  1.00  0.00     0.957 C  
HETATM   11  C   UNL     1     -10.443  14.287  69.983  1.00  0.00     0.454 C  
HETATM   12  C   UNL     1      -5.142  17.139  70.107  1.00  0.00    -0.204 C  
HETATM   13  C   UNL     1     -10.114  15.787  70.086  1.00  0.00    -0.095 C  
HETATM   14  C   UNL     1      -6.243  16.668  72.299  1.00  0.00     3.324 C  
HETATM   15  C   UNL     1      -6.448  16.824  70.817  1.00  0.00     1.437 C  
HETATM   16  C   UNL     1      -6.804  14.902  67.623  1.00  0.00    -0.204 C  
HETATM   17  C   UNL     1      -7.517  15.401  65.340  1.00  0.00     6.246 C  
HETATM   18  C   UNL     1      -9.133  16.130  70.965  1.00  0.00     3.741 C  
HETATM   19  C   UNL     1      -7.971  16.985  70.520  1.00  0.00     3.634 C  
HETATM   20  C   UNL     1      -7.292  16.107  68.361  1.00  0.00    -0.140 C  
HETATM   21  C   UNL     1      -7.165  15.934  69.840  1.00  0.00     0.142 C  
ENDROOT
BRANCH   4  22
HETATM   22  O   UNL     1     -12.267  14.709  68.417  1.00  0.00    -0.231 OA 
BRANCH  22  23
HETATM   23  C   UNL     1     -12.903  15.206  69.543  1.00  0.00     0.274 C  
HETATM   24  C   UNL     1     -13.215  14.136  70.544  1.00  0.00    -0.016 C  
HETATM   25  O   UNL     1     -13.141  16.386  69.770  1.00  0.00     0.901 OA 
ENDBRANCH  22  23
ENDBRANCH   4  22
BRANCH   7  26
HETATM   26  O   UNL     1      -9.616  11.504  68.631  1.00  0.00    -0.193 OA 
BRANCH  26  27
HETATM   27  C   UNL     1      -8.955  10.317  68.791  1.00  0.00    -0.155 C  
HETATM   28  O   UNL     1      -7.748  10.181  68.636  1.00  0.00    -0.085 OA 
BRANCH  27  29
HETATM   29  C   UNL     1      -9.788   9.235  69.458  1.00  0.00    -0.188 A  
HETATM   30  C   UNL     1     -10.584   9.591  70.574  1.00  0.00    -0.358 A  
HETATM   31  C   UNL     1      -9.828   7.910  69.032  1.00  0.00    -0.171 A  
HETATM   32  C   UNL     1     -10.662   6.970  69.676  1.00  0.00    -0.265 A  
HETATM   33  C   UNL     1     -11.441   8.662  71.195  1.00  0.00    -0.332 A  
HETATM   34  C   UNL     1     -11.475   7.349  70.749  1.00  0.00    -0.313 A  
ENDBRANCH  27  29
ENDBRANCH  26  27
ENDBRANCH   7  26
BRANCH   9  35
HETATM   35  O   UNL     1      -8.620  12.805  65.346  1.00  0.00     1.122 OA 
BRANCH  35  36
HETATM   36  C   UNL     1      -7.853  11.690  65.151  1.00  0.00     1.288 C  
HETATM   37  O   UNL     1      -7.173  11.130  65.967  1.00  0.00    -0.069 OA 
HETATM   38  C   UNL     1      -8.036  11.162  63.747  1.00  0.00     0.644 C  
ENDBRANCH  35  36
ENDBRANCH   9  35
TORSDOF 7
ENDMDL
MODEL      169
REMARK 921   NORMALIZED FREE ENERGY PREDICTED BY IDOCK:   22.36 KCAL/MOL
REMARK 922        TOTAL FREE ENERGY PREDICTED BY IDOCK:   30.88 KCAL/MOL
REMARK 923 INTER-LIGAND FREE ENERGY PREDICTED BY IDOCK:   29.15 KCAL/MOL
REMARK 924 INTRA-LIGAND FREE ENERGY PREDICTED BY IDOCK:    1.73 KCAL/MOL
REMARK 927      BINDING AFFINITY PREDICTED BY RF-SCORE:    0.00 PKD
ROOT
HETATM    1  C   UNL     1     -12.612  11.021  66.465  1.00  0.00     4.551 C  
HETATM    2  C   UNL     1     -11.811  11.923  67.372  1.00  0.00    -0.239 C  
HETATM    3  C   UNL     1     -12.038  12.368  68.793  1.00  0.00    -0.158 C  
HETATM    4  C   UNL     1     -11.149  13.741  68.731  1.00  0.00    -0.266 C  
HETATM    5  O   UNL     1     -10.174  13.470  70.951  1.00  0.00     3.468 OA 
HETATM    6  C   UNL     1     -10.128  13.447  67.349  1.00  0.00    -0.237 C  
HETATM    7  C   UNL     1     -10.288  11.891  67.357  1.00  0.00    -0.207 C  
HETATM    8  C   UNL     1     -10.608  16.693  69.093  1.00  0.00    -0.340 C  
HETATM    9  C   UNL     1      -8.674  13.524  66.713  1.00  0.00    -0.083 C  
HETATM   10  C   UNL     1      -7.731  14.689  66.550  1.00  0.00     0.957 C  
HETATM   11  C   UNL     1     -10.467  14.243  70.038  1.00  0.00     0.454 C  
HETATM   12  C   UNL     1      -5.161  17.081  70.238  1.00  0.00    -0.213 C  
HETATM   13  C   UNL     1     -10.136  15.742  70.160  1.00  0.00    -0.095 C  
HETATM   14  C   UNL     1      -6.282  16.589  72.415  1.00  0.00     3.392 C  
HETATM   15  C   UNL     1      -6.474  16.762  70.934  1.00  0.00     1.715 C  
HETATM   16  C   UNL     1      -6.806  14.876  67.715  1.00  0.00    -0.193 C  
HETATM   17  C   UNL     1      -7.498  15.402  65.432  1.00  0.00     6.246 C  
HETATM   18  C   UNL     1      -9.161  16.073  71.052  1.00  0.00     3.455 C  
HETATM   19  C   UNL     1      -7.994  16.930  70.626  1.00  0.00     4.051 C  
HETATM   20  C   UNL     1      -7.298  16.074  68.463  1.00  0.00    -0.146 C  
HETATM   21  C   UNL     1      -7.184  15.884  69.941  1.00  0.00     0.142 C  
ENDROOT
BRANCH   4  22
HETATM   22  O   UNL     1     -12.277  14.687  68.461  1.00  0.00    -0.230 OA 
BRANCH  22  23
HETATM   23  C   UNL     1     -13.195  14.819  69.490  1.00  0.00     1.097 C  
HETATM   24  C   UNL     1     -13.618  13.496  70.052  1.00  0.00     1.890 C  
HETATM   25  O   UNL     1     -13.592  15.875  69.966  1.00  0.00     0.351 OA 
ENDBRANCH  22  23
ENDBRANCH   4  22
BRANCH   7  26
HETATM   26  O   UNL     1      -9.634  11.473  68.662  1.00  0.00    -0.193 OA 
BRANCH  26  27
HETATM   27  C   UNL     1      -9.216  10.194  68.905  1.00  0.00    -0.172 C  
HETATM   28  O   UNL     1      -9.782   9.197  68.478  1.00  0.00    -0.150 OA 
BRANCH  27  29
HETATM   29  C   UNL     1      -7.824  10.108  69.510  1.00  0.00    -0.165 A  
HETATM   30  C   UNL     1      -7.672   9.454  70.758  1.00  0.00    -0.144 A  
HETATM   31  C   UNL     1      -6.680  10.622  68.907  1.00  0.00    -0.062 A  
HETATM   32  C   UNL     1      -5.413  10.464  69.510  1.00  0.00    -0.038 A  
HETATM   33  C   UNL     1      -6.405   9.266  71.343  1.00  0.00    -0.053 A  
HETATM   34  C   UNL     1      -5.276   9.777  70.720  1.00  0.00    -0.048 A  
ENDBRANCH  27  29
ENDBRANCH  26  27
ENDBRANCH   7  26
BRANCH   9  35
HETATM   35  O   UNL     1      -8.607  12.809  65.401  1.00  0.00     1.122 OA 
BRANCH  35  36
HETATM   36  C   UNL     1      -9.666  12.737  64.539  1.00  0.00     0.117 C  
HETATM   37  O   UNL     1     -10.703  13.340  64.617  1.00  0.00    -0.353 OA 
HETATM   38  C   UNL     1      -9.338  11.837  63.371  1.00  0.00    -0.075 C  
ENDBRANCH  35  36
ENDBRANCH   9  35
TORSDOF 7
ENDMDL
MODEL      170
REMARK 921   NORMALIZED FREE ENERGY PREDICTED BY IDOCK:   22.54 KCAL/MOL
REMARK 922        TOTAL FREE ENERGY PREDICTED BY IDOCK:   31.12 KCAL/MOL
REMARK 923 INTER-LIGAND FREE ENERGY PREDICTED BY IDOCK:   19.29 KCAL/MOL
REMARK 924 INTRA-LIGAND FREE ENERGY PREDICTED BY IDOCK:   11.83 KCAL/MOL
REMARK 927      BINDING AFFINITY PREDICTED BY RF-SCORE:    0.00 PKD
ROOT
HETATM    1  C   UNL     1     -10.301  16.180  66.246  1.00  0.00    -0.337 C  
HETATM    2  C   UNL     1      -9.420  15.352  67.151  1.00  0.00    -0.221 C  
HETATM    3  C   UNL     1      -8.088  15.646  67.789  1.00  0.00    -0.158 C  
HETATM    4  C   UNL     1      -7.604  14.096  67.994  1.00  0.00    -0.141 C  
HETATM    5  O   UNL     1      -6.631  14.461  70.202  1.00  0.00    -0.162 OA 
HETATM    6  C   UNL     1      -9.114  13.231  67.899  1.00  0.00    -0.203 C  
HETATM    7  C   UNL     1     -10.026  14.459  68.226  1.00  0.00    -0.232 C  
HETATM    8  C   UNL     1      -5.707  11.751  67.787  1.00  0.00    -0.057 C  
HETATM    9  C   UNL     1     -10.047  12.090  68.492  1.00  0.00    -0.196 C  
HETATM   10  C   UNL     1      -9.782  10.624  68.726  1.00  0.00    -0.193 C  
HETATM   11  C   UNL     1      -6.656  13.765  69.186  1.00  0.00    -0.112 C  
HETATM   12  C   UNL     1      -6.741   8.597  72.272  1.00  0.00    -0.068 C  
HETATM   13  C   UNL     1      -5.757  12.520  69.080  1.00  0.00    -0.075 C  
HETATM   14  C   UNL     1      -5.146  10.362  73.033  1.00  0.00     0.165 C  
HETATM   15  C   UNL     1      -5.973   9.849  71.886  1.00  0.00     0.275 C  
HETATM   16  C   UNL     1      -9.221  10.329  70.085  1.00  0.00     0.220 C  
HETATM   17  C   UNL     1     -10.183   9.589  67.965  1.00  0.00    -0.244 C  
HETATM   18  C   UNL     1      -5.311  11.998  70.256  1.00  0.00    -0.115 C  
HETATM   19  C   UNL     1      -5.502  10.533  70.564  1.00  0.00    -0.076 C  
HETATM   20  C   UNL     1      -7.775  10.006  69.889  1.00  0.00    -0.183 C  
HETATM   21  C   UNL     1      -6.931  10.576  70.984  1.00  0.00     1.037 C  
ENDROOT
BRANCH   4  22
HETATM   22  O   UNL     1      -6.767  13.992  66.758  1.00  0.00     0.458 OA 
BRANCH  22  23
HETATM   23  C   UNL     1      -7.159  13.013  65.860  1.00  0.00     4.161 C  
HETATM   24  C   UNL     1      -7.444  11.704  66.529  1.00  0.00     0.032 C  
HETATM   25  O   UNL     1      -7.334  13.171  64.658  1.00  0.00     8.498 OA 
ENDBRANCH  22  23
ENDBRANCH   4  22
BRANCH   7  26
HETATM   26  O   UNL     1      -9.647  14.813  69.653  1.00  0.00    -0.011 OA 
BRANCH  26  27
HETATM   27  C   UNL     1      -9.798  16.070  70.170  1.00  0.00     0.301 C  
HETATM   28  O   UNL     1     -10.154  16.299  71.318  1.00  0.00     1.631 OA 
BRANCH  27  29
HETATM   29  C   UNL     1      -9.211  17.168  69.297  1.00  0.00     0.084 A  
HETATM   30  C   UNL     1     -10.078  17.865  68.419  1.00  0.00    -0.385 A  
HETATM   31  C   UNL     1      -7.871  17.542  69.313  1.00  0.00     0.115 A  
HETATM   32  C   UNL     1      -7.408  18.604  68.505  1.00  0.00    -0.319 A  
HETATM   33  C   UNL     1      -9.625  18.945  67.639  1.00  0.00    -0.351 A  
HETATM   34  C   UNL     1      -8.287  19.310  67.677  1.00  0.00    -0.325 A  
ENDBRANCH  27  29
ENDBRANCH  26  27
ENDBRANCH   7  26
BRANCH   9  35
HETATM   35  O   UNL     1     -11.414  12.125  67.885  1.00  0.00    -0.283 OA 
BRANCH  35  36
HETATM   36  C   UNL     1     -12.457  12.812  68.442  1.00  0.00     0.599 C  
HETATM   37  O   UNL     1     -12.552  14.003  68.567  1.00  0.00     0.060 OA 
HETATM   38  C   UNL     1     -13.573  11.865  68.820  1.00  0.00     6.106 C  
ENDBRANCH  35  36
ENDBRANCH   9  35
TORSDOF 7
ENDMDL
MODEL      171
REMARK 921   NORMALIZED FREE ENERGY PREDICTED BY IDOCK:   23.71 KCAL/MOL
REMARK 922        TOTAL FREE ENERGY PREDICTED BY IDOCK:   32.78 KCAL/MOL
REMARK 923 INTER-LIGAND FREE ENERGY PREDICTED BY IDOCK:   24.34 KCAL/MOL
REMARK 924 INTRA-LIGAND FREE ENERGY PREDICTED BY IDOCK:    8.44 KCAL/MOL
REMARK 927      BINDING AFFINITY PREDICTED BY RF-SCORE:    0.00 PKD
ROOT
HETATM    1  C   UNL     1     -13.504  12.900  68.060  1.00  0.00     6.209 C  
HETATM    2  C   UNL     1     -12.374  13.867  68.320  1.00  0.00     0.003 C  
HETATM    3  C   UNL     1     -11.858  14.481  69.596  1.00  0.00    -0.367 C  
HETATM    4  C   UNL     1     -11.157  15.801  68.928  1.00  0.00    -0.298 C  
HETATM    5  O   UNL     1      -9.182  15.747  70.361  1.00  0.00     0.521 OA 
HETATM    6  C   UNL     1     -10.974  15.310  67.266  1.00  0.00    -0.327 C  
HETATM    7  C   UNL     1     -11.070  13.773  67.539  1.00  0.00    -0.278 C  
HETATM    8  C   UNL     1     -10.578  18.751  68.613  1.00  0.00     0.064 C  
HETATM    9  C   UNL     1     -10.047  15.255  65.976  1.00  0.00    -0.318 C  
HETATM   10  C   UNL     1      -9.347  16.356  65.220  1.00  0.00     0.818 C  
HETATM   11  C   UNL     1      -9.917  16.422  69.638  1.00  0.00    -0.087 C  
HETATM   12  C   UNL     1      -5.317  19.050  66.779  1.00  0.00    -0.151 C  
HETATM   13  C   UNL     1      -9.606  17.910  69.396  1.00  0.00     0.205 C  
HETATM   14  C   UNL     1      -5.163  18.855  69.265  1.00  0.00    -0.198 C  
HETATM   15  C   UNL     1      -6.085  18.865  68.077  1.00  0.00    -0.218 C  
HETATM   16  C   UNL     1      -7.963  16.638  65.723  1.00  0.00     0.535 C  
HETATM   17  C   UNL     1      -9.732  16.926  64.063  1.00  0.00     7.143 C  
HETATM   18  C   UNL     1      -8.322  18.302  69.623  1.00  0.00     0.879 C  
HETATM   19  C   UNL     1      -7.555  19.057  68.566  1.00  0.00    -0.364 C  
HETATM   20  C   UNL     1      -8.035  17.932  66.468  1.00  0.00    -0.303 C  
HETATM   21  C   UNL     1      -7.181  17.909  67.695  1.00  0.00    -0.206 C  
ENDROOT
BRANCH   4  22
HETATM   22  O   UNL     1     -12.287  16.754  69.158  1.00  0.00     0.693 OA 
BRANCH  22  23
HETATM   23  C   UNL     1     -12.669  17.495  68.052  1.00  0.00     5.044 C  
HETATM   24  C   UNL     1     -11.530  17.748  67.112  1.00  0.00     1.047 C  
HETATM   25  O   UNL     1     -13.808  17.864  67.793  1.00  0.00     6.905 OA 
ENDBRANCH  22  23
ENDBRANCH   4  22
BRANCH   7  26
HETATM   26  O   UNL     1      -9.834  13.481  68.370  1.00  0.00    -0.232 OA 
BRANCH  26  27
HETATM   27  C   UNL     1      -8.585  13.361  67.825  1.00  0.00    -0.194 C  
HETATM   28  O   UNL     1      -8.332  13.568  66.646  1.00  0.00     0.026 OA 
BRANCH  27  29
HETATM   29  C   UNL     1      -7.476  13.228  68.856  1.00  0.00     0.002 A  
HETATM   30  C   UNL     1      -6.819  14.405  69.293  1.00  0.00    -0.129 A  
HETATM   31  C   UNL     1      -7.069  12.018  69.410  1.00  0.00     0.085 A  
HETATM   32  C   UNL     1      -6.060  11.978  70.397  1.00  0.00    -0.027 A  
HETATM   33  C   UNL     1      -5.837  14.371  70.301  1.00  0.00    -0.146 A  
HETATM   34  C   UNL     1      -5.454  13.155  70.848  1.00  0.00    -0.186 A  
ENDBRANCH  27  29
ENDBRANCH  26  27
ENDBRANCH   7  26
BRANCH   9  35
HETATM   35  O   UNL     1     -10.641  14.393  64.907  1.00  0.00    -0.405 OA 
BRANCH  35  36
HETATM   36  C   UNL     1     -11.969  14.075  64.861  1.00  0.00    -0.404 C  
HETATM   37  O   UNL     1     -12.887  14.831  64.688  1.00  0.00    -0.495 OA 
HETATM   38  C   UNL     1     -12.159  12.579  64.968  1.00  0.00    -0.504 C  
ENDBRANCH  35  36
ENDBRANCH   9  35
TORSDOF 7
ENDMDL
MODEL      172
REMARK 921   NORMALIZED FREE ENERGY PREDICTED BY IDOCK:   24.29 KCAL/MOL
REMARK 922        TOTAL FREE ENERGY PREDICTED BY IDOCK:   33.59 KCAL/MOL
REMARK 923 INTER-LIGAND FREE ENERGY PREDICTED BY IDOCK:   32.18 KCAL/MOL
REMARK 924 INTRA-LIGAND FREE ENERGY PREDICTED BY IDOCK:    1.41 KCAL/MOL
REMARK 927      BINDING AFFINITY PREDICTED BY RF-SCORE:    0.00 PKD
ROOT
HETATM    1  C   UNL     1      -5.626  15.350  68.561  1.00  0.00    -0.099 C  
HETATM    2  C   UNL     1      -6.630  14.742  67.612  1.00  0.00    -0.181 C  
HETATM    3  C   UNL     1      -6.519  14.339  66.164  1.00  0.00     5.431 C  
HETATM    4  C   UNL     1      -8.111  14.426  65.797  1.00  0.00     3.047 C  
HETATM    5  O   UNL     1      -8.126  12.417  64.411  1.00  0.00     2.962 OA 
HETATM    6  C   UNL     1      -8.851  14.336  67.372  1.00  0.00    -0.211 C  
HETATM    7  C   UNL     1      -7.621  13.690  68.092  1.00  0.00    -0.137 C  
HETATM    8  C   UNL     1     -10.527  15.284  64.194  1.00  0.00     1.398 C  
HETATM    9  C   UNL     1      -9.998  13.723  68.285  1.00  0.00    -0.243 C  
HETATM   10  C   UNL     1     -11.496  13.729  68.118  1.00  0.00    -0.348 C  
HETATM   11  C   UNL     1      -8.669  13.489  64.684  1.00  0.00     4.036 C  
HETATM   12  C   UNL     1     -14.200  11.113  64.686  1.00  0.00     7.438 C  
HETATM   13  C   UNL     1      -9.945  13.919  63.938  1.00  0.00     2.074 C  
HETATM   14  C   UNL     1     -12.671  10.458  62.824  1.00  0.00     5.626 C  
HETATM   15  C   UNL     1     -12.961  11.480  63.888  1.00  0.00     0.285 C  
HETATM   16  C   UNL     1     -12.016  12.550  67.350  1.00  0.00    -0.283 C  
HETATM   17  C   UNL     1     -12.385  14.522  68.744  1.00  0.00    -0.064 C  
HETATM   18  C   UNL     1     -10.655  12.925  63.336  1.00  0.00     0.174 C  
HETATM   19  C   UNL     1     -12.132  12.771  63.604  1.00  0.00    -0.624 C  
HETATM   20  C   UNL     1     -12.405  13.058  66.000  1.00  0.00    -0.387 C  
HETATM   21  C   UNL     1     -12.052  12.084  64.922  1.00  0.00    -0.247 C  
ENDROOT
BRANCH   4  22
HETATM   22  O   UNL     1      -8.097  15.803  65.211  1.00  0.00     2.169 OA 
BRANCH  22  23
HETATM   23  C   UNL     1      -7.684  16.806  66.071  1.00  0.00     0.007 C  
HETATM   24  C   UNL     1      -8.758  17.215  67.033  1.00  0.00    -0.244 C  
HETATM   25  O   UNL     1      -6.558  17.287  66.124  1.00  0.00    -0.229 OA 
ENDBRANCH  22  23
ENDBRANCH   4  22
BRANCH   7  26
HETATM   26  O   UNL     1      -7.497  12.330  67.431  1.00  0.00    -0.140 OA 
BRANCH  26  27
HETATM   27  C   UNL     1      -7.102  11.209  68.108  1.00  0.00    -0.071 C  
HETATM   28  O   UNL     1      -6.100  11.151  68.808  1.00  0.00    -0.043 OA 
BRANCH  27  29
HETATM   29  C   UNL     1      -8.159  10.118  68.159  1.00  0.00    -0.105 A  
HETATM   30  C   UNL     1      -9.152  10.095  67.148  1.00  0.00    -0.149 A  
HETATM   31  C   UNL     1      -8.208   9.126  69.134  1.00  0.00    -0.117 A  
HETATM   32  C   UNL     1      -9.195   8.117  69.090  1.00  0.00    -0.151 A  
HETATM   33  C   UNL     1     -10.115   9.071  67.083  1.00  0.00    -0.309 A  
HETATM   34  C   UNL     1     -10.140   8.085  68.059  1.00  0.00    -0.238 A  
ENDBRANCH  27  29
ENDBRANCH  26  27
ENDBRANCH   7  26
BRANCH   9  35
HETATM   35  O   UNL     1      -9.786  14.047  69.730  1.00  0.00     0.621 OA 
BRANCH  35  36
HETATM   36  C   UNL     1      -9.699  15.328  70.199  1.00  0.00     0.138 C  
HETATM   37  O   UNL     1      -9.327  16.295  69.592  1.00  0.00    -0.120 OA 
HETATM   38  C   UNL     1     -10.236  15.412  71.610  1.00  0.00     1.513 C  
ENDBRANCH  35  36
ENDBRANCH   9  35
TORSDOF 7
ENDMDL
MODEL      173
REMARK 921   NORMALIZED FREE ENERGY PREDICTED BY IDOCK:   24.62 KCAL/MOL
REMARK 922        TOTAL FREE ENERGY PREDICTED BY IDOCK:   34.06 KCAL/MOL
REMARK 923 INTER-LIGAND FREE ENERGY PREDICTED BY IDOCK:   27.38 KCAL/MOL
REMARK 924 INTRA-LIGAND FREE ENERGY PREDICTED BY IDOCK:    6.68 KCAL/MOL
REMARK 927      BINDING AFFINITY PREDICTED BY RF-SCORE:    0.00 PKD
ROOT
HETATM    1  C   UNL     1      -9.294  10.656  71.385  1.00  0.00     5.206 C  
HETATM    2  C   UNL     1      -9.530  12.013  70.766  1.00  0.00     7.433 C  
HETATM    3  C   UNL     1      -9.592  13.390  71.374  1.00  0.00    10.237 C  
HETATM    4  C   UNL     1     -10.495  14.097  70.205  1.00  0.00     0.909 C  
HETATM    5  O   UNL     1      -9.249  16.195  70.206  1.00  0.00     0.699 OA 
HETATM    6  C   UNL     1     -10.263  13.010  68.863  1.00  0.00    -0.015 C  
HETATM    7  C   UNL     1      -8.945  12.362  69.404  1.00  0.00     1.255 C  
HETATM    8  C   UNL     1     -12.796  15.718  69.103  1.00  0.00     0.928 C  
HETATM    9  C   UNL     1      -9.981  12.836  67.309  1.00  0.00    -0.219 C  
HETATM   10  C   UNL     1     -10.711  13.384  66.109  1.00  0.00    -0.288 C  
HETATM   11  C   UNL     1     -10.306  15.621  69.940  1.00  0.00    -0.315 C  
HETATM   12  C   UNL     1     -10.800  18.227  64.536  1.00  0.00     3.201 C  
HETATM   13  C   UNL     1     -11.471  16.402  69.308  1.00  0.00    -0.165 C  
HETATM   14  C   UNL     1     -10.142  19.682  66.456  1.00  0.00    -0.568 C  
HETATM   15  C   UNL     1     -10.798  18.392  66.046  1.00  0.00    -0.044 C  
HETATM   16  C   UNL     1     -10.195  14.717  65.655  1.00  0.00    -0.382 C  
HETATM   17  C   UNL     1     -11.581  12.734  65.314  1.00  0.00    -0.379 C  
HETATM   18  C   UNL     1     -11.144  17.562  68.673  1.00  0.00     0.251 C  
HETATM   19  C   UNL     1     -11.596  17.812  67.255  1.00  0.00     1.337 C  
HETATM   20  C   UNL     1     -11.215  15.731  66.063  1.00  0.00     0.018 C  
HETATM   21  C   UNL     1     -10.575  16.992  66.546  1.00  0.00    -0.172 C  
ENDROOT
BRANCH   4  22
HETATM   22  O   UNL     1     -11.824  13.955  70.878  1.00  0.00    -0.276 OA 
BRANCH  22  23
HETATM   23  C   UNL     1     -11.916  14.539  72.131  1.00  0.00    -0.088 C  
HETATM   24  C   UNL     1     -12.419  15.949  72.070  1.00  0.00    -0.534 C  
HETATM   25  O   UNL     1     -11.691  13.983  73.199  1.00  0.00     0.851 OA 
ENDBRANCH  22  23
ENDBRANCH   4  22
BRANCH   7  26
HETATM   26  O   UNL     1      -7.956  13.513  69.398  1.00  0.00     0.353 OA 
BRANCH  26  27
HETATM   27  C   UNL     1      -7.218  13.850  68.296  1.00  0.00    -0.112 C  
HETATM   28  O   UNL     1      -6.942  13.070  67.394  1.00  0.00    -0.159 OA 
BRANCH  27  29
HETATM   29  C   UNL     1      -7.006  15.346  68.134  1.00  0.00    -0.131 A  
HETATM   30  C   UNL     1      -8.134  16.160  67.862  1.00  0.00    -0.152 A  
HETATM   31  C   UNL     1      -5.769  15.974  68.246  1.00  0.00    -0.110 A  
HETATM   32  C   UNL     1      -5.657  17.376  68.127  1.00  0.00    -0.133 A  
HETATM   33  C   UNL     1      -8.029  17.561  67.777  1.00  0.00    -0.210 A  
HETATM   34  C   UNL     1      -6.788  18.168  67.903  1.00  0.00    -0.211 A  
ENDBRANCH  27  29
ENDBRANCH  26  27
ENDBRANCH   7  26
BRANCH   9  35
HETATM   35  O   UNL     1      -9.709  11.408  66.954  1.00  0.00    -0.189 OA 
BRANCH  35  36
HETATM   36  C   UNL     1      -8.486  10.968  66.528  1.00  0.00    -0.161 C  
HETATM   37  O   UNL     1      -7.411  11.370  66.882  1.00  0.00    -0.135 OA 
HETATM   38  C   UNL     1      -8.644   9.801  65.581  1.00  0.00    -0.154 C  
ENDBRANCH  35  36
ENDBRANCH   9  35
TORSDOF 7
ENDMDL
MODEL      174
REMARK 921   NORMALIZED FREE ENERGY PREDICTED BY IDOCK:   25.61 KCAL/MOL
REMARK 922        TOTAL FREE ENERGY PREDICTED BY IDOCK:   35.46 KCAL/MOL
REMARK 923 INTER-LIGAND FREE ENERGY PREDICTED BY IDOCK:    8.61 KCAL/MOL
REMARK 924 INTRA-LIGAND FREE ENERGY PREDICTED BY IDOCK:   26.85 KCAL/MOL
REMARK 927      BINDING AFFINITY PREDICTED BY RF-SCORE:    0.00 PKD
ROOT
HETATM    1  C   UNL     1      -8.058   5.643  69.852  1.00  0.00    -0.095 C  
HETATM    2  C   UNL     1      -8.434   7.024  69.372  1.00  0.00    -0.133 C  
HETATM    3  C   UNL     1      -8.968   8.225  70.107  1.00  0.00    -0.142 C  
HETATM    4  C   UNL     1      -9.678   8.959  68.828  1.00  0.00    -0.164 C  
HETATM    5  O   UNL     1      -8.995  11.214  69.464  1.00  0.00     0.191 OA 
HETATM    6  C   UNL     1      -8.863   8.208  67.483  1.00  0.00    -0.137 C  
HETATM    7  C   UNL     1      -7.616   7.727  68.297  1.00  0.00    -0.109 C  
HETATM    8  C   UNL     1     -11.928  10.302  67.321  1.00  0.00     2.240 C  
HETATM    9  C   UNL     1      -8.158   8.386  66.071  1.00  0.00    -0.104 C  
HETATM   10  C   UNL     1      -8.660   9.006  64.791  1.00  0.00    -0.201 C  
HETATM   11  C   UNL     1      -9.785  10.514  68.830  1.00  0.00    -0.184 C  
HETATM   12  C   UNL     1      -9.461  13.956  63.901  1.00  0.00     3.867 C  
HETATM   13  C   UNL     1     -10.897  11.169  67.991  1.00  0.00    -0.274 C  
HETATM   14  C   UNL     1      -9.676  15.119  66.101  1.00  0.00    -0.338 C  
HETATM   15  C   UNL     1      -9.887  13.830  65.354  1.00  0.00    -0.171 C  
HETATM   16  C   UNL     1      -8.369  10.473  64.684  1.00  0.00    -0.114 C  
HETATM   17  C   UNL     1      -9.121   8.368  63.699  1.00  0.00     0.946 C  
HETATM   18  C   UNL     1     -10.696  12.469  67.635  1.00  0.00    -0.242 C  
HETATM   19  C   UNL     1     -10.812  12.893  66.191  1.00  0.00    -0.300 C  
HETATM   20  C   UNL     1      -9.665  11.183  64.904  1.00  0.00    -0.297 C  
HETATM   21  C   UNL     1      -9.481  12.427  65.712  1.00  0.00    -0.094 C  
ENDROOT
BRANCH   4  22
HETATM   22  O   UNL     1     -11.065   8.447  69.059  1.00  0.00     0.039 OA 
BRANCH  22  23
HETATM   23  C   UNL     1     -11.511   7.515  68.137  1.00  0.00     0.901 C  
HETATM   24  C   UNL     1     -11.061   7.829  66.743  1.00  0.00     0.620 C  
HETATM   25  O   UNL     1     -12.144   6.499  68.394  1.00  0.00     1.151 OA 
ENDBRANCH  22  23
ENDBRANCH   4  22
BRANCH   7  26
HETATM   26  O   UNL     1      -6.952   9.022  68.729  1.00  0.00    -0.061 OA 
BRANCH  26  27
HETATM   27  C   UNL     1      -7.470   9.831  69.703  1.00  0.00    -0.113 C  
HETATM   28  O   UNL     1      -7.801   9.437  70.814  1.00  0.00    -0.175 OA 
BRANCH  27  29
HETATM   29  C   UNL     1      -7.336  11.315  69.404  1.00  0.00    -0.027 A  
HETATM   30  C   UNL     1      -7.403  11.738  68.054  1.00  0.00    -0.091 A  
HETATM   31  C   UNL     1      -7.163  12.293  70.380  1.00  0.00     2.196 A  
HETATM   32  C   UNL     1      -7.092  13.659  70.029  1.00  0.00     0.539 A  
HETATM   33  C   UNL     1      -7.367  13.102  67.706  1.00  0.00    -0.143 A  
HETATM   34  C   UNL     1      -7.205  14.062  68.694  1.00  0.00    -0.114 A  
ENDBRANCH  27  29
ENDBRANCH  26  27
ENDBRANCH   7  26
BRANCH   9  35
HETATM   35  O   UNL     1      -7.480   7.128  65.630  1.00  0.00    -0.076 OA 
BRANCH  35  36
HETATM   36  C   UNL     1      -7.129   6.130  66.495  1.00  0.00    -0.068 C  
HETATM   37  O   UNL     1      -7.866   5.489  67.195  1.00  0.00    -0.099 OA 
HETATM   38  C   UNL     1      -5.647   5.848  66.406  1.00  0.00    -0.013 C  
ENDBRANCH  35  36
ENDBRANCH   9  35
TORSDOF 7
ENDMDL
MODEL      175
REMARK 921   NORMALIZED FREE ENERGY PREDICTED BY IDOCK:   28.51 KCAL/MOL
REMARK 922        TOTAL FREE ENERGY PREDICTED BY IDOCK:   39.53 KCAL/MOL
REMARK 923 INTER-LIGAND FREE ENERGY PREDICTED BY IDOCK:   36.57 KCAL/MOL
REMARK 924 INTRA-LIGAND FREE ENERGY PREDICTED BY IDOCK:    2.97 KCAL/MOL
REMARK 927      BINDING AFFINITY PREDICTED BY RF-SCORE:    0.00 PKD
ROOT
HETATM    1  C   UNL     1      -8.857  16.396  68.525  1.00  0.00    -0.224 C  
HETATM    2  C   UNL     1      -9.683  15.357  69.244  1.00  0.00    -0.268 C  
HETATM    3  C   UNL     1     -11.003  15.453  69.963  1.00  0.00    -0.313 C  
HETATM    4  C   UNL     1     -10.811  14.149  70.934  1.00  0.00     1.252 C  
HETATM    5  O   UNL     1     -13.116  13.375  70.718  1.00  0.00    -0.121 OA 
HETATM    6  C   UNL     1      -9.569  13.257  70.099  1.00  0.00     3.286 C  
HETATM    7  C   UNL     1      -9.789  13.935  68.706  1.00  0.00    -0.114 C  
HETATM    8  C   UNL     1     -10.783  12.647  73.557  1.00  0.00    16.584 C  
HETATM    9  C   UNL     1      -9.041  11.849  69.585  1.00  0.00     1.629 C  
HETATM   10  C   UNL     1      -8.784  10.563  70.330  1.00  0.00     0.910 C  
HETATM   11  C   UNL     1     -12.080  13.367  71.386  1.00  0.00     0.225 C  
HETATM   12  C   UNL     1     -12.273   7.419  72.298  1.00  0.00    -0.206 C  
HETATM   13  C   UNL     1     -12.009  12.550  72.689  1.00  0.00     3.910 C  
HETATM   14  C   UNL     1     -14.406   8.690  72.564  1.00  0.00    -0.347 C  
HETATM   15  C   UNL     1     -12.905   8.778  72.548  1.00  0.00    -0.380 C  
HETATM   16  C   UNL     1      -9.977   9.657  70.385  1.00  0.00    -0.330 C  
HETATM   17  C   UNL     1      -7.596  10.076  70.734  1.00  0.00     0.415 C  
HETATM   18  C   UNL     1     -12.916  11.541  72.818  1.00  0.00     2.095 C  
HETATM   19  C   UNL     1     -12.461  10.143  73.159  1.00  0.00     3.729 C  
HETATM   20  C   UNL     1     -10.503   9.729  71.782  1.00  0.00     0.710 C  
HETATM   21  C   UNL     1     -11.998   9.721  71.808  1.00  0.00    -0.388 C  
ENDROOT
BRANCH   4  22
HETATM   22  O   UNL     1     -10.322  14.882  72.144  1.00  0.00     1.294 OA 
BRANCH  22  23
HETATM   23  C   UNL     1     -11.174  15.863  72.623  1.00  0.00     0.411 C  
HETATM   24  C   UNL     1     -11.580  16.838  71.561  1.00  0.00     0.278 C  
HETATM   25  O   UNL     1     -11.627  15.927  73.760  1.00  0.00    -0.052 OA 
ENDBRANCH  22  23
ENDBRANCH   4  22
BRANCH   7  26
HETATM   26  O   UNL     1     -11.187  13.493  68.313  1.00  0.00    -0.248 OA 
BRANCH  26  27
HETATM   27  C   UNL     1     -11.706  13.701  67.065  1.00  0.00    -0.384 C  
HETATM   28  O   UNL     1     -12.761  13.218  66.675  1.00  0.00    -0.163 OA 
BRANCH  27  29
HETATM   29  C   UNL     1     -11.018  14.813  66.291  1.00  0.00    -0.330 A  
HETATM   30  C   UNL     1      -9.624  14.708  66.057  1.00  0.00    -0.322 A  
HETATM   31  C   UNL     1     -11.675  15.930  65.782  1.00  0.00     0.635 A  
HETATM   32  C   UNL     1     -10.976  16.901  65.033  1.00  0.00    -0.055 A  
HETATM   33  C   UNL     1      -8.933  15.658  65.281  1.00  0.00     1.257 A  
HETATM   34  C   UNL     1      -9.609  16.758  64.774  1.00  0.00     2.577 A  
ENDBRANCH  27  29
ENDBRANCH  26  27
ENDBRANCH   7  26
BRANCH   9  35
HETATM   35  O   UNL     1      -7.855  11.999  68.686  1.00  0.00    -0.133 OA 
BRANCH  35  36
HETATM   36  C   UNL     1      -6.661  12.512  69.110  1.00  0.00    -0.089 C  
HETATM   37  O   UNL     1      -6.487  13.551  69.689  1.00  0.00    -0.117 OA 
HETATM   38  C   UNL     1      -5.538  11.539  68.837  1.00  0.00    -0.046 C  
ENDBRANCH  35  36
ENDBRANCH   9  35
TORSDOF 7
ENDMDL
MODEL      176
REMARK 921   NORMALIZED FREE ENERGY PREDICTED BY IDOCK:   28.73 KCAL/MOL
REMARK 922        TOTAL FREE ENERGY PREDICTED BY IDOCK:   39.85 KCAL/MOL
REMARK 923 INTER-LIGAND FREE ENERGY PREDICTED BY IDOCK:   21.48 KCAL/MOL
REMARK 924 INTRA-LIGAND FREE ENERGY PREDICTED BY IDOCK:   18.37 KCAL/MOL
REMARK 927      BINDING AFFINITY PREDICTED BY RF-SCORE:    0.00 PKD
ROOT
HETATM    1  C   UNL     1      -8.236  13.385  62.391  1.00  0.00    11.977 C  
HETATM    2  C   UNL     1      -8.354  12.909  63.819  1.00  0.00     5.833 C  
HETATM    3  C   UNL     1      -8.746  13.630  65.082  1.00  0.00     2.673 C  
HETATM    4  C   UNL     1      -7.994  12.631  66.138  1.00  0.00     1.112 C  
HETATM    5  O   UNL     1      -9.792  12.664  67.788  1.00  0.00    -0.201 OA 
HETATM    6  C   UNL     1      -7.787  11.187  65.185  1.00  0.00     0.433 C  
HETATM    7  C   UNL     1      -8.899  11.523  64.137  1.00  0.00     0.428 C  
HETATM    8  C   UNL     1      -6.180  11.929  68.453  1.00  0.00    -0.050 C  
HETATM    9  C   UNL     1      -7.875   9.602  65.111  1.00  0.00    -0.117 C  
HETATM   10  C   UNL     1      -7.238   8.540  65.971  1.00  0.00    -0.077 C  
HETATM   11  C   UNL     1      -8.595  12.472  67.567  1.00  0.00    -0.183 C  
HETATM   12  C   UNL     1      -8.431   7.388  70.786  1.00  0.00    -0.131 C  
HETATM   13  C   UNL     1      -7.659  12.039  68.709  1.00  0.00    -0.070 C  
HETATM   14  C   UNL     1      -9.642   9.334  71.777  1.00  0.00     0.070 C  
HETATM   15  C   UNL     1      -8.607   8.896  70.777  1.00  0.00    -0.236 C  
HETATM   16  C   UNL     1      -8.080   8.142  67.147  1.00  0.00    -0.116 C  
HETATM   17  C   UNL     1      -6.154   7.797  65.684  1.00  0.00    -0.038 C  
HETATM   18  C   UNL     1      -8.255  11.469  69.793  1.00  0.00     1.211 C  
HETATM   19  C   UNL     1      -7.778  10.136  70.315  1.00  0.00     0.008 C  
HETATM   20  C   UNL     1      -7.437   8.742  68.355  1.00  0.00    -0.091 C  
HETATM   21  C   UNL     1      -8.454   9.252  69.324  1.00  0.00    -0.137 C  
ENDROOT
BRANCH   4  22
HETATM   22  O   UNL     1      -6.742  13.435  66.303  1.00  0.00     1.907 OA 
BRANCH  22  23
HETATM   23  C   UNL     1      -6.521  13.928  67.578  1.00  0.00    -0.058 C  
HETATM   24  C   UNL     1      -7.620  14.834  68.040  1.00  0.00    -0.130 C  
HETATM   25  O   UNL     1      -5.584  13.631  68.309  1.00  0.00    -0.086 OA 
ENDBRANCH  22  23
ENDBRANCH   4  22
BRANCH   7  26
HETATM   26  O   UNL     1     -10.176  11.500  64.956  1.00  0.00    -0.252 OA 
BRANCH  26  27
HETATM   27  C   UNL     1     -11.184  12.408  64.783  1.00  0.00    -0.310 C  
HETATM   28  O   UNL     1     -12.252  12.149  64.244  1.00  0.00    -0.397 OA 
BRANCH  27  29
HETATM   29  C   UNL     1     -10.993  13.695  65.569  1.00  0.00    -0.297 A  
HETATM   30  C   UNL     1     -10.282  14.758  64.958  1.00  0.00    -0.379 A  
HETATM   31  C   UNL     1     -11.486  13.903  66.853  1.00  0.00    -0.370 A  
HETATM   32  C   UNL     1     -11.307  15.144  67.504  1.00  0.00    -0.325 A  
HETATM   33  C   UNL     1     -10.132  16.006  65.591  1.00  0.00    -0.384 A  
HETATM   34  C   UNL     1     -10.640  16.196  66.867  1.00  0.00    -0.283 A  
ENDBRANCH  27  29
ENDBRANCH  26  27
ENDBRANCH   7  26
BRANCH   9  35
HETATM   35  O   UNL     1      -7.689   9.104  63.712  1.00  0.00    -0.110 OA 
BRANCH  35  36
HETATM   36  C   UNL     1      -8.009   7.832  63.328  1.00  0.00    -0.111 C  
HETATM   37  O   UNL     1      -8.982   7.204  63.648  1.00  0.00     0.832 OA 
HETATM   38  C   UNL     1      -6.996   7.308  62.336  1.00  0.00    -0.069 C  
ENDBRANCH  35  36
ENDBRANCH   9  35
TORSDOF 7
ENDMDL
MODEL      177
REMARK 921   NORMALIZED FREE ENERGY PREDICTED BY IDOCK:   30.69 KCAL/MOL
REMARK 922        TOTAL FREE ENERGY PREDICTED BY IDOCK:   42.61 KCAL/MOL
REMARK 923 INTER-LIGAND FREE ENERGY PREDICTED BY IDOCK:   38.38 KCAL/MOL
REMARK 924 INTRA-LIGAND FREE ENERGY PREDICTED BY IDOCK:    4.23 KCAL/MOL
REMARK 927      BINDING AFFINITY PREDICTED BY RF-SCORE:    0.00 PKD
ROOT
HETATM    1  C   UNL     1     -13.544  15.979  65.441  1.00  0.00     4.313 C  
HETATM    2  C   UNL     1     -12.637  16.779  66.345  1.00  0.00     4.766 C  
HETATM    3  C   UNL     1     -12.925  17.601  67.574  1.00  0.00     6.678 C  
HETATM    4  C   UNL     1     -11.611  18.574  67.491  1.00  0.00     1.292 C  
HETATM    5  O   UNL     1     -11.175  18.557  69.893  1.00  0.00     2.288 OA 
HETATM    6  C   UNL     1     -10.546  17.655  66.462  1.00  0.00    -0.207 C  
HETATM    7  C   UNL     1     -11.244  16.274  66.697  1.00  0.00     0.246 C  
HETATM    8  C   UNL     1     -10.130  21.209  67.463  1.00  0.00     0.330 C  
HETATM    9  C   UNL     1      -9.075  17.122  66.185  1.00  0.00    -0.179 C  
HETATM   10  C   UNL     1      -7.768  17.864  66.054  1.00  0.00    -0.216 C  
HETATM   11  C   UNL     1     -11.021  19.139  68.818  1.00  0.00     1.047 C  
HETATM   12  C   UNL     1      -5.166  20.156  69.783  1.00  0.00    -0.255 C  
HETATM   13  C   UNL     1     -10.207  20.444  68.757  1.00  0.00    -0.092 C  
HETATM   14  C   UNL     1      -6.732  20.574  71.684  1.00  0.00     0.712 C  
HETATM   15  C   UNL     1      -6.602  20.436  70.191  1.00  0.00    -0.003 C  
HETATM   16  C   UNL     1      -7.043  18.030  67.356  1.00  0.00    -0.204 C  
HETATM   17  C   UNL     1      -7.117  18.178  64.919  1.00  0.00     1.674 C  
HETATM   18  C   UNL     1      -9.340  20.662  69.785  1.00  0.00     1.422 C  
HETATM   19  C   UNL     1      -7.892  20.987  69.508  1.00  0.00     2.815 C  
HETATM   20  C   UNL     1      -7.196  19.463  67.750  1.00  0.00    -0.284 C  
HETATM   21  C   UNL     1      -7.403  19.610  69.223  1.00  0.00    -0.294 C  
ENDROOT
BRANCH   4  22
HETATM   22  O   UNL     1     -12.270  19.728  66.805  1.00  0.00     1.897 OA 
BRANCH  22  23
HETATM   23  C   UNL     1     -11.756  20.046  65.559  1.00  0.00     2.035 C  
HETATM   24  C   UNL     1     -10.261  19.954  65.516  1.00  0.00    -0.235 C  
HETATM   25  O   UNL     1     -12.411  20.311  64.559  1.00  0.00     4.852 OA 
ENDBRANCH  22  23
ENDBRANCH   4  22
BRANCH   7  26
HETATM   26  O   UNL     1     -11.005  16.002  68.171  1.00  0.00    -0.314 OA 
BRANCH  26  27
HETATM   27  C   UNL     1     -10.471  14.830  68.631  1.00  0.00    -0.250 C  
HETATM   28  O   UNL     1      -9.869  14.724  69.692  1.00  0.00    -0.060 OA 
BRANCH  27  29
HETATM   29  C   UNL     1     -10.930  13.602  67.863  1.00  0.00    -0.277 A  
HETATM   30  C   UNL     1     -10.155  12.419  67.958  1.00  0.00    -0.214 A  
HETATM   31  C   UNL     1     -12.077  13.560  67.076  1.00  0.00    -0.401 A  
HETATM   32  C   UNL     1     -12.465  12.368  66.427  1.00  0.00     0.570 A  
HETATM   33  C   UNL     1     -10.558  11.221  67.339  1.00  0.00    -0.262 A  
HETATM   34  C   UNL     1     -11.711  11.198  66.568  1.00  0.00     0.542 A  
ENDBRANCH  27  29
ENDBRANCH  26  27
ENDBRANCH   7  26
BRANCH   9  35
HETATM   35  O   UNL     1      -9.049  16.128  65.068  1.00  0.00     0.467 OA 
BRANCH  35  36
HETATM   36  C   UNL     1      -8.851  14.790  65.267  1.00  0.00     2.064 C  
HETATM   37  O   UNL     1      -8.074  14.282  66.030  1.00  0.00     1.227 OA 
HETATM   38  C   UNL     1      -9.828  13.982  64.446  1.00  0.00     0.893 C  
ENDBRANCH  35  36
ENDBRANCH   9  35
TORSDOF 7
ENDMDL
MODEL      178
REMARK 921   NORMALIZED FREE ENERGY PREDICTED BY IDOCK:   30.83 KCAL/MOL
REMARK 922        TOTAL FREE ENERGY PREDICTED BY IDOCK:   42.81 KCAL/MOL
REMARK 923 INTER-LIGAND FREE ENERGY PREDICTED BY IDOCK:   28.85 KCAL/MOL
REMARK 924 INTRA-LIGAND FREE ENERGY PREDICTED BY IDOCK:   13.96 KCAL/MOL
REMARK 927      BINDING AFFINITY PREDICTED BY RF-SCORE:    0.00 PKD
ROOT
HETATM    1  C   UNL     1     -11.714  15.316  72.894  1.00  0.00    -0.478 C  
HETATM    2  C   UNL     1     -10.813  15.448  71.689  1.00  0.00     0.061 C  
HETATM    3  C   UNL     1     -10.341  14.434  70.680  1.00  0.00     1.196 C  
HETATM    4  C   UNL     1      -8.987  15.223  70.205  1.00  0.00     0.528 C  
HETATM    5  O   UNL     1      -9.242  14.686  67.838  1.00  0.00    -0.189 OA 
HETATM    6  C   UNL     1      -9.324  16.856  70.712  1.00  0.00     3.925 C  
HETATM    7  C   UNL     1     -10.877  16.682  70.799  1.00  0.00     0.370 C  
HETATM    8  C   UNL     1      -6.041  15.520  69.596  1.00  0.00    -0.150 C  
HETATM    9  C   UNL     1      -9.287  18.406  70.364  1.00  0.00     2.735 C  
HETATM   10  C   UNL     1      -8.144  19.291  69.938  1.00  0.00     0.724 C  
HETATM   11  C   UNL     1      -8.478  15.011  68.748  1.00  0.00    -0.180 C  
HETATM   12  C   UNL     1      -5.744  19.239  65.447  1.00  0.00    -0.213 C  
HETATM   13  C   UNL     1      -6.984  15.245  68.455  1.00  0.00    -0.113 C  
HETATM   14  C   UNL     1      -6.179  17.035  64.356  1.00  0.00     6.074 C  
HETATM   15  C   UNL     1      -6.026  17.762  65.664  1.00  0.00    -0.124 C  
HETATM   16  C   UNL     1      -7.957  19.351  68.451  1.00  0.00    -0.376 C  
HETATM   17  C   UNL     1      -7.454  20.159  70.701  1.00  0.00     0.956 C  
HETATM   18  C   UNL     1      -6.659  15.510  67.160  1.00  0.00     0.035 C  
HETATM   19  C   UNL     1      -5.832  16.724  66.813  1.00  0.00    -0.138 C  
HETATM   20  C   UNL     1      -6.737  18.544  68.142  1.00  0.00    -0.231 C  
HETATM   21  C   UNL     1      -6.905  17.755  66.883  1.00  0.00    -0.212 C  
ENDROOT
BRANCH   4  22
HETATM   22  O   UNL     1      -8.023  14.499  71.091  1.00  0.00     2.212 OA 
BRANCH  22  23
HETATM   23  C   UNL     1      -6.963  15.260  71.555  1.00  0.00     2.125 C  
HETATM   24  C   UNL     1      -6.166  14.550  72.607  1.00  0.00     0.792 C  
HETATM   25  O   UNL     1      -6.634  16.362  71.135  1.00  0.00     1.588 OA 
ENDBRANCH  22  23
ENDBRANCH   4  22
BRANCH   7  26
HETATM   26  O   UNL     1     -11.286  16.425  69.360  1.00  0.00    -0.296 OA 
BRANCH  26  27
HETATM   27  C   UNL     1     -11.868  15.256  68.953  1.00  0.00    -0.320 C  
HETATM   28  O   UNL     1     -12.624  14.591  69.648  1.00  0.00    -0.242 OA 
BRANCH  27  29
HETATM   29  C   UNL     1     -11.734  14.990  67.462  1.00  0.00    -0.270 A  
HETATM   30  C   UNL     1     -12.618  14.058  66.863  1.00  0.00     0.005 A  
HETATM   31  C   UNL     1     -10.801  15.616  66.641  1.00  0.00    -0.266 A  
HETATM   32  C   UNL     1     -10.767  15.350  65.254  1.00  0.00    -0.439 A  
HETATM   33  C   UNL     1     -12.607  13.818  65.476  1.00  0.00    -0.551 A  
HETATM   34  C   UNL     1     -11.676  14.461  64.673  1.00  0.00    -0.438 A  
ENDBRANCH  27  29
ENDBRANCH  26  27
ENDBRANCH   7  26
BRANCH   9  35
HETATM   35  O   UNL     1     -10.025  19.218  71.381  1.00  0.00     2.158 OA 
BRANCH  35  36
HETATM   36  C   UNL     1      -9.983  20.584  71.414  1.00  0.00     2.718 C  
HETATM   37  O   UNL     1     -10.523  21.341  70.653  1.00  0.00     1.948 OA 
HETATM   38  C   UNL     1      -9.216  21.061  72.625  1.00  0.00     3.920 C  
ENDBRANCH  35  36
ENDBRANCH   9  35
TORSDOF 7
ENDMDL
MODEL      179
REMARK 921   NORMALIZED FREE ENERGY PREDICTED BY IDOCK:   32.34 KCAL/MOL
REMARK 922        TOTAL FREE ENERGY PREDICTED BY IDOCK:   44.93 KCAL/MOL
REMARK 923 INTER-LIGAND FREE ENERGY PREDICTED BY IDOCK:   22.96 KCAL/MOL
REMARK 924 INTRA-LIGAND FREE ENERGY PREDICTED BY IDOCK:   21.97 KCAL/MOL
REMARK 927      BINDING AFFINITY PREDICTED BY RF-SCORE:    0.00 PKD
ROOT
HETATM    1  C   UNL     1     -11.699  13.376  65.465  1.00  0.00    -0.366 C  
HETATM    2  C   UNL     1     -10.747  12.222  65.667  1.00  0.00    -0.302 C  
HETATM    3  C   UNL     1      -9.502  11.812  64.924  1.00  0.00    -0.054 C  
HETATM    4  C   UNL     1      -9.519  10.229  65.338  1.00  0.00    -0.232 C  
HETATM    5  O   UNL     1      -7.108  10.067  65.680  1.00  0.00    -0.105 OA 
HETATM    6  C   UNL     1     -10.545  10.235  66.747  1.00  0.00    -0.252 C  
HETATM    7  C   UNL     1     -10.371  11.756  67.068  1.00  0.00    -0.214 C  
HETATM    8  C   UNL     1      -9.427   7.249  64.839  1.00  0.00     1.578 C  
HETATM    9  C   UNL     1     -10.796   9.717  68.228  1.00  0.00    -0.182 C  
HETATM   10  C   UNL     1     -10.868   8.316  68.781  1.00  0.00     0.019 C  
HETATM   11  C   UNL     1      -8.160   9.474  65.439  1.00  0.00    -0.125 C  
HETATM   12  C   UNL     1      -7.001   5.054  69.359  1.00  0.00    -0.055 C  
HETATM   13  C   UNL     1      -8.159   7.945  65.254  1.00  0.00    -0.135 C  
HETATM   14  C   UNL     1      -5.133   5.787  67.871  1.00  0.00    -0.004 C  
HETATM   15  C   UNL     1      -6.625   5.752  68.063  1.00  0.00    -0.052 C  
HETATM   16  C   UNL     1      -9.542   7.786  69.238  1.00  0.00    -0.159 C  
HETATM   17  C   UNL     1     -11.975   7.617  69.094  1.00  0.00     1.519 C  
HETATM   18  C   UNL     1      -7.101   7.275  65.790  1.00  0.00    -0.065 C  
HETATM   19  C   UNL     1      -7.327   6.103  66.715  1.00  0.00    -0.079 C  
HETATM   20  C   UNL     1      -9.110   6.782  68.218  1.00  0.00    -0.124 C  
HETATM   21  C   UNL     1      -7.639   6.857  67.961  1.00  0.00    -0.108 C  
ENDROOT
BRANCH   4  22
HETATM   22  O   UNL     1     -10.188   9.715  64.102  1.00  0.00     0.687 OA 
BRANCH  22  23
HETATM   23  C   UNL     1     -10.111   8.345  63.915  1.00  0.00     5.184 C  
HETATM   24  C   UNL     1      -8.877   7.938  63.170  1.00  0.00     0.702 C  
HETATM   25  O   UNL     1     -10.900   7.516  64.352  1.00  0.00     8.895 OA 
ENDBRANCH  22  23
ENDBRANCH   4  22
BRANCH   7  26
HETATM   26  O   UNL     1      -8.899  11.879  67.420  1.00  0.00    -0.160 OA 
BRANCH  26  27
HETATM   27  C   UNL     1      -8.463  12.268  68.657  1.00  0.00     0.007 C  
HETATM   28  O   UNL     1      -8.212  13.427  68.959  1.00  0.00     0.108 OA 
BRANCH  27  29
HETATM   29  C   UNL     1      -8.587  11.189  69.720  1.00  0.00     0.893 A  
HETATM   30  C   UNL     1      -7.622  10.152  69.742  1.00  0.00    -0.175 A  
HETATM   31  C   UNL     1      -9.587  11.160  70.687  1.00  0.00     3.508 A  
HETATM   32  C   UNL     1      -9.611  10.148  71.672  1.00  0.00     3.125 A  
HETATM   33  C   UNL     1      -7.625   9.162  70.743  1.00  0.00    -0.149 A  
HETATM   34  C   UNL     1      -8.625   9.158  71.704  1.00  0.00     0.107 A  
ENDBRANCH  27  29
ENDBRANCH  26  27
ENDBRANCH   7  26
BRANCH   9  35
HETATM   35  O   UNL     1     -11.941  10.429  68.875  1.00  0.00    -0.190 OA 
BRANCH  35  36
HETATM   36  C   UNL     1     -12.215  10.336  70.211  1.00  0.00    -0.221 C  
HETATM   37  O   UNL     1     -12.057  11.191  71.041  1.00  0.00    -0.335 OA 
HETATM   38  C   UNL     1     -12.853   9.004  70.530  1.00  0.00     0.475 C  
ENDBRANCH  35  36
ENDBRANCH   9  35
TORSDOF 7
ENDMDL
MODEL      180
REMARK 921   NORMALIZED FREE ENERGY PREDICTED BY IDOCK:   33.08 KCAL/MOL
REMARK 922        TOTAL FREE ENERGY PREDICTED BY IDOCK:   45.98 KCAL/MOL
REMARK 923 INTER-LIGAND FREE ENERGY PREDICTED BY IDOCK:   39.83 KCAL/MOL
REMARK 924 INTRA-LIGAND FREE ENERGY PREDICTED BY IDOCK:    6.15 KCAL/MOL
REMARK 927      BINDING AFFINITY PREDICTED BY RF-SCORE:    0.00 PKD
ROOT
HETATM    1  C   UNL     1     -13.544  15.979  65.441  1.00  0.00     4.313 C  
HETATM    2  C   UNL     1     -12.637  16.779  66.345  1.00  0.00     4.766 C  
HETATM    3  C   UNL     1     -12.925  17.601  67.574  1.00  0.00     6.678 C  
HETATM    4  C   UNL     1     -11.611  18.574  67.491  1.00  0.00     1.292 C  
HETATM    5  O   UNL     1     -11.175  18.557  69.893  1.00  0.00     2.288 OA 
HETATM    6  C   UNL     1     -10.546  17.655  66.462  1.00  0.00    -0.207 C  
HETATM    7  C   UNL     1     -11.244  16.274  66.697  1.00  0.00     0.246 C  
HETATM    8  C   UNL     1     -10.130  21.209  67.463  1.00  0.00     0.330 C  
HETATM    9  C   UNL     1      -9.075  17.122  66.185  1.00  0.00    -0.179 C  
HETATM   10  C   UNL     1      -7.768  17.864  66.054  1.00  0.00    -0.216 C  
HETATM   11  C   UNL     1     -11.021  19.139  68.818  1.00  0.00     1.047 C  
HETATM   12  C   UNL     1      -5.166  20.156  69.783  1.00  0.00    -0.255 C  
HETATM   13  C   UNL     1     -10.207  20.444  68.757  1.00  0.00    -0.092 C  
HETATM   14  C   UNL     1      -6.732  20.574  71.684  1.00  0.00     0.712 C  
HETATM   15  C   UNL     1      -6.602  20.436  70.191  1.00  0.00    -0.003 C  
HETATM   16  C   UNL     1      -7.043  18.030  67.356  1.00  0.00    -0.204 C  
HETATM   17  C   UNL     1      -7.117  18.178  64.919  1.00  0.00     1.674 C  
HETATM   18  C   UNL     1      -9.340  20.662  69.785  1.00  0.00     1.422 C  
HETATM   19  C   UNL     1      -7.892  20.987  69.508  1.00  0.00     2.815 C  
HETATM   20  C   UNL     1      -7.196  19.463  67.750  1.00  0.00    -0.284 C  
HETATM   21  C   UNL     1      -7.403  19.610  69.223  1.00  0.00    -0.294 C  
ENDROOT
BRANCH   4  22
HETATM   22  O   UNL     1     -12.270  19.728  66.805  1.00  0.00     1.897 OA 
BRANCH  22  23
HETATM   23  C   UNL     1     -11.756  20.046  65.559  1.00  0.00     2.035 C  
HETATM   24  C   UNL     1     -10.261  19.954  65.516  1.00  0.00    -0.235 C  
HETATM   25  O   UNL     1     -12.411  20.311  64.559  1.00  0.00     4.852 OA 
ENDBRANCH  22  23
ENDBRANCH   4  22
BRANCH   7  26
HETATM   26  O   UNL     1     -11.005  16.002  68.171  1.00  0.00    -0.314 OA 
BRANCH  26  27
HETATM   27  C   UNL     1     -10.471  14.830  68.631  1.00  0.00    -0.250 C  
HETATM   28  O   UNL     1     -11.019  13.741  68.524  1.00  0.00    -0.244 OA 
BRANCH  27  29
HETATM   29  C   UNL     1      -9.009  14.937  69.034  1.00  0.00    -0.174 A  
HETATM   30  C   UNL     1      -8.473  13.946  69.894  1.00  0.00     1.603 A  
HETATM   31  C   UNL     1      -8.155  15.946  68.601  1.00  0.00    -0.162 A  
HETATM   32  C   UNL     1      -6.795  15.955  68.982  1.00  0.00    -0.153 A  
HETATM   33  C   UNL     1      -7.111  13.935  70.247  1.00  0.00     0.618 A  
HETATM   34  C   UNL     1      -6.273  14.944  69.795  1.00  0.00    -0.144 A  
ENDBRANCH  27  29
ENDBRANCH  26  27
ENDBRANCH   7  26
BRANCH   9  35
HETATM   35  O   UNL     1      -9.049  16.128  65.068  1.00  0.00     0.467 OA 
BRANCH  35  36
HETATM   36  C   UNL     1      -8.851  14.790  65.267  1.00  0.00     2.064 C  
HETATM   37  O   UNL     1      -8.074  14.282  66.030  1.00  0.00     1.227 OA 
HETATM   38  C   UNL     1      -9.828  13.982  64.446  1.00  0.00     0.893 C  
ENDBRANCH  35  36
ENDBRANCH   9  35
TORSDOF 7
ENDMDL
MODEL      181
REMARK 921   NORMALIZED FREE ENERGY PREDICTED BY IDOCK:   36.42 KCAL/MOL
REMARK 922        TOTAL FREE ENERGY PREDICTED BY IDOCK:   50.68 KCAL/MOL
REMARK 923 INTER-LIGAND FREE ENERGY PREDICTED BY IDOCK:   45.83 KCAL/MOL
REMARK 924 INTRA-LIGAND FREE ENERGY PREDICTED BY IDOCK:    4.85 KCAL/MOL
REMARK 927      BINDING AFFINITY PREDICTED BY RF-SCORE:    0.00 PKD
ROOT
HETATM    1  C   UNL     1      -6.147  18.596  66.415  1.00  0.00    -0.188 C  
HETATM    2  C   UNL     1      -6.920  17.500  67.107  1.00  0.00    -0.199 C  
HETATM    3  C   UNL     1      -6.465  16.252  67.819  1.00  0.00    -0.161 C  
HETATM    4  C   UNL     1      -7.849  15.395  67.651  1.00  0.00    -0.157 C  
HETATM    5  O   UNL     1      -7.790  14.443  69.897  1.00  0.00     0.243 OA 
HETATM    6  C   UNL     1      -9.014  16.649  67.326  1.00  0.00    -0.211 C  
HETATM    7  C   UNL     1      -8.165  17.819  67.925  1.00  0.00    -0.237 C  
HETATM    8  C   UNL     1      -9.530  12.993  66.914  1.00  0.00    -0.242 C  
HETATM    9  C   UNL     1     -10.458  17.247  67.610  1.00  0.00    -0.363 C  
HETATM   10  C   UNL     1     -11.824  16.621  67.487  1.00  0.00     0.951 C  
HETATM   11  C   UNL     1      -8.207  14.343  68.742  1.00  0.00    -0.126 C  
HETATM   12  C   UNL     1     -13.816  13.019  70.486  1.00  0.00     2.109 C  
HETATM   13  C   UNL     1      -9.128  13.172  68.353  1.00  0.00    -0.134 C  
HETATM   14  C   UNL     1     -11.943  11.873  71.677  1.00  0.00     1.064 C  
HETATM   15  C   UNL     1     -12.357  12.600  70.427  1.00  0.00    -0.315 C  
HETATM   16  C   UNL     1     -12.285  15.944  68.743  1.00  0.00     0.166 C  
HETATM   17  C   UNL     1     -12.715  16.790  66.492  1.00  0.00     5.249 C  
HETATM   18  C   UNL     1      -9.787  12.558  69.375  1.00  0.00     0.872 C  
HETATM   19  C   UNL     1     -11.283  12.371  69.317  1.00  0.00    -0.264 C  
HETATM   20  C   UNL     1     -12.182  14.473  68.499  1.00  0.00    -0.164 C  
HETATM   21  C   UNL     1     -11.698  13.746  69.712  1.00  0.00    -0.367 C  
ENDROOT
BRANCH   4  22
HETATM   22  O   UNL     1      -7.444  14.614  66.440  1.00  0.00     0.753 OA 
BRANCH  22  23
HETATM   23  C   UNL     1      -8.119  14.940  65.275  1.00  0.00     5.309 C  
HETATM   24  C   UNL     1      -8.944  13.804  64.754  1.00  0.00     2.778 C  
HETATM   25  O   UNL     1      -8.126  16.039  64.734  1.00  0.00     4.178 OA 
ENDBRANCH  22  23
ENDBRANCH   4  22
BRANCH   7  26
HETATM   26  O   UNL     1      -8.078  17.475  69.401  1.00  0.00     0.087 OA 
BRANCH  26  27
HETATM   27  C   UNL     1      -8.476  18.335  70.387  1.00  0.00     3.425 C  
HETATM   28  O   UNL     1      -9.563  18.278  70.946  1.00  0.00     3.325 OA 
BRANCH  27  29
HETATM   29  C   UNL     1      -7.351  19.194  70.942  1.00  0.00     2.123 A  
HETATM   30  C   UNL     1      -6.750  18.807  72.166  1.00  0.00     3.203 A  
HETATM   31  C   UNL     1      -6.863  20.337  70.316  1.00  0.00     0.131 A  
HETATM   32  C   UNL     1      -5.784  21.060  70.871  1.00  0.00     0.416 A  
HETATM   33  C   UNL     1      -5.653  19.507  72.702  1.00  0.00     1.474 A  
HETATM   34  C   UNL     1      -5.174  20.638  72.056  1.00  0.00    -0.145 A  
ENDBRANCH  27  29
ENDBRANCH  26  27
ENDBRANCH   7  26
BRANCH   9  35
HETATM   35  O   UNL     1     -10.621  18.607  67.008  1.00  0.00    -0.397 OA 
BRANCH  35  36
HETATM   36  C   UNL     1     -11.707  19.402  67.248  1.00  0.00     1.376 C  
HETATM   37  O   UNL     1     -11.802  20.262  68.081  1.00  0.00     1.817 OA 
HETATM   38  C   UNL     1     -12.798  19.125  66.240  1.00  0.00     8.456 C  
ENDBRANCH  35  36
ENDBRANCH   9  35
TORSDOF 7
ENDMDL
MODEL      182
REMARK 921   NORMALIZED FREE ENERGY PREDICTED BY IDOCK:   37.28 KCAL/MOL
REMARK 922        TOTAL FREE ENERGY PREDICTED BY IDOCK:   51.90 KCAL/MOL
REMARK 923 INTER-LIGAND FREE ENERGY PREDICTED BY IDOCK:   49.26 KCAL/MOL
REMARK 924 INTRA-LIGAND FREE ENERGY PREDICTED BY IDOCK:    2.64 KCAL/MOL
REMARK 927      BINDING AFFINITY PREDICTED BY RF-SCORE:    0.00 PKD
ROOT
HETATM    1  C   UNL     1     -10.244  19.787  68.686  1.00  0.00    -0.515 C  
HETATM    2  C   UNL     1      -9.793  18.391  68.326  1.00  0.00    -0.383 C  
HETATM    3  C   UNL     1      -8.492  17.874  67.769  1.00  0.00    -0.242 C  
HETATM    4  C   UNL     1      -9.079  16.499  67.102  1.00  0.00    -0.213 C  
HETATM    5  O   UNL     1      -7.185  15.110  67.765  1.00  0.00    -0.133 OA 
HETATM    6  C   UNL     1     -10.582  16.294  67.959  1.00  0.00    -0.308 C  
HETATM    7  C   UNL     1     -10.198  17.196  69.179  1.00  0.00    -0.284 C  
HETATM    8  C   UNL     1      -9.514  14.473  64.901  1.00  0.00     0.907 C  
HETATM    9  C   UNL     1     -11.577  15.308  68.709  1.00  0.00    -0.362 C  
HETATM   10  C   UNL     1     -12.227  14.028  68.247  1.00  0.00    -0.195 C  
HETATM   11  C   UNL     1      -8.134  15.265  66.995  1.00  0.00    -0.218 C  
HETATM   12  C   UNL     1      -9.943   9.543  67.478  1.00  0.00    -0.235 C  
HETATM   13  C   UNL     1      -8.429  14.212  65.912  1.00  0.00     1.468 C  
HETATM   14  C   UNL     1      -7.495   9.953  67.195  1.00  0.00    -0.091 C  
HETATM   15  C   UNL     1      -8.877  10.517  67.007  1.00  0.00    -0.142 C  
HETATM   16  C   UNL     1     -11.413  12.805  68.543  1.00  0.00    -0.344 C  
HETATM   17  C   UNL     1     -13.493  13.862  67.822  1.00  0.00     5.222 C  
HETATM   18  C   UNL     1      -7.915  12.968  66.125  1.00  0.00     1.470 C  
HETATM   19  C   UNL     1      -8.805  11.751  66.055  1.00  0.00    -0.057 C  
HETATM   20  C   UNL     1     -10.839  12.349  67.241  1.00  0.00    -0.279 C  
HETATM   21  C   UNL     1      -9.436  11.856  67.400  1.00  0.00    -0.175 C  
ENDROOT
BRANCH   4  22
HETATM   22  O   UNL     1      -9.241  17.019  65.707  1.00  0.00    -0.526 OA 
BRANCH  22  23
HETATM   23  C   UNL     1      -8.441  18.102  65.384  1.00  0.00     1.412 C  
HETATM   24  C   UNL     1      -8.950  19.384  65.968  1.00  0.00    -0.180 C  
HETATM   25  O   UNL     1      -7.391  18.055  64.756  1.00  0.00     1.203 OA 
ENDBRANCH  22  23
ENDBRANCH   4  22
BRANCH   7  26
HETATM   26  O   UNL     1      -9.051  16.444  69.829  1.00  0.00     0.136 OA 
BRANCH  26  27
HETATM   27  C   UNL     1      -8.614  16.711  71.097  1.00  0.00     6.373 C  
HETATM   28  O   UNL     1      -7.781  16.037  71.689  1.00  0.00     4.982 OA 
BRANCH  27  29
HETATM   29  C   UNL     1      -9.029  18.079  71.615  1.00  0.00    10.871 A  
HETATM   30  C   UNL     1      -8.316  19.215  71.160  1.00  0.00     4.366 A  
HETATM   31  C   UNL     1     -10.080  18.289  72.503  1.00  0.00     6.146 A  
HETATM   32  C   UNL     1     -10.436  19.595  72.905  1.00  0.00     3.831 A  
HETATM   33  C   UNL     1      -8.692  20.520  71.532  1.00  0.00     2.257 A  
HETATM   34  C   UNL     1      -9.749  20.708  72.411  1.00  0.00     3.293 A  
ENDBRANCH  27  29
ENDBRANCH  26  27
ENDBRANCH   7  26
BRANCH   9  35
HETATM   35  O   UNL     1     -12.676  16.052  69.399  1.00  0.00     0.082 OA 
BRANCH  35  36
HETATM   36  C   UNL     1     -13.072  15.775  70.678  1.00  0.00    -0.006 C  
HETATM   37  O   UNL     1     -12.611  16.230  71.690  1.00  0.00    -0.300 OA 
HETATM   38  C   UNL     1     -14.271  14.856  70.673  1.00  0.00     0.423 C  
ENDBRANCH  35  36
ENDBRANCH   9  35
TORSDOF 7
ENDMDL
MODEL      183
REMARK 921   NORMALIZED FREE ENERGY PREDICTED BY IDOCK:   38.85 KCAL/MOL
REMARK 922        TOTAL FREE ENERGY PREDICTED BY IDOCK:   54.11 KCAL/MOL
REMARK 923 INTER-LIGAND FREE ENERGY PREDICTED BY IDOCK:   47.47 KCAL/MOL
REMARK 924 INTRA-LIGAND FREE ENERGY PREDICTED BY IDOCK:    6.64 KCAL/MOL
REMARK 927      BINDING AFFINITY PREDICTED BY RF-SCORE:    0.00 PKD
ROOT
HETATM    1  C   UNL     1      -5.797   8.316  71.598  1.00  0.00    -0.038 C  
HETATM    2  C   UNL     1      -6.665   8.688  70.420  1.00  0.00    -0.038 C  
HETATM    3  C   UNL     1      -6.323   9.254  69.066  1.00  0.00    -0.043 C  
HETATM    4  C   UNL     1      -7.778   9.929  68.744  1.00  0.00    -0.086 C  
HETATM    5  O   UNL     1      -7.802   9.284  66.391  1.00  0.00    -0.102 OA 
HETATM    6  C   UNL     1      -8.826   9.067  69.838  1.00  0.00    -0.164 C  
HETATM    7  C   UNL     1      -7.875   7.843  70.044  1.00  0.00    -0.105 C  
HETATM    8  C   UNL     1      -9.670  12.143  67.930  1.00  0.00    -0.200 C  
HETATM    9  C   UNL     1     -10.211   8.321  70.064  1.00  0.00    -0.202 C  
HETATM   10  C   UNL     1     -11.628   8.789  69.847  1.00  0.00     0.238 C  
HETATM   11  C   UNL     1      -8.229  10.048  67.257  1.00  0.00    -0.117 C  
HETATM   12  C   UNL     1     -13.931   9.600  65.379  1.00  0.00    21.651 C  
HETATM   13  C   UNL     1      -9.251  11.138  66.889  1.00  0.00    -0.179 C  
HETATM   14  C   UNL     1     -12.167   9.890  63.634  1.00  0.00     8.883 C  
HETATM   15  C   UNL     1     -12.516  10.069  65.087  1.00  0.00     9.112 C  
HETATM   16  C   UNL     1     -12.146   8.505  68.469  1.00  0.00     3.258 C  
HETATM   17  C   UNL     1     -12.500   9.211  70.781  1.00  0.00    -0.057 C  
HETATM   18  C   UNL     1      -9.961  10.937  65.745  1.00  0.00    -0.299 C  
HETATM   19  C   UNL     1     -11.469  11.012  65.757  1.00  0.00     0.420 C  
HETATM   20  C   UNL     1     -12.176   9.813  67.747  1.00  0.00     3.895 C  
HETATM   21  C   UNL     1     -11.757   9.664  66.320  1.00  0.00     3.695 C  
ENDROOT
BRANCH   4  22
HETATM   22  O   UNL     1      -7.447  11.319  69.190  1.00  0.00    -0.120 OA 
BRANCH  22  23
HETATM   23  C   UNL     1      -6.342  11.886  68.578  1.00  0.00    -0.054 C  
HETATM   24  C   UNL     1      -5.219  12.133  69.539  1.00  0.00    -0.067 C  
HETATM   25  O   UNL     1      -6.223  12.115  67.381  1.00  0.00    -0.111 OA 
ENDBRANCH  22  23
ENDBRANCH   4  22
BRANCH   7  26
HETATM   26  O   UNL     1      -7.817   7.203  68.669  1.00  0.00    -0.117 OA 
BRANCH  26  27
HETATM   27  C   UNL     1      -8.892   6.582  68.094  1.00  0.00    -0.115 C  
HETATM   28  O   UNL     1     -10.040   6.684  68.507  1.00  0.00    -0.148 OA 
BRANCH  27  29
HETATM   29  C   UNL     1      -8.599   5.984  66.728  1.00  0.00    -0.110 A  
HETATM   30  C   UNL     1      -9.310   4.824  66.334  1.00  0.00    -0.146 A  
HETATM   31  C   UNL     1      -7.679   6.514  65.828  1.00  0.00    -0.092 A  
HETATM   32  C   UNL     1      -7.493   5.928  64.557  1.00  0.00    -0.079 A  
HETATM   33  C   UNL     1      -9.150   4.259  65.055  1.00  0.00    -0.146 A  
HETATM   34  C   UNL     1      -8.236   4.809  64.168  1.00  0.00    -0.118 A  
ENDBRANCH  27  29
ENDBRANCH  26  27
ENDBRANCH   7  26
BRANCH   9  35
HETATM   35  O   UNL     1     -10.251   7.620  71.385  1.00  0.00    -0.186 OA 
BRANCH  35  36
HETATM   36  C   UNL     1      -9.232   6.829  71.838  1.00  0.00    -0.142 C  
HETATM   37  O   UNL     1      -8.503   6.141  71.175  1.00  0.00    -0.123 OA 
HETATM   38  C   UNL     1      -9.059   6.991  73.330  1.00  0.00    -0.176 C  
ENDBRANCH  35  36
ENDBRANCH   9  35
TORSDOF 7
ENDMDL
MODEL      184
REMARK 921   NORMALIZED FREE ENERGY PREDICTED BY IDOCK:   40.47 KCAL/MOL
REMARK 922        TOTAL FREE ENERGY PREDICTED BY IDOCK:   56.40 KCAL/MOL
REMARK 923 INTER-LIGAND FREE ENERGY PREDICTED BY IDOCK:   26.38 KCAL/MOL
REMARK 924 INTRA-LIGAND FREE ENERGY PREDICTED BY IDOCK:   30.02 KCAL/MOL
REMARK 927      BINDING AFFINITY PREDICTED BY RF-SCORE:    0.00 PKD
ROOT
HETATM    1  C   UNL     1     -13.819  10.309  67.108  1.00  0.00    18.900 C  
HETATM    2  C   UNL     1     -12.494  10.591  67.774  1.00  0.00     3.203 C  
HETATM    3  C   UNL     1     -11.485  11.691  67.564  1.00  0.00    -0.360 C  
HETATM    4  C   UNL     1     -10.180  10.895  68.148  1.00  0.00    -0.176 C  
HETATM    5  O   UNL     1      -9.253  12.827  69.318  1.00  0.00     0.577 OA 
HETATM    6  C   UNL     1     -10.920   9.640  69.105  1.00  0.00    -0.177 C  
HETATM    7  C   UNL     1     -12.303  10.353  69.266  1.00  0.00     0.287 C  
HETATM    8  C   UNL     1      -7.347   9.840  68.102  1.00  0.00    -0.080 C  
HETATM    9  C   UNL     1     -10.929   8.814  70.462  1.00  0.00    -0.239 C  
HETATM   10  C   UNL     1      -9.843   8.012  71.133  1.00  0.00    -0.198 C  
HETATM   11  C   UNL     1      -9.038  11.726  68.808  1.00  0.00     0.017 C  
HETATM   12  C   UNL     1      -5.673   9.826  73.424  1.00  0.00     0.364 C  
HETATM   13  C   UNL     1      -7.621  11.126  68.835  1.00  0.00    -0.133 C  
HETATM   14  C   UNL     1      -5.271  12.146  72.589  1.00  0.00     0.505 C  
HETATM   15  C   UNL     1      -5.828  10.788  72.259  1.00  0.00     1.082 C  
HETATM   16  C   UNL     1      -9.007   8.816  72.083  1.00  0.00    -0.184 C  
HETATM   17  C   UNL     1      -9.697   6.674  71.134  1.00  0.00    -0.184 C  
HETATM   18  C   UNL     1      -6.776  11.617  69.784  1.00  0.00    -0.013 C  
HETATM   19  C   UNL     1      -6.048  10.682  70.718  1.00  0.00    -0.023 C  
HETATM   20  C   UNL     1      -7.688   9.031  71.414  1.00  0.00    -0.081 C  
HETATM   21  C   UNL     1      -7.158  10.405  71.671  1.00  0.00     2.343 C  
ENDROOT
BRANCH   4  22
HETATM   22  O   UNL     1      -9.642  10.420  66.835  1.00  0.00    -0.165 OA 
BRANCH  22  23
HETATM   23  C   UNL     1      -9.275  11.421  65.951  1.00  0.00    -0.216 C  
HETATM   24  C   UNL     1      -8.097  12.210  66.435  1.00  0.00     0.207 C  
HETATM   25  O   UNL     1      -9.782  11.632  64.856  1.00  0.00    -0.243 OA 
ENDBRANCH  22  23
ENDBRANCH   4  22
BRANCH   7  26
HETATM   26  O   UNL     1     -11.973  11.588  70.084  1.00  0.00    -0.325 OA 
BRANCH  26  27
HETATM   27  C   UNL     1     -10.826  12.312  69.904  1.00  0.00     0.613 C  
HETATM   28  O   UNL     1      -9.722  11.812  69.738  1.00  0.00     0.946 OA 
BRANCH  27  29
HETATM   29  C   UNL     1     -11.068  13.788  69.636  1.00  0.00    -0.094 A  
HETATM   30  C   UNL     1     -12.393  14.281  69.729  1.00  0.00    -0.342 A  
HETATM   31  C   UNL     1     -10.063  14.696  69.316  1.00  0.00    -0.125 A  
HETATM   32  C   UNL     1     -10.358  16.063  69.125  1.00  0.00    -0.247 A  
HETATM   33  C   UNL     1     -12.684  15.649  69.572  1.00  0.00     0.255 A  
HETATM   34  C   UNL     1     -11.666  16.540  69.264  1.00  0.00     0.170 A  
ENDBRANCH  27  29
ENDBRANCH  26  27
ENDBRANCH   7  26
BRANCH   9  35
HETATM   35  O   UNL     1     -12.148   7.954  70.577  1.00  0.00    -0.072 OA 
BRANCH  35  36
HETATM   36  C   UNL     1     -12.557   7.400  71.757  1.00  0.00    -0.335 C  
HETATM   37  O   UNL     1     -12.366   7.831  72.862  1.00  0.00    -0.007 OA 
HETATM   38  C   UNL     1     -13.396   6.169  71.501  1.00  0.00     0.928 C  
ENDBRANCH  35  36
ENDBRANCH   9  35
TORSDOF 7
ENDMDL
MODEL      185
REMARK 921   NORMALIZED FREE ENERGY PREDICTED BY IDOCK:   41.21 KCAL/MOL
REMARK 922        TOTAL FREE ENERGY PREDICTED BY IDOCK:   57.44 KCAL/MOL
REMARK 923 INTER-LIGAND FREE ENERGY PREDICTED BY IDOCK:   53.26 KCAL/MOL
REMARK 924 INTRA-LIGAND FREE ENERGY PREDICTED BY IDOCK:    4.18 KCAL/MOL
REMARK 927      BINDING AFFINITY PREDICTED BY RF-SCORE:    0.00 PKD
ROOT
HETATM    1  C   UNL     1      -8.538  17.271  68.702  1.00  0.00    -0.265 C  
HETATM    2  C   UNL     1      -8.694  15.800  68.398  1.00  0.00    -0.177 C  
HETATM    3  C   UNL     1      -8.113  14.938  67.307  1.00  0.00    -0.234 C  
HETATM    4  C   UNL     1      -9.254  13.766  67.332  1.00  0.00    -0.221 C  
HETATM    5  O   UNL     1      -7.681  11.923  67.047  1.00  0.00    -0.157 OA 
HETATM    6  C   UNL     1      -9.971  13.993  68.904  1.00  0.00    -0.103 C  
HETATM    7  C   UNL     1      -8.764  14.774  69.522  1.00  0.00     0.117 C  
HETATM    8  C   UNL     1     -11.315  11.901  66.143  1.00  0.00    -0.383 C  
HETATM    9  C   UNL     1     -10.519  13.328  70.239  1.00  0.00     2.075 C  
HETATM   10  C   UNL     1     -11.570  12.267  70.451  1.00  0.00     0.048 C  
HETATM   11  C   UNL     1      -8.841  12.319  66.929  1.00  0.00    -0.207 C  
HETATM   12  C   UNL     1     -11.188   7.317  69.321  1.00  0.00     0.026 C  
HETATM   13  C   UNL     1      -9.930  11.369  66.398  1.00  0.00    -0.247 C  
HETATM   14  C   UNL     1      -9.354   7.038  67.648  1.00  0.00    -0.128 C  
HETATM   15  C   UNL     1     -10.424   7.955  68.173  1.00  0.00    -0.227 C  
HETATM   16  C   UNL     1     -11.019  10.872  70.445  1.00  0.00     0.060 C  
HETATM   17  C   UNL     1     -12.844  12.447  70.844  1.00  0.00    -0.176 C  
HETATM   18  C   UNL     1      -9.668  10.037  66.497  1.00  0.00    -0.254 C  
HETATM   19  C   UNL     1     -10.664   9.108  67.149  1.00  0.00    -0.213 C  
HETATM   20  C   UNL     1     -11.431  10.257  69.147  1.00  0.00    -0.210 C  
HETATM   21  C   UNL     1     -10.346   9.402  68.574  1.00  0.00    -0.236 C  
ENDROOT
BRANCH   4  22
HETATM   22  O   UNL     1     -10.088  14.288  66.204  1.00  0.00    -0.290 OA 
BRANCH  22  23
HETATM   23  C   UNL     1     -10.808  15.437  66.486  1.00  0.00    -0.298 C  
HETATM   24  C   UNL     1     -10.146  16.672  65.957  1.00  0.00    -0.359 C  
HETATM   25  O   UNL     1     -11.900  15.482  67.039  1.00  0.00     0.041 OA 
ENDBRANCH  22  23
ENDBRANCH   4  22
BRANCH   7  26
HETATM   26  O   UNL     1      -7.646  13.748  69.535  1.00  0.00     0.196 OA 
BRANCH  26  27
HETATM   27  C   UNL     1      -6.604  13.799  70.419  1.00  0.00     0.202 C  
HETATM   28  O   UNL     1      -5.712  14.636  70.377  1.00  0.00    -0.125 OA 
BRANCH  27  29
HETATM   29  C   UNL     1      -6.788  12.908  71.637  1.00  0.00     4.477 A  
HETATM   30  C   UNL     1      -8.091  12.760  72.172  1.00  0.00    15.632 A  
HETATM   31  C   UNL     1      -5.753  12.216  72.258  1.00  0.00     1.335 A  
HETATM   32  C   UNL     1      -6.008  11.371  73.360  1.00  0.00     2.618 A  
HETATM   33  C   UNL     1      -8.353  11.892  73.249  1.00  0.00    22.286 A  
HETATM   34  C   UNL     1      -7.308  11.202  73.847  1.00  0.00     9.104 A  
ENDBRANCH  27  29
ENDBRANCH  26  27
ENDBRANCH   7  26
BRANCH   9  35
HETATM   35  O   UNL     1     -10.815  14.355  71.286  1.00  0.00     0.633 OA 
BRANCH  35  36
HETATM   36  C   UNL     1     -11.886  15.200  71.216  1.00  0.00    -0.350 C  
HETATM   37  O   UNL     1     -11.884  16.337  70.827  1.00  0.00    -0.316 OA 
HETATM   38  C   UNL     1     -13.154  14.483  71.617  1.00  0.00    -0.416 C  
ENDBRANCH  35  36
ENDBRANCH   9  35
TORSDOF 7
ENDMDL
MODEL      186
REMARK 921   NORMALIZED FREE ENERGY PREDICTED BY IDOCK:   41.64 KCAL/MOL
REMARK 922        TOTAL FREE ENERGY PREDICTED BY IDOCK:   58.04 KCAL/MOL
REMARK 923 INTER-LIGAND FREE ENERGY PREDICTED BY IDOCK:   51.35 KCAL/MOL
REMARK 924 INTRA-LIGAND FREE ENERGY PREDICTED BY IDOCK:    6.70 KCAL/MOL
REMARK 927      BINDING AFFINITY PREDICTED BY RF-SCORE:    0.00 PKD
ROOT
HETATM    1  C   UNL     1     -12.551  14.371  66.429  1.00  0.00    -0.058 C  
HETATM    2  C   UNL     1     -12.191  13.514  67.619  1.00  0.00    -0.215 C  
HETATM    3  C   UNL     1     -13.032  12.951  68.735  1.00  0.00     1.978 C  
HETATM    4  C   UNL     1     -11.832  12.769  69.833  1.00  0.00    -0.301 C  
HETATM    5  O   UNL     1     -12.628  10.619  70.670  1.00  0.00    -0.328 OA 
HETATM    6  C   UNL     1     -10.413  12.777  68.822  1.00  0.00    -0.179 C  
HETATM    7  C   UNL     1     -11.155  12.404  67.497  1.00  0.00    -0.266 C  
HETATM    8  C   UNL     1     -10.492  13.073  72.526  1.00  0.00    12.238 C  
HETATM    9  C   UNL     1      -9.002  12.131  68.483  1.00  0.00    -0.082 C  
HETATM   10  C   UNL     1      -7.788  11.907  69.350  1.00  0.00     0.486 C  
HETATM   11  C   UNL     1     -11.959  11.630  70.889  1.00  0.00    -0.062 C  
HETATM   12  C   UNL     1      -7.311   8.529  73.130  1.00  0.00    -0.038 C  
HETATM   13  C   UNL     1     -11.202  11.782  72.221  1.00  0.00     7.177 C  
HETATM   14  C   UNL     1      -9.601   7.862  73.873  1.00  0.00     0.091 C  
HETATM   15  C   UNL     1      -8.760   8.961  73.282  1.00  0.00     0.698 C  
HETATM   16  C   UNL     1      -7.790  10.580  70.048  1.00  0.00     0.167 C  
HETATM   17  C   UNL     1      -6.661  12.642  69.383  1.00  0.00    -0.067 C  
HETATM   18  C   UNL     1     -10.945  10.631  72.902  1.00  0.00     8.604 C  
HETATM   19  C   UNL     1      -9.543  10.308  73.358  1.00  0.00    11.201 C  
HETATM   20  C   UNL     1      -8.097  10.855  71.485  1.00  0.00     6.634 C  
HETATM   21  C   UNL     1      -8.996   9.811  72.065  1.00  0.00     2.692 C  
ENDROOT
BRANCH   4  22
HETATM   22  O   UNL     1     -12.057  14.049  70.575  1.00  0.00    -0.316 OA 
BRANCH  22  23
HETATM   23  C   UNL     1     -11.855  15.203  69.835  1.00  0.00    -0.330 C  
HETATM   24  C   UNL     1     -12.284  16.436  70.569  1.00  0.00     0.598 C  
HETATM   25  O   UNL     1     -11.326  15.264  68.733  1.00  0.00    -0.272 OA 
ENDBRANCH  22  23
ENDBRANCH   4  22
BRANCH   7  26
HETATM   26  O   UNL     1     -11.672  11.002  67.762  1.00  0.00    -0.573 OA 
BRANCH  26  27
HETATM   27  C   UNL     1     -11.440   9.954  66.914  1.00  0.00     1.194 C  
HETATM   28  O   UNL     1     -11.370  10.063  65.696  1.00  0.00     1.105 OA 
BRANCH  27  29
HETATM   29  C   UNL     1     -10.988   8.684  67.616  1.00  0.00     0.086 A  
HETATM   30  C   UNL     1     -11.555   8.374  68.877  1.00  0.00     1.140 A  
HETATM   31  C   UNL     1     -10.057   7.793  67.090  1.00  0.00    -0.328 A  
HETATM   32  C   UNL     1      -9.720   6.608  67.781  1.00  0.00    -0.136 A  
HETATM   33  C   UNL     1     -11.245   7.178  69.551  1.00  0.00    -0.121 A  
HETATM   34  C   UNL     1     -10.323   6.298  69.005  1.00  0.00    -0.251 A  
ENDBRANCH  27  29
ENDBRANCH  26  27
ENDBRANCH   7  26
BRANCH   9  35
HETATM   35  O   UNL     1      -8.446  12.661  67.199  1.00  0.00    -0.184 OA 
BRANCH  35  36
HETATM   36  C   UNL     1      -8.927  13.786  66.590  1.00  0.00    -0.129 C  
HETATM   37  O   UNL     1      -8.501  14.904  66.699  1.00  0.00    -0.221 OA 
HETATM   38  C   UNL     1     -10.055  13.437  65.647  1.00  0.00    -0.285 C  
ENDBRANCH  35  36
ENDBRANCH   9  35
TORSDOF 7
ENDMDL
MODEL      187
REMARK 921   NORMALIZED FREE ENERGY PREDICTED BY IDOCK:   43.68 KCAL/MOL
REMARK 922        TOTAL FREE ENERGY PREDICTED BY IDOCK:   60.92 KCAL/MOL
REMARK 923 INTER-LIGAND FREE ENERGY PREDICTED BY IDOCK:   43.67 KCAL/MOL
REMARK 924 INTRA-LIGAND FREE ENERGY PREDICTED BY IDOCK:   17.25 KCAL/MOL
REMARK 927      BINDING AFFINITY PREDICTED BY RF-SCORE:    0.00 PKD
ROOT
HETATM    1  C   UNL     1     -12.662   8.939  63.463  1.00  0.00    19.844 C  
HETATM    2  C   UNL     1     -11.986   9.773  64.524  1.00  0.00     8.516 C  
HETATM    3  C   UNL     1     -12.452  10.986  65.289  1.00  0.00     3.257 C  
HETATM    4  C   UNL     1     -10.974  11.578  65.667  1.00  0.00    -0.236 C  
HETATM    5  O   UNL     1     -11.577  12.236  67.938  1.00  0.00    -0.312 OA 
HETATM    6  C   UNL     1      -9.959  10.176  65.465  1.00  0.00    -0.363 C  
HETATM    7  C   UNL     1     -11.111   9.123  65.588  1.00  0.00     3.181 C  
HETATM    8  C   UNL     1      -8.819  13.690  65.862  1.00  0.00     0.739 C  
HETATM    9  C   UNL     1      -8.773   9.283  66.031  1.00  0.00    -0.153 C  
HETATM   10  C   UNL     1      -7.359   9.649  66.406  1.00  0.00    -0.094 C  
HETATM   11  C   UNL     1     -10.817  12.398  66.982  1.00  0.00    -0.246 C  
HETATM   12  C   UNL     1      -5.879  12.402  70.426  1.00  0.00    -0.149 C  
HETATM   13  C   UNL     1      -9.662  13.412  67.077  1.00  0.00    -0.239 C  
HETATM   14  C   UNL     1      -7.839  13.726  71.229  1.00  0.00     5.536 C  
HETATM   15  C   UNL     1      -7.173  13.096  70.036  1.00  0.00     1.008 C  
HETATM   16  C   UNL     1      -7.211  10.063  67.840  1.00  0.00    -0.087 C  
HETATM   17  C   UNL     1      -6.242   9.439  65.686  1.00  0.00    -0.064 C  
HETATM   18  C   UNL     1      -9.265  13.756  68.334  1.00  0.00    -0.182 C  
HETATM   19  C   UNL     1      -7.812  13.661  68.730  1.00  0.00    -0.043 C  
HETATM   20  C   UNL     1      -7.020  11.545  67.838  1.00  0.00    -0.075 C  
HETATM   21  C   UNL     1      -7.741  12.194  68.976  1.00  0.00     0.128 C  
ENDROOT
BRANCH   4  22
HETATM   22  O   UNL     1     -10.872  12.567  64.547  1.00  0.00    -0.294 OA 
BRANCH  22  23
HETATM   23  C   UNL     1      -9.649  12.600  63.899  1.00  0.00     0.450 C  
HETATM   24  C   UNL     1      -9.762  12.256  62.445  1.00  0.00     2.396 C  
HETATM   25  O   UNL     1      -8.581  12.934  64.398  1.00  0.00     2.392 OA 
ENDBRANCH  22  23
ENDBRANCH   4  22
BRANCH   7  26
HETATM   26  O   UNL     1     -11.593   9.291  67.017  1.00  0.00     1.093 OA 
BRANCH  26  27
HETATM   27  C   UNL     1     -10.821   9.847  68.000  1.00  0.00    -0.243 C  
HETATM   28  O   UNL     1     -10.366  10.982  67.951  1.00  0.00    -0.176 OA 
BRANCH  27  29
HETATM   29  C   UNL     1     -10.805   9.050  69.294  1.00  0.00    -0.131 A  
HETATM   30  C   UNL     1      -9.942   7.929  69.384  1.00  0.00    -0.189 A  
HETATM   31  C   UNL     1     -11.580   9.359  70.408  1.00  0.00    -0.241 A  
HETATM   32  C   UNL     1     -11.478   8.598  71.593  1.00  0.00    -0.375 A  
HETATM   33  C   UNL     1      -9.815   7.191  70.575  1.00  0.00    -0.181 A  
HETATM   34  C   UNL     1     -10.588   7.522  71.678  1.00  0.00    -0.232 A  
ENDBRANCH  27  29
ENDBRANCH  26  27
ENDBRANCH   7  26
BRANCH   9  35
HETATM   35  O   UNL     1      -8.634   8.003  65.269  1.00  0.00    -0.153 OA 
BRANCH  35  36
HETATM   36  C   UNL     1      -8.651   6.775  65.869  1.00  0.00    -0.147 C  
HETATM   37  O   UNL     1      -8.258   5.739  65.405  1.00  0.00    -0.124 OA 
HETATM   38  C   UNL     1      -9.163   6.886  67.287  1.00  0.00    -0.137 C  
ENDBRANCH  35  36
ENDBRANCH   9  35
TORSDOF 7
ENDMDL
MODEL      188
REMARK 921   NORMALIZED FREE ENERGY PREDICTED BY IDOCK:   46.13 KCAL/MOL
REMARK 922        TOTAL FREE ENERGY PREDICTED BY IDOCK:   64.37 KCAL/MOL
REMARK 923 INTER-LIGAND FREE ENERGY PREDICTED BY IDOCK:   42.32 KCAL/MOL
REMARK 924 INTRA-LIGAND FREE ENERGY PREDICTED BY IDOCK:   22.05 KCAL/MOL
REMARK 927      BINDING AFFINITY PREDICTED BY RF-SCORE:    0.00 PKD
ROOT
HETATM    1  C   UNL     1      -5.568  10.137  68.892  1.00  0.00    -0.034 C  
HETATM    2  C   UNL     1      -6.592   9.043  68.711  1.00  0.00    -0.053 C  
HETATM    3  C   UNL     1      -7.433   8.648  67.525  1.00  0.00    -0.090 C  
HETATM    4  C   UNL     1      -8.631   7.901  68.353  1.00  0.00    -0.128 C  
HETATM    5  O   UNL     1      -8.878   6.061  66.768  1.00  0.00    -0.116 OA 
HETATM    6  C   UNL     1      -7.861   7.566  69.879  1.00  0.00    -0.107 C  
HETATM    7  C   UNL     1      -6.393   7.673  69.348  1.00  0.00    -0.035 C  
HETATM    8  C   UNL     1     -11.493   7.321  69.135  1.00  0.00     0.288 C  
HETATM    9  C   UNL     1      -7.602   6.528  71.054  1.00  0.00    -0.089 C  
HETATM   10  C   UNL     1      -8.569   5.772  71.930  1.00  0.00    -0.134 C  
HETATM   11  C   UNL     1      -9.397   6.734  67.660  1.00  0.00    -0.120 C  
HETATM   12  C   UNL     1     -11.591   1.920  70.532  1.00  0.00     6.261 C  
HETATM   13  C   UNL     1     -10.826   6.416  68.134  1.00  0.00    -0.386 C  
HETATM   14  C   UNL     1     -11.840   1.986  68.047  1.00  0.00    14.041 C  
HETATM   15  C   UNL     1     -11.619   2.799  69.293  1.00  0.00    11.749 C  
HETATM   16  C   UNL     1      -8.968   4.441  71.368  1.00  0.00    -0.164 C  
HETATM   17  C   UNL     1      -8.918   6.058  73.199  1.00  0.00    -0.130 C  
HETATM   18  C   UNL     1     -11.283   5.160  67.870  1.00  0.00     1.435 C  
HETATM   19  C   UNL     1     -11.859   4.308  68.975  1.00  0.00    10.240 C  
HETATM   20  C   UNL     1     -10.371   4.589  70.873  1.00  0.00    -0.074 C  
HETATM   21  C   UNL     1     -10.584   3.848  69.593  1.00  0.00     1.784 C  
ENDROOT
BRANCH   4  22
HETATM   22  O   UNL     1      -9.583   9.055  68.394  1.00  0.00    -0.149 OA 
BRANCH  22  23
HETATM   23  C   UNL     1     -10.035   9.491  67.159  1.00  0.00    -0.204 C  
HETATM   24  C   UNL     1     -11.177  10.454  67.275  1.00  0.00    -0.153 C  
HETATM   25  O   UNL     1      -9.545   9.204  66.074  1.00  0.00    -0.236 OA 
ENDBRANCH  22  23
ENDBRANCH   4  22
BRANCH   7  26
HETATM   26  O   UNL     1      -6.282   6.514  68.374  1.00  0.00    -0.029 OA 
BRANCH  26  27
HETATM   27  C   UNL     1      -7.370   5.821  67.920  1.00  0.00    -0.077 C  
HETATM   28  O   UNL     1      -8.292   6.329  67.294  1.00  0.00    -0.109 OA 
BRANCH  27  29
HETATM   29  C   UNL     1      -7.215   4.311  68.000  1.00  0.00    -0.064 A  
HETATM   30  C   UNL     1      -6.357   3.775  68.993  1.00  0.00    -0.029 A  
HETATM   31  C   UNL     1      -7.874   3.415  67.164  1.00  0.00    -0.079 A  
HETATM   32  C   UNL     1      -7.714   2.022  67.328  1.00  0.00    -0.061 A  
HETATM   33  C   UNL     1      -6.223   2.386  69.179  1.00  0.00    -0.025 A  
HETATM   34  C   UNL     1      -6.897   1.510  68.342  1.00  0.00    -0.032 A  
ENDBRANCH  27  29
ENDBRANCH  26  27
ENDBRANCH   7  26
BRANCH   9  35
HETATM   35  O   UNL     1      -6.551   7.016  72.001  1.00  0.00    -0.055 OA 
BRANCH  35  36
HETATM   36  C   UNL     1      -6.772   8.019  72.903  1.00  0.00    -0.083 C  
HETATM   37  O   UNL     1      -7.579   8.904  72.815  1.00  0.00    -0.360 OA 
HETATM   38  C   UNL     1      -5.905   7.831  74.126  1.00  0.00    -0.073 C  
ENDBRANCH  35  36
ENDBRANCH   9  35
TORSDOF 7
ENDMDL
MODEL      189
REMARK 921   NORMALIZED FREE ENERGY PREDICTED BY IDOCK:   47.33 KCAL/MOL
REMARK 922        TOTAL FREE ENERGY PREDICTED BY IDOCK:   66.07 KCAL/MOL
REMARK 923 INTER-LIGAND FREE ENERGY PREDICTED BY IDOCK:   16.58 KCAL/MOL
REMARK 924 INTRA-LIGAND FREE ENERGY PREDICTED BY IDOCK:   49.49 KCAL/MOL
REMARK 927      BINDING AFFINITY PREDICTED BY RF-SCORE:    0.00 PKD
ROOT
HETATM    1  C   UNL     1      -8.205   4.242  68.520  1.00  0.00    -0.087 C  
HETATM    2  C   UNL     1      -8.154   5.749  68.453  1.00  0.00    -0.108 C  
HETATM    3  C   UNL     1      -8.012   6.693  67.287  1.00  0.00    -0.117 C  
HETATM    4  C   UNL     1      -7.406   7.967  68.118  1.00  0.00    -0.099 C  
HETATM    5  O   UNL     1      -8.696   9.649  66.909  1.00  0.00    -0.129 OA 
HETATM    6  C   UNL     1      -7.882   7.591  69.752  1.00  0.00    -0.108 C  
HETATM    7  C   UNL     1      -9.030   6.601  69.363  1.00  0.00    -0.133 C  
HETATM    8  C   UNL     1      -5.453  10.200  68.700  1.00  0.00    -0.038 C  
HETATM    9  C   UNL     1      -8.484   8.109  71.128  1.00  0.00    -0.128 C  
HETATM   10  C   UNL     1      -8.048   9.235  72.031  1.00  0.00     0.684 C  
HETATM   11  C   UNL     1      -7.701   9.404  67.593  1.00  0.00    -0.088 C  
HETATM   12  C   UNL     1      -8.468  14.227  71.113  1.00  0.00     4.648 C  
HETATM   13  C   UNL     1      -6.727  10.534  67.971  1.00  0.00    -0.065 C  
HETATM   14  C   UNL     1      -8.750  14.546  68.652  1.00  0.00    -0.172 C  
HETATM   15  C   UNL     1      -8.152  13.684  69.730  1.00  0.00     1.320 C  
HETATM   16  C   UNL     1      -8.696  10.548  71.703  1.00  0.00     5.887 C  
HETATM   17  C   UNL     1      -7.347   9.140  73.176  1.00  0.00     0.721 C  
HETATM   18  C   UNL     1      -7.222  11.801  67.913  1.00  0.00    -0.092 C  
HETATM   19  C   UNL     1      -7.094  12.727  69.098  1.00  0.00     0.032 C  
HETATM   20  C   UNL     1      -7.648  11.388  71.047  1.00  0.00     4.724 C  
HETATM   21  C   UNL     1      -8.214  12.194  69.922  1.00  0.00     2.286 C  
ENDROOT
BRANCH   4  22
HETATM   22  O   UNL     1      -5.960   7.710  67.833  1.00  0.00    -0.037 OA 
BRANCH  22  23
HETATM   23  C   UNL     1      -5.698   6.570  67.092  1.00  0.00    -0.013 C  
HETATM   24  C   UNL     1      -6.076   6.724  65.651  1.00  0.00    -0.035 C  
HETATM   25  O   UNL     1      -5.156   5.553  67.508  1.00  0.00    -0.004 OA 
ENDBRANCH  22  23
ENDBRANCH   4  22
BRANCH   7  26
HETATM   26  O   UNL     1     -10.037   7.486  68.653  1.00  0.00    -0.174 OA 
BRANCH  26  27
HETATM   27  C   UNL     1      -9.938   7.806  67.327  1.00  0.00    -0.212 C  
HETATM   28  O   UNL     1     -10.324   7.081  66.419  1.00  0.00    -0.086 OA 
BRANCH  27  29
HETATM   29  C   UNL     1      -9.574   9.259  67.071  1.00  0.00    -0.223 A  
HETATM   30  C   UNL     1     -10.153  10.254  67.898  1.00  0.00    -0.200 A  
HETATM   31  C   UNL     1      -8.694   9.678  66.078  1.00  0.00    -0.155 A  
HETATM   32  C   UNL     1      -8.368  11.044  65.930  1.00  0.00    -0.119 A  
HETATM   33  C   UNL     1      -9.803  11.612  67.773  1.00  0.00    -0.186 A  
HETATM   34  C   UNL     1      -8.915  12.007  66.784  1.00  0.00    -0.198 A  
ENDBRANCH  27  29
ENDBRANCH  26  27
ENDBRANCH   7  26
BRANCH   9  35
HETATM   35  O   UNL     1      -8.776   6.978  72.063  1.00  0.00    -0.123 OA 
BRANCH  35  36
HETATM   36  C   UNL     1     -10.046   6.565  72.356  1.00  0.00    -0.171 C  
HETATM   37  O   UNL     1     -11.072   7.109  72.046  1.00  0.00    -0.234 OA 
HETATM   38  C   UNL     1     -10.018   5.235  73.073  1.00  0.00    -0.188 C  
ENDBRANCH  35  36
ENDBRANCH   9  35
TORSDOF 7
ENDMDL
MODEL      190
REMARK 921   NORMALIZED FREE ENERGY PREDICTED BY IDOCK:   48.32 KCAL/MOL
REMARK 922        TOTAL FREE ENERGY PREDICTED BY IDOCK:   67.45 KCAL/MOL
REMARK 923 INTER-LIGAND FREE ENERGY PREDICTED BY IDOCK:   67.64 KCAL/MOL
REMARK 924 INTRA-LIGAND FREE ENERGY PREDICTED BY IDOCK:   -0.19 KCAL/MOL
REMARK 927      BINDING AFFINITY PREDICTED BY RF-SCORE:    0.00 PKD
ROOT
HETATM    1  C   UNL     1     -14.146  15.068  70.312  1.00  0.00     1.135 C  
HETATM    2  C   UNL     1     -12.962  14.940  69.384  1.00  0.00     0.583 C  
HETATM    3  C   UNL     1     -12.696  14.012  68.227  1.00  0.00     0.912 C  
HETATM    4  C   UNL     1     -11.062  14.097  68.258  1.00  0.00    -0.254 C  
HETATM    5  O   UNL     1     -10.800  14.165  65.832  1.00  0.00    -0.287 OA 
HETATM    6  C   UNL     1     -10.794  15.571  69.149  1.00  0.00    -0.251 C  
HETATM    7  C   UNL     1     -12.215  16.175  68.896  1.00  0.00     0.340 C  
HETATM    8  C   UNL     1      -8.246  12.999  68.311  1.00  0.00    -0.150 C  
HETATM    9  C   UNL     1      -9.987  16.933  69.281  1.00  0.00    -0.184 C  
HETATM   10  C   UNL     1      -8.504  17.196  69.348  1.00  0.00     0.341 C  
HETATM   11  C   UNL     1     -10.283  13.911  66.921  1.00  0.00    -0.257 C  
HETATM   12  C   UNL     1      -5.140  16.726  65.555  1.00  0.00     1.874 C  
HETATM   13  C   UNL     1      -8.825  13.423  66.987  1.00  0.00    -0.217 C  
HETATM   14  C   UNL     1      -6.136  15.245  63.808  1.00  0.00    22.867 C  
HETATM   15  C   UNL     1      -6.083  15.569  65.276  1.00  0.00    10.024 C  
HETATM   16  C   UNL     1      -7.873  17.406  68.004  1.00  0.00    -0.207 C  
HETATM   17  C   UNL     1      -7.771  17.467  70.444  1.00  0.00     3.028 C  
HETATM   18  C   UNL     1      -8.044  13.707  65.908  1.00  0.00     2.432 C  
HETATM   19  C   UNL     1      -6.712  14.393  66.087  1.00  0.00     4.962 C  
HETATM   20  C   UNL     1      -7.093  16.168  67.701  1.00  0.00    -0.170 C  
HETATM   21  C   UNL     1      -7.200  15.790  66.258  1.00  0.00     1.161 C  
ENDROOT
BRANCH   4  22
HETATM   22  O   UNL     1     -10.821  12.854  69.055  1.00  0.00    -0.223 OA 
BRANCH  22  23
HETATM   23  C   UNL     1     -11.615  11.771  68.713  1.00  0.00    -0.307 C  
HETATM   24  C   UNL     1     -12.005  10.950  69.904  1.00  0.00    -0.430 C  
HETATM   25  O   UNL     1     -12.033  11.515  67.591  1.00  0.00    -0.630 OA 
ENDBRANCH  22  23
ENDBRANCH   4  22
BRANCH   7  26
HETATM   26  O   UNL     1     -12.243  16.400  67.396  1.00  0.00     1.067 OA 
BRANCH  26  27
HETATM   27  C   UNL     1     -12.357  17.643  66.835  1.00  0.00     4.643 C  
HETATM   28  O   UNL     1     -13.342  18.359  66.958  1.00  0.00     7.607 OA 
BRANCH  27  29
HETATM   29  C   UNL     1     -11.051  18.190  66.284  1.00  0.00     0.508 A  
HETATM   30  C   UNL     1     -10.786  19.574  66.432  1.00  0.00    -0.528 A  
HETATM   31  C   UNL     1     -10.088  17.413  65.649  1.00  0.00    -0.034 A  
HETATM   32  C   UNL     1      -8.876  17.985  65.202  1.00  0.00     2.594 A  
HETATM   33  C   UNL     1      -9.565  20.140  66.018  1.00  0.00    -0.380 A  
HETATM   34  C   UNL     1      -8.613  19.345  65.397  1.00  0.00     0.952 A  
ENDBRANCH  27  29
ENDBRANCH  26  27
ENDBRANCH   7  26
BRANCH   9  35
HETATM   35  O   UNL     1     -10.568  17.818  70.338  1.00  0.00     0.751 OA 
BRANCH  35  36
HETATM   36  C   UNL     1     -10.341  19.165  70.387  1.00  0.00     1.536 C  
HETATM   37  O   UNL     1     -10.392  19.939  69.469  1.00  0.00    -0.220 OA 
HETATM   38  C   UNL     1     -10.095  19.610  71.810  1.00  0.00     3.057 C  
ENDBRANCH  35  36
ENDBRANCH   9  35
TORSDOF 7
ENDMDL
MODEL      191
REMARK 921   NORMALIZED FREE ENERGY PREDICTED BY IDOCK:   50.15 KCAL/MOL
REMARK 922        TOTAL FREE ENERGY PREDICTED BY IDOCK:   70.04 KCAL/MOL
REMARK 923 INTER-LIGAND FREE ENERGY PREDICTED BY IDOCK:   66.21 KCAL/MOL
REMARK 924 INTRA-LIGAND FREE ENERGY PREDICTED BY IDOCK:    3.83 KCAL/MOL
REMARK 927      BINDING AFFINITY PREDICTED BY RF-SCORE:    0.00 PKD
ROOT
HETATM    1  C   UNL     1      -5.499  13.083  69.379  1.00  0.00    -0.080 C  
HETATM    2  C   UNL     1      -6.391  12.518  68.301  1.00  0.00    -0.062 C  
HETATM    3  C   UNL     1      -6.108  12.123  66.875  1.00  0.00    -0.014 C  
HETATM    4  C   UNL     1      -7.636  12.268  66.307  1.00  0.00     0.765 C  
HETATM    5  O   UNL     1      -7.537  10.272  64.905  1.00  0.00    -0.143 OA 
HETATM    6  C   UNL     1      -8.575  12.191  67.773  1.00  0.00    -0.164 C  
HETATM    7  C   UNL     1      -7.471  11.497  68.637  1.00  0.00    -0.116 C  
HETATM    8  C   UNL     1      -9.794  13.221  64.417  1.00  0.00     0.149 C  
HETATM    9  C   UNL     1      -9.850  11.610  68.522  1.00  0.00    -0.193 C  
HETATM   10  C   UNL     1     -11.313  11.668  68.164  1.00  0.00    -0.358 C  
HETATM   11  C   UNL     1      -8.075  11.360  65.120  1.00  0.00     0.621 C  
HETATM   12  C   UNL     1     -13.636   9.176  64.380  1.00  0.00    19.451 C  
HETATM   13  C   UNL     1      -9.229  11.840  64.221  1.00  0.00     0.236 C  
HETATM   14  C   UNL     1     -11.902   8.484  62.721  1.00  0.00    18.319 C  
HETATM   15  C   UNL     1     -12.293   9.506  63.753  1.00  0.00    12.958 C  
HETATM   16  C   UNL     1     -11.768  10.515  67.321  1.00  0.00     0.773 C  
HETATM   17  C   UNL     1     -12.249  12.486  68.680  1.00  0.00     0.041 C  
HETATM   18  C   UNL     1      -9.889  10.876  63.520  1.00  0.00    -0.407 C  
HETATM   19  C   UNL     1     -11.392  10.771  63.593  1.00  0.00     1.012 C  
HETATM   20  C   UNL     1     -11.962  11.047  65.938  1.00  0.00     1.655 C  
HETATM   21  C   UNL     1     -11.506  10.070  64.903  1.00  0.00     3.702 C  
ENDROOT
BRANCH   4  22
HETATM   22  O   UNL     1      -7.501  13.648  65.745  1.00  0.00     3.218 OA 
BRANCH  22  23
HETATM   23  C   UNL     1      -8.515  14.527  66.088  1.00  0.00     0.761 C  
HETATM   24  C   UNL     1      -7.992  15.834  66.599  1.00  0.00    -0.233 C  
HETATM   25  O   UNL     1      -9.715  14.329  65.942  1.00  0.00    -0.303 OA 
ENDBRANCH  22  23
ENDBRANCH   4  22
BRANCH   7  26
HETATM   26  O   UNL     1      -7.307  10.139  67.979  1.00  0.00    -0.085 OA 
BRANCH  26  27
HETATM   27  C   UNL     1      -7.034   9.000  68.687  1.00  0.00    -0.063 C  
HETATM   28  O   UNL     1      -6.013   8.830  69.341  1.00  0.00    -0.037 OA 
BRANCH  27  29
HETATM   29  C   UNL     1      -8.227   8.070  68.838  1.00  0.00    -0.125 A  
HETATM   30  C   UNL     1      -9.355   8.282  68.007  1.00  0.00    -0.141 A  
HETATM   31  C   UNL     1      -8.277   7.008  69.736  1.00  0.00    -0.131 A  
HETATM   32  C   UNL     1      -9.403   6.158  69.787  1.00  0.00    -0.162 A  
HETATM   33  C   UNL     1     -10.463   7.415  68.033  1.00  0.00    -0.253 A  
HETATM   34  C   UNL     1     -10.489   6.356  68.929  1.00  0.00    -0.264 A  
ENDBRANCH  27  29
ENDBRANCH  26  27
ENDBRANCH   7  26
BRANCH   9  35
HETATM   35  O   UNL     1      -9.815  11.914  69.986  1.00  0.00     1.566 OA 
BRANCH  35  36
HETATM   36  C   UNL     1     -10.411  11.119  70.925  1.00  0.00     2.656 C  
HETATM   37  O   UNL     1      -9.986  10.088  71.372  1.00  0.00     0.399 OA 
HETATM   38  C   UNL     1     -11.685  11.757  71.429  1.00  0.00     1.261 C  
ENDBRANCH  35  36
ENDBRANCH   9  35
TORSDOF 7
ENDMDL
MODEL      192
REMARK 921   NORMALIZED FREE ENERGY PREDICTED BY IDOCK:   51.33 KCAL/MOL
REMARK 922        TOTAL FREE ENERGY PREDICTED BY IDOCK:   71.70 KCAL/MOL
REMARK 923 INTER-LIGAND FREE ENERGY PREDICTED BY IDOCK:   65.43 KCAL/MOL
REMARK 924 INTRA-LIGAND FREE ENERGY PREDICTED BY IDOCK:    6.27 KCAL/MOL
REMARK 927      BINDING AFFINITY PREDICTED BY RF-SCORE:    0.00 PKD
ROOT
HETATM    1  C   UNL     1     -12.003  15.462  66.539  1.00  0.00     0.437 C  
HETATM    2  C   UNL     1     -11.304  16.049  67.741  1.00  0.00    -0.167 C  
HETATM    3  C   UNL     1     -11.576  15.918  69.218  1.00  0.00    -0.372 C  
HETATM    4  C   UNL     1     -10.846  17.304  69.692  1.00  0.00     0.308 C  
HETATM    5  O   UNL     1      -9.840  16.345  71.698  1.00  0.00     3.490 OA 
HETATM    6  C   UNL     1      -9.802  17.644  68.338  1.00  0.00    -0.334 C  
HETATM    7  C   UNL     1      -9.787  16.185  67.774  1.00  0.00    -0.232 C  
HETATM    8  C   UNL     1     -10.637  19.959  71.122  1.00  0.00     2.905 C  
HETATM    9  C   UNL     1      -8.368  18.100  67.829  1.00  0.00    -0.250 C  
HETATM   10  C   UNL     1      -7.562  19.337  68.136  1.00  0.00    -0.325 C  
HETATM   11  C   UNL     1     -10.220  17.363  71.117  1.00  0.00     3.202 C  
HETATM   12  C   UNL     1      -5.264  20.473  72.536  1.00  0.00     0.846 C  
HETATM   13  C   UNL     1     -10.058  18.739  71.787  1.00  0.00     4.227 C  
HETATM   14  C   UNL     1      -6.316  19.104  74.341  1.00  0.00    14.416 C  
HETATM   15  C   UNL     1      -6.530  19.785  73.017  1.00  0.00     3.400 C  
HETATM   16  C   UNL     1      -6.660  19.181  69.324  1.00  0.00    -0.341 C  
HETATM   17  C   UNL     1      -7.414  20.429  67.363  1.00  0.00    -0.361 C  
HETATM   18  C   UNL     1      -9.123  18.822  72.775  1.00  0.00     9.059 C  
HETATM   19  C   UNL     1      -8.061  19.893  72.734  1.00  0.00     3.430 C  
HETATM   20  C   UNL     1      -7.280  19.964  70.436  1.00  0.00     0.438 C  
HETATM   21  C   UNL     1      -7.141  19.261  71.748  1.00  0.00     2.697 C  
ENDROOT
BRANCH   4  22
HETATM   22  O   UNL     1     -12.073  18.159  69.742  1.00  0.00     5.458 OA 
BRANCH  22  23
HETATM   23  C   UNL     1     -12.318  18.906  68.602  1.00  0.00     6.732 C  
HETATM   24  C   UNL     1     -11.194  19.843  68.278  1.00  0.00     0.919 C  
HETATM   25  O   UNL     1     -13.295  18.799  67.871  1.00  0.00     6.124 OA 
ENDBRANCH  22  23
ENDBRANCH   4  22
BRANCH   7  26
HETATM   26  O   UNL     1      -9.087  15.391  68.861  1.00  0.00    -0.189 OA 
BRANCH  26  27
HETATM   27  C   UNL     1      -7.885  14.768  68.668  1.00  0.00    -0.140 C  
HETATM   28  O   UNL     1      -6.897  14.957  69.366  1.00  0.00    -0.138 OA 
BRANCH  27  29
HETATM   29  C   UNL     1      -7.946  13.603  67.693  1.00  0.00    -0.180 A  
HETATM   30  C   UNL     1      -6.923  12.625  67.748  1.00  0.00    -0.125 A  
HETATM   31  C   UNL     1      -8.957  13.429  66.752  1.00  0.00    -0.190 A  
HETATM   32  C   UNL     1      -8.971  12.296  65.909  1.00  0.00     0.135 A  
HETATM   33  C   UNL     1      -6.954  11.478  66.933  1.00  0.00    -0.134 A  
HETATM   34  C   UNL     1      -7.976  11.317  66.008  1.00  0.00     0.020 A  
ENDBRANCH  27  29
ENDBRANCH  26  27
ENDBRANCH   7  26
BRANCH   9  35
HETATM   35  O   UNL     1      -8.226  17.925  66.350  1.00  0.00    -0.259 OA 
BRANCH  35  36
HETATM   36  C   UNL     1      -7.490  18.772  65.568  1.00  0.00     0.158 C  
HETATM   37  O   UNL     1      -7.520  19.973  65.579  1.00  0.00    -0.323 OA 
HETATM   38  C   UNL     1      -6.521  17.992  64.710  1.00  0.00     1.089 C  
ENDBRANCH  35  36
ENDBRANCH   9  35
TORSDOF 7
ENDMDL
MODEL      193
REMARK 921   NORMALIZED FREE ENERGY PREDICTED BY IDOCK:   64.79 KCAL/MOL
REMARK 922        TOTAL FREE ENERGY PREDICTED BY IDOCK:   90.67 KCAL/MOL
REMARK 923 INTER-LIGAND FREE ENERGY PREDICTED BY IDOCK:   11.78 KCAL/MOL
REMARK 924 INTRA-LIGAND FREE ENERGY PREDICTED BY IDOCK:   78.89 KCAL/MOL
REMARK 927      BINDING AFFINITY PREDICTED BY RF-SCORE:    0.00 PKD
ROOT
HETATM    1  C   UNL     1      -9.856   3.553  68.421  1.00  0.00     0.100 C  
HETATM    2  C   UNL     1      -9.566   4.856  67.716  1.00  0.00    -0.184 C  
HETATM    3  C   UNL     1      -9.326   5.173  66.262  1.00  0.00    -0.155 C  
HETATM    4  C   UNL     1      -8.485   6.560  66.484  1.00  0.00    -0.120 C  
HETATM    5  O   UNL     1      -9.540   7.753  64.634  1.00  0.00     1.579 OA 
HETATM    6  C   UNL     1      -8.941   7.003  68.107  1.00  0.00    -0.127 C  
HETATM    7  C   UNL     1     -10.250   6.147  68.148  1.00  0.00    -0.175 C  
HETATM    8  C   UNL     1      -6.173   8.470  66.109  1.00  0.00    -0.052 C  
HETATM    9  C   UNL     1      -9.388   8.151  69.110  1.00  0.00    -0.151 C  
HETATM   10  C   UNL     1      -8.735   9.466  69.456  1.00  0.00    -0.162 C  
HETATM   11  C   UNL     1      -8.568   7.662  65.385  1.00  0.00    -0.053 C  
HETATM   12  C   UNL     1      -8.384  13.580  66.476  1.00  0.00     0.426 C  
HETATM   13  C   UNL     1      -7.407   8.667  65.271  1.00  0.00    -0.085 C  
HETATM   14  C   UNL     1      -8.722  12.859  64.108  1.00  0.00     3.419 C  
HETATM   15  C   UNL     1      -8.224  12.454  65.468  1.00  0.00     1.657 C  
HETATM   16  C   UNL     1      -9.176  10.599  68.579  1.00  0.00    -0.170 C  
HETATM   17  C   UNL     1      -8.007   9.754  70.550  1.00  0.00    -0.059 C  
HETATM   18  C   UNL     1      -7.694   9.851  64.661  1.00  0.00    -0.142 C  
HETATM   19  C   UNL     1      -7.364  11.159  65.338  1.00  0.00     0.418 C  
HETATM   20  C   UNL     1      -8.038  10.893  67.656  1.00  0.00    -0.115 C  
HETATM   21  C   UNL     1      -8.517  11.222  66.279  1.00  0.00    -0.156 C  
ENDROOT
BRANCH   4  22
HETATM   22  O   UNL     1      -7.114   5.971  66.378  1.00  0.00    -0.065 OA 
BRANCH  22  23
HETATM   23  C   UNL     1      -6.504   6.113  65.143  1.00  0.00    -0.039 C  
HETATM   24  C   UNL     1      -7.336   5.558  64.027  1.00  0.00    -0.058 C  
HETATM   25  O   UNL     1      -5.441   6.682  64.929  1.00  0.00    -0.025 OA 
ENDBRANCH  22  23
ENDBRANCH   4  22
BRANCH   7  26
HETATM   26  O   UNL     1     -11.132   6.797  67.098  1.00  0.00    -0.384 OA 
BRANCH  26  27
HETATM   27  C   UNL     1     -11.402   8.138  67.084  1.00  0.00     1.253 C  
HETATM   28  O   UNL     1     -11.941   8.716  66.150  1.00  0.00     5.457 OA 
BRANCH  27  29
HETATM   29  C   UNL     1     -11.240   8.812  68.436  1.00  0.00     0.441 A  
HETATM   30  C   UNL     1      -9.970   8.769  69.062  1.00  0.00    -0.197 A  
HETATM   31  C   UNL     1     -12.264   9.483  69.098  1.00  0.00     1.401 A  
HETATM   32  C   UNL     1     -12.026  10.125  70.334  1.00  0.00    -0.353 A  
HETATM   33  C   UNL     1      -9.723   9.437  70.276  1.00  0.00    -0.292 A  
HETATM   34  C   UNL     1     -10.754  10.110  70.915  1.00  0.00    -0.059 A  
ENDBRANCH  27  29
ENDBRANCH  26  27
ENDBRANCH   7  26
BRANCH   9  35
HETATM   35  O   UNL     1      -9.816   7.593  70.431  1.00  0.00    -0.183 OA 
BRANCH  35  36
HETATM   36  C   UNL     1     -10.903   8.058  71.117  1.00  0.00    -0.238 C  
HETATM   37  O   UNL     1     -11.550   9.039  70.865  1.00  0.00    -0.279 OA 
HETATM   38  C   UNL     1     -11.275   7.105  72.229  1.00  0.00    -0.297 C  
ENDBRANCH  35  36
ENDBRANCH   9  35
TORSDOF 7
ENDMDL
MODEL      194
REMARK 921   NORMALIZED FREE ENERGY PREDICTED BY IDOCK:   66.02 KCAL/MOL
REMARK 922        TOTAL FREE ENERGY PREDICTED BY IDOCK:   92.40 KCAL/MOL
REMARK 923 INTER-LIGAND FREE ENERGY PREDICTED BY IDOCK:   64.49 KCAL/MOL
REMARK 924 INTRA-LIGAND FREE ENERGY PREDICTED BY IDOCK:   27.90 KCAL/MOL
REMARK 927      BINDING AFFINITY PREDICTED BY RF-SCORE:    0.00 PKD
ROOT
HETATM    1  C   UNL     1     -12.635  18.486  65.019  1.00  0.00    10.380 C  
HETATM    2  C   UNL     1     -11.809  18.045  66.203  1.00  0.00     3.240 C  
HETATM    3  C   UNL     1     -12.016  18.217  67.686  1.00  0.00     2.623 C  
HETATM    4  C   UNL     1     -10.450  18.068  68.138  1.00  0.00    -0.361 C  
HETATM    5  O   UNL     1     -10.923  16.733  70.125  1.00  0.00    -0.264 OA 
HETATM    6  C   UNL     1      -9.752  17.262  66.759  1.00  0.00    -0.285 C  
HETATM    7  C   UNL     1     -11.100  16.697  66.201  1.00  0.00     0.271 C  
HETATM    8  C   UNL     1      -7.902  18.872  69.552  1.00  0.00     0.249 C  
HETATM    9  C   UNL     1      -8.785  16.124  66.217  1.00  0.00    -0.337 C  
HETATM   10  C   UNL     1      -7.330  15.852  66.501  1.00  0.00     0.177 C  
HETATM   11  C   UNL     1     -10.137  17.487  69.549  1.00  0.00     0.059 C  
HETATM   12  C   UNL     1      -5.342  14.086  70.843  1.00  0.00    -0.148 C  
HETATM   13  C   UNL     1      -8.797  17.855  70.209  1.00  0.00     3.049 C  
HETATM   14  C   UNL     1      -6.987  14.495  72.677  1.00  0.00     3.037 C  
HETATM   15  C   UNL     1      -6.457  14.980  71.356  1.00  0.00     0.782 C  
HETATM   16  C   UNL     1      -7.111  14.937  67.669  1.00  0.00    -0.208 C  
HETATM   17  C   UNL     1      -6.275  16.150  65.720  1.00  0.00     3.524 C  
HETATM   18  C   UNL     1      -8.348  17.006  71.175  1.00  0.00     7.238 C  
HETATM   19  C   UNL     1      -6.951  16.439  71.106  1.00  0.00     3.289 C  
HETATM   20  C   UNL     1      -6.613  15.789  68.791  1.00  0.00    -0.113 C  
HETATM   21  C   UNL     1      -7.192  15.366  70.102  1.00  0.00     0.158 C  
ENDROOT
BRANCH   4  22
HETATM   22  O   UNL     1     -10.133  19.529  68.212  1.00  0.00    -0.390 OA 
BRANCH  22  23
HETATM   23  C   UNL     1      -9.502  19.937  69.375  1.00  0.00     0.130 C  
HETATM   24  C   UNL     1      -8.028  19.670  69.350  1.00  0.00     0.032 C  
HETATM   25  O   UNL     1     -10.033  20.517  70.313  1.00  0.00     0.467 OA 
ENDBRANCH  22  23
ENDBRANCH   4  22
BRANCH   7  26
HETATM   26  O   UNL     1     -11.549  15.725  67.276  1.00  0.00    -0.067 OA 
BRANCH  26  27
HETATM   27  C   UNL     1     -10.723  15.291  68.276  1.00  0.00    -0.254 C  
HETATM   28  O   UNL     1     -10.382  15.980  69.229  1.00  0.00    -0.217 OA 
BRANCH  27  29
HETATM   29  C   UNL     1     -10.485  13.789  68.268  1.00  0.00    -0.251 A  
HETATM   30  C   UNL     1     -10.622  13.080  69.487  1.00  0.00     0.371 A  
HETATM   31  C   UNL     1     -10.152  13.060  67.131  1.00  0.00    -0.244 A  
HETATM   32  C   UNL     1      -9.991  11.659  67.193  1.00  0.00    -0.219 A  
HETATM   33  C   UNL     1     -10.495  11.679  69.544  1.00  0.00     0.175 A  
HETATM   34  C   UNL     1     -10.173  10.969  68.396  1.00  0.00    -0.198 A  
ENDBRANCH  27  29
ENDBRANCH  26  27
ENDBRANCH   7  26
BRANCH   9  35
HETATM   35  O   UNL     1      -8.910  15.954  64.736  1.00  0.00     1.861 OA 
BRANCH  35  36
HETATM   36  C   UNL     1      -9.105  14.739  64.141  1.00  0.00     6.608 C  
HETATM   37  O   UNL     1      -9.998  13.964  64.358  1.00  0.00    -0.215 OA 
HETATM   38  C   UNL     1      -8.072  14.504  63.063  1.00  0.00    20.546 C  
ENDBRANCH  35  36
ENDBRANCH   9  35
TORSDOF 7
ENDMDL
MODEL      195
REMARK 921   NORMALIZED FREE ENERGY PREDICTED BY IDOCK:   67.29 KCAL/MOL
REMARK 922        TOTAL FREE ENERGY PREDICTED BY IDOCK:   94.18 KCAL/MOL
REMARK 923 INTER-LIGAND FREE ENERGY PREDICTED BY IDOCK:   75.86 KCAL/MOL
REMARK 924 INTRA-LIGAND FREE ENERGY PREDICTED BY IDOCK:   18.33 KCAL/MOL
REMARK 927      BINDING AFFINITY PREDICTED BY RF-SCORE:    0.00 PKD
ROOT
HETATM    1  C   UNL     1     -13.837  12.038  69.680  1.00  0.00     5.219 C  
HETATM    2  C   UNL     1     -12.698  12.929  70.114  1.00  0.00     0.133 C  
HETATM    3  C   UNL     1     -12.176  13.287  71.481  1.00  0.00     0.094 C  
HETATM    4  C   UNL     1     -11.464  14.703  71.072  1.00  0.00    -0.161 C  
HETATM    5  O   UNL     1      -9.488  14.364  72.463  1.00  0.00     5.251 OA 
HETATM    6  C   UNL     1     -11.287  14.533  69.347  1.00  0.00    -0.314 C  
HETATM    7  C   UNL     1     -11.396  12.973  69.325  1.00  0.00    -0.251 C  
HETATM    8  C   UNL     1     -10.860  17.655  71.317  1.00  0.00     2.177 C  
HETATM    9  C   UNL     1     -10.363  14.715  68.067  1.00  0.00    -0.235 C  
HETATM   10  C   UNL     1      -9.654  15.933  67.530  1.00  0.00    -0.221 C  
HETATM   11  C   UNL     1     -10.218  15.169  71.883  1.00  0.00     2.090 C  
HETATM   12  C   UNL     1      -5.598  18.251  69.557  1.00  0.00    -0.220 C  
HETATM   13  C   UNL     1      -9.894  16.673  71.925  1.00  0.00     6.175 C  
HETATM   14  C   UNL     1      -5.443  17.589  71.961  1.00  0.00     0.948 C  
HETATM   15  C   UNL     1      -6.367  17.831  70.799  1.00  0.00     1.221 C  
HETATM   16  C   UNL     1      -8.267  16.103  68.073  1.00  0.00    -0.152 C  
HETATM   17  C   UNL     1     -10.035  16.714  66.503  1.00  0.00    -0.296 C  
HETATM   18  C   UNL     1      -8.606  17.005  72.218  1.00  0.00    14.711 C  
HETATM   19  C   UNL     1      -7.834  17.940  71.320  1.00  0.00     7.474 C  
HETATM   20  C   UNL     1      -8.326  17.234  69.049  1.00  0.00    -0.090 C  
HETATM   21  C   UNL     1      -7.471  16.973  70.247  1.00  0.00     2.047 C  
ENDROOT
BRANCH   4  22
HETATM   22  O   UNL     1     -12.586  15.606  71.481  1.00  0.00    -0.390 OA 
BRANCH  22  23
HETATM   23  C   UNL     1     -12.741  16.742  70.705  1.00  0.00     3.638 C  
HETATM   24  C   UNL     1     -11.955  17.905  71.227  1.00  0.00     6.202 C  
HETATM   25  O   UNL     1     -13.382  16.816  69.663  1.00  0.00     3.249 OA 
ENDBRANCH  22  23
ENDBRANCH   4  22
BRANCH   7  26
HETATM   26  O   UNL     1     -10.162  12.520  70.083  1.00  0.00     1.767 OA 
BRANCH  26  27
HETATM   27  C   UNL     1      -8.895  12.652  69.584  1.00  0.00     2.067 C  
HETATM   28  O   UNL     1      -8.600  13.395  68.657  1.00  0.00    -0.111 OA 
BRANCH  27  29
HETATM   29  C   UNL     1      -7.822  12.021  70.457  1.00  0.00     4.309 A  
HETATM   30  C   UNL     1      -7.160  12.838  71.406  1.00  0.00     5.219 A  
HETATM   31  C   UNL     1      -7.455  10.680  70.391  1.00  0.00     0.670 A  
HETATM   32  C   UNL     1      -6.480  10.155  71.267  1.00  0.00     0.321 A  
HETATM   33  C   UNL     1      -6.212  12.309  72.302  1.00  0.00     3.280 A  
HETATM   34  C   UNL     1      -5.868  10.967  72.227  1.00  0.00     1.198 A  
ENDBRANCH  27  29
ENDBRANCH  26  27
ENDBRANCH   7  26
BRANCH   9  35
HETATM   35  O   UNL     1     -10.965  14.074  66.857  1.00  0.00    -0.291 OA 
BRANCH  35  36
HETATM   36  C   UNL     1     -10.923  12.727  66.630  1.00  0.00    -0.270 C  
HETATM   37  O   UNL     1     -10.276  12.155  65.795  1.00  0.00    -0.240 OA 
HETATM   38  C   UNL     1     -11.754  11.992  67.656  1.00  0.00    -0.365 C  
ENDBRANCH  35  36
ENDBRANCH   9  35
TORSDOF 7
ENDMDL
MODEL      196
REMARK 921   NORMALIZED FREE ENERGY PREDICTED BY IDOCK:   69.76 KCAL/MOL
REMARK 922        TOTAL FREE ENERGY PREDICTED BY IDOCK:   97.67 KCAL/MOL
REMARK 923 INTER-LIGAND FREE ENERGY PREDICTED BY IDOCK:   80.51 KCAL/MOL
REMARK 924 INTRA-LIGAND FREE ENERGY PREDICTED BY IDOCK:   17.16 KCAL/MOL
REMARK 927      BINDING AFFINITY PREDICTED BY RF-SCORE:    0.00 PKD
ROOT
HETATM    1  C   UNL     1     -13.696  14.435  68.934  1.00  0.00     5.233 C  
HETATM    2  C   UNL     1     -12.613  13.421  68.655  1.00  0.00     0.611 C  
HETATM    3  C   UNL     1     -12.222  12.154  69.371  1.00  0.00    -0.135 C  
HETATM    4  C   UNL     1     -10.673  12.085  68.848  1.00  0.00    -0.185 C  
HETATM    5  O   UNL     1     -10.668   9.669  68.502  1.00  0.00    -0.219 OA 
HETATM    6  C   UNL     1     -10.721  13.111  67.440  1.00  0.00    -0.262 C  
HETATM    7  C   UNL     1     -12.268  13.021  67.226  1.00  0.00    -0.120 C  
HETATM    8  C   UNL     1      -7.675  11.828  69.139  1.00  0.00     0.115 C  
HETATM    9  C   UNL     1     -10.294  13.335  65.926  1.00  0.00    -0.292 C  
HETATM   10  C   UNL     1      -8.933  13.331  65.277  1.00  0.00     1.313 C  
HETATM   11  C   UNL     1     -10.002  10.686  68.698  1.00  0.00    -0.181 C  
HETATM   12  C   UNL     1      -5.936   9.291  64.483  1.00  0.00    -0.071 C  
HETATM   13  C   UNL     1      -8.467  10.601  68.776  1.00  0.00    -0.149 C  
HETATM   14  C   UNL     1      -6.666   7.465  66.023  1.00  0.00    -0.053 C  
HETATM   15  C   UNL     1      -6.563   8.952  65.825  1.00  0.00    -0.064 C  
HETATM   16  C   UNL     1      -8.509  11.978  64.787  1.00  0.00     1.498 C  
HETATM   17  C   UNL     1      -8.198  14.398  64.912  1.00  0.00     7.169 C  
HETATM   18  C   UNL     1      -7.894   9.509  68.197  1.00  0.00    -0.083 C  
HETATM   19  C   UNL     1      -6.780   9.671  67.193  1.00  0.00    -0.075 C  
HETATM   20  C   UNL     1      -7.462  11.490  65.736  1.00  0.00     0.547 C  
HETATM   21  C   UNL     1      -7.600  10.026  66.002  1.00  0.00    -0.111 C  
ENDROOT
BRANCH   4  22
HETATM   22  O   UNL     1     -10.038  12.723  70.043  1.00  0.00     1.643 OA 
BRANCH  22  23
HETATM   23  C   UNL     1      -9.557  14.006  69.841  1.00  0.00     1.358 C  
HETATM   24  C   UNL     1      -8.160  14.181  70.351  1.00  0.00     2.052 C  
HETATM   25  O   UNL     1     -10.143  14.908  69.254  1.00  0.00    -0.224 OA 
ENDBRANCH  22  23
ENDBRANCH   4  22
BRANCH   7  26
HETATM   26  O   UNL     1     -12.495  11.560  66.887  1.00  0.00     0.628 OA 
BRANCH  26  27
HETATM   27  C   UNL     1     -12.014  10.979  65.746  1.00  0.00     1.743 C  
HETATM   28  O   UNL     1     -11.404  11.587  64.876  1.00  0.00    -0.230 OA 
BRANCH  27  29
HETATM   29  C   UNL     1     -12.039   9.460  65.772  1.00  0.00     8.604 A  
HETATM   30  C   UNL     1     -12.357   8.772  64.574  1.00  0.00    18.346 A  
HETATM   31  C   UNL     1     -11.758   8.695  66.900  1.00  0.00     3.677 A  
HETATM   32  C   UNL     1     -11.758   7.285  66.835  1.00  0.00     2.035 A  
HETATM   33  C   UNL     1     -12.323   7.367  64.500  1.00  0.00    18.824 A  
HETATM   34  C   UNL     1     -12.030   6.623  65.633  1.00  0.00     6.058 A  
ENDBRANCH  27  29
ENDBRANCH  26  27
ENDBRANCH   7  26
BRANCH   9  35
HETATM   35  O   UNL     1     -10.985  14.519  65.327  1.00  0.00    -0.320 OA 
BRANCH  35  36
HETATM   36  C   UNL     1     -11.759  15.376  66.059  1.00  0.00     0.215 C  
HETATM   37  O   UNL     1     -11.739  16.577  66.023  1.00  0.00     0.857 OA 
HETATM   38  C   UNL     1     -12.756  14.607  66.894  1.00  0.00     0.756 C  
ENDBRANCH  35  36
ENDBRANCH   9  35
TORSDOF 7
ENDMDL
MODEL      197
REMARK 921   NORMALIZED FREE ENERGY PREDICTED BY IDOCK:   71.70 KCAL/MOL
REMARK 922        TOTAL FREE ENERGY PREDICTED BY IDOCK:  100.41 KCAL/MOL
REMARK 923 INTER-LIGAND FREE ENERGY PREDICTED BY IDOCK:   50.14 KCAL/MOL
REMARK 924 INTRA-LIGAND FREE ENERGY PREDICTED BY IDOCK:   50.27 KCAL/MOL
REMARK 927      BINDING AFFINITY PREDICTED BY RF-SCORE:    0.00 PKD
ROOT
HETATM    1  C   UNL     1     -11.574  16.373  63.656  1.00  0.00     1.848 C  
HETATM    2  C   UNL     1     -11.124  15.318  64.637  1.00  0.00    -0.346 C  
HETATM    3  C   UNL     1     -10.590  13.924  64.431  1.00  0.00    -0.256 C  
HETATM    4  C   UNL     1     -10.992  13.324  65.900  1.00  0.00    -0.274 C  
HETATM    5  O   UNL     1      -8.928  12.053  66.188  1.00  0.00    -0.178 OA 
HETATM    6  C   UNL     1     -11.194  14.776  66.841  1.00  0.00    -0.347 C  
HETATM    7  C   UNL     1     -10.356  15.700  65.897  1.00  0.00    -0.350 C  
HETATM    8  C   UNL     1     -12.222  11.343  67.825  1.00  0.00     0.493 C  
HETATM    9  C   UNL     1     -10.922  15.540  68.207  1.00  0.00    -0.305 C  
HETATM   10  C   UNL     1     -11.241  15.156  69.630  1.00  0.00    -0.288 C  
HETATM   11  C   UNL     1     -10.111  12.189  66.504  1.00  0.00    -0.209 C  
HETATM   12  C   UNL     1      -9.006  11.500  72.382  1.00  0.00    19.106 C  
HETATM   13  C   UNL     1     -10.747  11.244  67.539  1.00  0.00    -0.275 C  
HETATM   14  C   UNL     1      -7.884   9.916  70.810  1.00  0.00     0.329 C  
HETATM   15  C   UNL     1      -9.028  10.875  70.998  1.00  0.00     4.938 C  
HETATM   16  C   UNL     1     -10.145  14.380  70.298  1.00  0.00     0.954 C  
HETATM   17  C   UNL     1     -12.257  15.605  70.390  1.00  0.00    -0.429 C  
HETATM   18  C   UNL     1      -9.886  10.595  68.371  1.00  0.00    -0.170 C  
HETATM   19  C   UNL     1     -10.080  10.650  69.867  1.00  0.00     0.053 C  
HETATM   20  C   UNL     1     -10.614  12.964  70.380  1.00  0.00     2.412 C  
HETATM   21  C   UNL     1      -9.501  12.000  70.119  1.00  0.00     3.430 C  
ENDROOT
BRANCH   4  22
HETATM   22  O   UNL     1     -12.280  12.678  65.496  1.00  0.00    -0.475 OA 
BRANCH  22  23
HETATM   23  C   UNL     1     -13.079  12.250  66.544  1.00  0.00     3.720 C  
HETATM   24  C   UNL     1     -12.338  11.377  67.509  1.00  0.00     1.214 C  
HETATM   25  O   UNL     1     -14.243  12.577  66.738  1.00  0.00     9.044 OA 
ENDBRANCH  22  23
ENDBRANCH   4  22
BRANCH   7  26
HETATM   26  O   UNL     1      -8.953  15.133  65.999  1.00  0.00    -0.259 OA 
BRANCH  26  27
HETATM   27  C   UNL     1      -7.946  15.763  66.677  1.00  0.00    -0.197 C  
HETATM   28  O   UNL     1      -7.188  16.580  66.170  1.00  0.00    -0.053 OA 
BRANCH  27  29
HETATM   29  C   UNL     1      -8.017  15.587  68.185  1.00  0.00    -0.132 A  
HETATM   30  C   UNL     1      -9.290  15.414  68.783  1.00  0.00    -0.209 A  
HETATM   31  C   UNL     1      -6.904  15.573  69.020  1.00  0.00    -0.139 A  
HETATM   32  C   UNL     1      -7.045  15.360  70.409  1.00  0.00     0.415 A  
HETATM   33  C   UNL     1      -9.429  15.167  70.162  1.00  0.00     0.320 A  
HETATM   34  C   UNL     1      -8.306  15.147  70.975  1.00  0.00     2.722 A  
ENDBRANCH  27  29
ENDBRANCH  26  27
ENDBRANCH   7  26
BRANCH   9  35
HETATM   35  O   UNL     1     -11.309  16.983  68.119  1.00  0.00    -0.171 OA 
BRANCH  35  36
HETATM   36  C   UNL     1     -11.291  17.687  66.948  1.00  0.00     0.853 C  
HETATM   37  O   UNL     1     -12.195  17.809  66.165  1.00  0.00     3.723 OA 
HETATM   38  C   UNL     1      -9.972  18.404  66.781  1.00  0.00    -0.374 C  
ENDBRANCH  35  36
ENDBRANCH   9  35
TORSDOF 7
ENDMDL
MODEL      198
REMARK 921   NORMALIZED FREE ENERGY PREDICTED BY IDOCK:   74.12 KCAL/MOL
REMARK 922        TOTAL FREE ENERGY PREDICTED BY IDOCK:  103.82 KCAL/MOL
REMARK 923 INTER-LIGAND FREE ENERGY PREDICTED BY IDOCK:   -4.33 KCAL/MOL
REMARK 924 INTRA-LIGAND FREE ENERGY PREDICTED BY IDOCK:  108.15 KCAL/MOL
REMARK 927      BINDING AFFINITY PREDICTED BY RF-SCORE:    0.00 PKD
ROOT
HETATM    1  C   UNL     1     -11.393  11.036  70.263  1.00  0.00    -0.291 C  
HETATM    2  C   UNL     1     -11.023   9.597  69.997  1.00  0.00    -0.297 C  
HETATM    3  C   UNL     1     -11.781   8.313  70.214  1.00  0.00     0.105 C  
HETATM    4  C   UNL     1     -10.488   7.314  70.298  1.00  0.00    -0.219 C  
HETATM    5  O   UNL     1     -11.519   5.514  69.013  1.00  0.00     0.450 OA 
HETATM    6  C   UNL     1      -9.247   8.263  69.525  1.00  0.00    -0.158 C  
HETATM    7  C   UNL     1     -10.224   9.213  68.757  1.00  0.00    -0.210 C  
HETATM    8  C   UNL     1      -8.745   5.159  71.505  1.00  0.00    -0.141 C  
HETATM    9  C   UNL     1      -8.033   8.308  68.501  1.00  0.00    -0.122 C  
HETATM   10  C   UNL     1      -6.767   7.492  68.440  1.00  0.00    -0.054 C  
HETATM   11  C   UNL     1     -10.660   5.836  69.835  1.00  0.00    -0.318 C  
HETATM   12  C   UNL     1      -6.353   2.577  67.176  1.00  0.00    -0.032 C  
HETATM   13  C   UNL     1      -9.706   4.775  70.412  1.00  0.00    -0.289 C  
HETATM   14  C   UNL     1      -8.595   1.509  67.453  1.00  0.00    -0.107 C  
HETATM   15  C   UNL     1      -7.668   2.591  67.937  1.00  0.00    -0.059 C  
HETATM   16  C   UNL     1      -6.901   6.242  67.622  1.00  0.00    -0.069 C  
HETATM   17  C   UNL     1      -5.535   7.864  68.837  1.00  0.00    -0.026 C  
HETATM   18  C   UNL     1      -9.560   3.635  69.681  1.00  0.00    -0.211 C  
HETATM   19  C   UNL     1      -8.185   3.140  69.303  1.00  0.00    -0.077 C  
HETATM   20  C   UNL     1      -6.947   5.103  68.589  1.00  0.00    -0.056 C  
HETATM   21  C   UNL     1      -7.922   4.056  68.158  1.00  0.00    -0.077 C  
ENDROOT
BRANCH   4  22
HETATM   22  O   UNL     1     -10.377   7.271  71.790  1.00  0.00    -0.196 OA 
BRANCH  22  23
HETATM   23  C   UNL     1     -11.481   6.756  72.449  1.00  0.00    -0.264 C  
HETATM   24  C   UNL     1     -11.110   6.021  73.700  1.00  0.00     0.073 C  
HETATM   25  O   UNL     1     -12.651   6.917  72.122  1.00  0.00    -0.243 OA 
ENDBRANCH  22  23
ENDBRANCH   4  22
BRANCH   7  26
HETATM   26  O   UNL     1     -10.934   8.285  67.789  1.00  0.00    -0.057 OA 
BRANCH  26  27
HETATM   27  C   UNL     1     -10.398   7.099  67.370  1.00  0.00    -0.254 C  
HETATM   28  O   UNL     1     -10.689   6.551  66.315  1.00  0.00     0.052 OA 
BRANCH  27  29
HETATM   29  C   UNL     1      -9.193   6.650  68.181  1.00  0.00    -0.117 A  
HETATM   30  C   UNL     1      -8.970   7.250  69.445  1.00  0.00    -0.139 A  
HETATM   31  C   UNL     1      -8.295   5.672  67.763  1.00  0.00    -0.100 A  
HETATM   32  C   UNL     1      -7.223   5.275  68.592  1.00  0.00    -0.062 A  
HETATM   33  C   UNL     1      -7.923   6.831  70.286  1.00  0.00    -0.115 A  
HETATM   34  C   UNL     1      -7.045   5.847  69.856  1.00  0.00    -0.068 A  
ENDBRANCH  27  29
ENDBRANCH  26  27
ENDBRANCH   7  26
BRANCH   9  35
HETATM   35  O   UNL     1      -7.582   9.710  68.241  1.00  0.00    -0.078 OA 
BRANCH  35  36
HETATM   36  C   UNL     1      -7.467  10.649  69.229  1.00  0.00    -0.130 C  
HETATM   37  O   UNL     1      -7.221  10.450  70.388  1.00  0.00    -0.266 OA 
HETATM   38  C   UNL     1      -7.600  12.040  68.655  1.00  0.00    -0.112 C  
ENDBRANCH  35  36
ENDBRANCH   9  35
TORSDOF 7
ENDMDL
MODEL      199
REMARK 921   NORMALIZED FREE ENERGY PREDICTED BY IDOCK:   76.11 KCAL/MOL
REMARK 922        TOTAL FREE ENERGY PREDICTED BY IDOCK:  106.62 KCAL/MOL
REMARK 923 INTER-LIGAND FREE ENERGY PREDICTED BY IDOCK:   99.26 KCAL/MOL
REMARK 924 INTRA-LIGAND FREE ENERGY PREDICTED BY IDOCK:    7.36 KCAL/MOL
REMARK 927      BINDING AFFINITY PREDICTED BY RF-SCORE:    0.00 PKD
ROOT
HETATM    1  C   UNL     1      -9.620  21.308  67.836  1.00  0.00     0.260 C  
HETATM    2  C   UNL     1      -8.963  19.959  67.671  1.00  0.00    -0.416 C  
HETATM    3  C   UNL     1      -7.513  19.551  67.648  1.00  0.00    -0.291 C  
HETATM    4  C   UNL     1      -7.697  18.159  66.806  1.00  0.00    -0.225 C  
HETATM    5  O   UNL     1      -6.094  16.886  68.135  1.00  0.00    -0.125 OA 
HETATM    6  C   UNL     1      -9.393  17.824  67.030  1.00  0.00    -0.259 C  
HETATM    7  C   UNL     1      -9.567  18.713  68.306  1.00  0.00    -0.347 C  
HETATM    8  C   UNL     1      -7.114  16.174  64.602  1.00  0.00    10.510 C  
HETATM    9  C   UNL     1     -10.519  16.748  67.347  1.00  0.00    -0.310 C  
HETATM   10  C   UNL     1     -10.847  15.440  66.672  1.00  0.00    -0.302 C  
HETATM   11  C   UNL     1      -6.692  16.997  67.063  1.00  0.00    -0.203 C  
HETATM   12  C   UNL     1      -8.107  11.151  66.819  1.00  0.00    -0.155 C  
HETATM   13  C   UNL     1      -6.475  15.959  65.947  1.00  0.00     3.599 C  
HETATM   14  C   UNL     1      -5.772  11.739  67.483  1.00  0.00    -0.084 C  
HETATM   15  C   UNL     1      -7.020  12.211  66.787  1.00  0.00     0.104 C  
HETATM   16  C   UNL     1     -10.114  14.269  67.253  1.00  0.00    -0.252 C  
HETATM   17  C   UNL     1     -11.843  15.199  65.799  1.00  0.00     0.074 C  
HETATM   18  C   UNL     1      -5.986  14.749  66.337  1.00  0.00     3.839 C  
HETATM   19  C   UNL     1      -6.689  13.475  65.934  1.00  0.00     6.045 C  
HETATM   20  C   UNL     1      -9.058  13.893  66.264  1.00  0.00    -0.025 C  
HETATM   21  C   UNL     1      -7.786  13.495  66.941  1.00  0.00     0.255 C  
ENDROOT
BRANCH   4  22
HETATM   22  O   UNL     1      -7.361  18.707  65.455  1.00  0.00    -0.502 OA 
BRANCH  22  23
HETATM   23  C   UNL     1      -6.518  19.806  65.457  1.00  0.00    -0.253 C  
HETATM   24  C   UNL     1      -7.107  20.979  66.178  1.00  0.00     0.059 C  
HETATM   25  O   UNL     1      -5.384  19.840  64.996  1.00  0.00    -0.155 OA 
ENDBRANCH  22  23
ENDBRANCH   4  22
BRANCH   7  26
HETATM   26  O   UNL     1      -8.696  18.024  69.341  1.00  0.00     0.200 OA 
BRANCH  26  27
HETATM   27  C   UNL     1      -8.981  18.041  70.678  1.00  0.00     4.635 C  
HETATM   28  O   UNL     1      -8.230  17.608  71.542  1.00  0.00     8.626 OA 
BRANCH  27  29
HETATM   29  C   UNL     1     -10.181  18.901  71.040  1.00  0.00     2.539 A  
HETATM   30  C   UNL     1     -10.160  20.272  70.682  1.00  0.00     1.380 A  
HETATM   31  C   UNL     1     -11.312  18.422  71.695  1.00  0.00     4.351 A  
HETATM   32  C   UNL     1     -12.409  19.272  71.958  1.00  0.00    15.611 A  
HETATM   33  C   UNL     1     -11.265  21.112  70.913  1.00  0.00     6.498 A  
HETATM   34  C   UNL     1     -12.388  20.612  71.557  1.00  0.00    17.612 A  
ENDBRANCH  27  29
ENDBRANCH  26  27
ENDBRANCH   7  26
BRANCH   9  35
HETATM   35  O   UNL     1     -11.850  17.393  67.571  1.00  0.00     0.976 OA 
BRANCH  35  36
HETATM   36  C   UNL     1     -12.463  17.426  68.792  1.00  0.00     4.259 C  
HETATM   37  O   UNL     1     -12.353  18.277  69.633  1.00  0.00     7.419 OA 
HETATM   38  C   UNL     1     -13.412  16.259  68.940  1.00  0.00     4.316 C  
ENDBRANCH  35  36
ENDBRANCH   9  35
TORSDOF 7
ENDMDL
MODEL      200
REMARK 921   NORMALIZED FREE ENERGY PREDICTED BY IDOCK:   79.76 KCAL/MOL
REMARK 922        TOTAL FREE ENERGY PREDICTED BY IDOCK:  111.76 KCAL/MOL
REMARK 923 INTER-LIGAND FREE ENERGY PREDICTED BY IDOCK:   93.82 KCAL/MOL
REMARK 924 INTRA-LIGAND FREE ENERGY PREDICTED BY IDOCK:   17.94 KCAL/MOL
REMARK 927      BINDING AFFINITY PREDICTED BY RF-SCORE:    0.00 PKD
ROOT
HETATM    1  C   UNL     1     -10.815  10.851  69.254  1.00  0.00    -0.286 C  
HETATM    2  C   UNL     1     -11.354  12.040  68.496  1.00  0.00    -0.323 C  
HETATM    3  C   UNL     1     -12.665  12.262  67.788  1.00  0.00     2.072 C  
HETATM    4  C   UNL     1     -12.157  13.432  66.762  1.00  0.00    -0.365 C  
HETATM    5  O   UNL     1     -14.178  14.786  66.957  1.00  0.00     6.817 OA 
HETATM    6  C   UNL     1     -10.712  14.003  67.553  1.00  0.00    -0.271 C  
HETATM    7  C   UNL     1     -11.079  13.460  68.974  1.00  0.00    -0.249 C  
HETATM    8  C   UNL     1     -11.781  14.772  64.078  1.00  0.00    -0.012 C  
HETATM    9  C   UNL     1      -9.829  15.244  68.005  1.00  0.00    -0.216 C  
HETATM   10  C   UNL     1      -9.259  16.389  67.206  1.00  0.00    -0.224 C  
HETATM   11  C   UNL     1     -13.187  14.499  66.284  1.00  0.00     1.392 C  
HETATM   12  C   UNL     1     -11.843  20.252  65.125  1.00  0.00     2.696 C  
HETATM   13  C   UNL     1     -12.926  15.218  64.948  1.00  0.00     0.850 C  
HETATM   14  C   UNL     1     -14.237  19.570  64.923  1.00  0.00    24.387 C  
HETATM   15  C   UNL     1     -12.810  19.096  64.935  1.00  0.00    13.277 C  
HETATM   16  C   UNL     1     -10.177  17.571  67.118  1.00  0.00    -0.323 C  
HETATM   17  C   UNL     1      -7.992  16.534  66.775  1.00  0.00    -0.290 C  
HETATM   18  C   UNL     1     -13.542  16.422  64.781  1.00  0.00     5.245 C  
HETATM   19  C   UNL     1     -12.745  17.639  64.380  1.00  0.00     9.045 C  
HETATM   20  C   UNL     1     -10.726  17.583  65.728  1.00  0.00    -0.106 C  
HETATM   21  C   UNL     1     -12.168  17.979  65.710  1.00  0.00     5.900 C  
ENDROOT
BRANCH   4  22
HETATM   22  O   UNL     1     -11.894  12.551  65.582  1.00  0.00    -0.402 OA 
BRANCH  22  23
HETATM   23  C   UNL     1     -12.693  12.792  64.476  1.00  0.00    -0.328 C  
HETATM   24  C   UNL     1     -14.129  13.008  64.844  1.00  0.00     3.925 C  
HETATM   25  O   UNL     1     -12.305  12.895  63.319  1.00  0.00    -0.652 OA 
ENDBRANCH  22  23
ENDBRANCH   4  22
BRANCH   7  26
HETATM   26  O   UNL     1     -12.308  14.266  69.355  1.00  0.00    -0.310 OA 
BRANCH  26  27
HETATM   27  C   UNL     1     -13.480  13.685  69.755  1.00  0.00     2.020 C  
HETATM   28  O   UNL     1     -14.347  13.295  68.984  1.00  0.00     7.947 OA 
BRANCH  27  29
HETATM   29  C   UNL     1     -13.503  13.297  71.224  1.00  0.00    -0.048 A  
HETATM   30  C   UNL     1     -13.594  11.922  71.555  1.00  0.00     0.288 A  
HETATM   31  C   UNL     1     -13.428  14.209  72.272  1.00  0.00    -0.578 A  
HETATM   32  C   UNL     1     -13.410  13.769  73.614  1.00  0.00     2.219 A  
HETATM   33  C   UNL     1     -13.542  11.480  72.891  1.00  0.00     1.951 A  
HETATM   34  C   UNL     1     -13.456  12.405  73.920  1.00  0.00     8.926 A  
ENDBRANCH  27  29
ENDBRANCH  26  27
ENDBRANCH   7  26
BRANCH   9  35
HETATM   35  O   UNL     1      -8.709  14.827  68.903  1.00  0.00    -0.175 OA 
BRANCH  35  36
HETATM   36  C   UNL     1      -7.549  15.540  69.026  1.00  0.00    -0.180 C  
HETATM   37  O   UNL     1      -7.044  16.246  68.195  1.00  0.00    -0.129 OA 
HETATM   38  C   UNL     1      -6.992  15.408  70.425  1.00  0.00     0.334 C  
ENDBRANCH  35  36
ENDBRANCH   9  35
TORSDOF 7
ENDMDL
MODEL      201
REMARK 921   NORMALIZED FREE ENERGY PREDICTED BY IDOCK:   81.76 KCAL/MOL
REMARK 922        TOTAL FREE ENERGY PREDICTED BY IDOCK:  114.58 KCAL/MOL
REMARK 923 INTER-LIGAND FREE ENERGY PREDICTED BY IDOCK:  101.33 KCAL/MOL
REMARK 924 INTRA-LIGAND FREE ENERGY PREDICTED BY IDOCK:   13.25 KCAL/MOL
REMARK 927      BINDING AFFINITY PREDICTED BY RF-SCORE:    0.00 PKD
ROOT
HETATM    1  C   UNL     1      -9.803  15.602  69.882  1.00  0.00    -0.199 C  
HETATM    2  C   UNL     1     -10.277  14.507  68.958  1.00  0.00    -0.210 C  
HETATM    3  C   UNL     1     -11.656  13.979  68.659  1.00  0.00    -0.360 C  
HETATM    4  C   UNL     1     -11.207  12.493  68.140  1.00  0.00    -0.267 C  
HETATM    5  O   UNL     1     -12.818  12.406  66.309  1.00  0.00     0.319 OA 
HETATM    6  C   UNL     1      -9.529  12.743  67.740  1.00  0.00    -0.205 C  
HETATM    7  C   UNL     1      -9.625  14.298  67.596  1.00  0.00    -0.219 C  
HETATM    8  C   UNL     1     -11.267   9.472  68.045  1.00  0.00     0.082 C  
HETATM    9  C   UNL     1      -8.341  12.492  66.715  1.00  0.00    -0.030 C  
HETATM   10  C   UNL     1      -7.781  11.211  66.152  1.00  0.00    -0.053 C  
HETATM   11  C   UNL     1     -12.100  11.774  67.085  1.00  0.00     0.374 C  
HETATM   12  C   UNL     1     -10.016   8.120  62.778  1.00  0.00     4.770 C  
HETATM   13  C   UNL     1     -12.050  10.237  67.012  1.00  0.00     3.278 C  
HETATM   14  C   UNL     1     -12.469   8.589  62.798  1.00  0.00    21.356 C  
HETATM   15  C   UNL     1     -11.202   8.581  63.608  1.00  0.00    14.492 C  
HETATM   16  C   UNL     1      -8.448  10.776  64.882  1.00  0.00    -0.055 C  
HETATM   17  C   UNL     1      -6.658  10.573  66.532  1.00  0.00    -0.100 C  
HETATM   18  C   UNL     1     -12.446   9.677  65.836  1.00  0.00    10.657 C  
HETATM   19  C   UNL     1     -11.558   8.686  65.124  1.00  0.00    10.052 C  
HETATM   20  C   UNL     1      -9.315   9.610  65.232  1.00  0.00    -0.322 C  
HETATM   21  C   UNL     1     -10.612   9.646  64.490  1.00  0.00     2.314 C  
ENDROOT
BRANCH   4  22
HETATM   22  O   UNL     1     -11.422  11.766  69.430  1.00  0.00    -0.267 OA 
BRANCH  22  23
HETATM   23  C   UNL     1     -11.836  12.556  70.490  1.00  0.00    -0.055 C  
HETATM   24  C   UNL     1     -13.318  12.499  70.702  1.00  0.00     0.757 C  
HETATM   25  O   UNL     1     -11.104  13.190  71.240  1.00  0.00     2.299 OA 
ENDBRANCH  22  23
ENDBRANCH   4  22
BRANCH   7  26
HETATM   26  O   UNL     1     -10.542  14.488  66.402  1.00  0.00    -0.292 OA 
BRANCH  26  27
HETATM   27  C   UNL     1     -11.816  14.973  66.514  1.00  0.00    -0.045 C  
HETATM   28  O   UNL     1     -12.590  14.657  67.408  1.00  0.00     0.115 OA 
BRANCH  27  29
HETATM   29  C   UNL     1     -12.104  16.158  65.607  1.00  0.00     1.516 A  
HETATM   30  C   UNL     1     -13.017  15.981  64.538  1.00  0.00     1.873 A  
HETATM   31  C   UNL     1     -11.535  17.417  65.768  1.00  0.00     1.376 A  
HETATM   32  C   UNL     1     -11.886  18.484  64.912  1.00  0.00     4.673 A  
HETATM   33  C   UNL     1     -13.394  17.051  63.705  1.00  0.00     8.749 A  
HETATM   34  C   UNL     1     -12.823  18.302  63.889  1.00  0.00    15.346 A  
ENDBRANCH  27  29
ENDBRANCH  26  27
ENDBRANCH   7  26
BRANCH   9  35
HETATM   35  O   UNL     1      -7.132  13.302  67.064  1.00  0.00     0.022 OA 
BRANCH  35  36
HETATM   36  C   UNL     1      -7.207  14.563  67.586  1.00  0.00    -0.187 C  
HETATM   37  O   UNL     1      -6.700  14.955  68.602  1.00  0.00    -0.089 OA 
HETATM   38  C   UNL     1      -7.962  15.479  66.651  1.00  0.00    -0.134 C  
ENDBRANCH  35  36
ENDBRANCH   9  35
TORSDOF 7
ENDMDL
