MODEL        1
REMARK 921   NORMALIZED FREE ENERGY PREDICTED BY IDOCK:   -8.29 KCAL/MOL
REMARK 922        TOTAL FREE ENERGY PREDICTED BY IDOCK:  -10.88 KCAL/MOL
REMARK 923 INTER-LIGAND FREE ENERGY PREDICTED BY IDOCK:  -10.23 KCAL/MOL
REMARK 924 INTRA-LIGAND FREE ENERGY PREDICTED BY IDOCK:   -0.65 KCAL/MOL
REMARK 927      BINDING AFFINITY PREDICTED BY RF-SCORE:    0.00 PKD
ROOT
HETATM    1  C   UNL     1     -11.843  16.163  72.354  1.00  0.00    -0.637 C  
HETATM    2  C   UNL     1     -13.209  15.586  72.132  1.00  0.00    -0.450 C  
HETATM    3  O   UNL     1     -14.145  15.724  72.909  1.00  0.00    -0.542 OA 
ENDROOT
BRANCH   2   4
HETATM    4  O   UNL     1     -13.247  14.960  70.889  1.00  0.00    -0.375 OA 
BRANCH   4   5
HETATM    5  C   UNL     1     -12.856  13.603  70.859  1.00  0.00    -0.251 A  
HETATM    6  C   UNL     1     -13.199  12.812  71.965  1.00  0.00    -0.538 A  
HETATM    7  C   UNL     1     -12.920  11.452  71.968  1.00  0.00    -0.378 A  
HETATM    8  C   UNL     1     -12.333  10.876  70.850  1.00  0.00    -0.501 A  
HETATM    9  C   UNL     1     -12.022  11.659  69.726  1.00  0.00    -0.402 A  
HETATM   10  C   UNL     1     -12.272  13.035  69.715  1.00  0.00    -0.242 A  
HETATM   11  C   UNL     1     -11.923  13.824  68.503  1.00  0.00    -0.367 C  
HETATM   12  O   UNL     1     -12.103  15.035  68.497  1.00  0.00    -0.257 OA 
HETATM   13  C   UNL     1     -11.350  13.135  67.305  1.00  0.00    -0.344 A  
HETATM   14  C   UNL     1     -11.009  13.827  66.123  1.00  0.00    -0.292 A  
HETATM   15  O   UNL     1     -11.255   9.772  68.568  1.00  0.00    -0.143 OA 
HETATM   16  C   UNL     1     -10.455  13.162  65.017  1.00  0.00    -0.358 A  
HETATM   17  C   UNL     1     -10.259  11.779  65.068  1.00  0.00    -0.314 A  
HETATM   18  C   UNL     1     -11.449  10.982  68.551  1.00  0.00    -0.309 C  
HETATM   19  C   UNL     1      -9.649  11.009  63.950  1.00  0.00    -0.272 C  
HETATM   20  C   UNL     1     -11.127  11.759  67.343  1.00  0.00    -0.338 A  
HETATM   21  O   UNL     1      -9.898  11.500  62.720  1.00  0.00    -0.307 OA 
HETATM   22  C   UNL     1     -10.589  11.083  66.236  1.00  0.00    -0.295 A  
HETATM   23  O   UNL     1      -9.010   9.988  64.138  1.00  0.00    -0.197 OA 
BRANCH  14  24
HETATM   24  O   UNL     1     -11.240  15.232  66.104  1.00  0.00    -0.318 OA 
BRANCH  24  25
HETATM   25  C   UNL     1     -10.590  16.241  65.392  1.00  0.00    -0.352 C  
HETATM   26  O   UNL     1     -11.054  16.874  64.455  1.00  0.00    -1.128 OA 
HETATM   27  C   UNL     1      -9.219  16.450  65.968  1.00  0.00    -0.328 C  
ENDBRANCH  24  25
ENDBRANCH  14  24
ENDBRANCH   4   5
ENDBRANCH   2   4
TORSDOF 4
ENDMDL
MODEL        2
REMARK 921   NORMALIZED FREE ENERGY PREDICTED BY IDOCK:   -7.89 KCAL/MOL
REMARK 922        TOTAL FREE ENERGY PREDICTED BY IDOCK:  -10.38 KCAL/MOL
REMARK 923 INTER-LIGAND FREE ENERGY PREDICTED BY IDOCK:   -9.73 KCAL/MOL
REMARK 924 INTRA-LIGAND FREE ENERGY PREDICTED BY IDOCK:   -0.66 KCAL/MOL
REMARK 927      BINDING AFFINITY PREDICTED BY RF-SCORE:    0.00 PKD
ROOT
HETATM    1  C   UNL     1      -9.799  15.888  65.938  1.00  0.00    -0.383 C  
HETATM    2  C   UNL     1     -11.010  15.865  65.053  1.00  0.00    -0.412 C  
HETATM    3  O   UNL     1     -11.170  16.606  64.091  1.00  0.00    -1.103 OA 
ENDROOT
BRANCH   2   4
HETATM    4  O   UNL     1     -11.850  14.829  65.452  1.00  0.00    -0.330 OA 
BRANCH   4   5
HETATM    5  C   UNL     1     -11.426  13.520  65.130  1.00  0.00    -0.301 A  
HETATM    6  C   UNL     1     -10.978  13.295  63.821  1.00  0.00    -0.119 A  
HETATM    7  C   UNL     1     -10.468  12.056  63.457  1.00  0.00    -0.505 A  
HETATM    8  C   UNL     1     -10.371  11.053  64.412  1.00  0.00    -0.424 A  
HETATM    9  C   UNL     1     -10.785  11.288  65.734  1.00  0.00    -0.284 A  
HETATM   10  C   UNL     1     -11.324  12.521  66.112  1.00  0.00    -0.388 A  
HETATM   11  C   UNL     1     -11.751  12.723  67.523  1.00  0.00    -0.364 C  
HETATM   12  O   UNL     1     -12.259  13.785  67.856  1.00  0.00    -0.327 OA 
HETATM   13  C   UNL     1     -11.563  11.625  68.522  1.00  0.00    -0.379 A  
HETATM   14  C   UNL     1     -11.938  11.758  69.876  1.00  0.00    -0.332 A  
HETATM   15  O   UNL     1     -10.114   9.135  66.373  1.00  0.00    -0.283 OA 
HETATM   16  C   UNL     1     -11.769  10.708  70.792  1.00  0.00    -0.435 A  
HETATM   17  C   UNL     1     -11.191   9.507  70.369  1.00  0.00    -0.323 A  
HETATM   18  C   UNL     1     -10.608  10.204  66.714  1.00  0.00    -0.169 C  
HETATM   19  C   UNL     1     -11.007   8.338  71.272  1.00  0.00    -0.243 C  
HETATM   20  C   UNL     1     -11.008  10.412  68.116  1.00  0.00    -0.334 A  
HETATM   21  O   UNL     1     -10.786   8.649  72.564  1.00  0.00    -0.306 OA 
HETATM   22  C   UNL     1     -10.819   9.361  69.029  1.00  0.00    -0.161 A  
HETATM   23  O   UNL     1     -11.015   7.191  70.858  1.00  0.00    -0.239 OA 
BRANCH  14  24
HETATM   24  O   UNL     1     -12.507  13.003  70.272  1.00  0.00    -0.249 OA 
BRANCH  24  25
HETATM   25  C   UNL     1     -12.789  13.498  71.546  1.00  0.00    -0.352 C  
HETATM   26  O   UNL     1     -13.518  12.974  72.376  1.00  0.00    -0.567 OA 
HETATM   27  C   UNL     1     -12.038  14.781  71.758  1.00  0.00    -0.417 C  
ENDBRANCH  24  25
ENDBRANCH  14  24
ENDBRANCH   4   5
ENDBRANCH   2   4
TORSDOF 4
ENDMDL
MODEL        3
REMARK 921   NORMALIZED FREE ENERGY PREDICTED BY IDOCK:   -7.84 KCAL/MOL
REMARK 922        TOTAL FREE ENERGY PREDICTED BY IDOCK:  -10.31 KCAL/MOL
REMARK 923 INTER-LIGAND FREE ENERGY PREDICTED BY IDOCK:   -9.38 KCAL/MOL
REMARK 924 INTRA-LIGAND FREE ENERGY PREDICTED BY IDOCK:   -0.94 KCAL/MOL
REMARK 927      BINDING AFFINITY PREDICTED BY RF-SCORE:    0.00 PKD
ROOT
HETATM    1  C   UNL     1     -11.475  12.193  63.432  1.00  0.00    -0.501 C  
HETATM    2  C   UNL     1     -10.047  11.756  63.558  1.00  0.00    -0.438 C  
HETATM    3  O   UNL     1      -9.382  11.309  62.632  1.00  0.00    -0.348 OA 
ENDROOT
BRANCH   2   4
HETATM    4  O   UNL     1      -9.598  12.020  64.850  1.00  0.00    -0.155 OA 
BRANCH   4   5
HETATM    5  C   UNL     1     -10.089  11.172  65.868  1.00  0.00    -0.247 A  
HETATM    6  C   UNL     1      -9.853   9.797  65.726  1.00  0.00    -0.360 A  
HETATM    7  C   UNL     1     -10.233   8.913  66.727  1.00  0.00    -0.348 A  
HETATM    8  C   UNL     1     -10.813   9.408  67.887  1.00  0.00    -0.215 A  
HETATM    9  C   UNL     1     -11.016  10.789  68.047  1.00  0.00    -0.336 A  
HETATM   10  C   UNL     1     -10.664  11.691  67.039  1.00  0.00    -0.292 A  
HETATM   11  C   UNL     1     -10.900  13.144  67.253  1.00  0.00    -0.257 C  
HETATM   12  O   UNL     1     -10.631  13.939  66.362  1.00  0.00    -0.276 OA 
HETATM   13  C   UNL     1     -11.472  13.623  68.550  1.00  0.00    -0.347 A  
HETATM   14  C   UNL     1     -11.710  14.988  68.817  1.00  0.00    -0.334 A  
HETATM   15  O   UNL     1     -11.873  10.457  70.204  1.00  0.00    -0.269 OA 
HETATM   16  C   UNL     1     -12.264  15.413  70.035  1.00  0.00    -0.392 A  
HETATM   17  C   UNL     1     -12.566  14.471  71.024  1.00  0.00    -0.410 A  
HETATM   18  C   UNL     1     -11.588  11.258  69.321  1.00  0.00    -0.322 C  
HETATM   19  C   UNL     1     -13.183  14.839  72.327  1.00  0.00    -0.374 C  
HETATM   20  C   UNL     1     -11.799  12.698  69.541  1.00  0.00    -0.376 A  
HETATM   21  O   UNL     1     -12.846  16.059  72.790  1.00  0.00    -0.439 OA 
HETATM   22  C   UNL     1     -12.339  13.115  70.770  1.00  0.00    -0.404 A  
HETATM   23  O   UNL     1     -13.904  14.073  72.943  1.00  0.00    -0.657 OA 
BRANCH  14  24
HETATM   24  O   UNL     1     -11.373  15.918  67.791  1.00  0.00    -0.299 OA 
BRANCH  24  25
HETATM   25  C   UNL     1     -10.576  17.062  67.841  1.00  0.00    -0.365 C  
HETATM   26  O   UNL     1     -10.898  18.180  67.466  1.00  0.00    -0.389 OA 
HETATM   27  C   UNL     1      -9.249  16.716  68.452  1.00  0.00    -0.225 C  
ENDBRANCH  24  25
ENDBRANCH  14  24
ENDBRANCH   4   5
ENDBRANCH   2   4
TORSDOF 4
ENDMDL
MODEL        4
REMARK 921   NORMALIZED FREE ENERGY PREDICTED BY IDOCK:   -7.73 KCAL/MOL
REMARK 922        TOTAL FREE ENERGY PREDICTED BY IDOCK:  -10.19 KCAL/MOL
REMARK 923 INTER-LIGAND FREE ENERGY PREDICTED BY IDOCK:   -9.76 KCAL/MOL
REMARK 924 INTRA-LIGAND FREE ENERGY PREDICTED BY IDOCK:   -0.43 KCAL/MOL
REMARK 927      BINDING AFFINITY PREDICTED BY RF-SCORE:    0.00 PKD
ROOT
HETATM    1  C   UNL     1     -10.649  11.314  63.423  1.00  0.00    -0.393 C  
HETATM    2  C   UNL     1     -11.877  11.961  63.990  1.00  0.00    -0.364 C  
HETATM    3  O   UNL     1     -12.910  12.144  63.358  1.00  0.00    -0.765 OA 
ENDROOT
BRANCH   2   4
HETATM    4  O   UNL     1     -11.673  12.228  65.342  1.00  0.00    -0.369 OA 
BRANCH   4   5
HETATM    5  C   UNL     1     -11.244  13.536  65.663  1.00  0.00    -0.292 A  
HETATM    6  C   UNL     1     -10.820  14.350  64.603  1.00  0.00    -0.363 A  
HETATM    7  C   UNL     1     -10.464  15.672  64.833  1.00  0.00    -0.261 A  
HETATM    8  C   UNL     1     -10.568  16.191  66.117  1.00  0.00    -0.288 A  
HETATM    9  C   UNL     1     -11.028  15.387  67.174  1.00  0.00    -0.317 A  
HETATM   10  C   UNL     1     -11.366  14.047  66.965  1.00  0.00    -0.346 A  
HETATM   11  C   UNL     1     -11.846  13.234  68.116  1.00  0.00    -0.353 C  
HETATM   12  O   UNL     1     -12.109  12.050  67.953  1.00  0.00    -0.531 OA 
HETATM   13  C   UNL     1     -11.996  13.867  69.463  1.00  0.00    -0.396 A  
HETATM   14  C   UNL     1     -12.455  13.152  70.590  1.00  0.00    -0.286 A  
HETATM   15  O   UNL     1     -10.885  17.190  68.664  1.00  0.00    -0.329 OA 
HETATM   16  C   UNL     1     -12.571  13.762  71.850  1.00  0.00    -0.284 A  
HETATM   17  C   UNL     1     -12.253  15.115  71.995  1.00  0.00    -0.438 A  
HETATM   18  C   UNL     1     -11.166  16.009  68.501  1.00  0.00    -0.374 C  
HETATM   19  C   UNL     1     -12.320  15.824  73.302  1.00  0.00    -0.502 C  
HETATM   20  C   UNL     1     -11.664  15.210  69.634  1.00  0.00    -0.353 A  
HETATM   21  O   UNL     1     -13.270  15.372  74.144  1.00  0.00    -0.157 OA 
HETATM   22  C   UNL     1     -11.792  15.833  70.887  1.00  0.00    -0.451 A  
HETATM   23  O   UNL     1     -11.596  16.768  73.566  1.00  0.00    -0.105 OA 
BRANCH  14  24
HETATM   24  O   UNL     1     -12.786  11.779  70.397  1.00  0.00    -0.130 OA 
BRANCH  24  25
HETATM   25  C   UNL     1     -12.580  10.679  71.231  1.00  0.00    -0.427 C  
HETATM   26  O   UNL     1     -13.264  10.371  72.196  1.00  0.00    -0.452 OA 
HETATM   27  C   UNL     1     -11.385   9.908  70.749  1.00  0.00    -0.430 C  
ENDBRANCH  24  25
ENDBRANCH  14  24
ENDBRANCH   4   5
ENDBRANCH   2   4
TORSDOF 4
ENDMDL
MODEL        5
REMARK 921   NORMALIZED FREE ENERGY PREDICTED BY IDOCK:   -7.68 KCAL/MOL
REMARK 922        TOTAL FREE ENERGY PREDICTED BY IDOCK:  -10.12 KCAL/MOL
REMARK 923 INTER-LIGAND FREE ENERGY PREDICTED BY IDOCK:   -9.31 KCAL/MOL
REMARK 924 INTRA-LIGAND FREE ENERGY PREDICTED BY IDOCK:   -0.81 KCAL/MOL
REMARK 927      BINDING AFFINITY PREDICTED BY RF-SCORE:    0.00 PKD
ROOT
HETATM    1  C   UNL     1      -9.582   9.823  69.957  1.00  0.00    -0.282 C  
HETATM    2  C   UNL     1     -10.963   9.238  69.968  1.00  0.00    -0.229 C  
HETATM    3  O   UNL     1     -11.263   8.199  70.543  1.00  0.00    -0.264 OA 
ENDROOT
BRANCH   2   4
HETATM    4  O   UNL     1     -11.832  10.100  69.305  1.00  0.00    -0.085 OA 
BRANCH   4   5
HETATM    5  C   UNL     1     -12.252  11.241  70.026  1.00  0.00    -0.314 A  
HETATM    6  C   UNL     1     -12.823  11.028  71.288  1.00  0.00    -0.528 A  
HETATM    7  C   UNL     1     -13.181  12.106  72.087  1.00  0.00    -0.438 A  
HETATM    8  C   UNL     1     -12.933  13.396  71.639  1.00  0.00    -0.445 A  
HETATM    9  C   UNL     1     -12.327  13.611  70.390  1.00  0.00    -0.415 A  
HETATM   10  C   UNL     1     -11.983  12.539  69.562  1.00  0.00    -0.329 A  
HETATM   11  C   UNL     1     -11.345  12.817  68.247  1.00  0.00    -0.296 C  
HETATM   12  O   UNL     1     -11.074  11.888  67.497  1.00  0.00    -0.241 OA 
HETATM   13  C   UNL     1     -11.046  14.227  67.847  1.00  0.00    -0.293 A  
HETATM   14  C   UNL     1     -10.433  14.553  66.618  1.00  0.00    -0.274 A  
HETATM   15  O   UNL     1     -12.330  15.929  70.740  1.00  0.00    -0.406 OA 
HETATM   16  C   UNL     1     -10.178  15.886  66.255  1.00  0.00    -0.324 A  
HETATM   17  C   UNL     1     -10.510  16.919  67.137  1.00  0.00    -0.296 A  
HETATM   18  C   UNL     1     -12.041  15.000  69.994  1.00  0.00    -0.337 C  
HETATM   19  C   UNL     1     -10.300  18.355  66.812  1.00  0.00    -0.394 C  
HETATM   20  C   UNL     1     -11.388  15.273  68.703  1.00  0.00    -0.327 A  
HETATM   21  O   UNL     1      -9.243  18.608  66.016  1.00  0.00    -0.484 OA 
HETATM   22  C   UNL     1     -11.122  16.608  68.356  1.00  0.00    -0.305 A  
HETATM   23  O   UNL     1     -11.010  19.235  67.270  1.00  0.00    -0.483 OA 
BRANCH  14  24
HETATM   24  O   UNL     1     -10.094  13.472  65.754  1.00  0.00    -0.288 OA 
BRANCH  24  25
HETATM   25  C   UNL     1     -10.583  13.145  64.489  1.00  0.00    -0.406 C  
HETATM   26  O   UNL     1      -9.931  12.686  63.562  1.00  0.00    -0.359 OA 
HETATM   27  C   UNL     1     -12.056  13.428  64.437  1.00  0.00    -0.468 C  
ENDBRANCH  24  25
ENDBRANCH  14  24
ENDBRANCH   4   5
ENDBRANCH   2   4
TORSDOF 4
ENDMDL
MODEL        6
REMARK 921   NORMALIZED FREE ENERGY PREDICTED BY IDOCK:   -7.55 KCAL/MOL
REMARK 922        TOTAL FREE ENERGY PREDICTED BY IDOCK:   -9.96 KCAL/MOL
REMARK 923 INTER-LIGAND FREE ENERGY PREDICTED BY IDOCK:   -9.45 KCAL/MOL
REMARK 924 INTRA-LIGAND FREE ENERGY PREDICTED BY IDOCK:   -0.51 KCAL/MOL
REMARK 927      BINDING AFFINITY PREDICTED BY RF-SCORE:    0.00 PKD
ROOT
HETATM    1  C   UNL     1     -13.727  15.716  72.523  1.00  0.00    -0.651 C  
HETATM    2  C   UNL     1     -12.577  15.485  71.589  1.00  0.00    -0.419 C  
HETATM    3  O   UNL     1     -11.433  15.863  71.803  1.00  0.00    -0.407 OA 
ENDROOT
BRANCH   2   4
HETATM    4  O   UNL     1     -13.009  14.714  70.512  1.00  0.00    -0.348 OA 
BRANCH   4   5
HETATM    5  C   UNL     1     -12.633  13.352  70.527  1.00  0.00    -0.211 A  
HETATM    6  C   UNL     1     -13.014  12.594  71.644  1.00  0.00    -0.400 A  
HETATM    7  C   UNL     1     -12.751  11.232  71.690  1.00  0.00    -0.448 A  
HETATM    8  C   UNL     1     -12.142  10.620  70.603  1.00  0.00    -0.461 A  
HETATM    9  C   UNL     1     -11.793  11.370  69.467  1.00  0.00    -0.426 A  
HETATM   10  C   UNL     1     -12.026  12.748  69.414  1.00  0.00    -0.321 A  
HETATM   11  C   UNL     1     -11.638  13.501  68.192  1.00  0.00    -0.333 C  
HETATM   12  O   UNL     1     -11.803  14.713  68.149  1.00  0.00    -0.325 OA 
HETATM   13  C   UNL     1     -11.042  12.774  67.027  1.00  0.00    -0.316 A  
HETATM   14  C   UNL     1     -10.662  13.431  65.837  1.00  0.00    -0.279 A  
HETATM   15  O   UNL     1     -11.019   9.444  68.378  1.00  0.00    -0.149 OA 
HETATM   16  C   UNL     1     -10.088  12.732  64.763  1.00  0.00    -0.240 A  
HETATM   17  C   UNL     1      -9.909  11.348  64.855  1.00  0.00    -0.301 A  
HETATM   18  C   UNL     1     -11.199  10.656  68.326  1.00  0.00    -0.301 C  
HETATM   19  C   UNL     1      -9.280  10.542  63.774  1.00  0.00    -0.263 C  
HETATM   20  C   UNL     1     -10.836  11.398  67.107  1.00  0.00    -0.316 A  
HETATM   21  O   UNL     1      -9.492  11.004  62.526  1.00  0.00    -0.289 OA 
HETATM   22  C   UNL     1     -10.278  10.687  66.031  1.00  0.00    -0.309 A  
HETATM   23  O   UNL     1      -8.658   9.520  64.005  1.00  0.00    -0.181 OA 
BRANCH  14  24
HETATM   24  O   UNL     1     -10.876  14.838  65.776  1.00  0.00    -0.307 OA 
BRANCH  24  25
HETATM   25  C   UNL     1     -11.500  15.611  64.795  1.00  0.00    -0.283 C  
HETATM   26  O   UNL     1     -11.171  16.736  64.449  1.00  0.00    -1.112 OA 
HETATM   27  C   UNL     1     -12.642  14.836  64.205  1.00  0.00    -0.057 C  
ENDBRANCH  24  25
ENDBRANCH  14  24
ENDBRANCH   4   5
ENDBRANCH   2   4
TORSDOF 4
ENDMDL
MODEL        7
REMARK 921   NORMALIZED FREE ENERGY PREDICTED BY IDOCK:   -7.44 KCAL/MOL
REMARK 922        TOTAL FREE ENERGY PREDICTED BY IDOCK:   -9.82 KCAL/MOL
REMARK 923 INTER-LIGAND FREE ENERGY PREDICTED BY IDOCK:   -8.98 KCAL/MOL
REMARK 924 INTRA-LIGAND FREE ENERGY PREDICTED BY IDOCK:   -0.84 KCAL/MOL
REMARK 927      BINDING AFFINITY PREDICTED BY RF-SCORE:    0.00 PKD
ROOT
HETATM    1  C   UNL     1      -6.046  19.654  69.784  1.00  0.00    -0.340 C  
HETATM    2  C   UNL     1      -6.509  18.773  68.663  1.00  0.00    -0.241 C  
HETATM    3  O   UNL     1      -5.812  18.455  67.707  1.00  0.00    -0.161 OA 
ENDROOT
BRANCH   2   4
HETATM    4  O   UNL     1      -7.799  18.324  68.934  1.00  0.00    -0.281 OA 
BRANCH   4   5
HETATM    5  C   UNL     1      -8.770  18.571  67.937  1.00  0.00    -0.284 A  
HETATM    6  C   UNL     1      -9.069  19.911  67.652  1.00  0.00    -0.431 A  
HETATM    7  C   UNL     1      -9.951  20.231  66.628  1.00  0.00    -0.561 A  
HETATM    8  C   UNL     1     -10.504  19.212  65.864  1.00  0.00    -0.500 A  
HETATM    9  C   UNL     1     -10.176  17.870  66.124  1.00  0.00    -0.343 A  
HETATM   10  C   UNL     1      -9.311  17.529  67.168  1.00  0.00    -0.250 A  
HETATM   11  C   UNL     1      -8.995  16.095  67.406  1.00  0.00    -0.191 C  
HETATM   12  O   UNL     1      -8.269  15.782  68.340  1.00  0.00    -0.143 OA 
HETATM   13  C   UNL     1      -9.573  15.046  66.509  1.00  0.00    -0.299 A  
HETATM   14  C   UNL     1      -9.304  13.670  66.678  1.00  0.00    -0.254 A  
HETATM   15  O   UNL     1     -11.494  17.154  64.323  1.00  0.00    -1.062 OA 
HETATM   16  C   UNL     1      -9.872  12.702  65.835  1.00  0.00    -0.251 A  
HETATM   17  C   UNL     1     -10.703  13.101  64.784  1.00  0.00    -0.381 A  
HETATM   18  C   UNL     1     -10.753  16.839  65.246  1.00  0.00    -0.169 C  
HETATM   19  C   UNL     1     -11.367  12.134  63.869  1.00  0.00    -0.426 C  
HETATM   20  C   UNL     1     -10.421  15.421  65.468  1.00  0.00    -0.402 A  
HETATM   21  O   UNL     1     -10.675  10.999  63.644  1.00  0.00    -0.348 OA 
HETATM   22  C   UNL     1     -10.981  14.460  64.609  1.00  0.00    -0.367 A  
HETATM   23  O   UNL     1     -12.434  12.375  63.333  1.00  0.00    -0.625 OA 
BRANCH  14  24
HETATM   24  O   UNL     1      -8.439  13.306  67.750  1.00  0.00    -0.155 OA 
BRANCH  24  25
HETATM   25  C   UNL     1      -7.266  12.549  67.740  1.00  0.00    -0.125 C  
HETATM   26  O   UNL     1      -6.216  12.858  67.195  1.00  0.00    -0.281 OA 
HETATM   27  C   UNL     1      -7.482  11.289  68.526  1.00  0.00    -0.115 C  
ENDBRANCH  24  25
ENDBRANCH  14  24
ENDBRANCH   4   5
ENDBRANCH   2   4
TORSDOF 4
ENDMDL
MODEL        8
REMARK 921   NORMALIZED FREE ENERGY PREDICTED BY IDOCK:   -7.23 KCAL/MOL
REMARK 922        TOTAL FREE ENERGY PREDICTED BY IDOCK:   -9.57 KCAL/MOL
REMARK 923 INTER-LIGAND FREE ENERGY PREDICTED BY IDOCK:   -8.72 KCAL/MOL
REMARK 924 INTRA-LIGAND FREE ENERGY PREDICTED BY IDOCK:   -0.85 KCAL/MOL
REMARK 927      BINDING AFFINITY PREDICTED BY RF-SCORE:    0.00 PKD
ROOT
HETATM    1  C   UNL     1      -7.752   8.900  66.397  1.00  0.00    -0.095 C  
HETATM    2  C   UNL     1      -8.694   8.717  65.244  1.00  0.00    -0.165 C  
HETATM    3  O   UNL     1      -8.403   8.132  64.208  1.00  0.00    -0.131 OA 
ENDROOT
BRANCH   2   4
HETATM    4  O   UNL     1      -9.942   9.234  65.583  1.00  0.00    -0.277 OA 
BRANCH   4   5
HETATM    5  C   UNL     1     -10.091  10.634  65.467  1.00  0.00    -0.280 A  
HETATM    6  C   UNL     1      -9.832  11.205  64.213  1.00  0.00    -0.335 A  
HETATM    7  C   UNL     1     -10.038  12.561  64.004  1.00  0.00    -0.316 A  
HETATM    8  C   UNL     1     -10.540  13.341  65.038  1.00  0.00    -0.360 A  
HETATM    9  C   UNL     1     -10.835  12.764  66.284  1.00  0.00    -0.299 A  
HETATM   10  C   UNL     1     -10.609  11.404  66.521  1.00  0.00    -0.309 A  
HETATM   11  C   UNL     1     -10.935  10.839  67.858  1.00  0.00    -0.289 C  
HETATM   12  O   UNL     1     -10.706   9.659  68.088  1.00  0.00    -0.229 OA 
HETATM   13  C   UNL     1     -11.531  11.716  68.912  1.00  0.00    -0.349 A  
HETATM   14  C   UNL     1     -11.871  11.236  70.196  1.00  0.00    -0.364 A  
HETATM   15  O   UNL     1     -11.625  14.816  67.096  1.00  0.00    -0.370 OA 
HETATM   16  C   UNL     1     -12.413  12.083  71.177  1.00  0.00    -0.353 A  
HETATM   17  C   UNL     1     -12.652  13.427  70.876  1.00  0.00    -0.406 A  
HETATM   18  C   UNL     1     -11.413  13.630  67.324  1.00  0.00    -0.343 C  
HETATM   19  C   UNL     1     -13.194  14.392  71.869  1.00  0.00    -0.365 C  
HETATM   20  C   UNL     1     -11.758  13.064  68.639  1.00  0.00    -0.359 A  
HETATM   21  O   UNL     1     -14.032  13.858  72.780  1.00  0.00    -0.697 OA 
HETATM   22  C   UNL     1     -12.315  13.915  69.609  1.00  0.00    -0.301 A  
HETATM   23  O   UNL     1     -12.930  15.581  71.831  1.00  0.00    -0.382 OA 
BRANCH  14  24
HETATM   24  O   UNL     1     -11.628   9.857  70.458  1.00  0.00    -0.272 OA 
BRANCH  24  25
HETATM   25  C   UNL     1     -10.946   9.249  71.512  1.00  0.00    -0.375 C  
HETATM   26  O   UNL     1      -9.740   9.293  71.710  1.00  0.00    -0.269 OA 
HETATM   27  C   UNL     1     -11.930   8.535  72.394  1.00  0.00    -0.434 C  
ENDBRANCH  24  25
ENDBRANCH  14  24
ENDBRANCH   4   5
ENDBRANCH   2   4
TORSDOF 4
ENDMDL
MODEL        9
REMARK 921   NORMALIZED FREE ENERGY PREDICTED BY IDOCK:   -7.23 KCAL/MOL
REMARK 922        TOTAL FREE ENERGY PREDICTED BY IDOCK:   -9.56 KCAL/MOL
REMARK 923 INTER-LIGAND FREE ENERGY PREDICTED BY IDOCK:   -8.68 KCAL/MOL
REMARK 924 INTRA-LIGAND FREE ENERGY PREDICTED BY IDOCK:   -0.89 KCAL/MOL
REMARK 927      BINDING AFFINITY PREDICTED BY RF-SCORE:    0.00 PKD
ROOT
HETATM    1  C   UNL     1     -10.340   8.840  67.082  1.00  0.00    -0.364 C  
HETATM    2  C   UNL     1     -10.759  10.279  67.055  1.00  0.00    -0.216 C  
HETATM    3  O   UNL     1     -11.669  10.741  67.733  1.00  0.00    -0.547 OA 
ENDROOT
BRANCH   2   4
HETATM    4  O   UNL     1      -9.904  10.991  66.218  1.00  0.00    -0.202 OA 
BRANCH   4   5
HETATM    5  C   UNL     1     -10.519  11.846  65.277  1.00  0.00    -0.275 A  
HETATM    6  C   UNL     1     -11.267  11.243  64.255  1.00  0.00    -0.214 A  
HETATM    7  C   UNL     1     -11.967  12.022  63.344  1.00  0.00    -0.571 A  
HETATM    8  C   UNL     1     -11.951  13.404  63.477  1.00  0.00    -0.467 A  
HETATM    9  C   UNL     1     -11.232  14.010  64.522  1.00  0.00    -0.358 A  
HETATM   10  C   UNL     1     -10.500  13.242  65.433  1.00  0.00    -0.306 A  
HETATM   11  C   UNL     1      -9.753  13.928  66.521  1.00  0.00    -0.294 C  
HETATM   12  O   UNL     1      -9.079  13.268  67.302  1.00  0.00    -0.203 OA 
HETATM   13  C   UNL     1      -9.824  15.416  66.650  1.00  0.00    -0.269 A  
HETATM   14  C   UNL     1      -9.146  16.124  67.666  1.00  0.00    -0.196 A  
HETATM   15  O   UNL     1     -11.958  16.134  63.848  1.00  0.00    -0.947 OA 
HETATM   16  C   UNL     1      -9.212  17.523  67.757  1.00  0.00    -0.253 A  
HETATM   17  C   UNL     1      -9.988  18.240  66.841  1.00  0.00    -0.356 A  
HETATM   18  C   UNL     1     -11.295  15.475  64.642  1.00  0.00    -0.357 C  
HETATM   19  C   UNL     1     -10.083  19.725  66.853  1.00  0.00    -0.437 C  
HETATM   20  C   UNL     1     -10.575  16.152  65.734  1.00  0.00    -0.347 A  
HETATM   21  O   UNL     1      -9.980  20.290  68.071  1.00  0.00    -0.391 OA 
HETATM   22  C   UNL     1     -10.661  17.551  65.826  1.00  0.00    -0.176 A  
HETATM   23  O   UNL     1     -10.283  20.370  65.838  1.00  0.00    -0.326 OA 
BRANCH  14  24
HETATM   24  O   UNL     1      -8.381  15.356  68.591  1.00  0.00    -0.149 OA 
BRANCH  24  25
HETATM   25  C   UNL     1      -7.019  15.406  68.891  1.00  0.00    -0.127 C  
HETATM   26  O   UNL     1      -6.529  15.418  70.011  1.00  0.00    -0.165 OA 
HETATM   27  C   UNL     1      -6.230  15.426  67.614  1.00  0.00    -0.167 C  
ENDBRANCH  24  25
ENDBRANCH  14  24
ENDBRANCH   4   5
ENDBRANCH   2   4
TORSDOF 4
ENDMDL
MODEL       10
REMARK 921   NORMALIZED FREE ENERGY PREDICTED BY IDOCK:   -7.23 KCAL/MOL
REMARK 922        TOTAL FREE ENERGY PREDICTED BY IDOCK:   -9.56 KCAL/MOL
REMARK 923 INTER-LIGAND FREE ENERGY PREDICTED BY IDOCK:   -9.15 KCAL/MOL
REMARK 924 INTRA-LIGAND FREE ENERGY PREDICTED BY IDOCK:   -0.42 KCAL/MOL
REMARK 927      BINDING AFFINITY PREDICTED BY RF-SCORE:    0.00 PKD
ROOT
HETATM    1  C   UNL     1     -10.730   9.950  68.616  1.00  0.00    -0.256 C  
HETATM    2  C   UNL     1     -10.786  10.377  67.179  1.00  0.00    -0.238 C  
HETATM    3  O   UNL     1     -10.111   9.876  66.288  1.00  0.00    -0.237 OA 
ENDROOT
BRANCH   2   4
HETATM    4  O   UNL     1     -11.771  11.350  67.027  1.00  0.00    -0.535 OA 
BRANCH   4   5
HETATM    5  C   UNL     1     -11.603  12.247  65.948  1.00  0.00    -0.393 A  
HETATM    6  C   UNL     1     -11.879  11.762  64.662  1.00  0.00    -0.203 A  
HETATM    7  C   UNL     1     -11.816  12.609  63.564  1.00  0.00    -0.619 A  
HETATM    8  C   UNL     1     -11.513  13.950  63.757  1.00  0.00     0.086 A  
HETATM    9  C   UNL     1     -11.272  14.446  65.049  1.00  0.00    -0.376 A  
HETATM   10  C   UNL     1     -11.307  13.602  66.163  1.00  0.00    -0.324 A  
HETATM   11  C   UNL     1     -11.043  14.173  67.512  1.00  0.00    -0.291 C  
HETATM   12  O   UNL     1     -11.033  13.436  68.489  1.00  0.00    -0.249 OA 
HETATM   13  C   UNL     1     -10.784  15.638  67.663  1.00  0.00    -0.302 A  
HETATM   14  C   UNL     1     -10.537  16.240  68.916  1.00  0.00    -0.284 A  
HETATM   15  O   UNL     1     -11.003  16.619  64.212  1.00  0.00    -0.888 OA 
HETATM   16  C   UNL     1     -10.279  17.616  69.032  1.00  0.00    -0.314 A  
HETATM   17  C   UNL     1     -10.292  18.421  67.889  1.00  0.00    -0.425 A  
HETATM   18  C   UNL     1     -11.009  15.888  65.196  1.00  0.00    -0.377 C  
HETATM   19  C   UNL     1      -9.997  19.879  67.927  1.00  0.00    -0.422 C  
HETATM   20  C   UNL     1     -10.772  16.456  66.533  1.00  0.00    -0.163 A  
HETATM   21  O   UNL     1     -10.364  20.503  69.063  1.00  0.00    -0.097 OA 
HETATM   22  C   UNL     1     -10.531  17.836  66.641  1.00  0.00    -0.300 A  
HETATM   23  O   UNL     1      -9.501  20.465  66.980  1.00  0.00    -0.399 OA 
BRANCH  14  24
HETATM   24  O   UNL     1     -10.550  15.389  70.058  1.00  0.00    -0.282 OA 
BRANCH  24  25
HETATM   25  C   UNL     1     -11.452  15.325  71.121  1.00  0.00    -0.369 C  
HETATM   26  O   UNL     1     -11.162  15.266  72.308  1.00  0.00    -0.408 OA 
HETATM   27  C   UNL     1     -12.854  15.359  70.586  1.00  0.00    -0.484 C  
ENDBRANCH  24  25
ENDBRANCH  14  24
ENDBRANCH   4   5
ENDBRANCH   2   4
TORSDOF 4
ENDMDL
MODEL       11
REMARK 921   NORMALIZED FREE ENERGY PREDICTED BY IDOCK:   -7.12 KCAL/MOL
REMARK 922        TOTAL FREE ENERGY PREDICTED BY IDOCK:   -9.44 KCAL/MOL
REMARK 923 INTER-LIGAND FREE ENERGY PREDICTED BY IDOCK:   -8.77 KCAL/MOL
REMARK 924 INTRA-LIGAND FREE ENERGY PREDICTED BY IDOCK:   -0.66 KCAL/MOL
REMARK 927      BINDING AFFINITY PREDICTED BY RF-SCORE:    0.00 PKD
ROOT
HETATM    1  C   UNL     1     -10.259  19.131  68.248  1.00  0.00    -0.486 C  
HETATM    2  C   UNL     1     -10.006  17.658  68.363  1.00  0.00    -0.356 C  
HETATM    3  O   UNL     1      -8.962  17.172  68.782  1.00  0.00    -0.264 OA 
ENDROOT
BRANCH   2   4
HETATM    4  O   UNL     1     -11.158  16.964  68.003  1.00  0.00    -0.336 OA 
BRANCH   4   5
HETATM    5  C   UNL     1     -10.965  15.719  67.364  1.00  0.00    -0.279 A  
HETATM    6  C   UNL     1     -10.303  15.729  66.128  1.00  0.00    -0.333 A  
HETATM    7  C   UNL     1     -10.005  14.536  65.482  1.00  0.00    -0.373 A  
HETATM    8  C   UNL     1     -10.334  13.333  66.091  1.00  0.00    -0.290 A  
HETATM    9  C   UNL     1     -10.964  13.320  67.347  1.00  0.00    -0.287 A  
HETATM   10  C   UNL     1     -11.295  14.511  68.000  1.00  0.00    -0.326 A  
HETATM   11  C   UNL     1     -11.963  14.447  69.327  1.00  0.00    -0.324 C  
HETATM   12  O   UNL     1     -12.292  15.483  69.890  1.00  0.00    -0.357 OA 
HETATM   13  C   UNL     1     -12.236  13.119  69.961  1.00  0.00    -0.323 A  
HETATM   14  C   UNL     1     -12.857  12.993  71.222  1.00  0.00    -0.281 A  
HETATM   15  O   UNL     1     -10.925  10.976  67.390  1.00  0.00    -0.255 OA 
HETATM   16  C   UNL     1     -13.120  11.736  71.789  1.00  0.00    -0.480 A  
HETATM   17  C   UNL     1     -12.735  10.576  71.110  1.00  0.00    -0.518 A  
HETATM   18  C   UNL     1     -11.239  12.012  67.965  1.00  0.00    -0.258 C  
HETATM   19  C   UNL     1     -13.006   9.209  71.630  1.00  0.00    -0.365 C  
HETATM   20  C   UNL     1     -11.879  11.950  69.290  1.00  0.00    -0.379 A  
HETATM   21  O   UNL     1     -13.009   9.104  72.974  1.00  0.00    -0.232 OA 
HETATM   22  C   UNL     1     -12.123  10.688  69.857  1.00  0.00    -0.372 A  
HETATM   23  O   UNL     1     -13.171   8.254  70.891  1.00  0.00     0.043 OA 
BRANCH  14  24
HETATM   24  O   UNL     1     -13.218  14.199  71.890  1.00  0.00    -0.339 OA 
BRANCH  24  25
HETATM   25  C   UNL     1     -12.771  14.721  73.105  1.00  0.00    -0.474 C  
HETATM   26  O   UNL     1     -11.912  14.233  73.825  1.00  0.00    -0.033 OA 
HETATM   27  C   UNL     1     -13.500  16.001  73.393  1.00  0.00    -0.494 C  
ENDBRANCH  24  25
ENDBRANCH  14  24
ENDBRANCH   4   5
ENDBRANCH   2   4
TORSDOF 4
ENDMDL
MODEL       12
REMARK 921   NORMALIZED FREE ENERGY PREDICTED BY IDOCK:   -7.07 KCAL/MOL
REMARK 922        TOTAL FREE ENERGY PREDICTED BY IDOCK:   -9.37 KCAL/MOL
REMARK 923 INTER-LIGAND FREE ENERGY PREDICTED BY IDOCK:   -8.68 KCAL/MOL
REMARK 924 INTRA-LIGAND FREE ENERGY PREDICTED BY IDOCK:   -0.68 KCAL/MOL
REMARK 927      BINDING AFFINITY PREDICTED BY RF-SCORE:    0.00 PKD
ROOT
HETATM    1  C   UNL     1     -11.258  14.880  65.900  1.00  0.00    -0.328 C  
HETATM    2  C   UNL     1     -12.177  14.305  64.863  1.00  0.00    -0.440 C  
HETATM    3  O   UNL     1     -12.537  14.905  63.858  1.00  0.00    -0.831 OA 
ENDROOT
BRANCH   2   4
HETATM    4  O   UNL     1     -12.470  12.983  65.190  1.00  0.00    -0.460 OA 
BRANCH   4   5
HETATM    5  C   UNL     1     -11.466  12.031  64.902  1.00  0.00    -0.294 A  
HETATM    6  C   UNL     1     -11.004  11.967  63.580  1.00  0.00    -0.514 A  
HETATM    7  C   UNL     1      -9.962  11.114  63.242  1.00  0.00    -0.419 A  
HETATM    8  C   UNL     1      -9.357  10.353  64.233  1.00  0.00    -0.324 A  
HETATM    9  C   UNL     1      -9.794  10.444  65.565  1.00  0.00    -0.332 A  
HETATM   10  C   UNL     1     -10.859  11.278  65.920  1.00  0.00    -0.264 A  
HETATM   11  C   UNL     1     -11.287  11.338  67.343  1.00  0.00    -0.276 C  
HETATM   12  O   UNL     1     -12.242  12.036  67.658  1.00  0.00    -0.484 OA 
HETATM   13  C   UNL     1     -10.555  10.542  68.376  1.00  0.00    -0.230 A  
HETATM   14  C   UNL     1     -10.908  10.565  69.743  1.00  0.00    -0.281 A  
HETATM   15  O   UNL     1      -8.133   8.941  66.257  1.00  0.00    -0.107 OA 
HETATM   16  C   UNL     1     -10.218   9.795  70.693  1.00  0.00    -0.290 A  
HETATM   17  C   UNL     1      -9.137   9.005  70.290  1.00  0.00    -0.227 A  
HETATM   18  C   UNL     1      -9.078   9.652  66.579  1.00  0.00    -0.154 C  
HETATM   19  C   UNL     1      -8.376   8.139  71.230  1.00  0.00    -0.121 C  
HETATM   20  C   UNL     1      -9.488   9.732  67.992  1.00  0.00    -0.144 A  
HETATM   21  O   UNL     1      -8.298   8.603  72.493  1.00  0.00    -0.364 OA 
HETATM   22  C   UNL     1      -8.781   8.970  68.937  1.00  0.00    -0.136 A  
HETATM   23  O   UNL     1      -7.832   7.110  70.869  1.00  0.00    -0.093 OA 
BRANCH  14  24
HETATM   24  O   UNL     1     -12.003  11.396  70.116  1.00  0.00    -0.324 OA 
BRANCH  24  25
HETATM   25  C   UNL     1     -12.766  11.407  71.285  1.00  0.00    -0.393 C  
HETATM   26  O   UNL     1     -13.227  10.428  71.852  1.00  0.00    -0.439 OA 
HETATM   27  C   UNL     1     -12.923  12.822  71.761  1.00  0.00    -0.416 C  
ENDBRANCH  24  25
ENDBRANCH  14  24
ENDBRANCH   4   5
ENDBRANCH   2   4
TORSDOF 4
ENDMDL
MODEL       13
REMARK 921   NORMALIZED FREE ENERGY PREDICTED BY IDOCK:   -7.01 KCAL/MOL
REMARK 922        TOTAL FREE ENERGY PREDICTED BY IDOCK:   -9.29 KCAL/MOL
REMARK 923 INTER-LIGAND FREE ENERGY PREDICTED BY IDOCK:   -8.69 KCAL/MOL
REMARK 924 INTRA-LIGAND FREE ENERGY PREDICTED BY IDOCK:   -0.60 KCAL/MOL
REMARK 927      BINDING AFFINITY PREDICTED BY RF-SCORE:    0.00 PKD
ROOT
HETATM    1  C   UNL     1      -9.246   8.090  73.264  1.00  0.00    -0.347 C  
HETATM    2  C   UNL     1     -10.450   7.211  73.433  1.00  0.00    -0.368 C  
HETATM    3  O   UNL     1     -10.628   6.470  74.392  1.00  0.00    -0.223 OA 
ENDROOT
BRANCH   2   4
HETATM    4  O   UNL     1     -11.339   7.442  72.387  1.00  0.00    -0.267 OA 
BRANCH   4   5
HETATM    5  C   UNL     1     -10.842   7.216  71.083  1.00  0.00    -0.239 A  
HETATM    6  C   UNL     1     -10.429   5.912  70.772  1.00  0.00    -0.311 A  
HETATM    7  C   UNL     1     -10.009   5.598  69.487  1.00  0.00    -0.263 A  
HETATM    8  C   UNL     1     -10.038   6.577  68.503  1.00  0.00    -0.172 A  
HETATM    9  C   UNL     1     -10.487   7.874  68.804  1.00  0.00    -0.198 A  
HETATM   10  C   UNL     1     -10.890   8.216  70.098  1.00  0.00    -0.241 A  
HETATM   11  C   UNL     1     -11.355   9.602  70.369  1.00  0.00    -0.277 C  
HETATM   12  O   UNL     1     -11.674   9.922  71.507  1.00  0.00    -0.380 OA 
HETATM   13  C   UNL     1     -11.424  10.596  69.253  1.00  0.00    -0.351 A  
HETATM   14  C   UNL     1     -11.866  11.923  69.445  1.00  0.00    -0.327 A  
HETATM   15  O   UNL     1     -10.209   8.535  66.572  1.00  0.00    -0.289 OA 
HETATM   16  C   UNL     1     -11.905  12.845  68.387  1.00  0.00    -0.357 A  
HETATM   17  C   UNL     1     -11.525  12.441  67.103  1.00  0.00    -0.423 A  
HETATM   18  C   UNL     1     -10.546   8.854  67.706  1.00  0.00    -0.202 C  
HETATM   19  C   UNL     1     -11.509  13.366  65.938  1.00  0.00    -0.321 C  
HETATM   20  C   UNL     1     -11.030  10.219  67.970  1.00  0.00    -0.345 A  
HETATM   21  O   UNL     1     -12.442  14.338  65.973  1.00  0.00    -0.442 OA 
HETATM   22  C   UNL     1     -11.081  11.130  66.901  1.00  0.00    -0.313 A  
HETATM   23  O   UNL     1     -10.736  13.223  65.006  1.00  0.00    -0.303 OA 
BRANCH  14  24
HETATM   24  O   UNL     1     -12.261  12.291  70.764  1.00  0.00    -0.378 OA 
BRANCH  24  25
HETATM   25  C   UNL     1     -12.573  13.544  71.292  1.00  0.00    -0.341 C  
HETATM   26  O   UNL     1     -11.998  14.594  71.041  1.00  0.00    -0.310 OA 
HETATM   27  C   UNL     1     -13.751  13.415  72.214  1.00  0.00    -0.705 C  
ENDBRANCH  24  25
ENDBRANCH  14  24
ENDBRANCH   4   5
ENDBRANCH   2   4
TORSDOF 4
ENDMDL
MODEL       14
REMARK 921   NORMALIZED FREE ENERGY PREDICTED BY IDOCK:   -7.00 KCAL/MOL
REMARK 922        TOTAL FREE ENERGY PREDICTED BY IDOCK:   -9.29 KCAL/MOL
REMARK 923 INTER-LIGAND FREE ENERGY PREDICTED BY IDOCK:   -8.52 KCAL/MOL
REMARK 924 INTRA-LIGAND FREE ENERGY PREDICTED BY IDOCK:   -0.77 KCAL/MOL
REMARK 927      BINDING AFFINITY PREDICTED BY RF-SCORE:    0.00 PKD
ROOT
HETATM    1  C   UNL     1     -11.380   8.292  70.760  1.00  0.00    -0.285 C  
HETATM    2  C   UNL     1     -10.625   9.486  70.257  1.00  0.00    -0.266 C  
HETATM    3  O   UNL     1      -9.434   9.683  70.467  1.00  0.00    -0.256 OA 
ENDROOT
BRANCH   2   4
HETATM    4  O   UNL     1     -11.466  10.261  69.463  1.00  0.00    -0.242 OA 
BRANCH   4   5
HETATM    5  C   UNL     1     -10.967  10.624  68.192  1.00  0.00    -0.269 A  
HETATM    6  C   UNL     1     -10.785   9.595  67.257  1.00  0.00    -0.284 A  
HETATM    7  C   UNL     1     -10.378   9.888  65.962  1.00  0.00    -0.202 A  
HETATM    8  C   UNL     1     -10.189  11.213  65.592  1.00  0.00    -0.310 A  
HETATM    9  C   UNL     1     -10.407  12.248  66.517  1.00  0.00    -0.250 A  
HETATM   10  C   UNL     1     -10.792  11.970  67.832  1.00  0.00    -0.254 A  
HETATM   11  C   UNL     1     -11.009  13.099  68.776  1.00  0.00    -0.262 C  
HETATM   12  O   UNL     1     -11.310  12.866  69.939  1.00  0.00    -0.123 OA 
HETATM   13  C   UNL     1     -10.851  14.509  68.301  1.00  0.00    -0.247 A  
HETATM   14  C   UNL     1     -11.052  15.622  69.145  1.00  0.00    -0.284 A  
HETATM   15  O   UNL     1      -9.923  13.863  64.889  1.00  0.00    -0.311 OA 
HETATM   16  C   UNL     1     -10.880  16.936  68.682  1.00  0.00    -0.314 A  
HETATM   17  C   UNL     1     -10.528  17.159  67.347  1.00  0.00    -0.334 A  
HETATM   18  C   UNL     1     -10.242  13.634  66.050  1.00  0.00    -0.307 C  
HETATM   19  C   UNL     1     -10.297  18.519  66.790  1.00  0.00    -0.401 C  
HETATM   20  C   UNL     1     -10.480  14.752  66.979  1.00  0.00    -0.270 A  
HETATM   21  O   UNL     1     -11.038  19.495  67.351  1.00  0.00    -0.433 OA 
HETATM   22  C   UNL     1     -10.321  16.064  66.502  1.00  0.00    -0.303 A  
HETATM   23  O   UNL     1      -9.526  18.721  65.868  1.00  0.00    -0.470 OA 
BRANCH  14  24
HETATM   24  O   UNL     1     -11.426  15.353  70.493  1.00  0.00    -0.271 OA 
BRANCH  24  25
HETATM   25  C   UNL     1     -12.586  15.697  71.189  1.00  0.00    -0.453 C  
HETATM   26  O   UNL     1     -13.727  15.657  70.750  1.00  0.00    -0.490 OA 
HETATM   27  C   UNL     1     -12.223  16.112  72.586  1.00  0.00    -0.625 C  
ENDBRANCH  24  25
ENDBRANCH  14  24
ENDBRANCH   4   5
ENDBRANCH   2   4
TORSDOF 4
ENDMDL
MODEL       15
REMARK 921   NORMALIZED FREE ENERGY PREDICTED BY IDOCK:   -6.98 KCAL/MOL
REMARK 922        TOTAL FREE ENERGY PREDICTED BY IDOCK:   -9.26 KCAL/MOL
REMARK 923 INTER-LIGAND FREE ENERGY PREDICTED BY IDOCK:   -8.70 KCAL/MOL
REMARK 924 INTRA-LIGAND FREE ENERGY PREDICTED BY IDOCK:   -0.55 KCAL/MOL
REMARK 927      BINDING AFFINITY PREDICTED BY RF-SCORE:    0.00 PKD
ROOT
HETATM    1  C   UNL     1     -10.702  17.142  68.203  1.00  0.00    -0.366 C  
HETATM    2  C   UNL     1     -10.656  15.901  69.044  1.00  0.00    -0.247 C  
HETATM    3  O   UNL     1      -9.756  15.640  69.832  1.00  0.00    -0.283 OA 
ENDROOT
BRANCH   2   4
HETATM    4  O   UNL     1     -11.821  15.165  68.841  1.00  0.00    -0.326 OA 
BRANCH   4   5
HETATM    5  C   UNL     1     -12.359  14.520  69.978  1.00  0.00    -0.323 A  
HETATM    6  C   UNL     1     -13.163  15.290  70.831  1.00  0.00    -0.506 A  
HETATM    7  C   UNL     1     -13.792  14.703  71.920  1.00  0.00    -0.544 A  
HETATM    8  C   UNL     1     -13.649  13.339  72.135  1.00  0.00    -0.655 A  
HETATM    9  C   UNL     1     -12.874  12.559  71.260  1.00  0.00    -0.337 A  
HETATM   10  C   UNL     1     -12.212  13.138  70.173  1.00  0.00    -0.360 A  
HETATM   11  C   UNL     1     -11.401  12.272  69.275  1.00  0.00    -0.256 C  
HETATM   12  O   UNL     1     -10.787  12.773  68.343  1.00  0.00    -0.231 OA 
HETATM   13  C   UNL     1     -11.335  10.798  69.522  1.00  0.00    -0.355 A  
HETATM   14  C   UNL     1     -10.591   9.923  68.701  1.00  0.00    -0.217 A  
HETATM   15  O   UNL     1     -13.405  10.613  72.454  1.00  0.00    -0.283 OA 
HETATM   16  C   UNL     1     -10.529   8.545  68.962  1.00  0.00    -0.216 A  
HETATM   17  C   UNL     1     -11.239   8.013  70.043  1.00  0.00    -0.091 A  
HETATM   18  C   UNL     1     -12.802  11.110  71.509  1.00  0.00    -0.437 C  
HETATM   19  C   UNL     1     -11.198   6.570  70.402  1.00  0.00    -0.355 C  
HETATM   20  C   UNL     1     -12.019  10.250  70.607  1.00  0.00    -0.436 A  
HETATM   21  O   UNL     1     -11.039   5.730  69.361  1.00  0.00    -0.346 OA 
HETATM   22  C   UNL     1     -11.976   8.870  70.867  1.00  0.00    -0.254 A  
HETATM   23  O   UNL     1     -11.342   6.182  71.549  1.00  0.00    -0.284 OA 
BRANCH  14  24
HETATM   24  O   UNL     1      -9.896  10.502  67.600  1.00  0.00    -0.162 OA 
BRANCH  24  25
HETATM   25  C   UNL     1      -9.914  10.161  66.247  1.00  0.00    -0.242 C  
HETATM   26  O   UNL     1      -9.639   9.067  65.777  1.00  0.00    -0.256 OA 
HETATM   27  C   UNL     1     -10.345  11.352  65.441  1.00  0.00    -0.331 C  
ENDBRANCH  24  25
ENDBRANCH  14  24
ENDBRANCH   4   5
ENDBRANCH   2   4
TORSDOF 4
ENDMDL
MODEL       16
REMARK 921   NORMALIZED FREE ENERGY PREDICTED BY IDOCK:   -6.94 KCAL/MOL
REMARK 922        TOTAL FREE ENERGY PREDICTED BY IDOCK:   -9.21 KCAL/MOL
REMARK 923 INTER-LIGAND FREE ENERGY PREDICTED BY IDOCK:   -8.46 KCAL/MOL
REMARK 924 INTRA-LIGAND FREE ENERGY PREDICTED BY IDOCK:   -0.75 KCAL/MOL
REMARK 927      BINDING AFFINITY PREDICTED BY RF-SCORE:    0.00 PKD
ROOT
HETATM    1  C   UNL     1      -8.843   5.763  66.275  1.00  0.00    -0.140 C  
HETATM    2  C   UNL     1     -10.023   6.466  66.877  1.00  0.00    -0.167 C  
HETATM    3  O   UNL     1     -11.176   6.325  66.489  1.00  0.00    -0.142 OA 
ENDROOT
BRANCH   2   4
HETATM    4  O   UNL     1      -9.602   7.214  67.974  1.00  0.00    -0.133 OA 
BRANCH   4   5
HETATM    5  C   UNL     1     -10.398   7.121  69.137  1.00  0.00    -0.200 A  
HETATM    6  C   UNL     1     -10.454   5.875  69.778  1.00  0.00    -0.340 A  
HETATM    7  C   UNL     1     -11.150   5.731  70.971  1.00  0.00    -0.264 A  
HETATM    8  C   UNL     1     -11.756   6.841  71.543  1.00  0.00    -0.361 A  
HETATM    9  C   UNL     1     -11.670   8.098  70.922  1.00  0.00    -0.259 A  
HETATM   10  C   UNL     1     -10.996   8.257  69.707  1.00  0.00    -0.132 A  
HETATM   11  C   UNL     1     -10.933   9.607  69.085  1.00  0.00    -0.151 C  
HETATM   12  O   UNL     1     -10.379   9.750  68.004  1.00  0.00    -0.183 OA 
HETATM   13  C   UNL     1     -11.553  10.777  69.782  1.00  0.00    -0.393 A  
HETATM   14  C   UNL     1     -11.518  12.084  69.248  1.00  0.00    -0.301 A  
HETATM   15  O   UNL     1     -12.858   9.097  72.678  1.00  0.00    -0.361 OA 
HETATM   16  C   UNL     1     -12.123  13.164  69.910  1.00  0.00    -0.357 A  
HETATM   17  C   UNL     1     -12.754  12.956  71.141  1.00  0.00    -0.366 A  
HETATM   18  C   UNL     1     -12.289   9.247  71.603  1.00  0.00    -0.372 C  
HETATM   19  C   UNL     1     -13.443  14.043  71.887  1.00  0.00    -0.421 C  
HETATM   20  C   UNL     1     -12.205  10.587  70.999  1.00  0.00    -0.505 A  
HETATM   21  O   UNL     1     -12.910  15.270  71.724  1.00  0.00    -0.326 OA 
HETATM   22  C   UNL     1     -12.799  11.665  71.678  1.00  0.00    -0.454 A  
HETATM   23  O   UNL     1     -14.391  13.825  72.623  1.00  0.00    -0.678 OA 
BRANCH  14  24
HETATM   24  O   UNL     1     -10.851  12.257  68.001  1.00  0.00    -0.204 OA 
BRANCH  24  25
HETATM   25  C   UNL     1     -11.341  12.713  66.776  1.00  0.00    -0.320 C  
HETATM   26  O   UNL     1     -12.274  12.231  66.150  1.00  0.00    -0.647 OA 
HETATM   27  C   UNL     1     -10.550  13.913  66.342  1.00  0.00    -0.280 C  
ENDBRANCH  24  25
ENDBRANCH  14  24
ENDBRANCH   4   5
ENDBRANCH   2   4
TORSDOF 4
ENDMDL
MODEL       17
REMARK 921   NORMALIZED FREE ENERGY PREDICTED BY IDOCK:   -6.84 KCAL/MOL
REMARK 922        TOTAL FREE ENERGY PREDICTED BY IDOCK:   -9.08 KCAL/MOL
REMARK 923 INTER-LIGAND FREE ENERGY PREDICTED BY IDOCK:   -8.38 KCAL/MOL
REMARK 924 INTRA-LIGAND FREE ENERGY PREDICTED BY IDOCK:   -0.70 KCAL/MOL
REMARK 927      BINDING AFFINITY PREDICTED BY RF-SCORE:    0.00 PKD
ROOT
HETATM    1  C   UNL     1      -8.177   9.274  63.661  1.00  0.00    -0.166 C  
HETATM    2  C   UNL     1      -8.494   9.964  64.954  1.00  0.00    -0.161 C  
HETATM    3  O   UNL     1      -7.687  10.624  65.595  1.00  0.00    -0.153 OA 
ENDROOT
BRANCH   2   4
HETATM    4  O   UNL     1      -9.847   9.799  65.243  1.00  0.00    -0.313 OA 
BRANCH   4   5
HETATM    5  C   UNL     1     -10.155   9.292  66.525  1.00  0.00    -0.273 A  
HETATM    6  C   UNL     1      -9.783   7.968  66.798  1.00  0.00    -0.305 A  
HETATM    7  C   UNL     1      -9.979   7.431  68.063  1.00  0.00    -0.195 A  
HETATM    8  C   UNL     1     -10.513   8.229  69.066  1.00  0.00    -0.212 A  
HETATM    9  C   UNL     1     -10.852   9.568  68.804  1.00  0.00    -0.173 A  
HETATM   10  C   UNL     1     -10.685  10.118  67.530  1.00  0.00    -0.347 A  
HETATM   11  C   UNL     1     -11.060  11.539  67.301  1.00  0.00    -0.293 C  
HETATM   12  O   UNL     1     -10.954  12.020  66.180  1.00  0.00    -0.278 OA 
HETATM   13  C   UNL     1     -11.571  12.367  68.437  1.00  0.00    -0.373 A  
HETATM   14  C   UNL     1     -11.935  13.723  68.285  1.00  0.00    -0.357 A  
HETATM   15  O   UNL     1     -11.485   9.889  71.038  1.00  0.00    -0.334 OA 
HETATM   16  C   UNL     1     -12.429  14.476  69.361  1.00  0.00    -0.113 A  
HETATM   17  C   UNL     1     -12.543  13.887  70.624  1.00  0.00    -0.405 A  
HETATM   18  C   UNL     1     -11.363  10.379  69.922  1.00  0.00    -0.302 C  
HETATM   19  C   UNL     1     -13.086  14.609  71.806  1.00  0.00    -0.341 C  
HETATM   20  C   UNL     1     -11.712  11.792  69.699  1.00  0.00    -0.413 A  
HETATM   21  O   UNL     1     -12.848  15.935  71.819  1.00  0.00    -0.455 OA 
HETATM   22  C   UNL     1     -12.190  12.543  70.787  1.00  0.00    -0.332 A  
HETATM   23  O   UNL     1     -13.666  14.031  72.709  1.00  0.00    -0.660 OA 
BRANCH  14  24
HETATM   24  O   UNL     1     -11.788  14.292  66.987  1.00  0.00    -0.394 OA 
BRANCH  24  25
HETATM   25  C   UNL     1     -10.903  15.268  66.528  1.00  0.00    -0.311 C  
HETATM   26  O   UNL     1     -10.231  16.014  67.226  1.00  0.00    -0.265 OA 
HETATM   27  C   UNL     1     -10.885  15.256  65.027  1.00  0.00    -0.457 C  
ENDBRANCH  24  25
ENDBRANCH  14  24
ENDBRANCH   4   5
ENDBRANCH   2   4
TORSDOF 4
ENDMDL
MODEL       18
REMARK 921   NORMALIZED FREE ENERGY PREDICTED BY IDOCK:   -6.79 KCAL/MOL
REMARK 922        TOTAL FREE ENERGY PREDICTED BY IDOCK:   -9.02 KCAL/MOL
REMARK 923 INTER-LIGAND FREE ENERGY PREDICTED BY IDOCK:   -8.21 KCAL/MOL
REMARK 924 INTRA-LIGAND FREE ENERGY PREDICTED BY IDOCK:   -0.81 KCAL/MOL
REMARK 927      BINDING AFFINITY PREDICTED BY RF-SCORE:    0.00 PKD
ROOT
HETATM    1  C   UNL     1      -7.648   8.415  68.327  1.00  0.00    -0.098 C  
HETATM    2  C   UNL     1      -8.460   7.327  67.691  1.00  0.00    -0.116 C  
HETATM    3  O   UNL     1      -8.002   6.248  67.335  1.00  0.00    -0.107 OA 
ENDROOT
BRANCH   2   4
HETATM    4  O   UNL     1      -9.798   7.711  67.659  1.00  0.00    -0.149 OA 
BRANCH   4   5
HETATM    5  C   UNL     1     -10.503   7.628  68.881  1.00  0.00    -0.199 A  
HETATM    6  C   UNL     1     -10.493   6.392  69.544  1.00  0.00    -0.279 A  
HETATM    7  C   UNL     1     -11.094   6.259  70.788  1.00  0.00    -0.377 A  
HETATM    8  C   UNL     1     -11.670   7.370  71.388  1.00  0.00    -0.316 A  
HETATM    9  C   UNL     1     -11.647   8.618  70.742  1.00  0.00    -0.273 A  
HETATM   10  C   UNL     1     -11.070   8.765  69.477  1.00  0.00     0.006 A  
HETATM   11  C   UNL     1     -11.073  10.106  68.832  1.00  0.00    -0.207 C  
HETATM   12  O   UNL     1     -10.604  10.238  67.709  1.00  0.00    -0.211 OA 
HETATM   13  C   UNL     1     -11.653  11.279  69.556  1.00  0.00    -0.398 A  
HETATM   14  C   UNL     1     -11.676  12.577  69.001  1.00  0.00    -0.318 A  
HETATM   15  O   UNL     1     -12.711   9.631  72.569  1.00  0.00    -0.258 OA 
HETATM   16  C   UNL     1     -12.243  13.661  69.691  1.00  0.00    -0.326 A  
HETATM   17  C   UNL     1     -12.775  13.466  70.969  1.00  0.00    -0.387 A  
HETATM   18  C   UNL     1     -12.227   9.771  71.452  1.00  0.00    -0.397 C  
HETATM   19  C   UNL     1     -13.420  14.556  71.749  1.00  0.00    -0.375 C  
HETATM   20  C   UNL     1     -12.208  11.102  70.823  1.00  0.00    -0.484 A  
HETATM   21  O   UNL     1     -12.917  15.787  71.527  1.00  0.00    -0.470 OA 
HETATM   22  C   UNL     1     -12.762  12.183  71.528  1.00  0.00    -0.348 A  
HETATM   23  O   UNL     1     -14.306  14.339  72.558  1.00  0.00    -0.554 OA 
BRANCH  14  24
HETATM   24  O   UNL     1     -11.109  12.738  67.704  1.00  0.00    -0.238 OA 
BRANCH  24  25
HETATM   25  C   UNL     1     -11.684  13.212  66.524  1.00  0.00    -0.382 C  
HETATM   26  O   UNL     1     -12.452  12.595  65.800  1.00  0.00    -0.607 OA 
HETATM   27  C   UNL     1     -11.227  14.621  66.280  1.00  0.00    -0.340 C  
ENDBRANCH  24  25
ENDBRANCH  14  24
ENDBRANCH   4   5
ENDBRANCH   2   4
TORSDOF 4
ENDMDL
MODEL       19
REMARK 921   NORMALIZED FREE ENERGY PREDICTED BY IDOCK:   -6.76 KCAL/MOL
REMARK 922        TOTAL FREE ENERGY PREDICTED BY IDOCK:   -8.98 KCAL/MOL
REMARK 923 INTER-LIGAND FREE ENERGY PREDICTED BY IDOCK:   -8.17 KCAL/MOL
REMARK 924 INTRA-LIGAND FREE ENERGY PREDICTED BY IDOCK:   -0.81 KCAL/MOL
REMARK 927      BINDING AFFINITY PREDICTED BY RF-SCORE:    0.00 PKD
ROOT
HETATM    1  C   UNL     1      -9.218  16.578  68.481  1.00  0.00    -0.230 C  
HETATM    2  C   UNL     1     -10.544  17.173  68.111  1.00  0.00    -0.380 C  
HETATM    3  O   UNL     1     -10.743  18.374  67.977  1.00  0.00    -0.357 OA 
ENDROOT
BRANCH   2   4
HETATM    4  O   UNL     1     -11.455  16.148  67.868  1.00  0.00    -0.248 OA 
BRANCH   4   5
HETATM    5  C   UNL     1     -11.721  15.279  68.950  1.00  0.00    -0.342 A  
HETATM    6  C   UNL     1     -12.319  15.836  70.089  1.00  0.00    -0.309 A  
HETATM    7  C   UNL     1     -12.684  15.028  71.157  1.00  0.00    -0.431 A  
HETATM    8  C   UNL     1     -12.487  13.656  71.070  1.00  0.00    -0.456 A  
HETATM    9  C   UNL     1     -11.922  13.091  69.914  1.00  0.00    -0.381 A  
HETATM   10  C   UNL     1     -11.524  13.892  68.840  1.00  0.00    -0.340 A  
HETATM   11  C   UNL     1     -10.929  13.249  67.638  1.00  0.00    -0.262 C  
HETATM   12  O   UNL     1     -10.543  13.944  66.708  1.00  0.00    -0.275 OA 
HETATM   13  C   UNL     1     -10.800  11.760  67.578  1.00  0.00    -0.286 A  
HETATM   14  C   UNL     1     -10.253  11.090  66.462  1.00  0.00    -0.234 A  
HETATM   15  O   UNL     1     -12.159  10.934  70.800  1.00  0.00    -0.322 OA 
HETATM   16  C   UNL     1     -10.124   9.692  66.435  1.00  0.00    -0.317 A  
HETATM   17  C   UNL     1     -10.571   8.934  67.522  1.00  0.00    -0.307 A  
HETATM   18  C   UNL     1     -11.787  11.626  69.860  1.00  0.00    -0.358 C  
HETATM   19  C   UNL     1     -10.441   7.454  67.581  1.00  0.00    -0.241 C  
HETATM   20  C   UNL     1     -11.220  10.988  68.660  1.00  0.00    -0.322 A  
HETATM   21  O   UNL     1     -10.513   6.830  66.388  1.00  0.00    -0.075 OA 
HETATM   22  C   UNL     1     -11.111   9.587  68.635  1.00  0.00    -0.034 A  
HETATM   23  O   UNL     1     -10.322   6.854  68.635  1.00  0.00    -0.170 OA 
BRANCH  14  24
HETATM   24  O   UNL     1      -9.825  11.896  65.367  1.00  0.00    -0.238 OA 
BRANCH  24  25
HETATM   25  C   UNL     1     -10.276  11.931  64.047  1.00  0.00    -0.361 C  
HETATM   26  O   UNL     1      -9.614  11.668  63.054  1.00  0.00    -0.392 OA 
HETATM   27  C   UNL     1     -11.724  12.328  64.028  1.00  0.00    -0.506 C  
ENDBRANCH  24  25
ENDBRANCH  14  24
ENDBRANCH   4   5
ENDBRANCH   2   4
TORSDOF 4
ENDMDL
MODEL       20
REMARK 921   NORMALIZED FREE ENERGY PREDICTED BY IDOCK:   -6.72 KCAL/MOL
REMARK 922        TOTAL FREE ENERGY PREDICTED BY IDOCK:   -8.94 KCAL/MOL
REMARK 923 INTER-LIGAND FREE ENERGY PREDICTED BY IDOCK:   -8.31 KCAL/MOL
REMARK 924 INTRA-LIGAND FREE ENERGY PREDICTED BY IDOCK:   -0.63 KCAL/MOL
REMARK 927      BINDING AFFINITY PREDICTED BY RF-SCORE:    0.00 PKD
ROOT
HETATM    1  C   UNL     1     -10.779  15.857  65.385  1.00  0.00    -0.415 C  
HETATM    2  C   UNL     1     -11.427  14.936  66.375  1.00  0.00    -0.280 C  
HETATM    3  O   UNL     1     -12.448  14.298  66.151  1.00  0.00    -0.442 OA 
ENDROOT
BRANCH   2   4
HETATM    4  O   UNL     1     -10.642  14.870  67.523  1.00  0.00    -0.258 OA 
BRANCH   4   5
HETATM    5  C   UNL     1     -11.325  14.618  68.734  1.00  0.00    -0.281 A  
HETATM    6  C   UNL     1     -12.014  15.690  69.318  1.00  0.00    -0.338 A  
HETATM    7  C   UNL     1     -12.775  15.496  70.463  1.00  0.00    -0.436 A  
HETATM    8  C   UNL     1     -12.878  14.221  71.002  1.00  0.00    -0.427 A  
HETATM    9  C   UNL     1     -12.218  13.137  70.398  1.00  0.00    -0.389 A  
HETATM   10  C   UNL     1     -11.427  13.319  69.260  1.00  0.00    -0.345 A  
HETATM   11  C   UNL     1     -10.746  12.142  68.656  1.00  0.00    -0.233 C  
HETATM   12  O   UNL     1     -10.020  12.296  67.682  1.00  0.00    -0.193 OA 
HETATM   13  C   UNL     1     -10.945  10.783  69.247  1.00  0.00    -0.292 A  
HETATM   14  C   UNL     1     -10.334   9.627  68.714  1.00  0.00    -0.213 A  
HETATM   15  O   UNL     1     -13.121  11.653  71.971  1.00  0.00    -0.478 OA 
HETATM   16  C   UNL     1     -10.521   8.362  69.296  1.00  0.00    -0.223 A  
HETATM   17  C   UNL     1     -11.352   8.231  70.413  1.00  0.00    -0.177 A  
HETATM   18  C   UNL     1     -12.408  11.801  70.986  1.00  0.00    -0.282 C  
HETATM   19  C   UNL     1     -11.575   6.932  71.104  1.00  0.00    -0.319 C  
HETATM   20  C   UNL     1     -11.753  10.633  70.373  1.00  0.00    -0.446 A  
HETATM   21  O   UNL     1     -11.525   5.848  70.304  1.00  0.00    -0.272 OA 
HETATM   22  C   UNL     1     -11.959   9.370  70.953  1.00  0.00    -0.351 A  
HETATM   23  O   UNL     1     -11.825   6.865  72.295  1.00  0.00    -0.279 OA 
BRANCH  14  24
HETATM   24  O   UNL     1      -9.510   9.800  67.565  1.00  0.00    -0.145 OA 
BRANCH  24  25
HETATM   25  C   UNL     1      -9.492   9.100  66.358  1.00  0.00    -0.227 C  
HETATM   26  O   UNL     1      -9.200   7.921  66.214  1.00  0.00    -0.181 OA 
HETATM   27  C   UNL     1      -9.908  10.018  65.246  1.00  0.00    -0.388 C  
ENDBRANCH  24  25
ENDBRANCH  14  24
ENDBRANCH   4   5
ENDBRANCH   2   4
TORSDOF 4
ENDMDL
MODEL       21
REMARK 921   NORMALIZED FREE ENERGY PREDICTED BY IDOCK:   -6.70 KCAL/MOL
REMARK 922        TOTAL FREE ENERGY PREDICTED BY IDOCK:   -8.92 KCAL/MOL
REMARK 923 INTER-LIGAND FREE ENERGY PREDICTED BY IDOCK:   -8.01 KCAL/MOL
REMARK 924 INTRA-LIGAND FREE ENERGY PREDICTED BY IDOCK:   -0.91 KCAL/MOL
REMARK 927      BINDING AFFINITY PREDICTED BY RF-SCORE:    0.00 PKD
ROOT
HETATM    1  C   UNL     1     -10.391  19.799  65.838  1.00  0.00    -0.582 C  
HETATM    2  C   UNL     1     -10.299  18.491  66.566  1.00  0.00    -0.414 C  
HETATM    3  O   UNL     1     -10.796  18.283  67.666  1.00  0.00    -0.396 OA 
ENDROOT
BRANCH   2   4
HETATM    4  O   UNL     1      -9.645  17.562  65.761  1.00  0.00    -0.523 OA 
BRANCH   4   5
HETATM    5  C   UNL     1      -8.522  16.921  66.330  1.00  0.00    -0.290 A  
HETATM    6  C   UNL     1      -7.453  17.736  66.728  1.00  0.00    -0.244 A  
HETATM    7  C   UNL     1      -6.352  17.184  67.371  1.00  0.00    -0.174 A  
HETATM    8  C   UNL     1      -6.338  15.824  67.649  1.00  0.00    -0.186 A  
HETATM    9  C   UNL     1      -7.425  15.012  67.284  1.00  0.00    -0.215 A  
HETATM   10  C   UNL     1      -8.530  15.546  66.614  1.00  0.00    -0.314 A  
HETATM   11  C   UNL     1      -9.657  14.646  66.246  1.00  0.00    -0.308 C  
HETATM   12  O   UNL     1     -10.612  15.095  65.626  1.00  0.00    -0.310 OA 
HETATM   13  C   UNL     1      -9.611  13.201  66.629  1.00  0.00    -0.260 A  
HETATM   14  C   UNL     1     -10.653  12.300  66.317  1.00  0.00    -0.251 A  
HETATM   15  O   UNL     1      -6.409  13.138  68.260  1.00  0.00    -0.077 OA 
HETATM   16  C   UNL     1     -10.581  10.943  66.670  1.00  0.00    -0.305 A  
HETATM   17  C   UNL     1      -9.468  10.469  67.372  1.00  0.00    -0.172 A  
HETATM   18  C   UNL     1      -7.375  13.588  67.654  1.00  0.00    -0.174 C  
HETATM   19  C   UNL     1      -9.304   9.040  67.754  1.00  0.00    -0.140 C  
HETATM   20  C   UNL     1      -8.501  12.704  67.310  1.00  0.00    -0.193 A  
HETATM   21  O   UNL     1     -10.454   8.385  68.007  1.00  0.00    -0.217 OA 
HETATM   22  C   UNL     1      -8.428  11.351  67.683  1.00  0.00    -0.130 A  
HETATM   23  O   UNL     1      -8.208   8.521  67.870  1.00  0.00    -0.117 OA 
BRANCH  14  24
HETATM   24  O   UNL     1     -11.777  12.826  65.617  1.00  0.00    -0.355 OA 
BRANCH  24  25
HETATM   25  C   UNL     1     -12.346  12.431  64.405  1.00  0.00    -0.447 C  
HETATM   26  O   UNL     1     -13.520  12.146  64.221  1.00  0.00    -0.708 OA 
HETATM   27  C   UNL     1     -11.289  12.425  63.339  1.00  0.00    -0.507 C  
ENDBRANCH  24  25
ENDBRANCH  14  24
ENDBRANCH   4   5
ENDBRANCH   2   4
TORSDOF 4
ENDMDL
MODEL       22
REMARK 921   NORMALIZED FREE ENERGY PREDICTED BY IDOCK:   -6.70 KCAL/MOL
REMARK 922        TOTAL FREE ENERGY PREDICTED BY IDOCK:   -8.91 KCAL/MOL
REMARK 923 INTER-LIGAND FREE ENERGY PREDICTED BY IDOCK:   -8.51 KCAL/MOL
REMARK 924 INTRA-LIGAND FREE ENERGY PREDICTED BY IDOCK:   -0.40 KCAL/MOL
REMARK 927      BINDING AFFINITY PREDICTED BY RF-SCORE:    0.00 PKD
ROOT
HETATM    1  C   UNL     1     -12.164  15.234  73.414  1.00  0.00    -0.595 C  
HETATM    2  C   UNL     1     -13.386  14.949  72.592  1.00  0.00    -0.456 C  
HETATM    3  O   UNL     1     -14.364  15.684  72.541  1.00  0.00    -0.537 OA 
ENDROOT
BRANCH   2   4
HETATM    4  O   UNL     1     -13.182  13.786  71.854  1.00  0.00    -0.351 OA 
BRANCH   4   5
HETATM    5  C   UNL     1     -12.571  13.946  70.590  1.00  0.00    -0.335 A  
HETATM    6  C   UNL     1     -12.442  15.254  70.102  1.00  0.00    -0.374 A  
HETATM    7  C   UNL     1     -11.778  15.494  68.906  1.00  0.00    -0.385 A  
HETATM    8  C   UNL     1     -11.209  14.430  68.219  1.00  0.00    -0.295 A  
HETATM    9  C   UNL     1     -11.305  13.123  68.726  1.00  0.00    -0.333 A  
HETATM   10  C   UNL     1     -11.992  12.860  69.915  1.00  0.00    -0.377 A  
HETATM   11  C   UNL     1     -12.069  11.459  70.411  1.00  0.00    -0.384 C  
HETATM   12  O   UNL     1     -12.700  11.212  71.430  1.00  0.00    -0.405 OA 
HETATM   13  C   UNL     1     -11.383  10.364  69.659  1.00  0.00    -0.333 A  
HETATM   14  C   UNL     1     -11.411   9.018  70.084  1.00  0.00    -0.121 A  
HETATM   15  O   UNL     1     -10.020  12.293  66.950  1.00  0.00    -0.208 OA 
HETATM   16  C   UNL     1     -10.774   8.003  69.351  1.00  0.00    -0.167 A  
HETATM   17  C   UNL     1     -10.070   8.326  68.188  1.00  0.00    -0.238 A  
HETATM   18  C   UNL     1     -10.636  12.044  67.980  1.00  0.00    -0.208 C  
HETATM   19  C   UNL     1      -9.397   7.304  67.342  1.00  0.00    -0.128 C  
HETATM   20  C   UNL     1     -10.693  10.662  68.484  1.00  0.00    -0.252 A  
HETATM   21  O   UNL     1      -8.922   6.236  68.012  1.00  0.00    -0.116 OA 
HETATM   22  C   UNL     1     -10.039   9.656  67.754  1.00  0.00    -0.232 A  
HETATM   23  O   UNL     1      -9.252   7.449  66.140  1.00  0.00    -0.166 OA 
BRANCH  14  24
HETATM   24  O   UNL     1     -12.124   8.732  71.283  1.00  0.00    -0.290 OA 
BRANCH  24  25
HETATM   25  C   UNL     1     -12.900   7.623  71.625  1.00  0.00    -0.349 C  
HETATM   26  O   UNL     1     -12.477   6.528  71.970  1.00  0.00    -0.327 OA 
HETATM   27  C   UNL     1     -14.353   7.984  71.523  1.00  0.00    -0.546 C  
ENDBRANCH  24  25
ENDBRANCH  14  24
ENDBRANCH   4   5
ENDBRANCH   2   4
TORSDOF 4
ENDMDL
MODEL       23
REMARK 921   NORMALIZED FREE ENERGY PREDICTED BY IDOCK:   -6.62 KCAL/MOL
REMARK 922        TOTAL FREE ENERGY PREDICTED BY IDOCK:   -8.81 KCAL/MOL
REMARK 923 INTER-LIGAND FREE ENERGY PREDICTED BY IDOCK:   -8.59 KCAL/MOL
REMARK 924 INTRA-LIGAND FREE ENERGY PREDICTED BY IDOCK:   -0.22 KCAL/MOL
REMARK 927      BINDING AFFINITY PREDICTED BY RF-SCORE:    0.00 PKD
ROOT
HETATM    1  C   UNL     1     -13.966   8.277  71.867  1.00  0.00    -0.468 C  
HETATM    2  C   UNL     1     -12.604   8.890  71.999  1.00  0.00    -0.394 C  
HETATM    3  O   UNL     1     -11.698   8.412  72.670  1.00  0.00    -0.386 OA 
ENDROOT
BRANCH   2   4
HETATM    4  O   UNL     1     -12.526  10.015  71.182  1.00  0.00    -0.323 OA 
BRANCH   4   5
HETATM    5  C   UNL     1     -11.525   9.995  70.185  1.00  0.00    -0.277 A  
HETATM    6  C   UNL     1     -11.004   8.744  69.823  1.00  0.00    -0.146 A  
HETATM    7  C   UNL     1     -10.079   8.640  68.794  1.00  0.00    -0.210 A  
HETATM    8  C   UNL     1      -9.703   9.782  68.100  1.00  0.00    -0.163 A  
HETATM    9  C   UNL     1     -10.251  11.032  68.435  1.00  0.00    -0.198 A  
HETATM   10  C   UNL     1     -11.164  11.159  69.486  1.00  0.00    -0.341 A  
HETATM   11  C   UNL     1     -11.716  12.503  69.806  1.00  0.00    -0.285 C  
HETATM   12  O   UNL     1     -12.488  12.632  70.748  1.00  0.00    -0.348 OA 
HETATM   13  C   UNL     1     -11.320  13.686  68.981  1.00  0.00    -0.333 A  
HETATM   14  C   UNL     1     -11.817  14.985  69.229  1.00  0.00    -0.315 A  
HETATM   15  O   UNL     1      -9.067  12.067  66.697  1.00  0.00    -0.198 OA 
HETATM   16  C   UNL     1     -11.417  16.084  68.453  1.00  0.00    -0.331 A  
HETATM   17  C   UNL     1     -10.528  15.895  67.391  1.00  0.00    -0.306 A  
HETATM   18  C   UNL     1      -9.853  12.197  67.628  1.00  0.00    -0.194 C  
HETATM   19  C   UNL     1     -10.034  17.014  66.544  1.00  0.00    -0.310 C  
HETATM   20  C   UNL     1     -10.419  13.523  67.931  1.00  0.00    -0.253 A  
HETATM   21  O   UNL     1     -10.905  18.029  66.379  1.00  0.00    -0.186 OA 
HETATM   22  C   UNL     1     -10.025  14.614  67.138  1.00  0.00    -0.240 A  
HETATM   23  O   UNL     1      -8.939  16.988  66.008  1.00  0.00    -0.470 OA 
BRANCH  14  24
HETATM   24  O   UNL     1     -12.734  15.133  70.309  1.00  0.00    -0.349 OA 
BRANCH  24  25
HETATM   25  C   UNL     1     -12.582  15.784  71.534  1.00  0.00    -0.455 C  
HETATM   26  O   UNL     1     -11.619  16.453  71.878  1.00  0.00    -0.450 OA 
HETATM   27  C   UNL     1     -13.805  15.552  72.374  1.00  0.00    -0.662 C  
ENDBRANCH  24  25
ENDBRANCH  14  24
ENDBRANCH   4   5
ENDBRANCH   2   4
TORSDOF 4
ENDMDL
MODEL       24
REMARK 921   NORMALIZED FREE ENERGY PREDICTED BY IDOCK:   -6.61 KCAL/MOL
REMARK 922        TOTAL FREE ENERGY PREDICTED BY IDOCK:   -8.80 KCAL/MOL
REMARK 923 INTER-LIGAND FREE ENERGY PREDICTED BY IDOCK:   -7.95 KCAL/MOL
REMARK 924 INTRA-LIGAND FREE ENERGY PREDICTED BY IDOCK:   -0.85 KCAL/MOL
REMARK 927      BINDING AFFINITY PREDICTED BY RF-SCORE:    0.00 PKD
ROOT
HETATM    1  C   UNL     1     -12.234  14.544  64.298  1.00  0.00    -0.441 C  
HETATM    2  C   UNL     1     -11.263  15.645  64.602  1.00  0.00    -0.369 C  
HETATM    3  O   UNL     1     -11.382  16.795  64.200  1.00  0.00    -1.194 OA 
ENDROOT
BRANCH   2   4
HETATM    4  O   UNL     1     -10.281  15.166  65.466  1.00  0.00    -0.322 OA 
BRANCH   4   5
HETATM    5  C   UNL     1     -10.672  14.965  66.808  1.00  0.00    -0.312 A  
HETATM    6  C   UNL     1     -11.125  16.086  67.519  1.00  0.00    -0.207 A  
HETATM    7  C   UNL     1     -11.604  15.948  68.814  1.00  0.00    -0.389 A  
HETATM    8  C   UNL     1     -11.666  14.685  69.386  1.00  0.00    -0.355 A  
HETATM    9  C   UNL     1     -11.248  13.556  68.663  1.00  0.00    -0.311 A  
HETATM   10  C   UNL     1     -10.739  13.678  67.366  1.00  0.00    -0.272 A  
HETATM   11  C   UNL     1     -10.306  12.454  66.640  1.00  0.00    -0.226 C  
HETATM   12  O   UNL     1      -9.824  12.553  65.520  1.00  0.00    -0.250 OA 
HETATM   13  C   UNL     1     -10.456  11.113  67.286  1.00  0.00    -0.263 A  
HETATM   14  C   UNL     1     -10.073   9.914  66.645  1.00  0.00    -0.233 A  
HETATM   15  O   UNL     1     -11.854  12.143  70.432  1.00  0.00    -0.311 OA 
HETATM   16  C   UNL     1     -10.206   8.668  67.278  1.00  0.00    -0.337 A  
HETATM   17  C   UNL     1     -10.754   8.599  68.562  1.00  0.00    -0.091 A  
HETATM   18  C   UNL     1     -11.387  12.237  69.303  1.00  0.00    -0.256 C  
HETATM   19  C   UNL     1     -10.899   7.321  69.310  1.00  0.00    -0.159 C  
HETATM   20  C   UNL     1     -10.981  11.024  68.574  1.00  0.00    -0.276 A  
HETATM   21  O   UNL     1     -11.117   6.235  68.541  1.00  0.00    -0.334 OA 
HETATM   22  C   UNL     1     -11.133   9.780  69.209  1.00  0.00    -0.184 A  
HETATM   23  O   UNL     1     -10.863   7.273  70.527  1.00  0.00    -0.231 OA 
BRANCH  14  24
HETATM   24  O   UNL     1      -9.534  10.026  65.331  1.00  0.00    -0.209 OA 
BRANCH  24  25
HETATM   25  C   UNL     1      -8.439   9.384  64.751  1.00  0.00    -0.167 C  
HETATM   26  O   UNL     1      -8.486   8.430  63.988  1.00  0.00    -0.112 OA 
HETATM   27  C   UNL     1      -7.175  10.062  65.194  1.00  0.00    -0.139 C  
ENDBRANCH  24  25
ENDBRANCH  14  24
ENDBRANCH   4   5
ENDBRANCH   2   4
TORSDOF 4
ENDMDL
MODEL       25
REMARK 921   NORMALIZED FREE ENERGY PREDICTED BY IDOCK:   -6.59 KCAL/MOL
REMARK 922        TOTAL FREE ENERGY PREDICTED BY IDOCK:   -8.77 KCAL/MOL
REMARK 923 INTER-LIGAND FREE ENERGY PREDICTED BY IDOCK:   -8.14 KCAL/MOL
REMARK 924 INTRA-LIGAND FREE ENERGY PREDICTED BY IDOCK:   -0.63 KCAL/MOL
REMARK 927      BINDING AFFINITY PREDICTED BY RF-SCORE:    0.00 PKD
ROOT
HETATM    1  C   UNL     1     -12.668   7.133  71.443  1.00  0.00    -0.433 C  
HETATM    2  C   UNL     1     -11.407   7.044  72.249  1.00  0.00    -0.268 C  
HETATM    3  O   UNL     1     -11.223   6.232  73.147  1.00  0.00    -0.211 OA 
ENDROOT
BRANCH   2   4
HETATM    4  O   UNL     1     -10.480   7.958  71.755  1.00  0.00    -0.209 OA 
BRANCH   4   5
HETATM    5  C   UNL     1     -10.050   7.756  70.424  1.00  0.00    -0.194 A  
HETATM    6  C   UNL     1      -9.490   6.508  70.115  1.00  0.00    -0.164 A  
HETATM    7  C   UNL     1      -9.123   6.208  68.810  1.00  0.00    -0.126 A  
HETATM    8  C   UNL     1      -9.349   7.142  67.808  1.00  0.00    -0.131 A  
HETATM    9  C   UNL     1      -9.944   8.379  68.110  1.00  0.00    -0.224 A  
HETATM   10  C   UNL     1     -10.297   8.708  69.422  1.00  0.00    -0.221 A  
HETATM   11  C   UNL     1     -10.922  10.030  69.694  1.00  0.00    -0.264 C  
HETATM   12  O   UNL     1     -11.201  10.343  70.844  1.00  0.00    -0.311 OA 
HETATM   13  C   UNL     1     -11.199  10.969  68.563  1.00  0.00    -0.329 A  
HETATM   14  C   UNL     1     -11.798  12.233  68.755  1.00  0.00    -0.306 A  
HETATM   15  O   UNL     1      -9.911   8.996  65.849  1.00  0.00    -0.276 OA 
HETATM   16  C   UNL     1     -12.032  13.106  67.680  1.00  0.00    -0.363 A  
HETATM   17  C   UNL     1     -11.692  12.713  66.382  1.00  0.00    -0.466 A  
HETATM   18  C   UNL     1     -10.207   9.306  66.997  1.00  0.00    -0.262 C  
HETATM   19  C   UNL     1     -11.879  13.593  65.198  1.00  0.00    -0.348 C  
HETATM   20  C   UNL     1     -10.848  10.605  67.263  1.00  0.00    -0.345 A  
HETATM   21  O   UNL     1     -12.928  14.436  65.278  1.00  0.00    -0.608 OA 
HETATM   22  C   UNL     1     -11.093  11.465  66.180  1.00  0.00    -0.259 A  
HETATM   23  O   UNL     1     -11.161  13.522  64.216  1.00  0.00    -0.381 OA 
BRANCH  14  24
HETATM   24  O   UNL     1     -12.146  12.589  70.090  1.00  0.00    -0.340 OA 
BRANCH  24  25
HETATM   25  C   UNL     1     -12.188  13.842  70.704  1.00  0.00    -0.373 C  
HETATM   26  O   UNL     1     -11.520  14.818  70.393  1.00  0.00    -0.260 OA 
HETATM   27  C   UNL     1     -13.206  13.820  71.807  1.00  0.00    -0.467 C  
ENDBRANCH  24  25
ENDBRANCH  14  24
ENDBRANCH   4   5
ENDBRANCH   2   4
TORSDOF 4
ENDMDL
MODEL       26
REMARK 921   NORMALIZED FREE ENERGY PREDICTED BY IDOCK:   -6.58 KCAL/MOL
REMARK 922        TOTAL FREE ENERGY PREDICTED BY IDOCK:   -8.77 KCAL/MOL
REMARK 923 INTER-LIGAND FREE ENERGY PREDICTED BY IDOCK:   -8.20 KCAL/MOL
REMARK 924 INTRA-LIGAND FREE ENERGY PREDICTED BY IDOCK:   -0.56 KCAL/MOL
REMARK 927      BINDING AFFINITY PREDICTED BY RF-SCORE:    0.00 PKD
ROOT
HETATM    1  C   UNL     1     -11.660   8.268  72.136  1.00  0.00    -0.428 C  
HETATM    2  C   UNL     1     -11.019   9.279  71.233  1.00  0.00    -0.351 C  
HETATM    3  O   UNL     1      -9.816   9.509  71.206  1.00  0.00    -0.228 OA 
ENDROOT
BRANCH   2   4
HETATM    4  O   UNL     1     -11.988   9.827  70.397  1.00  0.00    -0.235 OA 
BRANCH   4   5
HETATM    5  C   UNL     1     -12.460  11.113  70.745  1.00  0.00    -0.384 A  
HETATM    6  C   UNL     1     -13.225  11.219  71.915  1.00  0.00    -0.491 A  
HETATM    7  C   UNL     1     -13.652  12.462  72.363  1.00  0.00    -0.262 A  
HETATM    8  C   UNL     1     -13.281  13.602  71.663  1.00  0.00    -0.447 A  
HETATM    9  C   UNL     1     -12.483  13.500  70.511  1.00  0.00    -0.373 A  
HETATM   10  C   UNL     1     -12.065  12.255  70.030  1.00  0.00    -0.346 A  
HETATM   11  C   UNL     1     -11.223  12.198  68.806  1.00  0.00    -0.264 C  
HETATM   12  O   UNL     1     -10.884  11.112  68.355  1.00  0.00    -0.179 OA 
HETATM   13  C   UNL     1     -10.803  13.465  68.130  1.00  0.00    -0.273 A  
HETATM   14  C   UNL     1      -9.997  13.476  66.971  1.00  0.00    -0.247 A  
HETATM   15  O   UNL     1     -12.434  15.833  70.286  1.00  0.00    -0.389 OA 
HETATM   16  C   UNL     1      -9.630  14.677  66.343  1.00  0.00    -0.323 A  
HETATM   17  C   UNL     1     -10.046  15.897  66.886  1.00  0.00    -0.267 A  
HETATM   18  C   UNL     1     -12.078  14.748  69.842  1.00  0.00    -0.332 C  
HETATM   19  C   UNL     1      -9.724  17.209  66.262  1.00  0.00    -0.278 C  
HETATM   20  C   UNL     1     -11.224  14.691  68.644  1.00  0.00    -0.293 A  
HETATM   21  O   UNL     1      -8.548  17.252  65.606  1.00  0.00    -0.476 OA 
HETATM   22  C   UNL     1     -10.849  15.899  68.032  1.00  0.00    -0.317 A  
HETATM   23  O   UNL     1     -10.455  18.178  66.376  1.00  0.00    -0.379 OA 
BRANCH  14  24
HETATM   24  O   UNL     1      -9.580  12.214  66.459  1.00  0.00    -0.216 OA 
BRANCH  24  25
HETATM   25  C   UNL     1      -8.325  11.604  66.484  1.00  0.00    -0.122 C  
HETATM   26  O   UNL     1      -7.342  12.007  67.089  1.00  0.00    -0.140 OA 
HETATM   27  C   UNL     1      -8.367  10.349  65.661  1.00  0.00    -0.163 C  
ENDBRANCH  24  25
ENDBRANCH  14  24
ENDBRANCH   4   5
ENDBRANCH   2   4
TORSDOF 4
ENDMDL
MODEL       27
REMARK 921   NORMALIZED FREE ENERGY PREDICTED BY IDOCK:   -6.56 KCAL/MOL
REMARK 922        TOTAL FREE ENERGY PREDICTED BY IDOCK:   -8.74 KCAL/MOL
REMARK 923 INTER-LIGAND FREE ENERGY PREDICTED BY IDOCK:   -8.05 KCAL/MOL
REMARK 924 INTRA-LIGAND FREE ENERGY PREDICTED BY IDOCK:   -0.69 KCAL/MOL
REMARK 927      BINDING AFFINITY PREDICTED BY RF-SCORE:    0.00 PKD
ROOT
HETATM    1  C   UNL     1     -11.842  15.896  71.489  1.00  0.00    -0.536 C  
HETATM    2  C   UNL     1     -11.273  15.227  70.273  1.00  0.00    -0.297 C  
HETATM    3  O   UNL     1     -10.116  15.361  69.895  1.00  0.00    -0.277 OA 
ENDROOT
BRANCH   2   4
HETATM    4  O   UNL     1     -12.235  14.387  69.719  1.00  0.00    -0.315 OA 
BRANCH   4   5
HETATM    5  C   UNL     1     -11.987  13.934  68.404  1.00  0.00    -0.356 A  
HETATM    6  C   UNL     1     -12.019  14.891  67.379  1.00  0.00    -0.144 A  
HETATM    7  C   UNL     1     -11.703  14.533  66.075  1.00  0.00    -0.347 A  
HETATM    8  C   UNL     1     -11.318  13.227  65.803  1.00  0.00    -0.328 A  
HETATM    9  C   UNL     1     -11.250  12.276  66.834  1.00  0.00    -0.367 A  
HETATM   10  C   UNL     1     -11.589  12.612  68.148  1.00  0.00    -0.386 A  
HETATM   11  C   UNL     1     -11.504  11.570  69.206  1.00  0.00    -0.305 C  
HETATM   12  O   UNL     1     -11.835  11.843  70.353  1.00  0.00    -0.332 OA 
HETATM   13  C   UNL     1     -11.022  10.196  68.862  1.00  0.00    -0.261 A  
HETATM   14  C   UNL     1     -10.910   9.168  69.823  1.00  0.00    -0.211 A  
HETATM   15  O   UNL     1     -10.470  10.647  65.340  1.00  0.00    -0.258 OA 
HETATM   16  C   UNL     1     -10.473   7.880  69.473  1.00  0.00    -0.226 A  
HETATM   17  C   UNL     1     -10.111   7.607  68.150  1.00  0.00    -0.220 A  
HETATM   18  C   UNL     1     -10.784  10.922  66.492  1.00  0.00    -0.209 C  
HETATM   19  C   UNL     1      -9.669   6.261  67.696  1.00  0.00    -0.119 C  
HETATM   20  C   UNL     1     -10.677   9.898  67.545  1.00  0.00    -0.333 A  
HETATM   21  O   UNL     1      -9.012   5.538  68.624  1.00  0.00    -0.113 OA 
HETATM   22  C   UNL     1     -10.223   8.617  67.188  1.00  0.00    -0.353 A  
HETATM   23  O   UNL     1      -9.853   5.867  66.558  1.00  0.00    -0.155 OA 
BRANCH  14  24
HETATM   24  O   UNL     1     -11.271   9.490  71.163  1.00  0.00    -0.315 OA 
BRANCH  24  25
HETATM   25  C   UNL     1     -12.010   8.761  72.095  1.00  0.00    -0.366 C  
HETATM   26  O   UNL     1     -11.578   7.877  72.822  1.00  0.00    -0.383 OA 
HETATM   27  C   UNL     1     -13.432   9.240  72.087  1.00  0.00    -0.539 C  
ENDBRANCH  24  25
ENDBRANCH  14  24
ENDBRANCH   4   5
ENDBRANCH   2   4
TORSDOF 4
ENDMDL
MODEL       28
REMARK 921   NORMALIZED FREE ENERGY PREDICTED BY IDOCK:   -6.54 KCAL/MOL
REMARK 922        TOTAL FREE ENERGY PREDICTED BY IDOCK:   -8.71 KCAL/MOL
REMARK 923 INTER-LIGAND FREE ENERGY PREDICTED BY IDOCK:   -7.79 KCAL/MOL
REMARK 924 INTRA-LIGAND FREE ENERGY PREDICTED BY IDOCK:   -0.92 KCAL/MOL
REMARK 927      BINDING AFFINITY PREDICTED BY RF-SCORE:    0.00 PKD
ROOT
HETATM    1  C   UNL     1      -6.590   9.749  64.637  1.00  0.00    -0.112 C  
HETATM    2  C   UNL     1      -7.435   9.042  63.619  1.00  0.00    -0.103 C  
HETATM    3  O   UNL     1      -6.999   8.566  62.578  1.00  0.00    -0.094 OA 
ENDROOT
BRANCH   2   4
HETATM    4  O   UNL     1      -8.741   8.947  64.091  1.00  0.00    -0.158 OA 
BRANCH   4   5
HETATM    5  C   UNL     1      -9.431  10.167  64.269  1.00  0.00    -0.305 A  
HETATM    6  C   UNL     1      -9.588  10.986  63.141  1.00  0.00    -0.384 A  
HETATM    7  C   UNL     1     -10.327  12.158  63.223  1.00  0.00    -0.352 A  
HETATM    8  C   UNL     1     -10.941  12.493  64.422  1.00  0.00    -0.378 A  
HETATM    9  C   UNL     1     -10.816  11.656  65.543  1.00  0.00    -0.334 A  
HETATM   10  C   UNL     1     -10.054  10.485  65.487  1.00  0.00    -0.349 A  
HETATM   11  C   UNL     1      -9.949   9.631  66.701  1.00  0.00    -0.236 C  
HETATM   12  O   UNL     1      -9.255   8.623  66.674  1.00  0.00    -0.158 OA 
HETATM   13  C   UNL     1     -10.685  10.013  67.946  1.00  0.00    -0.322 A  
HETATM   14  C   UNL     1     -10.633   9.239  69.126  1.00  0.00    -0.212 A  
HETATM   15  O   UNL     1     -12.213  13.057  66.800  1.00  0.00    -0.368 OA 
HETATM   16  C   UNL     1     -11.318   9.626  70.289  1.00  0.00    -0.311 A  
HETATM   17  C   UNL     1     -12.094  10.789  70.280  1.00  0.00    -0.433 A  
HETATM   18  C   UNL     1     -11.533  12.038  66.771  1.00  0.00    -0.345 C  
HETATM   19  C   UNL     1     -12.822  11.282  71.481  1.00  0.00    -0.414 C  
HETATM   20  C   UNL     1     -11.448  11.180  67.965  1.00  0.00    -0.366 A  
HETATM   21  O   UNL     1     -13.256  10.318  72.316  1.00  0.00    -0.409 OA 
HETATM   22  C   UNL     1     -12.150  11.567  69.119  1.00  0.00    -0.329 A  
HETATM   23  O   UNL     1     -13.043  12.466  71.665  1.00  0.00    -0.404 OA 
BRANCH  14  24
HETATM   24  O   UNL     1      -9.846   8.052  69.089  1.00  0.00    -0.171 OA 
BRANCH  24  25
HETATM   25  C   UNL     1     -10.082   6.799  69.656  1.00  0.00    -0.183 C  
HETATM   26  O   UNL     1      -9.686   6.418  70.748  1.00  0.00    -0.178 OA 
HETATM   27  C   UNL     1     -10.922   5.981  68.720  1.00  0.00    -0.384 C  
ENDBRANCH  24  25
ENDBRANCH  14  24
ENDBRANCH   4   5
ENDBRANCH   2   4
TORSDOF 4
ENDMDL
MODEL       29
REMARK 921   NORMALIZED FREE ENERGY PREDICTED BY IDOCK:   -6.47 KCAL/MOL
REMARK 922        TOTAL FREE ENERGY PREDICTED BY IDOCK:   -8.62 KCAL/MOL
REMARK 923 INTER-LIGAND FREE ENERGY PREDICTED BY IDOCK:   -8.34 KCAL/MOL
REMARK 924 INTRA-LIGAND FREE ENERGY PREDICTED BY IDOCK:   -0.29 KCAL/MOL
REMARK 927      BINDING AFFINITY PREDICTED BY RF-SCORE:    0.00 PKD
ROOT
HETATM    1  C   UNL     1     -11.404  15.966  68.382  1.00  0.00    -0.361 C  
HETATM    2  C   UNL     1     -10.805  15.143  67.280  1.00  0.00    -0.316 C  
HETATM    3  O   UNL     1      -9.617  15.157  66.982  1.00  0.00    -0.217 OA 
ENDROOT
BRANCH   2   4
HETATM    4  O   UNL     1     -11.788  14.321  66.734  1.00  0.00    -0.393 OA 
BRANCH   4   5
HETATM    5  C   UNL     1     -11.333  13.179  66.039  1.00  0.00    -0.308 A  
HETATM    6  C   UNL     1     -10.973  13.348  64.694  1.00  0.00    -0.388 A  
HETATM    7  C   UNL     1     -10.439  12.289  63.972  1.00  0.00    -0.427 A  
HETATM    8  C   UNL     1     -10.229  11.071  64.606  1.00  0.00    -0.392 A  
HETATM    9  C   UNL     1     -10.555  10.911  65.963  1.00  0.00    -0.254 A  
HETATM   10  C   UNL     1     -11.117  11.958  66.698  1.00  0.00    -0.360 A  
HETATM   11  C   UNL     1     -11.447  11.740  68.133  1.00  0.00    -0.316 C  
HETATM   12  O   UNL     1     -11.974  12.638  68.776  1.00  0.00    -0.307 OA 
HETATM   13  C   UNL     1     -11.140  10.425  68.776  1.00  0.00    -0.298 A  
HETATM   14  C   UNL     1     -11.420  10.160  70.134  1.00  0.00    -0.296 A  
HETATM   15  O   UNL     1      -9.748   8.710  65.941  1.00  0.00    -0.209 OA 
HETATM   16  C   UNL     1     -11.140   8.912  70.712  1.00  0.00    -0.312 A  
HETATM   17  C   UNL     1     -10.544   7.909  69.940  1.00  0.00    -0.242 A  
HETATM   18  C   UNL     1     -10.260   9.613  66.592  1.00  0.00    -0.232 C  
HETATM   19  C   UNL     1     -10.245   6.552  70.471  1.00  0.00    -0.190 C  
HETATM   20  C   UNL     1     -10.565   9.405  68.018  1.00  0.00    -0.278 A  
HETATM   21  O   UNL     1      -9.943   6.511  71.784  1.00  0.00    -0.177 OA 
HETATM   22  C   UNL     1     -10.266   8.158  68.592  1.00  0.00    -0.226 A  
HETATM   23  O   UNL     1     -10.235   5.564  69.758  1.00  0.00    -0.216 OA 
BRANCH  14  24
HETATM   24  O   UNL     1     -12.011  11.212  70.891  1.00  0.00    -0.331 OA 
BRANCH  24  25
HETATM   25  C   UNL     1     -13.119  11.197  71.740  1.00  0.00    -0.431 C  
HETATM   26  O   UNL     1     -13.731  10.203  72.104  1.00  0.00    -0.297 OA 
HETATM   27  C   UNL     1     -13.442  12.601  72.161  1.00  0.00    -0.561 C  
ENDBRANCH  24  25
ENDBRANCH  14  24
ENDBRANCH   4   5
ENDBRANCH   2   4
TORSDOF 4
ENDMDL
MODEL       30
REMARK 921   NORMALIZED FREE ENERGY PREDICTED BY IDOCK:   -6.45 KCAL/MOL
REMARK 922        TOTAL FREE ENERGY PREDICTED BY IDOCK:   -8.61 KCAL/MOL
REMARK 923 INTER-LIGAND FREE ENERGY PREDICTED BY IDOCK:   -7.91 KCAL/MOL
REMARK 924 INTRA-LIGAND FREE ENERGY PREDICTED BY IDOCK:   -0.69 KCAL/MOL
REMARK 927      BINDING AFFINITY PREDICTED BY RF-SCORE:    0.00 PKD
ROOT
HETATM    1  C   UNL     1     -13.696  15.759  72.846  1.00  0.00    -0.631 C  
HETATM    2  C   UNL     1     -12.532  14.991  72.294  1.00  0.00    -0.349 C  
HETATM    3  O   UNL     1     -11.379  15.118  72.686  1.00  0.00    -0.372 OA 
ENDROOT
BRANCH   2   4
HETATM    4  O   UNL     1     -12.992  14.076  71.350  1.00  0.00    -0.323 OA 
BRANCH   4   5
HETATM    5  C   UNL     1     -12.398  14.147  70.070  1.00  0.00    -0.344 A  
HETATM    6  C   UNL     1     -12.268  15.418  69.493  1.00  0.00    -0.277 A  
HETATM    7  C   UNL     1     -11.620  15.572  68.275  1.00  0.00    -0.344 A  
HETATM    8  C   UNL     1     -11.068  14.461  67.653  1.00  0.00    -0.311 A  
HETATM    9  C   UNL     1     -11.164  13.191  68.247  1.00  0.00    -0.307 A  
HETATM   10  C   UNL     1     -11.836  13.013  69.460  1.00  0.00    -0.385 A  
HETATM   11  C   UNL     1     -11.915  11.650  70.051  1.00  0.00    -0.351 C  
HETATM   12  O   UNL     1     -12.532  11.476  71.093  1.00  0.00    -0.376 OA 
HETATM   13  C   UNL     1     -11.246  10.501  69.364  1.00  0.00    -0.327 A  
HETATM   14  C   UNL     1     -11.276   9.187  69.878  1.00  0.00    -0.102 A  
HETATM   15  O   UNL     1      -9.911  12.235  66.513  1.00  0.00    -0.218 OA 
HETATM   16  C   UNL     1     -10.657   8.121  69.207  1.00  0.00    -0.191 A  
HETATM   17  C   UNL     1      -9.967   8.361  68.014  1.00  0.00    -0.221 A  
HETATM   18  C   UNL     1     -10.514  12.060  67.566  1.00  0.00    -0.212 C  
HETATM   19  C   UNL     1      -9.313   7.279  67.230  1.00  0.00    -0.132 C  
HETATM   20  C   UNL     1     -10.571  10.716  68.163  1.00  0.00    -0.237 A  
HETATM   21  O   UNL     1      -8.835   6.255  67.964  1.00  0.00    -0.115 OA 
HETATM   22  C   UNL     1      -9.934   9.658  67.492  1.00  0.00    -0.231 A  
HETATM   23  O   UNL     1      -9.185   7.343  66.019  1.00  0.00    -0.140 OA 
BRANCH  14  24
HETATM   24  O   UNL     1     -11.974   8.987  71.105  1.00  0.00    -0.287 OA 
BRANCH  24  25
HETATM   25  C   UNL     1     -12.182   7.819  71.840  1.00  0.00    -0.306 C  
HETATM   26  O   UNL     1     -13.072   7.001  71.653  1.00  0.00    -0.377 OA 
HETATM   27  C   UNL     1     -11.125   7.704  72.899  1.00  0.00    -0.448 C  
ENDBRANCH  24  25
ENDBRANCH  14  24
ENDBRANCH   4   5
ENDBRANCH   2   4
TORSDOF 4
ENDMDL
MODEL       31
REMARK 921   NORMALIZED FREE ENERGY PREDICTED BY IDOCK:   -6.43 KCAL/MOL
REMARK 922        TOTAL FREE ENERGY PREDICTED BY IDOCK:   -8.58 KCAL/MOL
REMARK 923 INTER-LIGAND FREE ENERGY PREDICTED BY IDOCK:   -7.73 KCAL/MOL
REMARK 924 INTRA-LIGAND FREE ENERGY PREDICTED BY IDOCK:   -0.84 KCAL/MOL
REMARK 927      BINDING AFFINITY PREDICTED BY RF-SCORE:    0.00 PKD
ROOT
HETATM    1  C   UNL     1     -11.801  13.921  63.730  1.00  0.00    -0.234 C  
HETATM    2  C   UNL     1     -12.200  12.897  64.749  1.00  0.00    -0.445 C  
HETATM    3  O   UNL     1     -13.246  12.261  64.708  1.00  0.00    -0.697 OA 
ENDROOT
BRANCH   2   4
HETATM    4  O   UNL     1     -11.168  12.739  65.671  1.00  0.00    -0.287 OA 
BRANCH   4   5
HETATM    5  C   UNL     1     -11.458  13.110  67.003  1.00  0.00    -0.336 A  
HETATM    6  C   UNL     1     -11.884  14.427  67.224  1.00  0.00    -0.434 A  
HETATM    7  C   UNL     1     -12.265  14.838  68.494  1.00  0.00    -0.114 A  
HETATM    8  C   UNL     1     -12.257  13.921  69.536  1.00  0.00    -0.356 A  
HETATM    9  C   UNL     1     -11.866  12.590  69.310  1.00  0.00    -0.360 A  
HETATM   10  C   UNL     1     -11.454  12.166  68.043  1.00  0.00    -0.380 A  
HETATM   11  C   UNL     1     -11.046  10.748  67.852  1.00  0.00    -0.308 C  
HETATM   12  O   UNL     1     -10.648  10.375  66.756  1.00  0.00    -0.242 OA 
HETATM   13  C   UNL     1     -11.118   9.791  68.999  1.00  0.00    -0.143 A  
HETATM   14  C   UNL     1     -10.755   8.432  68.879  1.00  0.00    -0.068 A  
HETATM   15  O   UNL     1     -12.311  12.033  71.543  1.00  0.00    -0.122 OA 
HETATM   16  C   UNL     1     -10.813   7.556  69.974  1.00  0.00    -0.260 A  
HETATM   17  C   UNL     1     -11.266   8.024  71.212  1.00  0.00    -0.287 A  
HETATM   18  C   UNL     1     -11.928  11.652  70.442  1.00  0.00    -0.358 C  
HETATM   19  C   UNL     1     -11.327   7.166  72.425  1.00  0.00    -0.274 C  
HETATM   20  C   UNL     1     -11.548  10.243  70.247  1.00  0.00    -0.396 A  
HETATM   21  O   UNL     1     -11.575   5.863  72.188  1.00  0.00    -0.296 OA 
HETATM   22  C   UNL     1     -11.625   9.370  71.345  1.00  0.00    -0.451 A  
HETATM   23  O   UNL     1     -11.203   7.622  73.549  1.00  0.00    -0.283 OA 
BRANCH  14  24
HETATM   24  O   UNL     1     -10.315   7.990  67.598  1.00  0.00    -0.217 OA 
BRANCH  24  25
HETATM   25  C   UNL     1      -9.241   7.170  67.250  1.00  0.00    -0.130 C  
HETATM   26  O   UNL     1      -9.315   6.089  66.683  1.00  0.00    -0.136 OA 
HETATM   27  C   UNL     1      -7.958   7.830  67.665  1.00  0.00    -0.124 C  
ENDBRANCH  24  25
ENDBRANCH  14  24
ENDBRANCH   4   5
ENDBRANCH   2   4
TORSDOF 4
ENDMDL
MODEL       32
REMARK 921   NORMALIZED FREE ENERGY PREDICTED BY IDOCK:   -6.41 KCAL/MOL
REMARK 922        TOTAL FREE ENERGY PREDICTED BY IDOCK:   -8.55 KCAL/MOL
REMARK 923 INTER-LIGAND FREE ENERGY PREDICTED BY IDOCK:   -7.81 KCAL/MOL
REMARK 924 INTRA-LIGAND FREE ENERGY PREDICTED BY IDOCK:   -0.74 KCAL/MOL
REMARK 927      BINDING AFFINITY PREDICTED BY RF-SCORE:    0.00 PKD
ROOT
HETATM    1  C   UNL     1     -10.509  19.955  65.642  1.00  0.00    -0.444 C  
HETATM    2  C   UNL     1     -10.221  18.779  66.527  1.00  0.00    -0.413 C  
HETATM    3  O   UNL     1     -10.875  18.496  67.523  1.00  0.00    -0.422 OA 
ENDROOT
BRANCH   2   4
HETATM    4  O   UNL     1      -9.170  18.043  65.987  1.00  0.00    -0.508 OA 
BRANCH   4   5
HETATM    5  C   UNL     1      -8.331  17.379  66.910  1.00  0.00    -0.235 A  
HETATM    6  C   UNL     1      -7.520  18.178  67.729  1.00  0.00    -0.213 A  
HETATM    7  C   UNL     1      -6.733  17.600  68.715  1.00  0.00    -0.230 A  
HETATM    8  C   UNL     1      -6.786  16.226  68.909  1.00  0.00    -0.165 A  
HETATM    9  C   UNL     1      -7.627  15.428  68.115  1.00  0.00    -0.118 A  
HETATM   10  C   UNL     1      -8.406  15.990  67.100  1.00  0.00    -0.228 A  
HETATM   11  C   UNL     1      -9.279  15.104  66.283  1.00  0.00    -0.301 C  
HETATM   12  O   UNL     1      -9.938  15.580  65.368  1.00  0.00    -0.337 OA 
HETATM   13  C   UNL     1      -9.341  13.640  66.581  1.00  0.00    -0.265 A  
HETATM   14  C   UNL     1     -10.157  12.750  65.849  1.00  0.00    -0.276 A  
HETATM   15  O   UNL     1      -7.006  13.509  69.310  1.00  0.00    -0.091 OA 
HETATM   16  C   UNL     1     -10.185  11.376  66.134  1.00  0.00    -0.282 A  
HETATM   17  C   UNL     1      -9.412  10.870  67.184  1.00  0.00    -0.178 A  
HETATM   18  C   UNL     1      -7.680  13.985  68.403  1.00  0.00    -0.138 C  
HETATM   19  C   UNL     1      -9.365   9.424  67.528  1.00  0.00    -0.127 C  
HETATM   20  C   UNL     1      -8.562  13.113  67.610  1.00  0.00    -0.193 A  
HETATM   21  O   UNL     1     -10.504   8.746  67.287  1.00  0.00    -0.270 OA 
HETATM   22  C   UNL     1      -8.596  11.741  67.914  1.00  0.00    -0.156 A  
HETATM   23  O   UNL     1      -8.380   8.907  68.028  1.00  0.00    -0.120 OA 
BRANCH  14  24
HETATM   24  O   UNL     1     -10.943  13.306  64.799  1.00  0.00    -0.316 OA 
BRANCH  24  25
HETATM   25  C   UNL     1     -12.321  13.257  64.585  1.00  0.00    -0.391 C  
HETATM   26  O   UNL     1     -13.159  13.959  65.133  1.00  0.00    -0.773 OA 
HETATM   27  C   UNL     1     -12.626  12.211  63.552  1.00  0.00    -0.621 C  
ENDBRANCH  24  25
ENDBRANCH  14  24
ENDBRANCH   4   5
ENDBRANCH   2   4
TORSDOF 4
ENDMDL
MODEL       33
REMARK 921   NORMALIZED FREE ENERGY PREDICTED BY IDOCK:   -6.28 KCAL/MOL
REMARK 922        TOTAL FREE ENERGY PREDICTED BY IDOCK:   -8.40 KCAL/MOL
REMARK 923 INTER-LIGAND FREE ENERGY PREDICTED BY IDOCK:   -7.60 KCAL/MOL
REMARK 924 INTRA-LIGAND FREE ENERGY PREDICTED BY IDOCK:   -0.79 KCAL/MOL
REMARK 927      BINDING AFFINITY PREDICTED BY RF-SCORE:    0.00 PKD
ROOT
HETATM    1  C   UNL     1     -10.053  14.474  68.902  1.00  0.00    -0.224 C  
HETATM    2  C   UNL     1     -11.446  14.896  68.540  1.00  0.00    -0.315 C  
HETATM    3  O   UNL     1     -11.853  16.048  68.614  1.00  0.00    -0.367 OA 
ENDROOT
BRANCH   2   4
HETATM    4  O   UNL     1     -12.143  13.799  68.040  1.00  0.00    -0.362 OA 
BRANCH   4   5
HETATM    5  C   UNL     1     -11.687  13.276  66.810  1.00  0.00    -0.385 A  
HETATM    6  C   UNL     1     -11.632  14.157  65.720  1.00  0.00    -0.343 A  
HETATM    7  C   UNL     1     -11.116  13.735  64.502  1.00  0.00    -0.388 A  
HETATM    8  C   UNL     1     -10.620  12.443  64.385  1.00  0.00    -0.366 A  
HETATM    9  C   UNL     1     -10.640  11.571  65.486  1.00  0.00    -0.334 A  
HETATM   10  C   UNL     1     -11.179  11.971  66.712  1.00  0.00    -0.376 A  
HETATM   11  C   UNL     1     -11.180  11.011  67.849  1.00  0.00    -0.310 C  
HETATM   12  O   UNL     1     -11.684  11.338  68.916  1.00  0.00    -0.289 OA 
HETATM   13  C   UNL     1     -10.574   9.654  67.679  1.00  0.00    -0.334 A  
HETATM   14  C   UNL     1     -10.536   8.704  68.723  1.00  0.00    -0.140 A  
HETATM   15  O   UNL     1      -9.564   9.903  64.240  1.00  0.00    -0.282 OA 
HETATM   16  C   UNL     1      -9.979   7.429  68.535  1.00  0.00    -0.172 A  
HETATM   17  C   UNL     1      -9.420   7.093  67.298  1.00  0.00    -0.169 A  
HETATM   18  C   UNL     1     -10.052  10.232  65.315  1.00  0.00    -0.289 C  
HETATM   19  C   UNL     1      -8.840   5.754  67.012  1.00  0.00    -0.112 C  
HETATM   20  C   UNL     1     -10.031   9.292  66.447  1.00  0.00    -0.356 A  
HETATM   21  O   UNL     1      -8.276   5.142  68.072  1.00  0.00    -0.098 OA 
HETATM   22  C   UNL     1      -9.456   8.025  66.255  1.00  0.00    -0.241 A  
HETATM   23  O   UNL     1      -8.839   5.271  65.893  1.00  0.00    -0.135 OA 
BRANCH  14  24
HETATM   24  O   UNL     1     -11.100   9.091  69.973  1.00  0.00    -0.239 OA 
BRANCH  24  25
HETATM   25  C   UNL     1     -11.478   8.312  71.068  1.00  0.00    -0.275 C  
HETATM   26  O   UNL     1     -12.483   7.620  71.145  1.00  0.00    -0.307 OA 
HETATM   27  C   UNL     1     -10.441   8.437  72.147  1.00  0.00    -0.396 C  
ENDBRANCH  24  25
ENDBRANCH  14  24
ENDBRANCH   4   5
ENDBRANCH   2   4
TORSDOF 4
ENDMDL
MODEL       34
REMARK 921   NORMALIZED FREE ENERGY PREDICTED BY IDOCK:   -6.27 KCAL/MOL
REMARK 922        TOTAL FREE ENERGY PREDICTED BY IDOCK:   -8.38 KCAL/MOL
REMARK 923 INTER-LIGAND FREE ENERGY PREDICTED BY IDOCK:   -7.49 KCAL/MOL
REMARK 924 INTRA-LIGAND FREE ENERGY PREDICTED BY IDOCK:   -0.89 KCAL/MOL
REMARK 927      BINDING AFFINITY PREDICTED BY RF-SCORE:    0.00 PKD
ROOT
HETATM    1  C   UNL     1     -10.454   5.420  71.123  1.00  0.00    -0.295 C  
HETATM    2  C   UNL     1     -10.876   6.509  70.181  1.00  0.00    -0.282 C  
HETATM    3  O   UNL     1     -11.657   6.346  69.252  1.00  0.00    -0.354 OA 
ENDROOT
BRANCH   2   4
HETATM    4  O   UNL     1     -10.311   7.714  70.590  1.00  0.00    -0.203 OA 
BRANCH   4   5
HETATM    5  C   UNL     1     -11.211   8.777  70.829  1.00  0.00    -0.266 A  
HETATM    6  C   UNL     1     -12.120   8.622  71.885  1.00  0.00    -0.422 A  
HETATM    7  C   UNL     1     -12.977   9.658  72.231  1.00  0.00    -0.440 A  
HETATM    8  C   UNL     1     -12.899  10.863  71.545  1.00  0.00    -0.560 A  
HETATM    9  C   UNL     1     -11.964  11.033  70.511  1.00  0.00    -0.474 A  
HETATM   10  C   UNL     1     -11.110   9.992  70.132  1.00  0.00    -0.371 A  
HETATM   11  C   UNL     1     -10.138  10.219  69.030  1.00  0.00    -0.213 C  
HETATM   12  O   UNL     1      -9.412   9.303  68.665  1.00  0.00    -0.145 OA 
HETATM   13  C   UNL     1     -10.058  11.559  68.370  1.00  0.00    -0.207 A  
HETATM   14  C   UNL     1      -9.150  11.839  67.326  1.00  0.00    -0.171 A  
HETATM   15  O   UNL     1     -12.632  13.260  70.213  1.00  0.00    -0.211 OA 
HETATM   16  C   UNL     1      -9.105  13.099  66.709  1.00  0.00    -0.214 A  
HETATM   17  C   UNL     1      -9.957  14.117  67.151  1.00  0.00    -0.255 A  
HETATM   18  C   UNL     1     -11.892  12.350  69.857  1.00  0.00    -0.305 C  
HETATM   19  C   UNL     1      -9.990  15.467  66.528  1.00  0.00    -0.269 C  
HETATM   20  C   UNL     1     -10.913  12.581  68.782  1.00  0.00    -0.294 A  
HETATM   21  O   UNL     1      -8.813  15.892  66.029  1.00  0.00    -0.333 OA 
HETATM   22  C   UNL     1     -10.864  13.850  68.182  1.00  0.00    -0.262 A  
HETATM   23  O   UNL     1     -11.000  16.150  66.513  1.00  0.00    -0.205 OA 
BRANCH  14  24
HETATM   24  O   UNL     1      -8.287  10.781  66.917  1.00  0.00    -0.126 OA 
BRANCH  24  25
HETATM   25  C   UNL     1      -8.041  10.264  65.644  1.00  0.00    -0.155 C  
HETATM   26  O   UNL     1      -6.957  10.231  65.079  1.00  0.00    -0.135 OA 
HETATM   27  C   UNL     1      -9.320   9.730  65.069  1.00  0.00    -0.325 C  
ENDBRANCH  24  25
ENDBRANCH  14  24
ENDBRANCH   4   5
ENDBRANCH   2   4
TORSDOF 4
ENDMDL
MODEL       35
REMARK 921   NORMALIZED FREE ENERGY PREDICTED BY IDOCK:   -6.25 KCAL/MOL
REMARK 922        TOTAL FREE ENERGY PREDICTED BY IDOCK:   -8.36 KCAL/MOL
REMARK 923 INTER-LIGAND FREE ENERGY PREDICTED BY IDOCK:   -7.61 KCAL/MOL
REMARK 924 INTRA-LIGAND FREE ENERGY PREDICTED BY IDOCK:   -0.75 KCAL/MOL
REMARK 927      BINDING AFFINITY PREDICTED BY RF-SCORE:    0.00 PKD
ROOT
HETATM    1  C   UNL     1     -10.126   7.100  73.769  1.00  0.00    -0.391 C  
HETATM    2  C   UNL     1      -9.909   8.063  72.639  1.00  0.00    -0.279 C  
HETATM    3  O   UNL     1      -8.958   8.831  72.566  1.00  0.00    -0.386 OA 
ENDROOT
BRANCH   2   4
HETATM    4  O   UNL     1     -10.899   7.874  71.678  1.00  0.00    -0.225 OA 
BRANCH   4   5
HETATM    5  C   UNL     1     -11.542   9.039  71.205  1.00  0.00    -0.317 A  
HETATM    6  C   UNL     1     -12.286   9.782  72.133  1.00  0.00    -0.225 A  
HETATM    7  C   UNL     1     -12.876  10.982  71.759  1.00  0.00    -0.496 A  
HETATM    8  C   UNL     1     -12.690  11.458  70.468  1.00  0.00    -0.221 A  
HETATM    9  C   UNL     1     -11.914  10.734  69.548  1.00  0.00    -0.364 A  
HETATM   10  C   UNL     1     -11.334   9.511  69.899  1.00  0.00    -0.161 A  
HETATM   11  C   UNL     1     -10.522   8.779  68.890  1.00  0.00    -0.197 C  
HETATM   12  O   UNL     1     -10.041   7.690  69.174  1.00  0.00    -0.183 OA 
HETATM   13  C   UNL     1     -10.306   9.374  67.534  1.00  0.00    -0.314 A  
HETATM   14  C   UNL     1      -9.538   8.733  66.538  1.00  0.00    -0.237 A  
HETATM   15  O   UNL     1     -12.207  12.399  67.924  1.00  0.00    -0.379 OA 
HETATM   16  C   UNL     1      -9.364   9.302  65.266  1.00  0.00    -0.269 A  
HETATM   17  C   UNL     1      -9.937  10.545  64.979  1.00  0.00    -0.388 A  
HETATM   18  C   UNL     1     -11.709  11.316  68.211  1.00  0.00    -0.274 C  
HETATM   19  C   UNL     1      -9.823  11.197  63.647  1.00  0.00    -0.345 C  
HETATM   20  C   UNL     1     -10.886  10.603  67.221  1.00  0.00    -0.345 A  
HETATM   21  O   UNL     1      -8.681  10.932  62.981  1.00  0.00    -0.198 OA 
HETATM   22  C   UNL     1     -10.703  11.187  65.957  1.00  0.00    -0.272 A  
HETATM   23  O   UNL     1     -10.682  11.946  63.215  1.00  0.00    -0.394 OA 
BRANCH  14  24
HETATM   24  O   UNL     1      -8.957   7.477  66.875  1.00  0.00    -0.125 OA 
BRANCH  24  25
HETATM   25  C   UNL     1      -9.141   6.218  66.302  1.00  0.00    -0.153 C  
HETATM   26  O   UNL     1      -8.346   5.632  65.582  1.00  0.00    -0.123 OA 
HETATM   27  C   UNL     1     -10.476   5.673  66.721  1.00  0.00    -0.353 C  
ENDBRANCH  24  25
ENDBRANCH  14  24
ENDBRANCH   4   5
ENDBRANCH   2   4
TORSDOF 4
ENDMDL
MODEL       36
REMARK 921   NORMALIZED FREE ENERGY PREDICTED BY IDOCK:   -6.25 KCAL/MOL
REMARK 922        TOTAL FREE ENERGY PREDICTED BY IDOCK:   -8.36 KCAL/MOL
REMARK 923 INTER-LIGAND FREE ENERGY PREDICTED BY IDOCK:   -7.49 KCAL/MOL
REMARK 924 INTRA-LIGAND FREE ENERGY PREDICTED BY IDOCK:   -0.87 KCAL/MOL
REMARK 927      BINDING AFFINITY PREDICTED BY RF-SCORE:    0.00 PKD
ROOT
HETATM    1  C   UNL     1     -14.368  15.034  71.157  1.00  0.00    -0.379 C  
HETATM    2  C   UNL     1     -13.220  15.319  72.080  1.00  0.00    -0.407 C  
HETATM    3  O   UNL     1     -13.311  15.993  73.098  1.00  0.00    -0.556 OA 
ENDROOT
BRANCH   2   4
HETATM    4  O   UNL     1     -12.093  14.633  71.635  1.00  0.00    -0.336 OA 
BRANCH   4   5
HETATM    5  C   UNL     1     -11.524  15.084  70.423  1.00  0.00    -0.280 A  
HETATM    6  C   UNL     1     -11.259  16.456  70.311  1.00  0.00    -0.259 A  
HETATM    7  C   UNL     1     -10.624  16.958  69.183  1.00  0.00    -0.330 A  
HETATM    8  C   UNL     1     -10.220  16.082  68.184  1.00  0.00    -0.243 A  
HETATM    9  C   UNL     1     -10.452  14.702  68.311  1.00  0.00    -0.236 A  
HETATM   10  C   UNL     1     -11.112  14.182  69.428  1.00  0.00    -0.261 A  
HETATM   11  C   UNL     1     -11.337  12.715  69.518  1.00  0.00    -0.158 C  
HETATM   12  O   UNL     1     -11.947  12.253  70.473  1.00  0.00    -0.335 OA 
HETATM   13  C   UNL     1     -10.822  11.815  68.439  1.00  0.00    -0.260 A  
HETATM   14  C   UNL     1     -10.995  10.414  68.472  1.00  0.00    -0.254 A  
HETATM   15  O   UNL     1      -9.358  14.287  66.280  1.00  0.00    -0.272 OA 
HETATM   16  C   UNL     1     -10.520   9.591  67.438  1.00  0.00    -0.336 A  
HETATM   17  C   UNL     1      -9.834  10.160  66.360  1.00  0.00    -0.279 A  
HETATM   18  C   UNL     1      -9.953  13.819  67.244  1.00  0.00    -0.239 C  
HETATM   19  C   UNL     1      -9.329   9.358  65.214  1.00  0.00    -0.238 C  
HETATM   20  C   UNL     1     -10.155  12.364  67.345  1.00  0.00    -0.205 A  
HETATM   21  O   UNL     1      -8.958   8.100  65.520  1.00  0.00    -0.137 OA 
HETATM   22  C   UNL     1      -9.661  11.547  66.314  1.00  0.00    -0.240 A  
HETATM   23  O   UNL     1      -9.221   9.826  64.093  1.00  0.00    -0.256 OA 
BRANCH  14  24
HETATM   24  O   UNL     1     -11.684   9.872  69.595  1.00  0.00    -0.115 OA 
BRANCH  24  25
HETATM   25  C   UNL     1     -11.269   8.924  70.531  1.00  0.00    -0.252 C  
HETATM   26  O   UNL     1     -11.921   7.966  70.922  1.00  0.00    -0.279 OA 
HETATM   27  C   UNL     1      -9.874   9.247  70.981  1.00  0.00    -0.355 C  
ENDBRANCH  24  25
ENDBRANCH  14  24
ENDBRANCH   4   5
ENDBRANCH   2   4
TORSDOF 4
ENDMDL
MODEL       37
REMARK 921   NORMALIZED FREE ENERGY PREDICTED BY IDOCK:   -6.24 KCAL/MOL
REMARK 922        TOTAL FREE ENERGY PREDICTED BY IDOCK:   -8.35 KCAL/MOL
REMARK 923 INTER-LIGAND FREE ENERGY PREDICTED BY IDOCK:   -7.44 KCAL/MOL
REMARK 924 INTRA-LIGAND FREE ENERGY PREDICTED BY IDOCK:   -0.91 KCAL/MOL
REMARK 927      BINDING AFFINITY PREDICTED BY RF-SCORE:    0.00 PKD
ROOT
HETATM    1  C   UNL     1     -10.240   5.254  69.195  1.00  0.00    -0.281 C  
HETATM    2  C   UNL     1      -9.010   5.628  69.968  1.00  0.00    -0.137 C  
HETATM    3  O   UNL     1      -8.343   4.835  70.620  1.00  0.00    -0.092 OA 
ENDROOT
BRANCH   2   4
HETATM    4  O   UNL     1      -8.722   6.973  69.749  1.00  0.00    -0.140 OA 
BRANCH   4   5
HETATM    5  C   UNL     1      -9.668   7.903  70.237  1.00  0.00    -0.183 A  
HETATM    6  C   UNL     1      -9.948   7.870  71.611  1.00  0.00    -0.227 A  
HETATM    7  C   UNL     1     -10.803   8.808  72.174  1.00  0.00    -0.400 A  
HETATM    8  C   UNL     1     -11.348   9.800  71.371  1.00  0.00    -0.407 A  
HETATM    9  C   UNL     1     -11.039   9.857  70.002  1.00  0.00    -0.335 A  
HETATM   10  C   UNL     1     -10.200   8.906  69.412  1.00  0.00    -0.210 A  
HETATM   11  C   UNL     1      -9.904   9.006  67.958  1.00  0.00    -0.166 C  
HETATM   12  O   UNL     1      -9.201   8.157  67.424  1.00  0.00    -0.135 OA 
HETATM   13  C   UNL     1     -10.470  10.135  67.158  1.00  0.00    -0.305 A  
HETATM   14  C   UNL     1     -10.218  10.289  65.777  1.00  0.00    -0.219 A  
HETATM   15  O   UNL     1     -12.322  11.802  69.748  1.00  0.00    -0.214 OA 
HETATM   16  C   UNL     1     -10.775  11.348  65.042  1.00  0.00    -0.340 A  
HETATM   17  C   UNL     1     -11.579  12.292  65.689  1.00  0.00    -0.433 A  
HETATM   18  C   UNL     1     -11.605  10.964  69.214  1.00  0.00    -0.318 C  
HETATM   19  C   UNL     1     -12.230  13.422  64.973  1.00  0.00    -0.424 C  
HETATM   20  C   UNL     1     -11.291  11.075  67.779  1.00  0.00    -0.365 A  
HETATM   21  O   UNL     1     -11.544  13.893  63.913  1.00  0.00    -0.290 OA 
HETATM   22  C   UNL     1     -11.841  12.147  67.055  1.00  0.00    -0.288 A  
HETATM   23  O   UNL     1     -13.283  13.907  65.349  1.00  0.00    -0.750 OA 
BRANCH  14  24
HETATM   24  O   UNL     1      -9.380   9.317  65.159  1.00  0.00    -0.240 OA 
BRANCH  24  25
HETATM   25  C   UNL     1      -8.481   9.448  64.099  1.00  0.00    -0.190 C  
HETATM   26  O   UNL     1      -8.687   9.126  62.938  1.00  0.00    -0.216 OA 
HETATM   27  C   UNL     1      -7.210  10.070  64.601  1.00  0.00    -0.140 C  
ENDBRANCH  24  25
ENDBRANCH  14  24
ENDBRANCH   4   5
ENDBRANCH   2   4
TORSDOF 4
ENDMDL
MODEL       38
REMARK 921   NORMALIZED FREE ENERGY PREDICTED BY IDOCK:   -6.22 KCAL/MOL
REMARK 922        TOTAL FREE ENERGY PREDICTED BY IDOCK:   -8.32 KCAL/MOL
REMARK 923 INTER-LIGAND FREE ENERGY PREDICTED BY IDOCK:   -7.83 KCAL/MOL
REMARK 924 INTRA-LIGAND FREE ENERGY PREDICTED BY IDOCK:   -0.49 KCAL/MOL
REMARK 927      BINDING AFFINITY PREDICTED BY RF-SCORE:    0.00 PKD
ROOT
HETATM    1  C   UNL     1     -13.042   7.538  71.818  1.00  0.00    -0.362 C  
HETATM    2  C   UNL     1     -11.925   8.538  71.835  1.00  0.00    -0.345 C  
HETATM    3  O   UNL     1     -10.996   8.514  72.632  1.00  0.00    -0.315 OA 
ENDROOT
BRANCH   2   4
HETATM    4  O   UNL     1     -12.080   9.418  70.767  1.00  0.00    -0.276 OA 
BRANCH   4   5
HETATM    5  C   UNL     1     -10.999   9.497  69.860  1.00  0.00    -0.238 A  
HETATM    6  C   UNL     1     -10.324   8.305  69.563  1.00  0.00    -0.219 A  
HETATM    7  C   UNL     1      -9.307   8.292  68.618  1.00  0.00    -0.143 A  
HETATM    8  C   UNL     1      -8.990   9.464  67.943  1.00  0.00    -0.126 A  
HETATM    9  C   UNL     1      -9.691  10.651  68.214  1.00  0.00    -0.169 A  
HETATM   10  C   UNL     1     -10.701  10.689  69.180  1.00  0.00    -0.264 A  
HETATM   11  C   UNL     1     -11.413  11.970  69.433  1.00  0.00    -0.296 C  
HETATM   12  O   UNL     1     -12.273  12.023  70.303  1.00  0.00    -0.312 OA 
HETATM   13  C   UNL     1     -11.070  13.184  68.629  1.00  0.00    -0.304 A  
HETATM   14  C   UNL     1     -11.717  14.425  68.816  1.00  0.00    -0.337 A  
HETATM   15  O   UNL     1      -8.473  11.795  66.570  1.00  0.00    -0.179 OA 
HETATM   16  C   UNL     1     -11.365  15.557  68.062  1.00  0.00    -0.332 A  
HETATM   17  C   UNL     1     -10.372  15.455  67.083  1.00  0.00    -0.271 A  
HETATM   18  C   UNL     1      -9.346  11.848  67.428  1.00  0.00    -0.176 C  
HETATM   19  C   UNL     1      -9.923  16.615  66.267  1.00  0.00    -0.320 C  
HETATM   20  C   UNL     1     -10.068  13.109  67.663  1.00  0.00    -0.221 A  
HETATM   21  O   UNL     1     -10.876  17.534  66.014  1.00  0.00    -0.175 OA 
HETATM   22  C   UNL     1      -9.721  14.232  66.892  1.00  0.00    -0.268 A  
HETATM   23  O   UNL     1      -8.789  16.700  65.828  1.00  0.00    -0.493 OA 
BRANCH  14  24
HETATM   24  O   UNL     1     -12.735  14.483  69.810  1.00  0.00    -0.216 OA 
BRANCH  24  25
HETATM   25  C   UNL     1     -12.830  15.278  70.953  1.00  0.00    -0.449 C  
HETATM   26  O   UNL     1     -13.864  15.706  71.447  1.00  0.00    -0.537 OA 
HETATM   27  C   UNL     1     -11.456  15.519  71.507  1.00  0.00    -0.489 C  
ENDBRANCH  24  25
ENDBRANCH  14  24
ENDBRANCH   4   5
ENDBRANCH   2   4
TORSDOF 4
ENDMDL
MODEL       39
REMARK 921   NORMALIZED FREE ENERGY PREDICTED BY IDOCK:   -6.12 KCAL/MOL
REMARK 922        TOTAL FREE ENERGY PREDICTED BY IDOCK:   -8.20 KCAL/MOL
REMARK 923 INTER-LIGAND FREE ENERGY PREDICTED BY IDOCK:   -7.49 KCAL/MOL
REMARK 924 INTRA-LIGAND FREE ENERGY PREDICTED BY IDOCK:   -0.71 KCAL/MOL
REMARK 927      BINDING AFFINITY PREDICTED BY RF-SCORE:    0.00 PKD
ROOT
HETATM    1  C   UNL     1     -12.045  11.274  70.265  1.00  0.00    -0.459 C  
HETATM    2  C   UNL     1     -11.833  12.610  69.616  1.00  0.00    -0.311 C  
HETATM    3  O   UNL     1     -12.344  13.651  70.008  1.00  0.00    -0.322 OA 
ENDROOT
BRANCH   2   4
HETATM    4  O   UNL     1     -10.916  12.475  68.577  1.00  0.00    -0.227 OA 
BRANCH   4   5
HETATM    5  C   UNL     1     -11.202  13.190  67.393  1.00  0.00    -0.287 A  
HETATM    6  C   UNL     1     -12.247  12.710  66.590  1.00  0.00    -0.085 A  
HETATM    7  C   UNL     1     -12.639  13.408  65.456  1.00  0.00    -0.520 A  
HETATM    8  C   UNL     1     -12.011  14.607  65.145  1.00  0.00    -0.334 A  
HETATM    9  C   UNL     1     -10.989  15.109  65.968  1.00  0.00    -0.332 A  
HETATM   10  C   UNL     1     -10.564  14.407  67.100  1.00  0.00    -0.277 A  
HETATM   11  C   UNL     1      -9.477  14.977  67.940  1.00  0.00    -0.195 C  
HETATM   12  O   UNL     1      -9.071  14.352  68.911  1.00  0.00    -0.161 OA 
HETATM   13  C   UNL     1      -8.883  16.304  67.588  1.00  0.00    -0.195 A  
HETATM   14  C   UNL     1      -7.856  16.902  68.351  1.00  0.00    -0.229 A  
HETATM   15  O   UNL     1     -10.796  17.026  64.633  1.00  0.00    -0.855 OA 
HETATM   16  C   UNL     1      -7.300  18.140  67.992  1.00  0.00    -0.235 A  
HETATM   17  C   UNL     1      -7.787  18.818  66.870  1.00  0.00    -0.252 A  
HETATM   18  C   UNL     1     -10.399  16.411  65.616  1.00  0.00    -0.350 C  
HETATM   19  C   UNL     1      -7.229  20.118  66.408  1.00  0.00    -0.273 C  
HETATM   20  C   UNL     1      -9.340  16.987  66.462  1.00  0.00    -0.291 A  
HETATM   21  O   UNL     1      -6.755  20.912  67.388  1.00  0.00    -0.312 OA 
HETATM   22  C   UNL     1      -8.801  18.234  66.104  1.00  0.00    -0.113 A  
HETATM   23  O   UNL     1      -7.243  20.450  65.235  1.00  0.00    -0.254 OA 
BRANCH  14  24
HETATM   24  O   UNL     1      -7.399  16.188  69.496  1.00  0.00    -0.220 OA 
BRANCH  24  25
HETATM   25  C   UNL     1      -6.165  15.589  69.748  1.00  0.00    -0.159 C  
HETATM   26  O   UNL     1      -5.477  15.750  70.747  1.00  0.00    -0.150 OA 
HETATM   27  C   UNL     1      -5.807  14.687  68.603  1.00  0.00    -0.090 C  
ENDBRANCH  24  25
ENDBRANCH  14  24
ENDBRANCH   4   5
ENDBRANCH   2   4
TORSDOF 4
ENDMDL
MODEL       40
REMARK 921   NORMALIZED FREE ENERGY PREDICTED BY IDOCK:   -6.11 KCAL/MOL
REMARK 922        TOTAL FREE ENERGY PREDICTED BY IDOCK:   -8.18 KCAL/MOL
REMARK 923 INTER-LIGAND FREE ENERGY PREDICTED BY IDOCK:   -7.29 KCAL/MOL
REMARK 924 INTRA-LIGAND FREE ENERGY PREDICTED BY IDOCK:   -0.89 KCAL/MOL
REMARK 927      BINDING AFFINITY PREDICTED BY RF-SCORE:    0.00 PKD
ROOT
HETATM    1  C   UNL     1     -12.036  15.590  64.197  1.00  0.00    -0.058 C  
HETATM    2  C   UNL     1     -12.220  14.386  65.072  1.00  0.00    -0.414 C  
HETATM    3  O   UNL     1     -13.218  13.676  65.060  1.00  0.00    -0.729 OA 
ENDROOT
BRANCH   2   4
HETATM    4  O   UNL     1     -11.060  14.174  65.813  1.00  0.00    -0.301 OA 
BRANCH   4   5
HETATM    5  C   UNL     1     -11.239  13.804  67.164  1.00  0.00    -0.311 A  
HETATM    6  C   UNL     1     -11.750  14.779  68.034  1.00  0.00    -0.360 A  
HETATM    7  C   UNL     1     -12.030  14.462  69.356  1.00  0.00    -0.370 A  
HETATM    8  C   UNL     1     -11.835  13.161  69.799  1.00  0.00    -0.386 A  
HETATM    9  C   UNL     1     -11.359  12.174  68.920  1.00  0.00    -0.335 A  
HETATM   10  C   UNL     1     -11.047  12.481  67.592  1.00  0.00    -0.301 A  
HETATM   11  C   UNL     1     -10.543  11.403  66.699  1.00  0.00    -0.258 C  
HETATM   12  O   UNL     1     -10.231  11.668  65.546  1.00  0.00    -0.239 OA 
HETATM   13  C   UNL     1     -10.414  10.006  67.218  1.00  0.00    -0.313 A  
HETATM   14  C   UNL     1      -9.951   8.938  66.418  1.00  0.00    -0.284 A  
HETATM   15  O   UNL     1     -11.520  10.542  70.595  1.00  0.00    -0.322 OA 
HETATM   16  C   UNL     1      -9.820   7.638  66.932  1.00  0.00    -0.304 A  
HETATM   17  C   UNL     1     -10.180   7.378  68.258  1.00  0.00    -0.213 A  
HETATM   18  C   UNL     1     -11.223  10.801  69.435  1.00  0.00    -0.276 C  
HETATM   19  C   UNL     1     -10.041   6.035  68.882  1.00  0.00    -0.176 C  
HETATM   20  C   UNL     1     -10.747   9.730  68.544  1.00  0.00    -0.252 A  
HETATM   21  O   UNL     1     -10.202   4.997  68.038  1.00  0.00    -0.146 OA 
HETATM   22  C   UNL     1     -10.635   8.428  69.062  1.00  0.00    -0.172 A  
HETATM   23  O   UNL     1      -9.840   5.893  70.076  1.00  0.00    -0.164 OA 
BRANCH  14  24
HETATM   24  O   UNL     1      -9.611   9.241  65.068  1.00  0.00    -0.169 OA 
BRANCH  24  25
HETATM   25  C   UNL     1      -8.432   8.997  64.362  1.00  0.00    -0.174 C  
HETATM   26  O   UNL     1      -8.305   8.233  63.416  1.00  0.00    -0.133 OA 
HETATM   27  C   UNL     1      -7.329   9.841  64.933  1.00  0.00    -0.129 C  
ENDBRANCH  24  25
ENDBRANCH  14  24
ENDBRANCH   4   5
ENDBRANCH   2   4
TORSDOF 4
ENDMDL
MODEL       41
REMARK 921   NORMALIZED FREE ENERGY PREDICTED BY IDOCK:   -6.05 KCAL/MOL
REMARK 922        TOTAL FREE ENERGY PREDICTED BY IDOCK:   -8.11 KCAL/MOL
REMARK 923 INTER-LIGAND FREE ENERGY PREDICTED BY IDOCK:   -7.37 KCAL/MOL
REMARK 924 INTRA-LIGAND FREE ENERGY PREDICTED BY IDOCK:   -0.74 KCAL/MOL
REMARK 927      BINDING AFFINITY PREDICTED BY RF-SCORE:    0.00 PKD
ROOT
HETATM    1  C   UNL     1      -9.073   4.401  67.714  1.00  0.00    -0.149 C  
HETATM    2  C   UNL     1      -8.937   5.757  68.339  1.00  0.00    -0.111 C  
HETATM    3  O   UNL     1      -7.951   6.127  68.966  1.00  0.00    -0.105 OA 
ENDROOT
BRANCH   2   4
HETATM    4  O   UNL     1     -10.053   6.525  68.019  1.00  0.00    -0.136 OA 
BRANCH   4   5
HETATM    5  C   UNL     1      -9.798   7.784  67.431  1.00  0.00    -0.175 A  
HETATM    6  C   UNL     1      -9.160   7.791  66.182  1.00  0.00    -0.199 A  
HETATM    7  C   UNL     1      -8.952   8.986  65.507  1.00  0.00    -0.252 A  
HETATM    8  C   UNL     1      -9.416  10.170  66.062  1.00  0.00    -0.248 A  
HETATM    9  C   UNL     1     -10.089  10.162  67.296  1.00  0.00    -0.254 A  
HETATM   10  C   UNL     1     -10.284   8.971  68.002  1.00  0.00    -0.260 A  
HETATM   11  C   UNL     1     -11.000   9.012  69.306  1.00  0.00    -0.032 C  
HETATM   12  O   UNL     1     -11.143   7.981  69.950  1.00  0.00    -0.215 OA 
HETATM   13  C   UNL     1     -11.531  10.311  69.823  1.00  0.00    -0.320 A  
HETATM   14  C   UNL     1     -12.227  10.413  71.047  1.00  0.00    -0.393 A  
HETATM   15  O   UNL     1     -10.443  12.475  67.168  1.00  0.00    -0.222 OA 
HETATM   16  C   UNL     1     -12.702  11.646  71.522  1.00  0.00    -0.423 A  
HETATM   17  C   UNL     1     -12.510  12.802  70.758  1.00  0.00    -0.357 A  
HETATM   18  C   UNL     1     -10.604  11.442  67.808  1.00  0.00    -0.195 C  
HETATM   19  C   UNL     1     -12.956  14.148  71.207  1.00  0.00    -0.356 C  
HETATM   20  C   UNL     1     -11.333  11.478  69.087  1.00  0.00    -0.351 A  
HETATM   21  O   UNL     1     -14.065  14.153  71.973  1.00  0.00    -0.462 OA 
HETATM   22  C   UNL     1     -11.819  12.714  69.546  1.00  0.00    -0.376 A  
HETATM   23  O   UNL     1     -12.381  15.169  70.869  1.00  0.00    -0.300 OA 
BRANCH  14  24
HETATM   24  O   UNL     1     -12.417   9.210  71.787  1.00  0.00    -0.325 OA 
BRANCH  24  25
HETATM   25  C   UNL     1     -13.581   8.660  72.325  1.00  0.00    -0.383 C  
HETATM   26  O   UNL     1     -14.169   9.054  73.322  1.00  0.00    -0.244 OA 
HETATM   27  C   UNL     1     -14.024   7.506  71.474  1.00  0.00    -0.522 C  
ENDBRANCH  24  25
ENDBRANCH  14  24
ENDBRANCH   4   5
ENDBRANCH   2   4
TORSDOF 4
ENDMDL
MODEL       42
REMARK 921   NORMALIZED FREE ENERGY PREDICTED BY IDOCK:   -6.02 KCAL/MOL
REMARK 922        TOTAL FREE ENERGY PREDICTED BY IDOCK:   -8.08 KCAL/MOL
REMARK 923 INTER-LIGAND FREE ENERGY PREDICTED BY IDOCK:   -7.96 KCAL/MOL
REMARK 924 INTRA-LIGAND FREE ENERGY PREDICTED BY IDOCK:   -0.12 KCAL/MOL
REMARK 927      BINDING AFFINITY PREDICTED BY RF-SCORE:    0.00 PKD
ROOT
HETATM    1  C   UNL     1     -12.046  15.804  72.532  1.00  0.00    -0.591 C  
HETATM    2  C   UNL     1     -13.241  15.283  71.790  1.00  0.00    -0.424 C  
HETATM    3  O   UNL     1     -14.400  15.523  72.103  1.00  0.00    -0.548 OA 
ENDROOT
BRANCH   2   4
HETATM    4  O   UNL     1     -12.813  14.575  70.670  1.00  0.00    -0.345 OA 
BRANCH   4   5
HETATM    5  C   UNL     1     -12.561  13.198  70.859  1.00  0.00    -0.295 A  
HETATM    6  C   UNL     1     -13.161  12.583  71.968  1.00  0.00    -0.524 A  
HETATM    7  C   UNL     1     -13.026  11.216  72.170  1.00  0.00    -0.220 A  
HETATM    8  C   UNL     1     -12.322  10.458  71.244  1.00  0.00    -0.507 A  
HETATM    9  C   UNL     1     -11.752  11.066  70.113  1.00  0.00    -0.442 A  
HETATM   10  C   UNL     1     -11.856  12.445  69.907  1.00  0.00    -0.376 A  
HETATM   11  C   UNL     1     -11.233  13.044  68.696  1.00  0.00    -0.277 C  
HETATM   12  O   UNL     1     -11.286  14.255  68.524  1.00  0.00    -0.254 OA 
HETATM   13  C   UNL     1     -10.542  12.166  67.702  1.00  0.00    -0.236 A  
HETATM   14  C   UNL     1      -9.941  12.674  66.529  1.00  0.00    -0.251 A  
HETATM   15  O   UNL     1     -10.998   8.992  69.324  1.00  0.00    -0.161 OA 
HETATM   16  C   UNL     1      -9.281  11.832  65.619  1.00  0.00    -0.109 A  
HETATM   17  C   UNL     1      -9.237  10.455  65.856  1.00  0.00    -0.205 A  
HETATM   18  C   UNL     1     -11.064  10.202  69.140  1.00  0.00    -0.212 C  
HETATM   19  C   UNL     1      -8.531   9.504  64.955  1.00  0.00    -0.154 C  
HETATM   20  C   UNL     1     -10.469  10.793  67.930  1.00  0.00    -0.233 A  
HETATM   21  O   UNL     1      -8.522   9.855  63.654  1.00  0.00    -0.151 OA 
HETATM   22  C   UNL     1      -9.825   9.941  67.016  1.00  0.00    -0.241 A  
HETATM   23  O   UNL     1      -8.039   8.467  65.364  1.00  0.00    -0.116 OA 
BRANCH  14  24
HETATM   24  O   UNL     1     -10.023  14.080  66.315  1.00  0.00    -0.288 OA 
BRANCH  24  25
HETATM   25  C   UNL     1      -9.081  15.082  66.556  1.00  0.00    -0.286 C  
HETATM   26  O   UNL     1      -9.006  16.153  65.972  1.00  0.00    -0.330 OA 
HETATM   27  C   UNL     1      -8.171  14.651  67.669  1.00  0.00    -0.182 C  
ENDBRANCH  24  25
ENDBRANCH  14  24
ENDBRANCH   4   5
ENDBRANCH   2   4
TORSDOF 4
ENDMDL
MODEL       43
REMARK 921   NORMALIZED FREE ENERGY PREDICTED BY IDOCK:   -5.97 KCAL/MOL
REMARK 922        TOTAL FREE ENERGY PREDICTED BY IDOCK:   -8.02 KCAL/MOL
REMARK 923 INTER-LIGAND FREE ENERGY PREDICTED BY IDOCK:   -7.24 KCAL/MOL
REMARK 924 INTRA-LIGAND FREE ENERGY PREDICTED BY IDOCK:   -0.78 KCAL/MOL
REMARK 927      BINDING AFFINITY PREDICTED BY RF-SCORE:    0.00 PKD
ROOT
HETATM    1  C   UNL     1     -11.794  14.618  67.191  1.00  0.00    -0.367 C  
HETATM    2  C   UNL     1     -11.740  13.162  67.546  1.00  0.00    -0.366 C  
HETATM    3  O   UNL     1     -12.253  12.274  66.876  1.00  0.00    -0.530 OA 
ENDROOT
BRANCH   2   4
HETATM    4  O   UNL     1     -10.956  12.995  68.685  1.00  0.00    -0.247 OA 
BRANCH   4   5
HETATM    5  C   UNL     1     -11.599  12.429  69.809  1.00  0.00    -0.232 A  
HETATM    6  C   UNL     1     -12.524  13.232  70.490  1.00  0.00    -0.332 A  
HETATM    7  C   UNL     1     -13.254  12.715  71.552  1.00  0.00    -0.313 A  
HETATM    8  C   UNL     1     -13.086  11.384  71.908  1.00  0.00    -0.505 A  
HETATM    9  C   UNL     1     -12.186  10.567  71.203  1.00  0.00    -0.496 A  
HETATM   10  C   UNL     1     -11.424  11.077  70.148  1.00  0.00    -0.383 A  
HETATM   11  C   UNL     1     -10.483  10.175  69.432  1.00  0.00    -0.233 C  
HETATM   12  O   UNL     1      -9.784  10.620  68.531  1.00  0.00    -0.160 OA 
HETATM   13  C   UNL     1     -10.392   8.733  69.821  1.00  0.00    -0.214 A  
HETATM   14  C   UNL     1      -9.526   7.825  69.174  1.00  0.00    -0.151 A  
HETATM   15  O   UNL     1     -12.780   8.712  72.507  1.00  0.00    -0.385 OA 
HETATM   16  C   UNL     1      -9.444   6.480  69.568  1.00  0.00    -0.150 A  
HETATM   17  C   UNL     1     -10.255   6.013  70.607  1.00  0.00    -0.260 A  
HETATM   18  C   UNL     1     -12.091   9.150  71.593  1.00  0.00    -0.362 C  
HETATM   19  C   UNL     1     -10.203   4.611  71.102  1.00  0.00    -0.129 C  
HETATM   20  C   UNL     1     -11.177   8.252  70.868  1.00  0.00    -0.292 A  
HETATM   21  O   UNL     1      -9.892   3.690  70.168  1.00  0.00    -0.170 OA 
HETATM   22  C   UNL     1     -11.114   6.904  71.259  1.00  0.00    -0.293 A  
HETATM   23  O   UNL     1     -10.464   4.320  72.257  1.00  0.00    -0.170 OA 
BRANCH  14  24
HETATM   24  O   UNL     1      -8.729   8.336  68.109  1.00  0.00    -0.135 OA 
BRANCH  24  25
HETATM   25  C   UNL     1      -8.331   7.733  66.915  1.00  0.00    -0.124 C  
HETATM   26  O   UNL     1      -9.063   7.167  66.116  1.00  0.00    -0.166 OA 
HETATM   27  C   UNL     1      -6.849   7.900  66.745  1.00  0.00    -0.072 C  
ENDBRANCH  24  25
ENDBRANCH  14  24
ENDBRANCH   4   5
ENDBRANCH   2   4
TORSDOF 4
ENDMDL
MODEL       44
REMARK 921   NORMALIZED FREE ENERGY PREDICTED BY IDOCK:   -5.94 KCAL/MOL
REMARK 922        TOTAL FREE ENERGY PREDICTED BY IDOCK:   -7.98 KCAL/MOL
REMARK 923 INTER-LIGAND FREE ENERGY PREDICTED BY IDOCK:   -7.60 KCAL/MOL
REMARK 924 INTRA-LIGAND FREE ENERGY PREDICTED BY IDOCK:   -0.38 KCAL/MOL
REMARK 927      BINDING AFFINITY PREDICTED BY RF-SCORE:    0.00 PKD
ROOT
HETATM    1  C   UNL     1     -11.412  14.503  66.946  1.00  0.00    -0.375 C  
HETATM    2  C   UNL     1     -12.442  13.852  66.072  1.00  0.00    -0.461 C  
HETATM    3  O   UNL     1     -13.154  14.460  65.282  1.00  0.00    -0.629 OA 
ENDROOT
BRANCH   2   4
HETATM    4  O   UNL     1     -12.388  12.472  66.248  1.00  0.00    -0.570 OA 
BRANCH   4   5
HETATM    5  C   UNL     1     -11.503  11.768  65.401  1.00  0.00    -0.176 A  
HETATM    6  C   UNL     1     -11.290  12.293  64.118  1.00  0.00    -0.442 A  
HETATM    7  C   UNL     1     -10.371  11.701  63.262  1.00  0.00    -0.444 A  
HETATM    8  C   UNL     1      -9.638  10.607  63.702  1.00  0.00    -0.360 A  
HETATM    9  C   UNL     1      -9.823  10.102  65.000  1.00  0.00    -0.392 A  
HETATM   10  C   UNL     1     -10.763  10.669  65.867  1.00  0.00    -0.105 A  
HETATM   11  C   UNL     1     -10.926  10.099  67.231  1.00  0.00    -0.183 C  
HETATM   12  O   UNL     1     -11.771  10.563  67.984  1.00  0.00    -0.450 OA 
HETATM   13  C   UNL     1     -10.062   8.959  67.669  1.00  0.00    -0.274 A  
HETATM   14  C   UNL     1     -10.162   8.381  68.954  1.00  0.00    -0.210 A  
HETATM   15  O   UNL     1      -8.145   8.501  64.664  1.00  0.00    -0.138 OA 
HETATM   16  C   UNL     1      -9.354   7.299  69.337  1.00  0.00    -0.151 A  
HETATM   17  C   UNL     1      -8.405   6.793  68.444  1.00  0.00    -0.123 A  
HETATM   18  C   UNL     1      -8.979   8.974  65.427  1.00  0.00    -0.200 C  
HETATM   19  C   UNL     1      -7.534   5.630  68.765  1.00  0.00    -0.084 C  
HETATM   20  C   UNL     1      -9.124   8.426  66.786  1.00  0.00    -0.192 A  
HETATM   21  O   UNL     1      -7.207   5.509  70.067  1.00  0.00    -0.064 OA 
HETATM   22  C   UNL     1      -8.299   7.354  67.167  1.00  0.00    -0.118 A  
HETATM   23  O   UNL     1      -7.117   4.874  67.904  1.00  0.00    -0.060 OA 
BRANCH  14  24
HETATM   24  O   UNL     1     -11.129   8.936  69.841  1.00  0.00    -0.226 OA 
BRANCH  24  25
HETATM   25  C   UNL     1     -11.033   9.236  71.200  1.00  0.00    -0.339 C  
HETATM   26  O   UNL     1     -10.044   9.082  71.903  1.00  0.00    -0.339 OA 
HETATM   27  C   UNL     1     -12.339   9.804  71.677  1.00  0.00    -0.495 C  
ENDBRANCH  24  25
ENDBRANCH  14  24
ENDBRANCH   4   5
ENDBRANCH   2   4
TORSDOF 4
ENDMDL
MODEL       45
REMARK 921   NORMALIZED FREE ENERGY PREDICTED BY IDOCK:   -5.91 KCAL/MOL
REMARK 922        TOTAL FREE ENERGY PREDICTED BY IDOCK:   -7.94 KCAL/MOL
REMARK 923 INTER-LIGAND FREE ENERGY PREDICTED BY IDOCK:   -7.34 KCAL/MOL
REMARK 924 INTRA-LIGAND FREE ENERGY PREDICTED BY IDOCK:   -0.60 KCAL/MOL
REMARK 927      BINDING AFFINITY PREDICTED BY RF-SCORE:    0.00 PKD
ROOT
HETATM    1  C   UNL     1     -14.099  14.974  71.714  1.00  0.00    -0.621 C  
HETATM    2  C   UNL     1     -12.875  14.295  71.176  1.00  0.00    -0.359 C  
HETATM    3  O   UNL     1     -11.731  14.587  71.501  1.00  0.00    -0.300 OA 
ENDROOT
BRANCH   2   4
HETATM    4  O   UNL     1     -13.259  13.251  70.338  1.00  0.00     0.230 OA 
BRANCH   4   5
HETATM    5  C   UNL     1     -12.749  11.973  70.658  1.00  0.00    -0.078 A  
HETATM    6  C   UNL     1     -13.160  11.403  71.871  1.00  0.00    -0.505 A  
HETATM    7  C   UNL     1     -12.765  10.116  72.212  1.00  0.00    -0.170 A  
HETATM    8  C   UNL     1     -11.991   9.385  71.321  1.00  0.00    -0.430 A  
HETATM    9  C   UNL     1     -11.609   9.940  70.089  1.00  0.00    -0.281 A  
HETATM   10  C   UNL     1     -11.975  11.243  69.740  1.00  0.00    -0.431 A  
HETATM   11  C   UNL     1     -11.545  11.789  68.425  1.00  0.00    -0.318 C  
HETATM   12  O   UNL     1     -11.828  12.941  68.126  1.00  0.00    -0.336 OA 
HETATM   13  C   UNL     1     -10.765  10.929  67.481  1.00  0.00    -0.299 A  
HETATM   14  C   UNL     1     -10.337  11.386  66.216  1.00  0.00    -0.243 A  
HETATM   15  O   UNL     1     -10.536   7.948  69.475  1.00  0.00    -0.229 OA 
HETATM   16  C   UNL     1      -9.589  10.568  65.354  1.00  0.00    -0.291 A  
HETATM   17  C   UNL     1      -9.280   9.259  65.737  1.00  0.00    -0.283 A  
HETATM   18  C   UNL     1     -10.833   9.096  69.165  1.00  0.00    -0.110 C  
HETATM   19  C   UNL     1      -8.467   8.343  64.893  1.00  0.00    -0.122 C  
HETATM   20  C   UNL     1     -10.428   9.628  67.853  1.00  0.00    -0.296 A  
HETATM   21  O   UNL     1      -8.598   8.528  63.565  1.00  0.00    -0.092 OA 
HETATM   22  C   UNL     1      -9.695   8.797  66.990  1.00  0.00    -0.258 A  
HETATM   23  O   UNL     1      -7.770   7.466  65.373  1.00  0.00    -0.096 OA 
BRANCH  14  24
HETATM   24  O   UNL     1     -10.687  12.719  65.856  1.00  0.00    -0.264 OA 
BRANCH  24  25
HETATM   25  C   UNL     1     -11.392  13.196  64.749  1.00  0.00    -0.324 C  
HETATM   26  O   UNL     1     -11.104  13.004  63.577  1.00  0.00    -0.338 OA 
HETATM   27  C   UNL     1     -12.585  13.975  65.220  1.00  0.00    -0.495 C  
ENDBRANCH  24  25
ENDBRANCH  14  24
ENDBRANCH   4   5
ENDBRANCH   2   4
TORSDOF 4
ENDMDL
MODEL       46
REMARK 921   NORMALIZED FREE ENERGY PREDICTED BY IDOCK:   -5.91 KCAL/MOL
REMARK 922        TOTAL FREE ENERGY PREDICTED BY IDOCK:   -7.93 KCAL/MOL
REMARK 923 INTER-LIGAND FREE ENERGY PREDICTED BY IDOCK:   -7.66 KCAL/MOL
REMARK 924 INTRA-LIGAND FREE ENERGY PREDICTED BY IDOCK:   -0.27 KCAL/MOL
REMARK 927      BINDING AFFINITY PREDICTED BY RF-SCORE:    0.00 PKD
ROOT
HETATM    1  C   UNL     1     -13.276  10.700  71.717  1.00  0.00    -0.526 C  
HETATM    2  C   UNL     1     -12.789   9.347  72.142  1.00  0.00    -0.401 C  
HETATM    3  O   UNL     1     -13.511   8.471  72.600  1.00  0.00    -0.259 OA 
ENDROOT
BRANCH   2   4
HETATM    4  O   UNL     1     -11.431   9.236  71.851  1.00  0.00    -0.372 OA 
BRANCH   4   5
HETATM    5  C   UNL     1     -11.071   8.239  70.917  1.00  0.00    -0.261 A  
HETATM    6  C   UNL     1     -11.224   6.903  71.314  1.00  0.00    -0.306 A  
HETATM    7  C   UNL     1     -10.969   5.872  70.420  1.00  0.00    -0.376 A  
HETATM    8  C   UNL     1     -10.599   6.178  69.117  1.00  0.00    -0.345 A  
HETATM    9  C   UNL     1     -10.482   7.516  68.706  1.00  0.00    -0.212 A  
HETATM   10  C   UNL     1     -10.709   8.567  69.600  1.00  0.00    -0.200 A  
HETATM   11  C   UNL     1     -10.571   9.968  69.120  1.00  0.00    -0.218 C  
HETATM   12  O   UNL     1     -10.731  10.895  69.903  1.00  0.00    -0.206 OA 
HETATM   13  C   UNL     1     -10.230  10.235  67.688  1.00  0.00    -0.247 A  
HETATM   14  C   UNL     1     -10.095  11.541  67.170  1.00  0.00    -0.197 A  
HETATM   15  O   UNL     1      -9.961   6.846  66.521  1.00  0.00    -0.162 OA 
HETATM   16  C   UNL     1      -9.757  11.768  65.826  1.00  0.00    -0.260 A  
HETATM   17  C   UNL     1      -9.575  10.680  64.966  1.00  0.00    -0.319 A  
HETATM   18  C   UNL     1     -10.138   7.777  67.299  1.00  0.00    -0.238 C  
HETATM   19  C   UNL     1      -9.186  10.838  63.539  1.00  0.00    -0.257 C  
HETATM   20  C   UNL     1     -10.024   9.164  66.819  1.00  0.00    -0.322 A  
HETATM   21  O   UNL     1      -9.643  11.959  62.946  1.00  0.00    -0.367 OA 
HETATM   22  C   UNL     1      -9.702   9.381  65.468  1.00  0.00    -0.300 A  
HETATM   23  O   UNL     1      -8.538   9.992  62.945  1.00  0.00    -0.157 OA 
BRANCH  14  24
HETATM   24  O   UNL     1     -10.305  12.622  68.075  1.00  0.00    -0.215 OA 
BRANCH  24  25
HETATM   25  C   UNL     1     -11.168  13.715  67.983  1.00  0.00    -0.267 C  
HETATM   26  O   UNL     1     -11.163  14.564  67.104  1.00  0.00    -0.310 OA 
HETATM   27  C   UNL     1     -12.131  13.684  69.134  1.00  0.00    -0.361 C  
ENDBRANCH  24  25
ENDBRANCH  14  24
ENDBRANCH   4   5
ENDBRANCH   2   4
TORSDOF 4
ENDMDL
MODEL       47
REMARK 921   NORMALIZED FREE ENERGY PREDICTED BY IDOCK:   -5.87 KCAL/MOL
REMARK 922        TOTAL FREE ENERGY PREDICTED BY IDOCK:   -7.89 KCAL/MOL
REMARK 923 INTER-LIGAND FREE ENERGY PREDICTED BY IDOCK:   -7.03 KCAL/MOL
REMARK 924 INTRA-LIGAND FREE ENERGY PREDICTED BY IDOCK:   -0.86 KCAL/MOL
REMARK 927      BINDING AFFINITY PREDICTED BY RF-SCORE:    0.00 PKD
ROOT
HETATM    1  C   UNL     1      -9.232   6.345  68.280  1.00  0.00    -0.112 C  
HETATM    2  C   UNL     1      -9.741   7.754  68.359  1.00  0.00    -0.159 C  
HETATM    3  O   UNL     1     -10.639   8.117  69.108  1.00  0.00    -0.219 OA 
ENDROOT
BRANCH   2   4
HETATM    4  O   UNL     1      -8.979   8.565  67.523  1.00  0.00    -0.134 OA 
BRANCH   4   5
HETATM    5  C   UNL     1      -8.315   9.650  68.139  1.00  0.00    -0.117 A  
HETATM    6  C   UNL     1      -7.231   9.347  68.975  1.00  0.00    -0.071 A  
HETATM    7  C   UNL     1      -6.481  10.366  69.548  1.00  0.00    -0.065 A  
HETATM    8  C   UNL     1      -6.791  11.686  69.253  1.00  0.00    -0.104 A  
HETATM    9  C   UNL     1      -7.853  11.991  68.386  1.00  0.00    -0.147 A  
HETATM   10  C   UNL     1      -8.636  10.980  67.821  1.00  0.00    -0.130 A  
HETATM   11  C   UNL     1      -9.751  11.352  66.910  1.00  0.00    -0.192 C  
HETATM   12  O   UNL     1     -10.466  10.476  66.439  1.00  0.00    -0.235 OA 
HETATM   13  C   UNL     1      -9.996  12.790  66.581  1.00  0.00    -0.246 A  
HETATM   14  C   UNL     1     -11.032  13.205  65.716  1.00  0.00    -0.277 A  
HETATM   15  O   UNL     1      -7.392  14.283  68.557  1.00  0.00    -0.103 OA 
HETATM   16  C   UNL     1     -11.256  14.563  65.436  1.00  0.00    -0.342 A  
HETATM   17  C   UNL     1     -10.421  15.532  66.000  1.00  0.00    -0.335 A  
HETATM   18  C   UNL     1      -8.099  13.408  68.070  1.00  0.00    -0.160 C  
HETATM   19  C   UNL     1     -10.612  16.991  65.776  1.00  0.00    -0.211 C  
HETATM   20  C   UNL     1      -9.188  13.774  67.149  1.00  0.00    -0.245 A  
HETATM   21  O   UNL     1     -11.128  17.317  64.575  1.00  0.00    -1.082 OA 
HETATM   22  C   UNL     1      -9.394  15.134  66.862  1.00  0.00    -0.251 A  
HETATM   23  O   UNL     1     -10.285  17.823  66.604  1.00  0.00    -0.332 OA 
BRANCH  14  24
HETATM   24  O   UNL     1     -11.850  12.186  65.148  1.00  0.00    -0.358 OA 
BRANCH  24  25
HETATM   25  C   UNL     1     -12.076  11.857  63.811  1.00  0.00    -0.443 C  
HETATM   26  O   UNL     1     -13.155  11.889  63.235  1.00  0.00    -0.674 OA 
HETATM   27  C   UNL     1     -10.776  11.470  63.168  1.00  0.00    -0.281 C  
ENDBRANCH  24  25
ENDBRANCH  14  24
ENDBRANCH   4   5
ENDBRANCH   2   4
TORSDOF 4
ENDMDL
MODEL       48
REMARK 921   NORMALIZED FREE ENERGY PREDICTED BY IDOCK:   -5.86 KCAL/MOL
REMARK 922        TOTAL FREE ENERGY PREDICTED BY IDOCK:   -7.87 KCAL/MOL
REMARK 923 INTER-LIGAND FREE ENERGY PREDICTED BY IDOCK:   -7.28 KCAL/MOL
REMARK 924 INTRA-LIGAND FREE ENERGY PREDICTED BY IDOCK:   -0.59 KCAL/MOL
REMARK 927      BINDING AFFINITY PREDICTED BY RF-SCORE:    0.00 PKD
ROOT
HETATM    1  C   UNL     1     -10.701   9.555  67.951  1.00  0.00    -0.285 C  
HETATM    2  C   UNL     1     -10.870  11.037  67.796  1.00  0.00    -0.249 C  
HETATM    3  O   UNL     1     -11.459  11.748  68.600  1.00  0.00    -0.236 OA 
ENDROOT
BRANCH   2   4
HETATM    4  O   UNL     1     -10.186  11.460  66.659  1.00  0.00    -0.210 OA 
BRANCH   4   5
HETATM    5  C   UNL     1     -10.770  12.526  65.938  1.00  0.00    -0.264 A  
HETATM    6  C   UNL     1     -11.986  12.270  65.289  1.00  0.00    -0.391 A  
HETATM    7  C   UNL     1     -12.659  13.291  64.632  1.00  0.00    -0.354 A  
HETATM    8  C   UNL     1     -12.135  14.576  64.656  1.00  0.00    -0.486 A  
HETATM    9  C   UNL     1     -10.935  14.842  65.337  1.00  0.00    -0.371 A  
HETATM   10  C   UNL     1     -10.231  13.822  65.982  1.00  0.00    -0.315 A  
HETATM   11  C   UNL     1      -8.964  14.151  66.689  1.00  0.00    -0.169 C  
HETATM   12  O   UNL     1      -8.320  13.259  67.225  1.00  0.00    -0.181 OA 
HETATM   13  C   UNL     1      -8.482  15.567  66.733  1.00  0.00    -0.314 A  
HETATM   14  C   UNL     1      -7.294  15.944  67.395  1.00  0.00    -0.193 A  
HETATM   15  O   UNL     1     -11.096  17.123  64.819  1.00  0.00    -0.909 OA 
HETATM   16  C   UNL     1      -6.851  17.277  67.408  1.00  0.00    -0.185 A  
HETATM   17  C   UNL     1      -7.613  18.265  66.776  1.00  0.00    -0.245 A  
HETATM   18  C   UNL     1     -10.458  16.235  65.372  1.00  0.00    -0.343 C  
HETATM   19  C   UNL     1      -7.195  19.692  66.720  1.00  0.00    -0.224 C  
HETATM   20  C   UNL     1      -9.216  16.564  66.092  1.00  0.00    -0.338 A  
HETATM   21  O   UNL     1      -6.484  20.117  67.783  1.00  0.00    -0.221 OA 
HETATM   22  C   UNL     1      -8.790  17.903  66.113  1.00  0.00    -0.109 A  
HETATM   23  O   UNL     1      -7.512  20.425  65.799  1.00  0.00    -0.218 OA 
BRANCH  14  24
HETATM   24  O   UNL     1      -6.556  14.911  68.041  1.00  0.00    -0.118 OA 
BRANCH  24  25
HETATM   25  C   UNL     1      -5.942  14.894  69.294  1.00  0.00    -0.104 C  
HETATM   26  O   UNL     1      -5.440  15.853  69.862  1.00  0.00    -0.120 OA 
HETATM   27  C   UNL     1      -6.006  13.505  69.859  1.00  0.00    -0.130 C  
ENDBRANCH  24  25
ENDBRANCH  14  24
ENDBRANCH   4   5
ENDBRANCH   2   4
TORSDOF 4
ENDMDL
MODEL       49
REMARK 921   NORMALIZED FREE ENERGY PREDICTED BY IDOCK:   -5.83 KCAL/MOL
REMARK 922        TOTAL FREE ENERGY PREDICTED BY IDOCK:   -7.84 KCAL/MOL
REMARK 923 INTER-LIGAND FREE ENERGY PREDICTED BY IDOCK:   -7.15 KCAL/MOL
REMARK 924 INTRA-LIGAND FREE ENERGY PREDICTED BY IDOCK:   -0.68 KCAL/MOL
REMARK 927      BINDING AFFINITY PREDICTED BY RF-SCORE:    0.00 PKD
ROOT
HETATM    1  C   UNL     1     -10.235   3.787  72.743  1.00  0.00    -0.236 C  
HETATM    2  C   UNL     1      -9.834   5.107  72.155  1.00  0.00    -0.174 C  
HETATM    3  O   UNL     1      -8.781   5.679  72.408  1.00  0.00    -0.128 OA 
ENDROOT
BRANCH   2   4
HETATM    4  O   UNL     1     -10.798   5.511  71.236  1.00  0.00    -0.242 OA 
BRANCH   4   5
HETATM    5  C   UNL     1     -10.358   5.685  69.904  1.00  0.00    -0.277 A  
HETATM    6  C   UNL     1      -9.958   4.537  69.206  1.00  0.00    -0.192 A  
HETATM    7  C   UNL     1      -9.593   4.621  67.869  1.00  0.00    -0.205 A  
HETATM    8  C   UNL     1      -9.665   5.846  67.220  1.00  0.00    -0.137 A  
HETATM    9  C   UNL     1     -10.102   6.991  67.907  1.00  0.00    -0.204 A  
HETATM   10  C   UNL     1     -10.448   6.930  69.261  1.00  0.00    -0.233 A  
HETATM   11  C   UNL     1     -10.902   8.169  69.947  1.00  0.00    -0.215 C  
HETATM   12  O   UNL     1     -11.172   8.136  71.141  1.00  0.00    -0.247 OA 
HETATM   13  C   UNL     1     -11.019   9.447  69.178  1.00  0.00    -0.114 A  
HETATM   14  C   UNL     1     -11.453  10.653  69.770  1.00  0.00    -0.302 A  
HETATM   15  O   UNL     1      -9.920   8.283  65.960  1.00  0.00    -0.104 OA 
HETATM   16  C   UNL     1     -11.538  11.845  69.033  1.00  0.00    -0.376 A  
HETATM   17  C   UNL     1     -11.213  11.842  67.673  1.00  0.00    -0.345 A  
HETATM   18  C   UNL     1     -10.207   8.249  67.151  1.00  0.00    -0.295 C  
HETATM   19  C   UNL     1     -11.247  13.069  66.833  1.00  0.00    -0.295 C  
HETATM   20  C   UNL     1     -10.680   9.470  67.826  1.00  0.00    -0.302 A  
HETATM   21  O   UNL     1     -12.178  13.976  67.190  1.00  0.00    -0.419 OA 
HETATM   22  C   UNL     1     -10.777  10.654  67.076  1.00  0.00    -0.317 A  
HETATM   23  O   UNL     1     -10.515  13.217  65.869  1.00  0.00    -0.275 OA 
BRANCH  14  24
HETATM   24  O   UNL     1     -11.791  10.611  71.153  1.00  0.00    -0.328 OA 
BRANCH  24  25
HETATM   25  C   UNL     1     -13.024  10.793  71.783  1.00  0.00    -0.463 C  
HETATM   26  O   UNL     1     -13.828   9.913  72.058  1.00  0.00    -0.264 OA 
HETATM   27  C   UNL     1     -13.211  12.249  72.095  1.00  0.00    -0.466 C  
ENDBRANCH  24  25
ENDBRANCH  14  24
ENDBRANCH   4   5
ENDBRANCH   2   4
TORSDOF 4
ENDMDL
MODEL       50
REMARK 921   NORMALIZED FREE ENERGY PREDICTED BY IDOCK:   -5.78 KCAL/MOL
REMARK 922        TOTAL FREE ENERGY PREDICTED BY IDOCK:   -7.78 KCAL/MOL
REMARK 923 INTER-LIGAND FREE ENERGY PREDICTED BY IDOCK:   -7.17 KCAL/MOL
REMARK 924 INTRA-LIGAND FREE ENERGY PREDICTED BY IDOCK:   -0.62 KCAL/MOL
REMARK 927      BINDING AFFINITY PREDICTED BY RF-SCORE:    0.00 PKD
ROOT
HETATM    1  C   UNL     1      -7.732   4.562  68.423  1.00  0.00    -0.079 C  
HETATM    2  C   UNL     1      -8.103   5.782  69.212  1.00  0.00    -0.101 C  
HETATM    3  O   UNL     1      -7.361   6.328  70.019  1.00  0.00    -0.077 OA 
ENDROOT
BRANCH   2   4
HETATM    4  O   UNL     1      -9.364   6.220  68.816  1.00  0.00    -0.125 OA 
BRANCH   4   5
HETATM    5  C   UNL     1     -10.275   6.524  69.852  1.00  0.00    -0.184 A  
HETATM    6  C   UNL     1     -10.556   5.509  70.777  1.00  0.00    -0.320 A  
HETATM    7  C   UNL     1     -11.377   5.761  71.868  1.00  0.00    -0.268 A  
HETATM    8  C   UNL     1     -11.885   7.039  72.055  1.00  0.00    -0.336 A  
HETATM    9  C   UNL     1     -11.575   8.068  71.150  1.00  0.00    -0.307 A  
HETATM   10  C   UNL     1     -10.772   7.826  70.031  1.00  0.00    -0.245 A  
HETATM   11  C   UNL     1     -10.472   8.946  69.099  1.00  0.00    -0.223 C  
HETATM   12  O   UNL     1      -9.801   8.736  68.097  1.00  0.00    -0.158 OA 
HETATM   13  C   UNL     1     -10.998  10.316  69.388  1.00  0.00    -0.289 A  
HETATM   14  C   UNL     1     -10.741  11.421  68.548  1.00  0.00    -0.201 A  
HETATM   15  O   UNL     1     -12.787   9.616  72.426  1.00  0.00    -0.344 OA 
HETATM   16  C   UNL     1     -11.260  12.695  68.829  1.00  0.00    -0.325 A  
HETATM   17  C   UNL     1     -12.029  12.890  69.981  1.00  0.00    -0.380 A  
HETATM   18  C   UNL     1     -12.101   9.414  71.430  1.00  0.00    -0.363 C  
HETATM   19  C   UNL     1     -12.639  14.201  70.331  1.00  0.00    -0.332 C  
HETATM   20  C   UNL     1     -11.784  10.527  70.520  1.00  0.00    -0.443 A  
HETATM   21  O   UNL     1     -11.937  15.279  69.929  1.00  0.00    -0.304 OA 
HETATM   22  C   UNL     1     -12.295  11.802  70.819  1.00  0.00    -0.433 A  
HETATM   23  O   UNL     1     -13.674  14.285  70.969  1.00  0.00    -0.278 OA 
BRANCH  14  24
HETATM   24  O   UNL     1      -9.939  11.185  67.394  1.00  0.00    -0.176 OA 
BRANCH  24  25
HETATM   25  C   UNL     1     -10.148  11.552  66.064  1.00  0.00    -0.232 C  
HETATM   26  O   UNL     1     -10.484  12.658  65.668  1.00  0.00    -0.265 OA 
HETATM   27  C   UNL     1      -9.876  10.373  65.175  1.00  0.00    -0.378 C  
ENDBRANCH  24  25
ENDBRANCH  14  24
ENDBRANCH   4   5
ENDBRANCH   2   4
TORSDOF 4
ENDMDL
MODEL       51
REMARK 921   NORMALIZED FREE ENERGY PREDICTED BY IDOCK:   -5.76 KCAL/MOL
REMARK 922        TOTAL FREE ENERGY PREDICTED BY IDOCK:   -7.75 KCAL/MOL
REMARK 923 INTER-LIGAND FREE ENERGY PREDICTED BY IDOCK:   -7.03 KCAL/MOL
REMARK 924 INTRA-LIGAND FREE ENERGY PREDICTED BY IDOCK:   -0.72 KCAL/MOL
REMARK 927      BINDING AFFINITY PREDICTED BY RF-SCORE:    0.00 PKD
ROOT
HETATM    1  C   UNL     1      -7.306   8.548  67.716  1.00  0.00    -0.093 C  
HETATM    2  C   UNL     1      -8.112   9.742  68.131  1.00  0.00    -0.108 C  
HETATM    3  O   UNL     1      -9.029   9.702  68.941  1.00  0.00    -0.135 OA 
ENDROOT
BRANCH   2   4
HETATM    4  O   UNL     1      -7.596  10.881  67.518  1.00  0.00    -0.097 OA 
BRANCH   4   5
HETATM    5  C   UNL     1      -7.296  11.968  68.370  1.00  0.00    -0.096 A  
HETATM    6  C   UNL     1      -6.350  11.749  69.381  1.00  0.00    -0.114 A  
HETATM    7  C   UNL     1      -5.946  12.793  70.202  1.00  0.00    -0.135 A  
HETATM    8  C   UNL     1      -6.459  14.065  69.987  1.00  0.00    -0.080 A  
HETATM    9  C   UNL     1      -7.379  14.294  68.951  1.00  0.00    -0.126 A  
HETATM   10  C   UNL     1      -7.817  13.250  68.131  1.00  0.00    -0.145 A  
HETATM   11  C   UNL     1      -8.794  13.542  67.048  1.00  0.00    -0.211 C  
HETATM   12  O   UNL     1      -9.213  12.628  66.348  1.00  0.00    -0.226 OA 
HETATM   13  C   UNL     1      -9.263  14.944  66.825  1.00  0.00    -0.281 A  
HETATM   14  C   UNL     1     -10.182  15.286  65.809  1.00  0.00    -0.349 A  
HETATM   15  O   UNL     1      -7.439  16.583  69.452  1.00  0.00    -0.223 OA 
HETATM   16  C   UNL     1     -10.622  16.607  65.630  1.00  0.00    -0.282 A  
HETATM   17  C   UNL     1     -10.125  17.620  66.455  1.00  0.00    -0.350 A  
HETATM   18  C   UNL     1      -7.847  15.674  68.739  1.00  0.00    -0.169 C  
HETATM   19  C   UNL     1     -10.566  19.037  66.349  1.00  0.00    -0.409 C  
HETATM   20  C   UNL     1      -8.796  15.966  67.651  1.00  0.00    -0.180 A  
HETATM   21  O   UNL     1     -10.904  19.434  65.106  1.00  0.00    -0.425 OA 
HETATM   22  C   UNL     1      -9.218  17.294  67.469  1.00  0.00    -0.227 A  
HETATM   23  O   UNL     1     -10.578  19.787  67.309  1.00  0.00    -0.446 OA 
BRANCH  14  24
HETATM   24  O   UNL     1     -10.651  14.228  64.978  1.00  0.00    -0.375 OA 
BRANCH  24  25
HETATM   25  C   UNL     1     -11.955  13.870  64.629  1.00  0.00    -0.419 C  
HETATM   26  O   UNL     1     -12.655  14.428  63.796  1.00  0.00    -0.829 OA 
HETATM   27  C   UNL     1     -12.370  12.669  65.427  1.00  0.00    -0.499 C  
ENDBRANCH  24  25
ENDBRANCH  14  24
ENDBRANCH   4   5
ENDBRANCH   2   4
TORSDOF 4
ENDMDL
MODEL       52
REMARK 921   NORMALIZED FREE ENERGY PREDICTED BY IDOCK:   -5.73 KCAL/MOL
REMARK 922        TOTAL FREE ENERGY PREDICTED BY IDOCK:   -7.72 KCAL/MOL
REMARK 923 INTER-LIGAND FREE ENERGY PREDICTED BY IDOCK:   -6.95 KCAL/MOL
REMARK 924 INTRA-LIGAND FREE ENERGY PREDICTED BY IDOCK:   -0.77 KCAL/MOL
REMARK 927      BINDING AFFINITY PREDICTED BY RF-SCORE:    0.00 PKD
ROOT
HETATM    1  C   UNL     1     -10.187   4.763  70.313  1.00  0.00    -0.262 C  
HETATM    2  C   UNL     1     -10.670   6.064  69.743  1.00  0.00    -0.330 C  
HETATM    3  O   UNL     1     -11.394   6.154  68.760  1.00  0.00    -0.344 OA 
ENDROOT
BRANCH   2   4
HETATM    4  O   UNL     1     -10.234   7.110  70.552  1.00  0.00    -0.195 OA 
BRANCH   4   5
HETATM    5  C   UNL     1     -11.221   8.033  70.966  1.00  0.00    -0.266 A  
HETATM    6  C   UNL     1     -12.097   7.624  71.981  1.00  0.00    -0.336 A  
HETATM    7  C   UNL     1     -13.037   8.507  72.495  1.00  0.00    -0.283 A  
HETATM    8  C   UNL     1     -13.076   9.811  72.020  1.00  0.00    -0.546 A  
HETATM    9  C   UNL     1     -12.175  10.234  71.028  1.00  0.00    -0.487 A  
HETATM   10  C   UNL     1     -11.238   9.351  70.481  1.00  0.00    -0.329 A  
HETATM   11  C   UNL     1     -10.306   9.844  69.432  1.00  0.00    -0.222 C  
HETATM   12  O   UNL     1      -9.508   9.071  68.920  1.00  0.00    -0.149 OA 
HETATM   13  C   UNL     1     -10.355  11.277  69.006  1.00  0.00    -0.189 A  
HETATM   14  C   UNL     1      -9.491  11.807  68.023  1.00  0.00    -0.188 A  
HETATM   15  O   UNL     1     -13.042  12.410  71.106  1.00  0.00    -0.206 OA 
HETATM   16  C   UNL     1      -9.567  13.151  67.625  1.00  0.00    -0.210 A  
HETATM   17  C   UNL     1     -10.499  14.000  68.231  1.00  0.00    -0.245 A  
HETATM   18  C   UNL     1     -12.230  11.642  70.603  1.00  0.00    -0.366 C  
HETATM   19  C   UNL     1     -10.661  15.427  67.842  1.00  0.00    -0.267 C  
HETATM   20  C   UNL     1     -11.291  12.135  69.582  1.00  0.00    -0.223 A  
HETATM   21  O   UNL     1      -9.533  16.033  67.421  1.00  0.00    -0.217 OA 
HETATM   22  C   UNL     1     -11.364  13.486  69.202  1.00  0.00    -0.333 A  
HETATM   23  O   UNL     1     -11.727  16.010  67.940  1.00  0.00    -0.145 OA 
BRANCH  14  24
HETATM   24  O   UNL     1      -8.544  10.914  67.443  1.00  0.00    -0.126 OA 
BRANCH  24  25
HETATM   25  C   UNL     1      -8.092  10.814  66.126  1.00  0.00    -0.160 C  
HETATM   26  O   UNL     1      -8.795  10.743  65.128  1.00  0.00    -0.195 OA 
HETATM   27  C   UNL     1      -6.591  10.826  66.114  1.00  0.00    -0.127 C  
ENDBRANCH  24  25
ENDBRANCH  14  24
ENDBRANCH   4   5
ENDBRANCH   2   4
TORSDOF 4
ENDMDL
MODEL       53
REMARK 921   NORMALIZED FREE ENERGY PREDICTED BY IDOCK:   -5.73 KCAL/MOL
REMARK 922        TOTAL FREE ENERGY PREDICTED BY IDOCK:   -7.71 KCAL/MOL
REMARK 923 INTER-LIGAND FREE ENERGY PREDICTED BY IDOCK:   -7.02 KCAL/MOL
REMARK 924 INTRA-LIGAND FREE ENERGY PREDICTED BY IDOCK:   -0.69 KCAL/MOL
REMARK 927      BINDING AFFINITY PREDICTED BY RF-SCORE:    0.00 PKD
ROOT
HETATM    1  C   UNL     1      -6.555   9.131  65.281  1.00  0.00    -0.069 C  
HETATM    2  C   UNL     1      -7.248   8.362  64.195  1.00  0.00    -0.092 C  
HETATM    3  O   UNL     1      -6.677   7.875  63.228  1.00  0.00    -0.073 OA 
ENDROOT
BRANCH   2   4
HETATM    4  O   UNL     1      -8.597   8.229  64.515  1.00  0.00    -0.083 OA 
BRANCH   4   5
HETATM    5  C   UNL     1      -8.890   7.571  65.731  1.00  0.00    -0.090 A  
HETATM    6  C   UNL     1      -8.348   6.291  65.913  1.00  0.00    -0.142 A  
HETATM    7  C   UNL     1      -8.524   5.619  67.115  1.00  0.00    -0.110 A  
HETATM    8  C   UNL     1      -9.209   6.243  68.149  1.00  0.00    -0.110 A  
HETATM    9  C   UNL     1      -9.721   7.541  67.981  1.00  0.00    -0.165 A  
HETATM   10  C   UNL     1      -9.575   8.222  66.769  1.00  0.00    -0.288 A  
HETATM   11  C   UNL     1     -10.136   9.594  66.638  1.00  0.00    -0.239 C  
HETATM   12  O   UNL     1     -10.048  10.184  65.570  1.00  0.00    -0.289 OA 
HETATM   13  C   UNL     1     -10.810  10.238  67.808  1.00  0.00    -0.346 A  
HETATM   14  C   UNL     1     -11.353  11.540  67.749  1.00  0.00    -0.296 A  
HETATM   15  O   UNL     1     -10.494   7.569  70.194  1.00  0.00    -0.212 OA 
HETATM   16  C   UNL     1     -11.997  12.117  68.855  1.00  0.00    -0.296 A  
HETATM   17  C   UNL     1     -12.084  11.406  70.056  1.00  0.00    -0.417 A  
HETATM   18  C   UNL     1     -10.392   8.170  69.131  1.00  0.00    -0.220 C  
HETATM   19  C   UNL     1     -12.777  11.937  71.260  1.00  0.00    -0.298 C  
HETATM   20  C   UNL     1     -10.925   9.537  69.008  1.00  0.00    -0.127 A  
HETATM   21  O   UNL     1     -12.728  13.276  71.398  1.00  0.00    -0.354 OA 
HETATM   22  C   UNL     1     -11.554  10.113  70.125  1.00  0.00    -0.350 A  
HETATM   23  O   UNL     1     -13.310  11.206  72.077  1.00  0.00    -0.454 OA 
BRANCH  14  24
HETATM   24  O   UNL     1     -11.229  12.239  66.514  1.00  0.00    -0.289 OA 
BRANCH  24  25
HETATM   25  C   UNL     1     -12.170  12.990  65.808  1.00  0.00    -0.453 C  
HETATM   26  O   UNL     1     -12.998  12.551  65.024  1.00  0.00    -0.779 OA 
HETATM   27  C   UNL     1     -12.024  14.438  66.174  1.00  0.00    -0.381 C  
ENDBRANCH  24  25
ENDBRANCH  14  24
ENDBRANCH   4   5
ENDBRANCH   2   4
TORSDOF 4
ENDMDL
MODEL       54
REMARK 921   NORMALIZED FREE ENERGY PREDICTED BY IDOCK:   -5.70 KCAL/MOL
REMARK 922        TOTAL FREE ENERGY PREDICTED BY IDOCK:   -7.68 KCAL/MOL
REMARK 923 INTER-LIGAND FREE ENERGY PREDICTED BY IDOCK:   -6.92 KCAL/MOL
REMARK 924 INTRA-LIGAND FREE ENERGY PREDICTED BY IDOCK:   -0.76 KCAL/MOL
REMARK 927      BINDING AFFINITY PREDICTED BY RF-SCORE:    0.00 PKD
ROOT
HETATM    1  C   UNL     1     -10.381   6.531  70.162  1.00  0.00    -0.241 C  
HETATM    2  C   UNL     1      -8.899   6.444  70.373  1.00  0.00    -0.151 C  
HETATM    3  O   UNL     1      -8.326   5.455  70.814  1.00  0.00    -0.112 OA 
ENDROOT
BRANCH   2   4
HETATM    4  O   UNL     1      -8.300   7.613  69.913  1.00  0.00    -0.128 OA 
BRANCH   4   5
HETATM    5  C   UNL     1      -8.163   7.737  68.512  1.00  0.00    -0.128 A  
HETATM    6  C   UNL     1      -7.456   6.726  67.845  1.00  0.00    -0.098 A  
HETATM    7  C   UNL     1      -7.354   6.738  66.461  1.00  0.00    -0.074 A  
HETATM    8  C   UNL     1      -7.991   7.739  65.740  1.00  0.00    -0.114 A  
HETATM    9  C   UNL     1      -8.732   8.732  66.404  1.00  0.00    -0.158 A  
HETATM   10  C   UNL     1      -8.824   8.751  67.799  1.00  0.00    -0.137 A  
HETATM   11  C   UNL     1      -9.617   9.823  68.458  1.00  0.00    -0.149 C  
HETATM   12  O   UNL     1      -9.674   9.871  69.679  1.00  0.00    -0.204 OA 
HETATM   13  C   UNL     1     -10.333  10.838  67.624  1.00  0.00    -0.236 A  
HETATM   14  C   UNL     1     -11.109  11.873  68.190  1.00  0.00    -0.242 A  
HETATM   15  O   UNL     1      -9.355   9.695  64.360  1.00  0.00    -0.254 OA 
HETATM   16  C   UNL     1     -11.758  12.826  67.388  1.00  0.00    -0.425 A  
HETATM   17  C   UNL     1     -11.662  12.741  65.996  1.00  0.00    -0.470 A  
HETATM   18  C   UNL     1      -9.428   9.736  65.583  1.00  0.00    -0.246 C  
HETATM   19  C   UNL     1     -12.294  13.729  65.082  1.00  0.00    -0.448 C  
HETATM   20  C   UNL     1     -10.233  10.783  66.235  1.00  0.00    -0.301 A  
HETATM   21  O   UNL     1     -13.440  14.272  65.538  1.00  0.00    -0.580 OA 
HETATM   22  C   UNL     1     -10.892  11.722  65.424  1.00  0.00    -0.347 A  
HETATM   23  O   UNL     1     -11.828  13.991  63.986  1.00  0.00    -0.390 OA 
BRANCH  14  24
HETATM   24  O   UNL     1     -11.197  11.916  69.611  1.00  0.00    -0.207 OA 
BRANCH  24  25
HETATM   25  C   UNL     1     -12.279  11.656  70.453  1.00  0.00    -0.347 C  
HETATM   26  O   UNL     1     -12.845  10.580  70.585  1.00  0.00    -0.358 OA 
HETATM   27  C   UNL     1     -12.639  12.908  71.199  1.00  0.00    -0.373 C  
ENDBRANCH  24  25
ENDBRANCH  14  24
ENDBRANCH   4   5
ENDBRANCH   2   4
TORSDOF 4
ENDMDL
MODEL       55
REMARK 921   NORMALIZED FREE ENERGY PREDICTED BY IDOCK:   -5.61 KCAL/MOL
REMARK 922        TOTAL FREE ENERGY PREDICTED BY IDOCK:   -7.57 KCAL/MOL
REMARK 923 INTER-LIGAND FREE ENERGY PREDICTED BY IDOCK:   -6.65 KCAL/MOL
REMARK 924 INTRA-LIGAND FREE ENERGY PREDICTED BY IDOCK:   -0.92 KCAL/MOL
REMARK 927      BINDING AFFINITY PREDICTED BY RF-SCORE:    0.00 PKD
ROOT
HETATM    1  C   UNL     1     -10.949   6.409  67.783  1.00  0.00    -0.425 C  
HETATM    2  C   UNL     1     -10.434   7.756  67.372  1.00  0.00    -0.292 C  
HETATM    3  O   UNL     1     -10.082   8.037  66.233  1.00  0.00    -0.173 OA 
ENDROOT
BRANCH   2   4
HETATM    4  O   UNL     1     -10.508   8.627  68.456  1.00  0.00    -0.209 OA 
BRANCH   4   5
HETATM    5  C   UNL     1      -9.294   9.226  68.861  1.00  0.00    -0.150 A  
HETATM    6  C   UNL     1      -8.339   8.395  69.463  1.00  0.00    -0.120 A  
HETATM    7  C   UNL     1      -7.092   8.897  69.810  1.00  0.00    -0.054 A  
HETATM    8  C   UNL     1      -6.786  10.220  69.521  1.00  0.00    -0.084 A  
HETATM    9  C   UNL     1      -7.729  11.044  68.884  1.00  0.00    -0.140 A  
HETATM   10  C   UNL     1      -8.999  10.563  68.550  1.00  0.00    -0.147 A  
HETATM   11  C   UNL     1      -9.964  11.474  67.878  1.00  0.00    -0.183 C  
HETATM   12  O   UNL     1     -11.091  11.075  67.616  1.00  0.00    -0.260 OA 
HETATM   13  C   UNL     1      -9.555  12.872  67.536  1.00  0.00    -0.200 A  
HETATM   14  C   UNL     1     -10.422  13.780  66.890  1.00  0.00    -0.272 A  
HETATM   15  O   UNL     1      -6.205  12.824  68.835  1.00  0.00    -0.073 OA 
HETATM   16  C   UNL     1     -10.023  15.093  66.594  1.00  0.00    -0.261 A  
HETATM   17  C   UNL     1      -8.728  15.512  66.918  1.00  0.00    -0.281 A  
HETATM   18  C   UNL     1      -7.328  12.422  68.555  1.00  0.00    -0.105 C  
HETATM   19  C   UNL     1      -8.242  16.895  66.665  1.00  0.00    -0.257 C  
HETATM   20  C   UNL     1      -8.276  13.316  67.869  1.00  0.00    -0.163 A  
HETATM   21  O   UNL     1      -8.779  17.497  65.586  1.00  0.00    -0.421 OA 
HETATM   22  C   UNL     1      -7.862  14.623  67.562  1.00  0.00    -0.212 A  
HETATM   23  O   UNL     1      -7.391  17.421  67.362  1.00  0.00    -0.162 OA 
BRANCH  14  24
HETATM   24  O   UNL     1     -11.726  13.309  66.562  1.00  0.00    -0.340 OA 
BRANCH  24  25
HETATM   25  C   UNL     1     -12.464  13.455  65.386  1.00  0.00    -0.494 C  
HETATM   26  O   UNL     1     -13.406  14.216  65.218  1.00  0.00    -0.715 OA 
HETATM   27  C   UNL     1     -11.911  12.536  64.335  1.00  0.00    -0.455 C  
ENDBRANCH  24  25
ENDBRANCH  14  24
ENDBRANCH   4   5
ENDBRANCH   2   4
TORSDOF 4
ENDMDL
MODEL       56
REMARK 921   NORMALIZED FREE ENERGY PREDICTED BY IDOCK:   -5.54 KCAL/MOL
REMARK 922        TOTAL FREE ENERGY PREDICTED BY IDOCK:   -7.48 KCAL/MOL
REMARK 923 INTER-LIGAND FREE ENERGY PREDICTED BY IDOCK:   -6.70 KCAL/MOL
REMARK 924 INTRA-LIGAND FREE ENERGY PREDICTED BY IDOCK:   -0.78 KCAL/MOL
REMARK 927      BINDING AFFINITY PREDICTED BY RF-SCORE:    0.00 PKD
ROOT
HETATM    1  C   UNL     1     -11.178  14.874  68.404  1.00  0.00    -0.304 C  
HETATM    2  C   UNL     1     -10.489  13.560  68.180  1.00  0.00    -0.244 C  
HETATM    3  O   UNL     1      -9.341  13.320  68.530  1.00  0.00    -0.182 OA 
ENDROOT
BRANCH   2   4
HETATM    4  O   UNL     1     -11.385  12.665  67.601  1.00  0.00    -0.271 OA 
BRANCH   4   5
HETATM    5  C   UNL     1     -10.838  11.732  66.693  1.00  0.00    -0.276 A  
HETATM    6  C   UNL     1     -10.423  12.219  65.445  1.00  0.00    -0.302 A  
HETATM    7  C   UNL     1      -9.800  11.376  64.535  1.00  0.00    -0.302 A  
HETATM    8  C   UNL     1      -9.557  10.055  64.886  1.00  0.00    -0.375 A  
HETATM    9  C   UNL     1      -9.939   9.574  66.150  1.00  0.00    -0.342 A  
HETATM   10  C   UNL     1     -10.590  10.402  67.070  1.00  0.00    -0.305 A  
HETATM   11  C   UNL     1     -10.977   9.847  68.395  1.00  0.00    -0.187 C  
HETATM   12  O   UNL     1     -11.581  10.551  69.193  1.00  0.00    -0.261 OA 
HETATM   13  C   UNL     1     -10.633   8.433  68.739  1.00  0.00    -0.154 A  
HETATM   14  C   UNL     1     -10.964   7.852  69.983  1.00  0.00    -0.207 A  
HETATM   15  O   UNL     1      -9.018   7.472  65.676  1.00  0.00    -0.097 OA 
HETATM   16  C   UNL     1     -10.647   6.517  70.278  1.00  0.00    -0.278 A  
HETATM   17  C   UNL     1      -9.963   5.743  69.335  1.00  0.00    -0.244 A  
HETATM   18  C   UNL     1      -9.607   8.179  66.484  1.00  0.00    -0.234 C  
HETATM   19  C   UNL     1      -9.619   4.313  69.561  1.00  0.00    -0.204 C  
HETATM   20  C   UNL     1      -9.969   7.638  67.805  1.00  0.00    -0.219 A  
HETATM   21  O   UNL     1      -9.379   3.984  70.846  1.00  0.00    -0.124 OA 
HETATM   22  C   UNL     1      -9.633   6.306  68.098  1.00  0.00    -0.115 A  
HETATM   23  O   UNL     1      -9.522   3.516  68.644  1.00  0.00    -0.167 OA 
BRANCH  14  24
HETATM   24  O   UNL     1     -11.645   8.678  70.923  1.00  0.00    -0.277 OA 
BRANCH  24  25
HETATM   25  C   UNL     1     -12.358   8.333  72.072  1.00  0.00    -0.349 C  
HETATM   26  O   UNL     1     -11.894   8.209  73.196  1.00  0.00    -0.224 OA 
HETATM   27  C   UNL     1     -13.806   8.150  71.721  1.00  0.00    -0.452 C  
ENDBRANCH  24  25
ENDBRANCH  14  24
ENDBRANCH   4   5
ENDBRANCH   2   4
TORSDOF 4
ENDMDL
MODEL       57
REMARK 921   NORMALIZED FREE ENERGY PREDICTED BY IDOCK:   -5.50 KCAL/MOL
REMARK 922        TOTAL FREE ENERGY PREDICTED BY IDOCK:   -7.43 KCAL/MOL
REMARK 923 INTER-LIGAND FREE ENERGY PREDICTED BY IDOCK:   -6.67 KCAL/MOL
REMARK 924 INTRA-LIGAND FREE ENERGY PREDICTED BY IDOCK:   -0.76 KCAL/MOL
REMARK 927      BINDING AFFINITY PREDICTED BY RF-SCORE:    0.00 PKD
ROOT
HETATM    1  C   UNL     1     -12.266  14.449  68.795  1.00  0.00    -0.200 C  
HETATM    2  C   UNL     1     -11.366  13.359  68.292  1.00  0.00    -0.295 C  
HETATM    3  O   UNL     1     -10.175  13.275  68.563  1.00  0.00    -0.239 OA 
ENDROOT
BRANCH   2   4
HETATM    4  O   UNL     1     -12.118  12.444  67.560  1.00  0.00    -0.491 OA 
BRANCH   4   5
HETATM    5  C   UNL     1     -11.754  12.278  66.205  1.00  0.00    -0.376 A  
HETATM    6  C   UNL     1     -12.171  13.268  65.303  1.00  0.00    -0.492 A  
HETATM    7  C   UNL     1     -11.780  13.213  63.972  1.00  0.00    -0.496 A  
HETATM    8  C   UNL     1     -10.941  12.190  63.551  1.00  0.00    -0.521 A  
HETATM    9  C   UNL     1     -10.493  11.218  64.461  1.00  0.00    -0.396 A  
HETATM   10  C   UNL     1     -10.897  11.242  65.799  1.00  0.00    -0.257 A  
HETATM   11  C   UNL     1     -10.398  10.190  66.725  1.00  0.00    -0.222 C  
HETATM   12  O   UNL     1     -10.775  10.180  67.889  1.00  0.00    -0.230 OA 
HETATM   13  C   UNL     1      -9.446   9.150  66.226  1.00  0.00    -0.299 A  
HETATM   14  C   UNL     1      -8.930   8.132  67.058  1.00  0.00    -0.141 A  
HETATM   15  O   UNL     1      -9.201  10.192  62.796  1.00  0.00    -0.260 OA 
HETATM   16  C   UNL     1      -8.051   7.155  66.563  1.00  0.00    -0.114 A  
HETATM   17  C   UNL     1      -7.650   7.198  65.224  1.00  0.00    -0.103 A  
HETATM   18  C   UNL     1      -9.563  10.189  63.967  1.00  0.00    -0.257 C  
HETATM   19  C   UNL     1      -6.748   6.181  64.619  1.00  0.00    -0.046 C  
HETATM   20  C   UNL     1      -9.050   9.163  64.889  1.00  0.00    -0.190 A  
HETATM   21  O   UNL     1      -5.842   5.652  65.465  1.00  0.00    -0.020 OA 
HETATM   22  C   UNL     1      -8.159   8.198  64.389  1.00  0.00    -0.138 A  
HETATM   23  O   UNL     1      -6.803   5.886  63.438  1.00  0.00    -0.035 OA 
BRANCH  14  24
HETATM   24  O   UNL     1      -9.348   8.133  68.420  1.00  0.00    -0.136 OA 
BRANCH  24  25
HETATM   25  C   UNL     1      -9.822   7.089  69.215  1.00  0.00    -0.159 C  
HETATM   26  O   UNL     1      -9.380   6.759  70.306  1.00  0.00    -0.159 OA 
HETATM   27  C   UNL     1     -10.984   6.431  68.530  1.00  0.00    -0.396 C  
ENDBRANCH  24  25
ENDBRANCH  14  24
ENDBRANCH   4   5
ENDBRANCH   2   4
TORSDOF 4
ENDMDL
MODEL       58
REMARK 921   NORMALIZED FREE ENERGY PREDICTED BY IDOCK:   -5.47 KCAL/MOL
REMARK 922        TOTAL FREE ENERGY PREDICTED BY IDOCK:   -7.40 KCAL/MOL
REMARK 923 INTER-LIGAND FREE ENERGY PREDICTED BY IDOCK:   -6.60 KCAL/MOL
REMARK 924 INTRA-LIGAND FREE ENERGY PREDICTED BY IDOCK:   -0.80 KCAL/MOL
REMARK 927      BINDING AFFINITY PREDICTED BY RF-SCORE:    0.00 PKD
ROOT
HETATM    1  C   UNL     1     -11.084  11.890  63.310  1.00  0.00    -0.390 C  
HETATM    2  C   UNL     1     -12.022  12.973  63.754  1.00  0.00    -0.518 C  
HETATM    3  O   UNL     1     -12.778  13.576  63.003  1.00  0.00    -0.668 OA 
ENDROOT
BRANCH   2   4
HETATM    4  O   UNL     1     -11.946  13.108  65.138  1.00  0.00    -0.350 OA 
BRANCH   4   5
HETATM    5  C   UNL     1     -10.778  13.722  65.644  1.00  0.00    -0.288 A  
HETATM    6  C   UNL     1     -10.569  15.069  65.317  1.00  0.00    -0.418 A  
HETATM    7  C   UNL     1      -9.487  15.760  65.847  1.00  0.00    -0.377 A  
HETATM    8  C   UNL     1      -8.636  15.114  66.733  1.00  0.00    -0.297 A  
HETATM    9  C   UNL     1      -8.865  13.774  67.091  1.00  0.00    -0.240 A  
HETATM   10  C   UNL     1      -9.934  13.056  66.547  1.00  0.00    -0.262 A  
HETATM   11  C   UNL     1     -10.135  11.639  66.954  1.00  0.00    -0.211 C  
HETATM   12  O   UNL     1     -11.045  10.989  66.457  1.00  0.00    -0.226 OA 
HETATM   13  C   UNL     1      -9.220  11.017  67.961  1.00  0.00    -0.159 A  
HETATM   14  C   UNL     1      -9.365   9.681  68.395  1.00  0.00    -0.133 A  
HETATM   15  O   UNL     1      -7.037  13.808  68.558  1.00  0.00    -0.091 OA 
HETATM   16  C   UNL     1      -8.484   9.112  69.328  1.00  0.00    -0.132 A  
HETATM   17  C   UNL     1      -7.452   9.886  69.867  1.00  0.00    -0.156 A  
HETATM   18  C   UNL     1      -7.958  13.160  68.075  1.00  0.00    -0.156 C  
HETATM   19  C   UNL     1      -6.460   9.346  70.836  1.00  0.00    -0.096 C  
HETATM   20  C   UNL     1      -8.172  11.765  68.495  1.00  0.00    -0.134 A  
HETATM   21  O   UNL     1      -6.930   8.383  71.652  1.00  0.00    -0.072 OA 
HETATM   22  C   UNL     1      -7.295  11.210  69.442  1.00  0.00    -0.062 A  
HETATM   23  O   UNL     1      -5.322   9.778  70.908  1.00  0.00    -0.044 OA 
BRANCH  14  24
HETATM   24  O   UNL     1     -10.439   8.930  67.835  1.00  0.00    -0.228 OA 
BRANCH  24  25
HETATM   25  C   UNL     1     -10.418   7.758  67.079  1.00  0.00    -0.349 C  
HETATM   26  O   UNL     1     -11.195   6.820  67.185  1.00  0.00    -0.379 OA 
HETATM   27  C   UNL     1      -9.293   7.827  66.087  1.00  0.00    -0.162 C  
ENDBRANCH  24  25
ENDBRANCH  14  24
ENDBRANCH   4   5
ENDBRANCH   2   4
TORSDOF 4
ENDMDL
MODEL       59
REMARK 921   NORMALIZED FREE ENERGY PREDICTED BY IDOCK:   -5.32 KCAL/MOL
REMARK 922        TOTAL FREE ENERGY PREDICTED BY IDOCK:   -7.21 KCAL/MOL
REMARK 923 INTER-LIGAND FREE ENERGY PREDICTED BY IDOCK:   -6.69 KCAL/MOL
REMARK 924 INTRA-LIGAND FREE ENERGY PREDICTED BY IDOCK:   -0.53 KCAL/MOL
REMARK 927      BINDING AFFINITY PREDICTED BY RF-SCORE:    0.00 PKD
ROOT
HETATM    1  C   UNL     1     -10.520  20.007  66.043  1.00  0.00    -0.523 C  
HETATM    2  C   UNL     1      -9.230  19.327  66.392  1.00  0.00    -0.352 C  
HETATM    3  O   UNL     1      -8.191  19.459  65.756  1.00  0.00    -0.439 OA 
ENDROOT
BRANCH   2   4
HETATM    4  O   UNL     1      -9.393  18.612  67.575  1.00  0.00    -0.280 OA 
BRANCH   4   5
HETATM    5  C   UNL     1      -8.246  17.952  68.071  1.00  0.00    -0.257 A  
HETATM    6  C   UNL     1      -7.340  18.718  68.819  1.00  0.00    -0.342 A  
HETATM    7  C   UNL     1      -6.234  18.119  69.407  1.00  0.00    -0.251 A  
HETATM    8  C   UNL     1      -6.054  16.749  69.280  1.00  0.00    -0.189 A  
HETATM    9  C   UNL     1      -6.981  15.974  68.562  1.00  0.00    -0.131 A  
HETATM   10  C   UNL     1      -8.086  16.563  67.941  1.00  0.00    -0.168 A  
HETATM   11  C   UNL     1      -9.039  15.702  67.191  1.00  0.00    -0.210 C  
HETATM   12  O   UNL     1      -9.990  16.213  66.612  1.00  0.00    -0.241 OA 
HETATM   13  C   UNL     1      -8.826  14.223  67.141  1.00  0.00    -0.243 A  
HETATM   14  C   UNL     1      -9.700  13.352  66.454  1.00  0.00    -0.277 A  
HETATM   15  O   UNL     1      -5.803  14.013  69.073  1.00  0.00    -0.085 OA 
HETATM   16  C   UNL     1      -9.470  11.968  66.406  1.00  0.00    -0.238 A  
HETATM   17  C   UNL     1      -8.368  11.426  67.074  1.00  0.00    -0.161 A  
HETATM   18  C   UNL     1      -6.765  14.518  68.507  1.00  0.00    -0.096 C  
HETATM   19  C   UNL     1      -8.041   9.975  67.044  1.00  0.00    -0.117 C  
HETATM   20  C   UNL     1      -7.722  13.664  67.784  1.00  0.00    -0.166 A  
HETATM   21  O   UNL     1      -9.106   9.154  66.950  1.00  0.00    -0.130 OA 
HETATM   22  C   UNL     1      -7.493  12.278  67.755  1.00  0.00    -0.126 A  
HETATM   23  O   UNL     1      -6.897   9.565  67.140  1.00  0.00    -0.081 OA 
BRANCH  14  24
HETATM   24  O   UNL     1     -10.821  13.942  65.801  1.00  0.00    -0.283 OA 
BRANCH  24  25
HETATM   25  C   UNL     1     -12.181  13.864  66.103  1.00  0.00    -0.464 C  
HETATM   26  O   UNL     1     -13.100  13.893  65.298  1.00  0.00    -0.777 OA 
HETATM   27  C   UNL     1     -12.351  13.717  67.588  1.00  0.00    -0.060 C  
ENDBRANCH  24  25
ENDBRANCH  14  24
ENDBRANCH   4   5
ENDBRANCH   2   4
TORSDOF 4
ENDMDL
MODEL       60
REMARK 921   NORMALIZED FREE ENERGY PREDICTED BY IDOCK:   -5.30 KCAL/MOL
REMARK 922        TOTAL FREE ENERGY PREDICTED BY IDOCK:   -7.19 KCAL/MOL
REMARK 923 INTER-LIGAND FREE ENERGY PREDICTED BY IDOCK:   -6.72 KCAL/MOL
REMARK 924 INTRA-LIGAND FREE ENERGY PREDICTED BY IDOCK:   -0.47 KCAL/MOL
REMARK 927      BINDING AFFINITY PREDICTED BY RF-SCORE:    0.00 PKD
ROOT
HETATM    1  C   UNL     1      -9.766   7.803  73.099  1.00  0.00    -0.347 C  
HETATM    2  C   UNL     1      -8.954   7.786  71.838  1.00  0.00    -0.128 C  
HETATM    3  O   UNL     1      -7.787   8.148  71.769  1.00  0.00    -0.094 OA 
ENDROOT
BRANCH   2   4
HETATM    4  O   UNL     1      -9.710   7.222  70.813  1.00  0.00    -0.172 OA 
BRANCH   4   5
HETATM    5  C   UNL     1      -9.080   7.126  69.551  1.00  0.00    -0.146 A  
HETATM    6  C   UNL     1      -8.265   6.008  69.326  1.00  0.00    -0.115 A  
HETATM    7  C   UNL     1      -7.681   5.805  68.083  1.00  0.00    -0.096 A  
HETATM    8  C   UNL     1      -7.944   6.699  67.054  1.00  0.00    -0.109 A  
HETATM    9  C   UNL     1      -8.791   7.800  67.267  1.00  0.00    -0.130 A  
HETATM   10  C   UNL     1      -9.366   8.034  68.520  1.00  0.00    -0.142 A  
HETATM   11  C   UNL     1     -10.255   9.214  68.698  1.00  0.00    -0.204 C  
HETATM   12  O   UNL     1     -10.734   9.450  69.800  1.00  0.00    -0.220 OA 
HETATM   13  C   UNL     1     -10.550  10.107  67.535  1.00  0.00    -0.327 A  
HETATM   14  C   UNL     1     -11.392  11.236  67.639  1.00  0.00    -0.282 A  
HETATM   15  O   UNL     1      -8.578   8.454  65.026  1.00  0.00    -0.169 OA 
HETATM   16  C   UNL     1     -11.641  12.070  66.537  1.00  0.00    -0.384 A  
HETATM   17  C   UNL     1     -11.068  11.770  65.298  1.00  0.00    -0.333 A  
HETATM   18  C   UNL     1      -9.073   8.683  66.124  1.00  0.00    -0.201 C  
HETATM   19  C   UNL     1     -11.258  12.622  64.093  1.00  0.00    -0.386 C  
HETATM   20  C   UNL     1      -9.972   9.837  66.295  1.00  0.00    -0.331 A  
HETATM   21  O   UNL     1     -12.446  13.256  64.029  1.00  0.00    -0.618 OA 
HETATM   22  C   UNL     1     -10.228  10.657  65.183  1.00  0.00    -0.368 A  
HETATM   23  O   UNL     1     -10.417  12.701  63.214  1.00  0.00    -0.286 OA 
BRANCH  14  24
HETATM   24  O   UNL     1     -11.971  11.498  68.914  1.00  0.00    -0.333 OA 
BRANCH  24  25
HETATM   25  C   UNL     1     -11.836  12.606  69.751  1.00  0.00    -0.309 C  
HETATM   26  O   UNL     1     -11.133  13.584  69.542  1.00  0.00    -0.175 OA 
HETATM   27  C   UNL     1     -12.710  12.425  70.958  1.00  0.00    -0.315 C  
ENDBRANCH  24  25
ENDBRANCH  14  24
ENDBRANCH   4   5
ENDBRANCH   2   4
TORSDOF 4
ENDMDL
MODEL       61
REMARK 921   NORMALIZED FREE ENERGY PREDICTED BY IDOCK:   -5.30 KCAL/MOL
REMARK 922        TOTAL FREE ENERGY PREDICTED BY IDOCK:   -7.19 KCAL/MOL
REMARK 923 INTER-LIGAND FREE ENERGY PREDICTED BY IDOCK:   -6.63 KCAL/MOL
REMARK 924 INTRA-LIGAND FREE ENERGY PREDICTED BY IDOCK:   -0.55 KCAL/MOL
REMARK 927      BINDING AFFINITY PREDICTED BY RF-SCORE:    0.00 PKD
ROOT
HETATM    1  C   UNL     1      -5.936  21.379  67.943  1.00  0.00    -0.326 C  
HETATM    2  C   UNL     1      -6.060  19.888  67.834  1.00  0.00    -0.215 C  
HETATM    3  O   UNL     1      -5.234  19.170  67.285  1.00  0.00    -0.156 OA 
ENDROOT
BRANCH   2   4
HETATM    4  O   UNL     1      -7.198  19.470  68.520  1.00  0.00    -0.300 OA 
BRANCH   4   5
HETATM    5  C   UNL     1      -8.349  19.234  67.736  1.00  0.00    -0.300 A  
HETATM    6  C   UNL     1      -8.889  20.327  67.043  1.00  0.00    -0.427 A  
HETATM    7  C   UNL     1      -9.969  20.152  66.189  1.00  0.00    -0.532 A  
HETATM    8  C   UNL     1     -10.485  18.878  65.998  1.00  0.00    -0.507 A  
HETATM    9  C   UNL     1      -9.922  17.775  66.662  1.00  0.00    -0.338 A  
HETATM   10  C   UNL     1      -8.851  17.936  67.546  1.00  0.00    -0.248 A  
HETATM   11  C   UNL     1      -8.290  16.739  68.228  1.00  0.00    -0.213 C  
HETATM   12  O   UNL     1      -7.377  16.874  69.032  1.00  0.00    -0.232 OA 
HETATM   13  C   UNL     1      -8.849  15.384  67.933  1.00  0.00    -0.168 A  
HETATM   14  C   UNL     1      -8.353  14.210  68.541  1.00  0.00    -0.155 A  
HETATM   15  O   UNL     1     -11.405  16.314  65.585  1.00  0.00     0.082 OA 
HETATM   16  C   UNL     1      -8.905  12.949  68.263  1.00  0.00    -0.168 A  
HETATM   17  C   UNL     1      -9.953  12.840  67.343  1.00  0.00    -0.212 A  
HETATM   18  C   UNL     1     -10.479  16.443  66.378  1.00  0.00    -0.286 C  
HETATM   19  C   UNL     1     -10.610  11.545  67.020  1.00  0.00    -0.242 C  
HETATM   20  C   UNL     1      -9.908  15.256  67.035  1.00  0.00    -0.233 A  
HETATM   21  O   UNL     1      -9.806  10.467  67.092  1.00  0.00    -0.170 OA 
HETATM   22  C   UNL     1     -10.456  13.997  66.738  1.00  0.00    -0.277 A  
HETATM   23  O   UNL     1     -11.778  11.478  66.675  1.00  0.00    -0.486 OA 
BRANCH  14  24
HETATM   24  O   UNL     1      -7.274  14.361  69.459  1.00  0.00    -0.126 OA 
BRANCH  24  25
HETATM   25  C   UNL     1      -6.090  13.632  69.582  1.00  0.00    -0.120 C  
HETATM   26  O   UNL     1      -5.478  13.094  68.670  1.00  0.00    -0.070 OA 
HETATM   27  C   UNL     1      -5.660  13.621  71.020  1.00  0.00    -0.209 C  
ENDBRANCH  24  25
ENDBRANCH  14  24
ENDBRANCH   4   5
ENDBRANCH   2   4
TORSDOF 4
ENDMDL
MODEL       62
REMARK 921   NORMALIZED FREE ENERGY PREDICTED BY IDOCK:   -5.27 KCAL/MOL
REMARK 922        TOTAL FREE ENERGY PREDICTED BY IDOCK:   -7.15 KCAL/MOL
REMARK 923 INTER-LIGAND FREE ENERGY PREDICTED BY IDOCK:   -7.07 KCAL/MOL
REMARK 924 INTRA-LIGAND FREE ENERGY PREDICTED BY IDOCK:   -0.08 KCAL/MOL
REMARK 927      BINDING AFFINITY PREDICTED BY RF-SCORE:    0.00 PKD
ROOT
HETATM    1  C   UNL     1     -10.525  18.502  66.232  1.00  0.00    -0.441 C  
HETATM    2  C   UNL     1      -9.142  17.941  66.375  1.00  0.00    -0.235 C  
HETATM    3  O   UNL     1      -8.191  18.275  65.679  1.00  0.00    -0.440 OA 
ENDROOT
BRANCH   2   4
HETATM    4  O   UNL     1      -9.110  17.067  67.459  1.00  0.00    -0.220 OA 
BRANCH   4   5
HETATM    5  C   UNL     1      -7.997  16.199  67.530  1.00  0.00    -0.150 A  
HETATM    6  C   UNL     1      -6.765  16.764  67.888  1.00  0.00    -0.153 A  
HETATM    7  C   UNL     1      -5.647  15.958  68.059  1.00  0.00    -0.133 A  
HETATM    8  C   UNL     1      -5.770  14.584  67.908  1.00  0.00    -0.123 A  
HETATM    9  C   UNL     1      -7.013  14.012  67.586  1.00  0.00    -0.198 A  
HETATM   10  C   UNL     1      -8.143  14.810  67.385  1.00  0.00    -0.220 A  
HETATM   11  C   UNL     1      -9.436  14.159  67.043  1.00  0.00    -0.251 C  
HETATM   12  O   UNL     1     -10.424  14.851  66.828  1.00  0.00    -0.274 OA 
HETATM   13  C   UNL     1      -9.520  12.668  66.956  1.00  0.00    -0.220 A  
HETATM   14  C   UNL     1     -10.720  11.992  66.645  1.00  0.00    -0.245 A  
HETATM   15  O   UNL     1      -6.097  11.857  67.690  1.00  0.00    -0.062 OA 
HETATM   16  C   UNL     1     -10.771  10.592  66.551  1.00  0.00    -0.218 A  
HETATM   17  C   UNL     1      -9.619   9.839  66.797  1.00  0.00    -0.228 A  
HETATM   18  C   UNL     1      -7.092  12.545  67.492  1.00  0.00    -0.151 C  
HETATM   19  C   UNL     1      -9.586   8.356  66.687  1.00  0.00    -0.229 C  
HETATM   20  C   UNL     1      -8.378  11.900  67.177  1.00  0.00    -0.174 A  
HETATM   21  O   UNL     1     -10.742   7.738  66.997  1.00  0.00    -0.347 OA 
HETATM   22  C   UNL     1      -8.423  10.498  67.101  1.00  0.00    -0.127 A  
HETATM   23  O   UNL     1      -8.573   7.750  66.380  1.00  0.00    -0.130 OA 
BRANCH  14  24
HETATM   24  O   UNL     1     -11.876  12.794  66.419  1.00  0.00    -0.382 OA 
BRANCH  24  25
HETATM   25  C   UNL     1     -12.484  13.177  65.223  1.00  0.00    -0.495 C  
HETATM   26  O   UNL     1     -13.313  14.066  65.090  1.00  0.00    -0.703 OA 
HETATM   27  C   UNL     1     -11.949  12.334  64.102  1.00  0.00    -0.518 C  
ENDBRANCH  24  25
ENDBRANCH  14  24
ENDBRANCH   4   5
ENDBRANCH   2   4
TORSDOF 4
ENDMDL
MODEL       63
REMARK 921   NORMALIZED FREE ENERGY PREDICTED BY IDOCK:   -5.25 KCAL/MOL
REMARK 922        TOTAL FREE ENERGY PREDICTED BY IDOCK:   -7.12 KCAL/MOL
REMARK 923 INTER-LIGAND FREE ENERGY PREDICTED BY IDOCK:   -6.28 KCAL/MOL
REMARK 924 INTRA-LIGAND FREE ENERGY PREDICTED BY IDOCK:   -0.84 KCAL/MOL
REMARK 927      BINDING AFFINITY PREDICTED BY RF-SCORE:    0.00 PKD
ROOT
HETATM    1  C   UNL     1      -5.911   6.906  67.340  1.00  0.00    -0.021 C  
HETATM    2  C   UNL     1      -6.702   6.113  66.343  1.00  0.00    -0.060 C  
HETATM    3  O   UNL     1      -6.218   5.264  65.604  1.00  0.00    -0.032 OA 
ENDROOT
BRANCH   2   4
HETATM    4  O   UNL     1      -8.050   6.440  66.461  1.00  0.00    -0.107 OA 
BRANCH   4   5
HETATM    5  C   UNL     1      -8.430   7.712  65.978  1.00  0.00    -0.144 A  
HETATM    6  C   UNL     1      -8.181   7.985  64.625  1.00  0.00    -0.109 A  
HETATM    7  C   UNL     1      -8.603   9.182  64.062  1.00  0.00    -0.186 A  
HETATM    8  C   UNL     1      -9.307  10.090  64.841  1.00  0.00    -0.324 A  
HETATM    9  C   UNL     1      -9.590   9.802  66.187  1.00  0.00    -0.287 A  
HETATM   10  C   UNL     1      -9.151   8.613  66.778  1.00  0.00    -0.183 A  
HETATM   11  C   UNL     1      -9.473   8.354  68.207  1.00  0.00    -0.138 C  
HETATM   12  O   UNL     1      -9.061   7.334  68.745  1.00  0.00    -0.130 OA 
HETATM   13  C   UNL     1     -10.289   9.342  68.978  1.00  0.00    -0.228 A  
HETATM   14  C   UNL     1     -10.636   9.148  70.333  1.00  0.00    -0.230 A  
HETATM   15  O   UNL     1     -10.782  11.808  66.411  1.00  0.00    -0.246 OA 
HETATM   16  C   UNL     1     -11.388  10.098  71.042  1.00  0.00    -0.385 A  
HETATM   17  C   UNL     1     -11.833  11.254  70.393  1.00  0.00    -0.443 A  
HETATM   18  C   UNL     1     -10.386  10.780  66.947  1.00  0.00    -0.241 C  
HETATM   19  C   UNL     1     -12.606  12.320  71.084  1.00  0.00    -0.253 C  
HETATM   20  C   UNL     1     -10.725  10.511  68.355  1.00  0.00    -0.262 A  
HETATM   21  O   UNL     1     -13.405  11.887  72.079  1.00  0.00    -0.487 OA 
HETATM   22  C   UNL     1     -11.492  11.459  69.052  1.00  0.00    -0.366 A  
HETATM   23  O   UNL     1     -12.549  13.489  70.742  1.00  0.00    -0.337 OA 
BRANCH  14  24
HETATM   24  O   UNL     1     -10.179   7.949  70.953  1.00  0.00    -0.198 OA 
BRANCH  24  25
HETATM   25  C   UNL     1     -10.889   6.973  71.653  1.00  0.00    -0.223 C  
HETATM   26  O   UNL     1     -11.525   6.054  71.158  1.00  0.00    -0.279 OA 
HETATM   27  C   UNL     1     -10.738   7.210  73.128  1.00  0.00    -0.385 C  
ENDBRANCH  24  25
ENDBRANCH  14  24
ENDBRANCH   4   5
ENDBRANCH   2   4
TORSDOF 4
ENDMDL
MODEL       64
REMARK 921   NORMALIZED FREE ENERGY PREDICTED BY IDOCK:   -5.21 KCAL/MOL
REMARK 922        TOTAL FREE ENERGY PREDICTED BY IDOCK:   -7.07 KCAL/MOL
REMARK 923 INTER-LIGAND FREE ENERGY PREDICTED BY IDOCK:   -6.66 KCAL/MOL
REMARK 924 INTRA-LIGAND FREE ENERGY PREDICTED BY IDOCK:   -0.42 KCAL/MOL
REMARK 927      BINDING AFFINITY PREDICTED BY RF-SCORE:    0.00 PKD
ROOT
HETATM    1  C   UNL     1     -13.026  10.728  71.697  1.00  0.00    -0.581 C  
HETATM    2  C   UNL     1     -12.712   9.266  71.814  1.00  0.00    -0.381 C  
HETATM    3  O   UNL     1     -13.561   8.387  71.895  1.00  0.00    -0.352 OA 
ENDROOT
BRANCH   2   4
HETATM    4  O   UNL     1     -11.335   9.084  71.729  1.00  0.00    -0.334 OA 
BRANCH   4   5
HETATM    5  C   UNL     1     -10.857   7.784  72.010  1.00  0.00    -0.245 A  
HETATM    6  C   UNL     1     -10.835   7.386  73.354  1.00  0.00    -0.362 A  
HETATM    7  C   UNL     1     -10.457   6.095  73.697  1.00  0.00    -0.289 A  
HETATM    8  C   UNL     1     -10.138   5.191  72.693  1.00  0.00    -0.220 A  
HETATM    9  C   UNL     1     -10.195   5.577  71.343  1.00  0.00    -0.275 A  
HETATM   10  C   UNL     1     -10.549   6.880  70.981  1.00  0.00    -0.244 A  
HETATM   11  C   UNL     1     -10.593   7.243  69.539  1.00  0.00    -0.234 C  
HETATM   12  O   UNL     1     -10.865   8.390  69.211  1.00  0.00    -0.175 OA 
HETATM   13  C   UNL     1     -10.300   6.206  68.501  1.00  0.00    -0.248 A  
HETATM   14  C   UNL     1     -10.336   6.487  67.117  1.00  0.00    -0.247 A  
HETATM   15  O   UNL     1      -9.609   3.414  70.655  1.00  0.00    -0.170 OA 
HETATM   16  C   UNL     1     -10.039   5.502  66.161  1.00  0.00    -0.135 A  
HETATM   17  C   UNL     1      -9.726   4.205  66.577  1.00  0.00    -0.228 A  
HETATM   18  C   UNL     1      -9.897   4.558  70.323  1.00  0.00    -0.229 C  
HETATM   19  C   UNL     1      -9.370   3.117  65.626  1.00  0.00    -0.112 C  
HETATM   20  C   UNL     1      -9.965   4.912  68.895  1.00  0.00    -0.220 A  
HETATM   21  O   UNL     1      -9.970   3.196  64.422  1.00  0.00    -0.161 OA 
HETATM   22  C   UNL     1      -9.682   3.916  67.945  1.00  0.00    -0.133 A  
HETATM   23  O   UNL     1      -8.624   2.203  65.935  1.00  0.00    -0.100 OA 
BRANCH  14  24
HETATM   24  O   UNL     1     -10.676   7.816  66.733  1.00  0.00    -0.311 OA 
BRANCH  24  25
HETATM   25  C   UNL     1      -9.872   8.838  66.226  1.00  0.00    -0.272 C  
HETATM   26  O   UNL     1     -10.264   9.909  65.785  1.00  0.00    -0.265 OA 
HETATM   27  C   UNL     1      -8.431   8.430  66.321  1.00  0.00    -0.132 C  
ENDBRANCH  24  25
ENDBRANCH  14  24
ENDBRANCH   4   5
ENDBRANCH   2   4
TORSDOF 4
ENDMDL
MODEL       65
REMARK 921   NORMALIZED FREE ENERGY PREDICTED BY IDOCK:   -5.11 KCAL/MOL
REMARK 922        TOTAL FREE ENERGY PREDICTED BY IDOCK:   -6.95 KCAL/MOL
REMARK 923 INTER-LIGAND FREE ENERGY PREDICTED BY IDOCK:   -6.77 KCAL/MOL
REMARK 924 INTRA-LIGAND FREE ENERGY PREDICTED BY IDOCK:   -0.18 KCAL/MOL
REMARK 927      BINDING AFFINITY PREDICTED BY RF-SCORE:    0.00 PKD
ROOT
HETATM    1  C   UNL     1     -12.972  15.399  70.655  1.00  0.00    -0.450 C  
HETATM    2  C   UNL     1     -11.805  15.803  69.804  1.00  0.00    -0.341 C  
HETATM    3  O   UNL     1     -10.940  16.595  70.158  1.00  0.00    -0.321 OA 
ENDROOT
BRANCH   2   4
HETATM    4  O   UNL     1     -11.830  15.077  68.616  1.00  0.00    -0.327 OA 
BRANCH   4   5
HETATM    5  C   UNL     1     -10.588  14.579  68.161  1.00  0.00    -0.238 A  
HETATM    6  C   UNL     1      -9.722  15.489  67.539  1.00  0.00    -0.215 A  
HETATM    7  C   UNL     1      -8.453  15.090  67.141  1.00  0.00    -0.244 A  
HETATM    8  C   UNL     1      -8.036  13.792  67.401  1.00  0.00    -0.175 A  
HETATM    9  C   UNL     1      -8.889  12.889  68.057  1.00  0.00    -0.195 A  
HETATM   10  C   UNL     1     -10.179  13.266  68.441  1.00  0.00    -0.249 A  
HETATM   11  C   UNL     1     -11.047  12.274  69.132  1.00  0.00    -0.203 C  
HETATM   12  O   UNL     1     -12.191  12.581  69.439  1.00  0.00    -0.200 OA 
HETATM   13  C   UNL     1     -10.519  10.909  69.440  1.00  0.00    -0.205 A  
HETATM   14  C   UNL     1     -11.290   9.928  70.101  1.00  0.00    -0.275 A  
HETATM   15  O   UNL     1      -7.230  11.233  68.027  1.00  0.00    -0.075 OA 
HETATM   16  C   UNL     1     -10.779   8.647  70.364  1.00  0.00    -0.248 A  
HETATM   17  C   UNL     1      -9.469   8.333  69.990  1.00  0.00    -0.167 A  
HETATM   18  C   UNL     1      -8.371  11.543  68.351  1.00  0.00    -0.154 C  
HETATM   19  C   UNL     1      -8.868   6.990  70.205  1.00  0.00    -0.145 C  
HETATM   20  C   UNL     1      -9.222  10.570  69.057  1.00  0.00    -0.193 A  
HETATM   21  O   UNL     1      -9.318   6.334  71.293  1.00  0.00    -0.156 OA 
HETATM   22  C   UNL     1      -8.697   9.295  69.329  1.00  0.00    -0.141 A  
HETATM   23  O   UNL     1      -8.004   6.540  69.472  1.00  0.00    -0.112 OA 
BRANCH  14  24
HETATM   24  O   UNL     1     -12.613  10.292  70.482  1.00  0.00    -0.301 OA 
BRANCH  24  25
HETATM   25  C   UNL     1     -13.160  10.499  71.749  1.00  0.00    -0.464 C  
HETATM   26  O   UNL     1     -13.266  11.575  72.320  1.00  0.00    -0.425 OA 
HETATM   27  C   UNL     1     -13.622   9.186  72.311  1.00  0.00    -0.548 C  
ENDBRANCH  24  25
ENDBRANCH  14  24
ENDBRANCH   4   5
ENDBRANCH   2   4
TORSDOF 4
ENDMDL
MODEL       66
REMARK 921   NORMALIZED FREE ENERGY PREDICTED BY IDOCK:   -5.09 KCAL/MOL
REMARK 922        TOTAL FREE ENERGY PREDICTED BY IDOCK:   -6.92 KCAL/MOL
REMARK 923 INTER-LIGAND FREE ENERGY PREDICTED BY IDOCK:   -6.15 KCAL/MOL
REMARK 924 INTRA-LIGAND FREE ENERGY PREDICTED BY IDOCK:   -0.78 KCAL/MOL
REMARK 927      BINDING AFFINITY PREDICTED BY RF-SCORE:    0.00 PKD
ROOT
HETATM    1  C   UNL     1     -11.910  13.959  68.471  1.00  0.00    -0.401 C  
HETATM    2  C   UNL     1     -11.659  12.607  67.872  1.00  0.00    -0.349 C  
HETATM    3  O   UNL     1     -12.239  12.178  66.883  1.00  0.00    -0.537 OA 
ENDROOT
BRANCH   2   4
HETATM    4  O   UNL     1     -10.624  11.983  68.563  1.00  0.00    -0.218 OA 
BRANCH   4   5
HETATM    5  C   UNL     1     -10.995  10.928  69.426  1.00  0.00    -0.252 A  
HETATM    6  C   UNL     1     -11.740  11.263  70.565  1.00  0.00    -0.345 A  
HETATM    7  C   UNL     1     -12.210  10.269  71.413  1.00  0.00    -0.481 A  
HETATM    8  C   UNL     1     -11.967   8.938  71.102  1.00  0.00    -0.344 A  
HETATM    9  C   UNL     1     -11.252   8.599  69.941  1.00  0.00    -0.045 A  
HETATM   10  C   UNL     1     -10.749   9.587  69.089  1.00  0.00    -0.228 A  
HETATM   11  C   UNL     1      -9.996   9.179  67.873  1.00  0.00    -0.186 C  
HETATM   12  O   UNL     1      -9.519  10.036  67.141  1.00  0.00    -0.150 OA 
HETATM   13  C   UNL     1      -9.820   7.727  67.558  1.00  0.00    -0.221 A  
HETATM   14  C   UNL     1      -9.125   7.277  66.415  1.00  0.00    -0.158 A  
HETATM   15  O   UNL     1     -11.536   6.314  70.382  1.00  0.00    -0.381 OA 
HETATM   16  C   UNL     1      -8.956   5.909  66.148  1.00  0.00    -0.157 A  
HETATM   17  C   UNL     1      -9.511   4.962  67.015  1.00  0.00    -0.158 A  
HETATM   18  C   UNL     1     -11.072   7.170  69.637  1.00  0.00    -0.179 C  
HETATM   19  C   UNL     1      -9.349   3.496  66.817  1.00  0.00    -0.182 C  
HETATM   20  C   UNL     1     -10.347   6.767  68.420  1.00  0.00    -0.214 A  
HETATM   21  O   UNL     1      -9.260   3.103  65.531  1.00  0.00    -0.148 OA 
HETATM   22  C   UNL     1     -10.198   5.395  68.153  1.00  0.00    -0.226 A  
HETATM   23  O   UNL     1      -9.342   2.712  67.751  1.00  0.00    -0.192 OA 
BRANCH  14  24
HETATM   24  O   UNL     1      -8.590   8.273  65.547  1.00  0.00    -0.157 OA 
BRANCH  24  25
HETATM   25  C   UNL     1      -7.439   8.254  64.758  1.00  0.00    -0.093 C  
HETATM   26  O   UNL     1      -7.398   8.049  63.553  1.00  0.00    -0.097 OA 
HETATM   27  C   UNL     1      -6.243   8.544  65.617  1.00  0.00    -0.048 C  
ENDBRANCH  24  25
ENDBRANCH  14  24
ENDBRANCH   4   5
ENDBRANCH   2   4
TORSDOF 4
ENDMDL
MODEL       67
REMARK 921   NORMALIZED FREE ENERGY PREDICTED BY IDOCK:   -5.05 KCAL/MOL
REMARK 922        TOTAL FREE ENERGY PREDICTED BY IDOCK:   -6.88 KCAL/MOL
REMARK 923 INTER-LIGAND FREE ENERGY PREDICTED BY IDOCK:   -6.21 KCAL/MOL
REMARK 924 INTRA-LIGAND FREE ENERGY PREDICTED BY IDOCK:   -0.68 KCAL/MOL
REMARK 927      BINDING AFFINITY PREDICTED BY RF-SCORE:    0.00 PKD
ROOT
HETATM    1  C   UNL     1      -8.570   3.552  68.351  1.00  0.00    -0.118 C  
HETATM    2  C   UNL     1      -8.334   5.031  68.277  1.00  0.00    -0.095 C  
HETATM    3  O   UNL     1      -7.409   5.607  68.837  1.00  0.00    -0.078 OA 
ENDROOT
BRANCH   2   4
HETATM    4  O   UNL     1      -9.268   5.603  67.416  1.00  0.00    -0.111 OA 
BRANCH   4   5
HETATM    5  C   UNL     1      -8.747   6.339  66.329  1.00  0.00    -0.142 A  
HETATM    6  C   UNL     1      -7.977   5.638  65.390  1.00  0.00    -0.112 A  
HETATM    7  C   UNL     1      -7.504   6.278  64.252  1.00  0.00    -0.086 A  
HETATM    8  C   UNL     1      -7.832   7.609  64.035  1.00  0.00    -0.127 A  
HETATM    9  C   UNL     1      -8.635   8.303  64.956  1.00  0.00    -0.102 A  
HETATM   10  C   UNL     1      -9.099   7.682  66.119  1.00  0.00    -0.189 A  
HETATM   11  C   UNL     1      -9.944   8.458  67.066  1.00  0.00    -0.253 C  
HETATM   12  O   UNL     1     -10.324   7.936  68.106  1.00  0.00    -0.199 OA 
HETATM   13  C   UNL     1     -10.316   9.871  66.746  1.00  0.00    -0.285 A  
HETATM   14  C   UNL     1     -11.123  10.656  67.599  1.00  0.00    -0.319 A  
HETATM   15  O   UNL     1      -8.596  10.222  63.610  1.00  0.00    -0.173 OA 
HETATM   16  C   UNL     1     -11.444  11.987  67.287  1.00  0.00    -0.403 A  
HETATM   17  C   UNL     1     -10.983  12.548  66.092  1.00  0.00    -0.318 A  
HETATM   18  C   UNL     1      -8.993   9.697  64.644  1.00  0.00    -0.231 C  
HETATM   19  C   UNL     1     -11.256  13.959  65.706  1.00  0.00    -0.303 C  
HETATM   20  C   UNL     1      -9.849  10.457  65.570  1.00  0.00    -0.332 A  
HETATM   21  O   UNL     1     -12.430  14.451  66.147  1.00  0.00    -0.392 OA 
HETATM   22  C   UNL     1     -10.180  11.782  65.241  1.00  0.00    -0.307 A  
HETATM   23  O   UNL     1     -10.489  14.600  65.008  1.00  0.00    -0.393 OA 
BRANCH  14  24
HETATM   24  O   UNL     1     -11.587  10.042  68.798  1.00  0.00    -0.062 OA 
BRANCH  24  25
HETATM   25  C   UNL     1     -11.289  10.332  70.130  1.00  0.00    -0.316 C  
HETATM   26  O   UNL     1     -10.361   9.868  70.777  1.00  0.00    -0.273 OA 
HETATM   27  C   UNL     1     -12.282  11.329  70.654  1.00  0.00    -0.489 C  
ENDBRANCH  24  25
ENDBRANCH  14  24
ENDBRANCH   4   5
ENDBRANCH   2   4
TORSDOF 4
ENDMDL
MODEL       68
REMARK 921   NORMALIZED FREE ENERGY PREDICTED BY IDOCK:   -5.05 KCAL/MOL
REMARK 922        TOTAL FREE ENERGY PREDICTED BY IDOCK:   -6.87 KCAL/MOL
REMARK 923 INTER-LIGAND FREE ENERGY PREDICTED BY IDOCK:   -6.27 KCAL/MOL
REMARK 924 INTRA-LIGAND FREE ENERGY PREDICTED BY IDOCK:   -0.60 KCAL/MOL
REMARK 927      BINDING AFFINITY PREDICTED BY RF-SCORE:    0.00 PKD
ROOT
HETATM    1  C   UNL     1      -6.621   7.219  72.509  1.00  0.00    -0.055 C  
HETATM    2  C   UNL     1      -6.930   8.395  71.631  1.00  0.00    -0.086 C  
HETATM    3  O   UNL     1      -6.384   9.487  71.731  1.00  0.00    -0.283 OA 
ENDROOT
BRANCH   2   4
HETATM    4  O   UNL     1      -7.851   8.014  70.659  1.00  0.00    -0.086 OA 
BRANCH   4   5
HETATM    5  C   UNL     1      -9.168   8.501  70.820  1.00  0.00    -0.172 A  
HETATM    6  C   UNL     1      -9.873   8.078  71.956  1.00  0.00    -0.273 A  
HETATM    7  C   UNL     1     -11.140   8.580  72.222  1.00  0.00    -0.430 A  
HETATM    8  C   UNL     1     -11.685   9.534  71.374  1.00  0.00    -0.465 A  
HETATM    9  C   UNL     1     -10.964   9.987  70.256  1.00  0.00    -0.377 A  
HETATM   10  C   UNL     1      -9.699   9.474  69.958  1.00  0.00    -0.271 A  
HETATM   11  C   UNL     1      -8.975   9.983  68.762  1.00  0.00    -0.145 C  
HETATM   12  O   UNL     1      -7.883   9.513  68.470  1.00  0.00    -0.084 OA 
HETATM   13  C   UNL     1      -9.588  11.057  67.922  1.00  0.00    -0.180 A  
HETATM   14  C   UNL     1      -8.947  11.588  66.781  1.00  0.00    -0.181 A  
HETATM   15  O   UNL     1     -12.675  11.495  69.710  1.00  0.00    -0.012 OA 
HETATM   16  C   UNL     1      -9.550  12.584  65.996  1.00  0.00    -0.205 A  
HETATM   17  C   UNL     1     -10.802  13.088  66.360  1.00  0.00    -0.294 A  
HETATM   18  C   UNL     1     -11.573  11.039  69.425  1.00  0.00    -0.312 C  
HETATM   19  C   UNL     1     -11.518  14.120  65.563  1.00  0.00    -0.324 C  
HETATM   20  C   UNL     1     -10.846  11.559  68.255  1.00  0.00    -0.257 A  
HETATM   21  O   UNL     1     -10.721  14.996  64.920  1.00  0.00    -0.400 OA 
HETATM   22  C   UNL     1     -11.450  12.567  67.485  1.00  0.00    -0.397 A  
HETATM   23  O   UNL     1     -12.735  14.189  65.533  1.00  0.00    -0.507 OA 
BRANCH  14  24
HETATM   24  O   UNL     1      -7.665  11.060  66.454  1.00  0.00    -0.150 OA 
BRANCH  24  25
HETATM   25  C   UNL     1      -7.244  10.356  65.324  1.00  0.00    -0.106 C  
HETATM   26  O   UNL     1      -7.899  10.167  64.310  1.00  0.00    -0.145 OA 
HETATM   27  C   UNL     1      -5.838   9.874  65.535  1.00  0.00    -0.073 C  
ENDBRANCH  24  25
ENDBRANCH  14  24
ENDBRANCH   4   5
ENDBRANCH   2   4
TORSDOF 4
ENDMDL
MODEL       69
REMARK 921   NORMALIZED FREE ENERGY PREDICTED BY IDOCK:   -5.01 KCAL/MOL
REMARK 922        TOTAL FREE ENERGY PREDICTED BY IDOCK:   -6.83 KCAL/MOL
REMARK 923 INTER-LIGAND FREE ENERGY PREDICTED BY IDOCK:   -6.12 KCAL/MOL
REMARK 924 INTRA-LIGAND FREE ENERGY PREDICTED BY IDOCK:   -0.71 KCAL/MOL
REMARK 927      BINDING AFFINITY PREDICTED BY RF-SCORE:    0.00 PKD
ROOT
HETATM    1  C   UNL     1     -11.679  15.096  69.418  1.00  0.00    -0.355 C  
HETATM    2  C   UNL     1     -10.703  15.872  68.584  1.00  0.00    -0.274 C  
HETATM    3  O   UNL     1     -10.663  17.095  68.537  1.00  0.00    -0.352 OA 
ENDROOT
BRANCH   2   4
HETATM    4  O   UNL     1      -9.825  14.988  67.963  1.00  0.00    -0.214 OA 
BRANCH   4   5
HETATM    5  C   UNL     1     -10.287  14.378  66.775  1.00  0.00    -0.273 A  
HETATM    6  C   UNL     1     -11.007  15.181  65.880  1.00  0.00    -0.339 A  
HETATM    7  C   UNL     1     -11.420  14.672  64.656  1.00  0.00    -0.389 A  
HETATM    8  C   UNL     1     -11.080  13.371  64.312  1.00  0.00    -0.396 A  
HETATM    9  C   UNL     1     -10.327  12.576  65.192  1.00  0.00    -0.312 A  
HETATM   10  C   UNL     1      -9.925  13.063  66.439  1.00  0.00    -0.277 A  
HETATM   11  C   UNL     1      -9.130  12.183  67.338  1.00  0.00    -0.181 C  
HETATM   12  O   UNL     1      -8.805  12.587  68.447  1.00  0.00    -0.181 OA 
HETATM   13  C   UNL     1      -8.742  10.812  66.885  1.00  0.00    -0.141 A  
HETATM   14  C   UNL     1      -7.981   9.934  67.688  1.00  0.00    -0.109 A  
HETATM   15  O   UNL     1     -10.295  10.816  63.644  1.00  0.00    -0.327 OA 
HETATM   16  C   UNL     1      -7.643   8.644  67.249  1.00  0.00    -0.093 A  
HETATM   17  C   UNL     1      -8.041   8.219  65.978  1.00  0.00    -0.110 A  
HETATM   18  C   UNL     1      -9.953  11.222  64.748  1.00  0.00    -0.277 C  
HETATM   19  C   UNL     1      -7.749   6.857  65.455  1.00  0.00    -0.107 C  
HETATM   20  C   UNL     1      -9.146  10.361  65.629  1.00  0.00    -0.206 A  
HETATM   21  O   UNL     1      -6.599   6.313  65.900  1.00  0.00    -0.045 OA 
HETATM   22  C   UNL     1      -8.799   9.078  65.175  1.00  0.00    -0.224 A  
HETATM   23  O   UNL     1      -8.478   6.300  64.652  1.00  0.00    -0.076 OA 
BRANCH  14  24
HETATM   24  O   UNL     1      -7.580  10.411  68.969  1.00  0.00    -0.089 OA 
BRANCH  24  25
HETATM   25  C   UNL     1      -7.734   9.835  70.231  1.00  0.00    -0.172 C  
HETATM   26  O   UNL     1      -6.891   9.806  71.116  1.00  0.00    -0.314 OA 
HETATM   27  C   UNL     1      -9.116   9.261  70.350  1.00  0.00    -0.288 C  
ENDBRANCH  24  25
ENDBRANCH  14  24
ENDBRANCH   4   5
ENDBRANCH   2   4
TORSDOF 4
ENDMDL
MODEL       70
REMARK 921   NORMALIZED FREE ENERGY PREDICTED BY IDOCK:   -4.93 KCAL/MOL
REMARK 922        TOTAL FREE ENERGY PREDICTED BY IDOCK:   -6.73 KCAL/MOL
REMARK 923 INTER-LIGAND FREE ENERGY PREDICTED BY IDOCK:   -5.97 KCAL/MOL
REMARK 924 INTRA-LIGAND FREE ENERGY PREDICTED BY IDOCK:   -0.76 KCAL/MOL
REMARK 927      BINDING AFFINITY PREDICTED BY RF-SCORE:    0.00 PKD
ROOT
HETATM    1  C   UNL     1      -8.001   5.898  71.904  1.00  0.00    -0.107 C  
HETATM    2  C   UNL     1      -9.298   5.317  72.383  1.00  0.00    -0.140 C  
HETATM    3  O   UNL     1      -9.456   4.810  73.487  1.00  0.00    -0.128 OA 
ENDROOT
BRANCH   2   4
HETATM    4  O   UNL     1     -10.280   5.527  71.419  1.00  0.00    -0.199 OA 
BRANCH   4   5
HETATM    5  C   UNL     1     -10.860   6.815  71.387  1.00  0.00    -0.236 A  
HETATM    6  C   UNL     1     -11.415   7.299  72.580  1.00  0.00    -0.304 A  
HETATM    7  C   UNL     1     -11.927   8.588  72.644  1.00  0.00    -0.309 A  
HETATM    8  C   UNL     1     -11.849   9.407  71.526  1.00  0.00    -0.456 A  
HETATM    9  C   UNL     1     -11.260   8.937  70.340  1.00  0.00    -0.259 A  
HETATM   10  C   UNL     1     -10.762   7.633  70.249  1.00  0.00    -0.244 A  
HETATM   11  C   UNL     1     -10.149   7.180  68.972  1.00  0.00    -0.183 C  
HETATM   12  O   UNL     1      -9.745   6.029  68.869  1.00  0.00    -0.127 OA 
HETATM   13  C   UNL     1     -10.038   8.129  67.821  1.00  0.00    -0.260 A  
HETATM   14  C   UNL     1      -9.458   7.762  66.588  1.00  0.00    -0.205 A  
HETATM   15  O   UNL     1     -11.581  11.016  69.306  1.00  0.00    -0.259 OA 
HETATM   16  C   UNL     1      -9.380   8.664  65.515  1.00  0.00    -0.105 A  
HETATM   17  C   UNL     1      -9.861   9.968  65.671  1.00  0.00    -0.363 A  
HETATM   18  C   UNL     1     -11.159   9.869  69.205  1.00  0.00    -0.181 C  
HETATM   19  C   UNL     1      -9.843  10.971  64.572  1.00  0.00    -0.290 C  
HETATM   20  C   UNL     1     -10.530   9.428  67.949  1.00  0.00    -0.296 A  
HETATM   21  O   UNL     1      -8.818  10.845  63.706  1.00  0.00    -0.154 OA 
HETATM   22  C   UNL     1     -10.442  10.343  66.887  1.00  0.00    -0.300 A  
HETATM   23  O   UNL     1     -10.671  11.862  64.493  1.00  0.00    -0.280 OA 
BRANCH  14  24
HETATM   24  O   UNL     1      -8.964   6.430  66.474  1.00  0.00    -0.136 OA 
BRANCH  24  25
HETATM   25  C   UNL     1      -9.414   5.369  65.689  1.00  0.00    -0.041 C  
HETATM   26  O   UNL     1     -10.410   4.691  65.898  1.00  0.00    -0.267 OA 
HETATM   27  C   UNL     1      -8.490   5.190  64.519  1.00  0.00    -0.141 C  
ENDBRANCH  24  25
ENDBRANCH  14  24
ENDBRANCH   4   5
ENDBRANCH   2   4
TORSDOF 4
ENDMDL
MODEL       71
REMARK 921   NORMALIZED FREE ENERGY PREDICTED BY IDOCK:   -4.92 KCAL/MOL
REMARK 922        TOTAL FREE ENERGY PREDICTED BY IDOCK:   -6.71 KCAL/MOL
REMARK 923 INTER-LIGAND FREE ENERGY PREDICTED BY IDOCK:   -6.12 KCAL/MOL
REMARK 924 INTRA-LIGAND FREE ENERGY PREDICTED BY IDOCK:   -0.60 KCAL/MOL
REMARK 927      BINDING AFFINITY PREDICTED BY RF-SCORE:    0.00 PKD
ROOT
HETATM    1  C   UNL     1     -13.014  12.444  71.014  1.00  0.00    -0.151 C  
HETATM    2  C   UNL     1     -12.524  13.725  70.407  1.00  0.00    -0.314 C  
HETATM    3  O   UNL     1     -13.070  14.810  70.563  1.00  0.00    -0.332 OA 
ENDROOT
BRANCH   2   4
HETATM    4  O   UNL     1     -11.332  13.485  69.729  1.00  0.00    -0.200 OA 
BRANCH   4   5
HETATM    5  C   UNL     1     -11.439  13.247  68.340  1.00  0.00    -0.314 A  
HETATM    6  C   UNL     1     -11.960  14.282  67.551  1.00  0.00    -0.411 A  
HETATM    7  C   UNL     1     -12.017  14.150  66.170  1.00  0.00    -0.437 A  
HETATM    8  C   UNL     1     -11.518  12.999  65.575  1.00  0.00    -0.352 A  
HETATM    9  C   UNL     1     -10.962  11.976  66.362  1.00  0.00    -0.337 A  
HETATM   10  C   UNL     1     -10.920  12.081  67.756  1.00  0.00    -0.279 A  
HETATM   11  C   UNL     1     -10.323  10.971  68.547  1.00  0.00    -0.190 C  
HETATM   12  O   UNL     1     -10.315  11.035  69.769  1.00  0.00    -0.067 OA 
HETATM   13  C   UNL     1      -9.744   9.783  67.845  1.00  0.00    -0.168 A  
HETATM   14  C   UNL     1      -9.156   8.704  68.539  1.00  0.00    -0.138 A  
HETATM   15  O   UNL     1     -10.426  10.735  64.447  1.00  0.00    -0.365 OA 
HETATM   16  C   UNL     1      -8.636   7.590  67.860  1.00  0.00    -0.121 A  
HETATM   17  C   UNL     1      -8.671   7.553  66.463  1.00  0.00    -0.151 A  
HETATM   18  C   UNL     1     -10.401  10.804  65.671  1.00  0.00    -0.230 C  
HETATM   19  C   UNL     1      -8.169   6.396  65.675  1.00  0.00    -0.140 C  
HETATM   20  C   UNL     1      -9.789   9.717  66.453  1.00  0.00    -0.309 A  
HETATM   21  O   UNL     1      -7.136   5.734  66.233  1.00  0.00    -0.065 OA 
HETATM   22  C   UNL     1      -9.256   8.614  65.764  1.00  0.00    -0.245 A  
HETATM   23  O   UNL     1      -8.634   6.101  64.587  1.00  0.00    -0.036 OA 
BRANCH  14  24
HETATM   24  O   UNL     1      -9.123   8.788  69.961  1.00  0.00    -0.149 OA 
BRANCH  24  25
HETATM   25  C   UNL     1      -9.809   8.043  70.922  1.00  0.00    -0.175 C  
HETATM   26  O   UNL     1     -10.928   7.567  70.798  1.00  0.00    -0.242 OA 
HETATM   27  C   UNL     1      -8.948   7.894  72.142  1.00  0.00    -0.199 C  
ENDBRANCH  24  25
ENDBRANCH  14  24
ENDBRANCH   4   5
ENDBRANCH   2   4
TORSDOF 4
ENDMDL
MODEL       72
REMARK 921   NORMALIZED FREE ENERGY PREDICTED BY IDOCK:   -4.88 KCAL/MOL
REMARK 922        TOTAL FREE ENERGY PREDICTED BY IDOCK:   -6.67 KCAL/MOL
REMARK 923 INTER-LIGAND FREE ENERGY PREDICTED BY IDOCK:   -5.96 KCAL/MOL
REMARK 924 INTRA-LIGAND FREE ENERGY PREDICTED BY IDOCK:   -0.71 KCAL/MOL
REMARK 927      BINDING AFFINITY PREDICTED BY RF-SCORE:    0.00 PKD
ROOT
HETATM    1  C   UNL     1      -5.737  10.288  63.481  1.00  0.00    -0.143 C  
HETATM    2  C   UNL     1      -7.117  10.077  64.030  1.00  0.00    -0.126 C  
HETATM    3  O   UNL     1      -8.059   9.655  63.371  1.00  0.00    -0.133 OA 
ENDROOT
BRANCH   2   4
HETATM    4  O   UNL     1      -7.116  10.353  65.395  1.00  0.00    -0.139 OA 
BRANCH   4   5
HETATM    5  C   UNL     1      -7.576   9.320  66.242  1.00  0.00    -0.096 A  
HETATM    6  C   UNL     1      -6.920   8.083  66.160  1.00  0.00    -0.058 A  
HETATM    7  C   UNL     1      -7.263   7.049  67.020  1.00  0.00    -0.081 A  
HETATM    8  C   UNL     1      -8.235   7.263  67.987  1.00  0.00    -0.120 A  
HETATM    9  C   UNL     1      -8.868   8.513  68.095  1.00  0.00    -0.142 A  
HETATM   10  C   UNL     1      -8.554   9.558  67.221  1.00  0.00    -0.128 A  
HETATM   11  C   UNL     1      -9.252  10.863  67.373  1.00  0.00    -0.147 C  
HETATM   12  O   UNL     1      -9.012  11.772  66.590  1.00  0.00    -0.186 OA 
HETATM   13  C   UNL     1     -10.245  11.052  68.475  1.00  0.00    -0.203 A  
HETATM   14  C   UNL     1     -10.933  12.269  68.676  1.00  0.00    -0.239 A  
HETATM   15  O   UNL     1     -10.103   7.777  69.946  1.00  0.00    -0.196 OA 
HETATM   16  C   UNL     1     -11.875  12.419  69.706  1.00  0.00    -0.387 A  
HETATM   17  C   UNL     1     -12.126  11.352  70.575  1.00  0.00    -0.487 A  
HETATM   18  C   UNL     1      -9.853   8.695  69.175  1.00  0.00    -0.185 C  
HETATM   19  C   UNL     1     -13.131  11.423  71.669  1.00  0.00    -0.393 C  
HETATM   20  C   UNL     1     -10.525   9.995  69.339  1.00  0.00    -0.252 A  
HETATM   21  O   UNL     1     -13.295  12.645  72.212  1.00  0.00    -0.533 OA 
HETATM   22  C   UNL     1     -11.455  10.140  70.383  1.00  0.00    -0.400 A  
HETATM   23  O   UNL     1     -13.727  10.437  72.068  1.00  0.00    -0.234 OA 
BRANCH  14  24
HETATM   24  O   UNL     1     -10.636  13.337  67.781  1.00  0.00    -0.235 OA 
BRANCH  24  25
HETATM   25  C   UNL     1     -10.045  14.577  68.026  1.00  0.00    -0.226 C  
HETATM   26  O   UNL     1      -9.051  14.777  68.709  1.00  0.00    -0.188 OA 
HETATM   27  C   UNL     1     -10.811  15.644  67.299  1.00  0.00    -0.298 C  
ENDBRANCH  24  25
ENDBRANCH  14  24
ENDBRANCH   4   5
ENDBRANCH   2   4
TORSDOF 4
ENDMDL
MODEL       73
REMARK 921   NORMALIZED FREE ENERGY PREDICTED BY IDOCK:   -4.85 KCAL/MOL
REMARK 922        TOTAL FREE ENERGY PREDICTED BY IDOCK:   -6.63 KCAL/MOL
REMARK 923 INTER-LIGAND FREE ENERGY PREDICTED BY IDOCK:   -6.34 KCAL/MOL
REMARK 924 INTRA-LIGAND FREE ENERGY PREDICTED BY IDOCK:   -0.29 KCAL/MOL
REMARK 927      BINDING AFFINITY PREDICTED BY RF-SCORE:    0.00 PKD
ROOT
HETATM    1  C   UNL     1     -12.205  15.103  73.288  1.00  0.00    -0.540 C  
HETATM    2  C   UNL     1     -13.247  14.863  72.237  1.00  0.00    -0.374 C  
HETATM    3  O   UNL     1     -14.349  15.397  72.230  1.00  0.00    -0.550 OA 
ENDROOT
BRANCH   2   4
HETATM    4  O   UNL     1     -12.726  14.023  71.256  1.00  0.00    -0.327 OA 
BRANCH   4   5
HETATM    5  C   UNL     1     -11.841  14.618  70.329  1.00  0.00    -0.303 A  
HETATM    6  C   UNL     1     -11.726  16.016  70.358  1.00  0.00    -0.326 A  
HETATM    7  C   UNL     1     -10.815  16.662  69.533  1.00  0.00    -0.285 A  
HETATM    8  C   UNL     1      -9.993  15.909  68.707  1.00  0.00    -0.220 A  
HETATM    9  C   UNL     1     -10.081  14.506  68.703  1.00  0.00    -0.244 A  
HETATM   10  C   UNL     1     -11.010  13.840  69.507  1.00  0.00    -0.081 A  
HETATM   11  C   UNL     1     -11.067  12.354  69.468  1.00  0.00    -0.016 C  
HETATM   12  O   UNL     1     -11.902  11.762  70.139  1.00  0.00    -0.329 OA 
HETATM   13  C   UNL     1     -10.112  11.595  68.603  1.00  0.00    -0.206 A  
HETATM   14  C   UNL     1     -10.110  10.185  68.529  1.00  0.00    -0.169 A  
HETATM   15  O   UNL     1      -8.323  14.357  67.159  1.00  0.00    -0.201 OA 
HETATM   16  C   UNL     1      -9.216   9.493  67.697  1.00  0.00    -0.138 A  
HETATM   17  C   UNL     1      -8.283  10.207  66.939  1.00  0.00    -0.122 A  
HETATM   18  C   UNL     1      -9.146  13.760  67.844  1.00  0.00    -0.193 C  
HETATM   19  C   UNL     1      -7.324   9.549  66.011  1.00  0.00    -0.097 C  
HETATM   20  C   UNL     1      -9.187  12.289  67.824  1.00  0.00    -0.191 A  
HETATM   21  O   UNL     1      -6.925   8.318  66.386  1.00  0.00    -0.065 OA 
HETATM   22  C   UNL     1      -8.277  11.605  67.000  1.00  0.00    -0.170 A  
HETATM   23  O   UNL     1      -6.903  10.105  65.011  1.00  0.00    -0.127 OA 
BRANCH  14  24
HETATM   24  O   UNL     1     -11.065   9.493  69.330  1.00  0.00    -0.190 OA 
BRANCH  24  25
HETATM   25  C   UNL     1     -10.903   8.388  70.167  1.00  0.00    -0.236 C  
HETATM   26  O   UNL     1     -10.758   7.228  69.807  1.00  0.00    -0.231 OA 
HETATM   27  C   UNL     1     -10.916   8.842  71.597  1.00  0.00    -0.415 C  
ENDBRANCH  24  25
ENDBRANCH  14  24
ENDBRANCH   4   5
ENDBRANCH   2   4
TORSDOF 4
ENDMDL
MODEL       74
REMARK 921   NORMALIZED FREE ENERGY PREDICTED BY IDOCK:   -4.85 KCAL/MOL
REMARK 922        TOTAL FREE ENERGY PREDICTED BY IDOCK:   -6.63 KCAL/MOL
REMARK 923 INTER-LIGAND FREE ENERGY PREDICTED BY IDOCK:   -5.87 KCAL/MOL
REMARK 924 INTRA-LIGAND FREE ENERGY PREDICTED BY IDOCK:   -0.75 KCAL/MOL
REMARK 927      BINDING AFFINITY PREDICTED BY RF-SCORE:    0.00 PKD
ROOT
HETATM    1  C   UNL     1     -10.409   6.587  74.071  1.00  0.00    -0.362 C  
HETATM    2  C   UNL     1     -10.232   7.583  72.963  1.00  0.00    -0.306 C  
HETATM    3  O   UNL     1      -9.279   8.347  72.875  1.00  0.00    -0.261 OA 
ENDROOT
BRANCH   2   4
HETATM    4  O   UNL     1     -11.262   7.429  72.039  1.00  0.00    -0.237 OA 
BRANCH   4   5
HETATM    5  C   UNL     1     -11.535   8.545  71.216  1.00  0.00    -0.277 A  
HETATM    6  C   UNL     1     -12.266   9.597  71.784  1.00  0.00    -0.464 A  
HETATM    7  C   UNL     1     -12.499  10.760  71.062  1.00  0.00    -0.522 A  
HETATM    8  C   UNL     1     -11.969  10.885  69.785  1.00  0.00    -0.423 A  
HETATM    9  C   UNL     1     -11.205   9.846  69.227  1.00  0.00    -0.174 A  
HETATM   10  C   UNL     1     -10.981   8.658  69.930  1.00  0.00    -0.169 A  
HETATM   11  C   UNL     1     -10.168   7.585  69.297  1.00  0.00    -0.201 C  
HETATM   12  O   UNL     1      -9.997   6.527  69.888  1.00  0.00    -0.165 OA 
HETATM   13  C   UNL     1      -9.571   7.804  67.943  1.00  0.00    -0.167 A  
HETATM   14  C   UNL     1      -8.782   6.829  67.295  1.00  0.00    -0.119 A  
HETATM   15  O   UNL     1     -10.813  11.113  67.295  1.00  0.00    -0.242 OA 
HETATM   16  C   UNL     1      -8.246   7.048  66.016  1.00  0.00    -0.129 A  
HETATM   17  C   UNL     1      -8.471   8.269  65.372  1.00  0.00    -0.189 A  
HETATM   18  C   UNL     1     -10.626  10.059  67.891  1.00  0.00    -0.250 C  
HETATM   19  C   UNL     1      -7.964   8.565  64.005  1.00  0.00    -0.159 C  
HETATM   20  C   UNL     1      -9.800   9.006  67.275  1.00  0.00    -0.252 A  
HETATM   21  O   UNL     1      -6.800   7.964  63.689  1.00  0.00    -0.071 OA 
HETATM   22  C   UNL     1      -9.255   9.241  66.002  1.00  0.00    -0.262 A  
HETATM   23  O   UNL     1      -8.542   9.328  63.250  1.00  0.00    -0.201 OA 
BRANCH  14  24
HETATM   24  O   UNL     1      -8.561   5.605  67.992  1.00  0.00    -0.103 OA 
BRANCH  24  25
HETATM   25  C   UNL     1      -7.384   4.880  68.184  1.00  0.00    -0.070 C  
HETATM   26  O   UNL     1      -6.988   3.956  67.490  1.00  0.00    -0.053 OA 
HETATM   27  C   UNL     1      -6.656   5.424  69.379  1.00  0.00    -0.047 C  
ENDBRANCH  24  25
ENDBRANCH  14  24
ENDBRANCH   4   5
ENDBRANCH   2   4
TORSDOF 4
ENDMDL
MODEL       75
REMARK 921   NORMALIZED FREE ENERGY PREDICTED BY IDOCK:   -4.82 KCAL/MOL
REMARK 922        TOTAL FREE ENERGY PREDICTED BY IDOCK:   -6.60 KCAL/MOL
REMARK 923 INTER-LIGAND FREE ENERGY PREDICTED BY IDOCK:   -5.87 KCAL/MOL
REMARK 924 INTRA-LIGAND FREE ENERGY PREDICTED BY IDOCK:   -0.72 KCAL/MOL
REMARK 927      BINDING AFFINITY PREDICTED BY RF-SCORE:    0.00 PKD
ROOT
HETATM    1  C   UNL     1      -7.229   3.774  69.386  1.00  0.00    -0.046 C  
HETATM    2  C   UNL     1      -8.185   3.069  68.471  1.00  0.00    -0.064 C  
HETATM    3  O   UNL     1      -7.982   1.961  67.989  1.00  0.00    -0.057 OA 
ENDROOT
BRANCH   2   4
HETATM    4  O   UNL     1      -9.344   3.831  68.341  1.00  0.00    -0.148 OA 
BRANCH   4   5
HETATM    5  C   UNL     1      -9.218   5.042  67.624  1.00  0.00    -0.120 A  
HETATM    6  C   UNL     1      -8.698   4.966  66.324  1.00  0.00    -0.115 A  
HETATM    7  C   UNL     1      -8.624   6.103  65.531  1.00  0.00    -0.133 A  
HETATM    8  C   UNL     1      -9.105   7.308  66.024  1.00  0.00    -0.117 A  
HETATM    9  C   UNL     1      -9.661   7.379  67.312  1.00  0.00    -0.205 A  
HETATM   10  C   UNL     1      -9.720   6.250  68.134  1.00  0.00    -0.123 A  
HETATM   11  C   UNL     1     -10.316   6.373  69.492  1.00  0.00    -0.208 C  
HETATM   12  O   UNL     1     -10.339   5.400  70.234  1.00  0.00    -0.249 OA 
HETATM   13  C   UNL     1     -10.875   7.685  69.943  1.00  0.00    -0.241 A  
HETATM   14  C   UNL     1     -11.462   7.863  71.215  1.00  0.00    -0.265 A  
HETATM   15  O   UNL     1     -10.163   9.650  67.019  1.00  0.00    -0.215 OA 
HETATM   16  C   UNL     1     -11.964   9.109  71.624  1.00  0.00    -0.437 A  
HETATM   17  C   UNL     1     -11.912  10.198  70.749  1.00  0.00    -0.442 A  
HETATM   18  C   UNL     1     -10.203   8.673  67.758  1.00  0.00    -0.225 C  
HETATM   19  C   UNL     1     -12.395  11.555  71.120  1.00  0.00    -0.277 C  
HETATM   20  C   UNL     1     -10.814   8.789  69.093  1.00  0.00    -0.074 A  
HETATM   21  O   UNL     1     -13.428  11.573  71.985  1.00  0.00    -0.405 OA 
HETATM   22  C   UNL     1     -11.329  10.035  69.487  1.00  0.00    -0.220 A  
HETATM   23  O   UNL     1     -11.915  12.568  70.641  1.00  0.00    -0.305 OA 
BRANCH  14  24
HETATM   24  O   UNL     1     -11.512   6.726  72.071  1.00  0.00    -0.259 OA 
BRANCH  24  25
HETATM   25  C   UNL     1     -10.830   6.465  73.261  1.00  0.00    -0.244 C  
HETATM   26  O   UNL     1     -10.162   7.268  73.897  1.00  0.00    -0.344 OA 
HETATM   27  C   UNL     1     -11.056   5.036  73.660  1.00  0.00    -0.336 C  
ENDBRANCH  24  25
ENDBRANCH  14  24
ENDBRANCH   4   5
ENDBRANCH   2   4
TORSDOF 4
ENDMDL
MODEL       76
REMARK 921   NORMALIZED FREE ENERGY PREDICTED BY IDOCK:   -4.57 KCAL/MOL
REMARK 922        TOTAL FREE ENERGY PREDICTED BY IDOCK:   -6.28 KCAL/MOL
REMARK 923 INTER-LIGAND FREE ENERGY PREDICTED BY IDOCK:   -5.45 KCAL/MOL
REMARK 924 INTRA-LIGAND FREE ENERGY PREDICTED BY IDOCK:   -0.83 KCAL/MOL
REMARK 927      BINDING AFFINITY PREDICTED BY RF-SCORE:    0.00 PKD
ROOT
HETATM    1  C   UNL     1     -12.236  12.187  70.892  1.00  0.00    -0.310 C  
HETATM    2  C   UNL     1     -11.854  11.192  69.837  1.00  0.00    -0.363 C  
HETATM    3  O   UNL     1     -12.406  11.102  68.748  1.00  0.00    -0.539 OA 
ENDROOT
BRANCH   2   4
HETATM    4  O   UNL     1     -10.743  10.471  70.267  1.00  0.00    -0.253 OA 
BRANCH   4   5
HETATM    5  C   UNL     1     -10.920   9.077  70.416  1.00  0.00    -0.247 A  
HETATM    6  C   UNL     1     -11.641   8.639  71.537  1.00  0.00    -0.368 A  
HETATM    7  C   UNL     1     -11.926   7.291  71.704  1.00  0.00    -0.341 A  
HETATM    8  C   UNL     1     -11.523   6.385  70.733  1.00  0.00    -0.415 A  
HETATM    9  C   UNL     1     -10.834   6.826  69.591  1.00  0.00    -0.314 A  
HETATM   10  C   UNL     1     -10.516   8.177  69.418  1.00  0.00    -0.223 A  
HETATM   11  C   UNL     1      -9.782   8.596  68.193  1.00  0.00    -0.158 C  
HETATM   12  O   UNL     1      -9.466   9.770  68.050  1.00  0.00    -0.131 OA 
HETATM   13  C   UNL     1      -9.431   7.582  67.151  1.00  0.00    -0.194 A  
HETATM   14  C   UNL     1      -8.744   7.920  65.965  1.00  0.00    -0.158 A  
HETATM   15  O   UNL     1     -10.784   4.648  68.726  1.00  0.00     0.367 OA 
HETATM   16  C   UNL     1      -8.409   6.948  65.009  1.00  0.00    -0.054 A  
HETATM   17  C   UNL     1      -8.782   5.616  65.215  1.00  0.00    -0.120 A  
HETATM   18  C   UNL     1     -10.480   5.826  68.570  1.00  0.00    -0.225 C  
HETATM   19  C   UNL     1      -8.436   4.525  64.264  1.00  0.00    -0.120 C  
HETATM   20  C   UNL     1      -9.776   6.246  67.347  1.00  0.00    -0.137 A  
HETATM   21  O   UNL     1      -8.365   4.900  62.972  1.00  0.00    -0.103 OA 
HETATM   22  C   UNL     1      -9.458   5.269  66.389  1.00  0.00    -0.161 A  
HETATM   23  O   UNL     1      -8.272   3.374  64.629  1.00  0.00    -0.089 OA 
BRANCH  14  24
HETATM   24  O   UNL     1      -8.397   9.289  65.784  1.00  0.00    -0.116 OA 
BRANCH  24  25
HETATM   25  C   UNL     1      -8.385  10.068  64.626  1.00  0.00    -0.165 C  
HETATM   26  O   UNL     1      -7.417  10.275  63.909  1.00  0.00    -0.140 OA 
HETATM   27  C   UNL     1      -9.763  10.608  64.376  1.00  0.00    -0.368 C  
ENDBRANCH  24  25
ENDBRANCH  14  24
ENDBRANCH   4   5
ENDBRANCH   2   4
TORSDOF 4
ENDMDL
MODEL       77
REMARK 921   NORMALIZED FREE ENERGY PREDICTED BY IDOCK:   -4.54 KCAL/MOL
REMARK 922        TOTAL FREE ENERGY PREDICTED BY IDOCK:   -6.25 KCAL/MOL
REMARK 923 INTER-LIGAND FREE ENERGY PREDICTED BY IDOCK:   -5.50 KCAL/MOL
REMARK 924 INTRA-LIGAND FREE ENERGY PREDICTED BY IDOCK:   -0.75 KCAL/MOL
REMARK 927      BINDING AFFINITY PREDICTED BY RF-SCORE:    0.00 PKD
ROOT
HETATM    1  C   UNL     1     -12.512  11.017  70.202  1.00  0.00    -0.344 C  
HETATM    2  C   UNL     1     -12.188  10.039  71.292  1.00  0.00    -0.402 C  
HETATM    3  O   UNL     1     -12.982   9.686  72.154  1.00  0.00    -0.403 OA 
ENDROOT
BRANCH   2   4
HETATM    4  O   UNL     1     -10.896   9.553  71.104  1.00  0.00    -0.315 OA 
BRANCH   4   5
HETATM    5  C   UNL     1     -10.769   8.421  70.269  1.00  0.00    -0.234 A  
HETATM    6  C   UNL     1     -11.544   7.297  70.590  1.00  0.00    -0.322 A  
HETATM    7  C   UNL     1     -11.533   6.179  69.767  1.00  0.00    -0.362 A  
HETATM    8  C   UNL     1     -10.777   6.198  68.603  1.00  0.00    -0.370 A  
HETATM    9  C   UNL     1     -10.029   7.337  68.260  1.00  0.00    -0.177 A  
HETATM   10  C   UNL     1     -10.008   8.462  69.090  1.00  0.00    -0.197 A  
HETATM   11  C   UNL     1      -9.199   9.644  68.686  1.00  0.00    -0.136 C  
HETATM   12  O   UNL     1      -9.143  10.620  69.423  1.00  0.00    -0.152 OA 
HETATM   13  C   UNL     1      -8.455   9.628  67.388  1.00  0.00    -0.125 A  
HETATM   14  C   UNL     1      -7.678  10.721  66.945  1.00  0.00    -0.130 A  
HETATM   15  O   UNL     1      -9.334   6.331  66.260  1.00  0.00    -0.161 OA 
HETATM   16  C   UNL     1      -6.973  10.678  65.732  1.00  0.00    -0.094 A  
HETATM   17  C   UNL     1      -7.058   9.541  64.923  1.00  0.00    -0.107 A  
HETATM   18  C   UNL     1      -9.290   7.317  66.987  1.00  0.00    -0.148 C  
HETATM   19  C   UNL     1      -6.316   9.407  63.640  1.00  0.00    -0.094 C  
HETATM   20  C   UNL     1      -8.509   8.496  66.577  1.00  0.00    -0.119 A  
HETATM   21  O   UNL     1      -6.121  10.562  62.974  1.00  0.00    -0.148 OA 
HETATM   22  C   UNL     1      -7.820   8.449  65.353  1.00  0.00    -0.108 A  
HETATM   23  O   UNL     1      -5.954   8.325  63.210  1.00  0.00    -0.071 OA 
BRANCH  14  24
HETATM   24  O   UNL     1      -7.632  11.868  67.790  1.00  0.00    -0.113 OA 
BRANCH  24  25
HETATM   25  C   UNL     1      -7.418  13.210  67.472  1.00  0.00    -0.160 C  
HETATM   26  O   UNL     1      -6.336  13.730  67.240  1.00  0.00    -0.295 OA 
HETATM   27  C   UNL     1      -8.735  13.928  67.438  1.00  0.00    -0.208 C  
ENDBRANCH  24  25
ENDBRANCH  14  24
ENDBRANCH   4   5
ENDBRANCH   2   4
TORSDOF 4
ENDMDL
MODEL       78
REMARK 921   NORMALIZED FREE ENERGY PREDICTED BY IDOCK:   -4.51 KCAL/MOL
REMARK 922        TOTAL FREE ENERGY PREDICTED BY IDOCK:   -6.20 KCAL/MOL
REMARK 923 INTER-LIGAND FREE ENERGY PREDICTED BY IDOCK:   -5.51 KCAL/MOL
REMARK 924 INTRA-LIGAND FREE ENERGY PREDICTED BY IDOCK:   -0.70 KCAL/MOL
REMARK 927      BINDING AFFINITY PREDICTED BY RF-SCORE:    0.00 PKD
ROOT
HETATM    1  C   UNL     1     -11.049   4.958  73.198  1.00  0.00    -0.396 C  
HETATM    2  C   UNL     1     -10.778   5.796  71.985  1.00  0.00    -0.233 C  
HETATM    3  O   UNL     1     -10.867   5.384  70.834  1.00  0.00    -0.218 OA 
ENDROOT
BRANCH   2   4
HETATM    4  O   UNL     1     -10.504   7.102  72.380  1.00  0.00    -0.205 OA 
BRANCH   4   5
HETATM    5  C   UNL     1     -11.431   8.087  71.972  1.00  0.00    -0.309 A  
HETATM    6  C   UNL     1     -12.699   8.062  72.572  1.00  0.00    -0.093 A  
HETATM    7  C   UNL     1     -13.632   9.048  72.282  1.00  0.00    -0.540 A  
HETATM    8  C   UNL     1     -13.285  10.080  71.421  1.00  0.00    -0.486 A  
HETATM    9  C   UNL     1     -12.003  10.128  70.848  1.00  0.00    -0.461 A  
HETATM   10  C   UNL     1     -11.059   9.130  71.109  1.00  0.00    -0.393 A  
HETATM   11  C   UNL     1      -9.715   9.222  70.478  1.00  0.00    -0.260 C  
HETATM   12  O   UNL     1      -8.894   8.334  70.669  1.00  0.00    -0.134 OA 
HETATM   13  C   UNL     1      -9.379  10.393  69.609  1.00  0.00    -0.096 A  
HETATM   14  C   UNL     1      -8.119  10.541  68.990  1.00  0.00    -0.143 A  
HETATM   15  O   UNL     1     -12.507  12.154  69.783  1.00  0.00    -0.061 OA 
HETATM   16  C   UNL     1      -7.832  11.640  68.164  1.00  0.00    -0.133 A  
HETATM   17  C   UNL     1      -8.800  12.629  67.965  1.00  0.00    -0.195 A  
HETATM   18  C   UNL     1     -11.676  11.276  69.986  1.00  0.00    -0.346 C  
HETATM   19  C   UNL     1      -8.582  13.804  67.080  1.00  0.00    -0.166 C  
HETATM   20  C   UNL     1     -10.338  11.379  69.381  1.00  0.00     0.022 A  
HETATM   21  O   UNL     1      -7.308  14.239  67.017  1.00  0.00    -0.013 OA 
HETATM   22  C   UNL     1     -10.054  12.490  68.569  1.00  0.00    -0.186 A  
HETATM   23  O   UNL     1      -9.499  14.354  66.493  1.00  0.00    -0.268 OA 
BRANCH  14  24
HETATM   24  O   UNL     1      -7.154   9.522  69.231  1.00  0.00    -0.055 OA 
BRANCH  24  25
HETATM   25  C   UNL     1      -5.943   9.576  69.924  1.00  0.00    -0.036 C  
HETATM   26  O   UNL     1      -5.552  10.505  70.616  1.00  0.00    -0.074 OA 
HETATM   27  C   UNL     1      -5.188   8.297  69.704  1.00  0.00    -0.030 C  
ENDBRANCH  24  25
ENDBRANCH  14  24
ENDBRANCH   4   5
ENDBRANCH   2   4
TORSDOF 4
ENDMDL
MODEL       79
REMARK 921   NORMALIZED FREE ENERGY PREDICTED BY IDOCK:   -4.42 KCAL/MOL
REMARK 922        TOTAL FREE ENERGY PREDICTED BY IDOCK:   -6.10 KCAL/MOL
REMARK 923 INTER-LIGAND FREE ENERGY PREDICTED BY IDOCK:   -6.66 KCAL/MOL
REMARK 924 INTRA-LIGAND FREE ENERGY PREDICTED BY IDOCK:    0.56 KCAL/MOL
REMARK 927      BINDING AFFINITY PREDICTED BY RF-SCORE:    0.00 PKD
ROOT
HETATM    1  C   UNL     1     -11.590  14.805  64.472  1.00  0.00    -0.366 C  
HETATM    2  C   UNL     1     -10.337  13.989  64.592  1.00  0.00    -0.309 C  
HETATM    3  O   UNL     1     -10.065  13.039  63.868  1.00  0.00    -0.365 OA 
ENDROOT
BRANCH   2   4
HETATM    4  O   UNL     1      -9.525  14.538  65.581  1.00  0.00    -0.222 OA 
BRANCH   4   5
HETATM    5  C   UNL     1     -10.185  15.043  66.724  1.00  0.00    -0.260 A  
HETATM    6  C   UNL     1     -10.405  16.426  66.778  1.00  0.00    -0.293 A  
HETATM    7  C   UNL     1     -11.120  16.982  67.830  1.00  0.00    -0.125 A  
HETATM    8  C   UNL     1     -11.648  16.150  68.808  1.00  0.00    -0.297 A  
HETATM    9  C   UNL     1     -11.460  14.759  68.736  1.00  0.00    -0.324 A  
HETATM   10  C   UNL     1     -10.721  14.185  67.698  1.00  0.00    -0.260 A  
HETATM   11  C   UNL     1     -10.547  12.708  67.664  1.00  0.00    -0.218 C  
HETATM   12  O   UNL     1      -9.870  12.197  66.781  1.00  0.00    -0.201 OA 
HETATM   13  C   UNL     1     -11.193  11.858  68.712  1.00  0.00    -0.314 A  
HETATM   14  C   UNL     1     -11.073  10.451  68.729  1.00  0.00    -0.250 A  
HETATM   15  O   UNL     1     -12.752  14.441  70.666  1.00  0.00    -0.338 OA 
HETATM   16  C   UNL     1     -11.673   9.675  69.734  1.00  0.00     0.057 A  
HETATM   17  C   UNL     1     -12.432  10.298  70.729  1.00  0.00    -0.439 A  
HETATM   18  C   UNL     1     -12.089  13.925  69.773  1.00  0.00    -0.345 C  
HETATM   19  C   UNL     1     -13.072   9.548  71.843  1.00  0.00    -0.428 C  
HETATM   20  C   UNL     1     -11.937  12.461  69.726  1.00  0.00    -0.359 A  
HETATM   21  O   UNL     1     -13.463   8.296  71.534  1.00  0.00    -0.332 OA 
HETATM   22  C   UNL     1     -12.555  11.691  70.726  1.00  0.00    -0.365 A  
HETATM   23  O   UNL     1     -13.264  10.049  72.938  1.00  0.00     0.289 OA 
BRANCH  14  24
HETATM   24  O   UNL     1     -10.306   9.853  67.688  1.00  0.00    -0.194 OA 
BRANCH  24  25
HETATM   25  C   UNL     1      -9.276   8.914  67.756  1.00  0.00    -0.141 C  
HETATM   26  O   UNL     1      -9.085   8.122  68.667  1.00  0.00    -0.143 OA 
HETATM   27  C   UNL     1      -8.435   9.010  66.517  1.00  0.00    -0.124 C  
ENDBRANCH  24  25
ENDBRANCH  14  24
ENDBRANCH   4   5
ENDBRANCH   2   4
TORSDOF 4
ENDMDL
MODEL       80
REMARK 921   NORMALIZED FREE ENERGY PREDICTED BY IDOCK:   -4.40 KCAL/MOL
REMARK 922        TOTAL FREE ENERGY PREDICTED BY IDOCK:   -6.08 KCAL/MOL
REMARK 923 INTER-LIGAND FREE ENERGY PREDICTED BY IDOCK:   -5.76 KCAL/MOL
REMARK 924 INTRA-LIGAND FREE ENERGY PREDICTED BY IDOCK:   -0.32 KCAL/MOL
REMARK 927      BINDING AFFINITY PREDICTED BY RF-SCORE:    0.00 PKD
ROOT
HETATM    1  C   UNL     1      -8.148   9.626  70.213  1.00  0.00    -0.206 C  
HETATM    2  C   UNL     1      -6.718   9.533  69.773  1.00  0.00    -0.057 C  
HETATM    3  O   UNL     1      -5.862   8.878  70.355  1.00  0.00    -0.029 OA 
ENDROOT
BRANCH   2   4
HETATM    4  O   UNL     1      -6.559  10.230  68.578  1.00  0.00    -0.052 OA 
BRANCH   4   5
HETATM    5  C   UNL     1      -7.580  10.062  67.616  1.00  0.00    -0.091 A  
HETATM    6  C   UNL     1      -7.993   8.750  67.342  1.00  0.00    -0.098 A  
HETATM    7  C   UNL     1      -9.048   8.515  66.471  1.00  0.00    -0.217 A  
HETATM    8  C   UNL     1      -9.714   9.592  65.902  1.00  0.00    -0.352 A  
HETATM    9  C   UNL     1      -9.325  10.908  66.203  1.00  0.00    -0.211 A  
HETATM   10  C   UNL     1      -8.249  11.164  67.058  1.00  0.00    -0.146 A  
HETATM   11  C   UNL     1      -7.872  12.574  67.346  1.00  0.00    -0.175 C  
HETATM   12  O   UNL     1      -6.909  12.809  68.063  1.00  0.00    -0.076 OA 
HETATM   13  C   UNL     1      -8.668  13.693  66.752  1.00  0.00    -0.101 A  
HETATM   14  C   UNL     1      -8.366  15.051  66.995  1.00  0.00    -0.222 A  
HETATM   15  O   UNL     1     -11.056  11.769  64.879  1.00  0.00    -0.305 OA 
HETATM   16  C   UNL     1      -9.116  16.085  66.412  1.00  0.00    -0.354 A  
HETATM   17  C   UNL     1     -10.205  15.774  65.592  1.00  0.00    -0.407 A  
HETATM   18  C   UNL     1     -10.103  12.008  65.611  1.00  0.00    -0.243 C  
HETATM   19  C   UNL     1     -11.027  16.812  64.914  1.00  0.00    -0.087 C  
HETATM   20  C   UNL     1      -9.744  13.404  65.915  1.00  0.00    -0.197 A  
HETATM   21  O   UNL     1     -11.138  17.975  65.585  1.00  0.00     0.036 OA 
HETATM   22  C   UNL     1     -10.510  14.432  65.340  1.00  0.00    -0.391 A  
HETATM   23  O   UNL     1     -11.589  16.604  63.853  1.00  0.00    -1.204 OA 
BRANCH  14  24
HETATM   24  O   UNL     1      -7.260  15.326  67.850  1.00  0.00    -0.117 OA 
BRANCH  24  25
HETATM   25  C   UNL     1      -6.851  16.527  68.431  1.00  0.00    -0.145 C  
HETATM   26  O   UNL     1      -7.378  17.079  69.387  1.00  0.00    -0.184 OA 
HETATM   27  C   UNL     1      -5.639  17.040  67.710  1.00  0.00    -0.130 C  
ENDBRANCH  24  25
ENDBRANCH  14  24
ENDBRANCH   4   5
ENDBRANCH   2   4
TORSDOF 4
ENDMDL
MODEL       81
REMARK 921   NORMALIZED FREE ENERGY PREDICTED BY IDOCK:   -4.35 KCAL/MOL
REMARK 922        TOTAL FREE ENERGY PREDICTED BY IDOCK:   -6.02 KCAL/MOL
REMARK 923 INTER-LIGAND FREE ENERGY PREDICTED BY IDOCK:   -5.47 KCAL/MOL
REMARK 924 INTRA-LIGAND FREE ENERGY PREDICTED BY IDOCK:   -0.54 KCAL/MOL
REMARK 927      BINDING AFFINITY PREDICTED BY RF-SCORE:    0.00 PKD
ROOT
HETATM    1  C   UNL     1      -8.159   4.744  69.032  1.00  0.00    -0.078 C  
HETATM    2  C   UNL     1      -9.070   4.050  68.064  1.00  0.00    -0.140 C  
HETATM    3  O   UNL     1      -9.082   2.839  67.881  1.00  0.00    -0.144 OA 
ENDROOT
BRANCH   2   4
HETATM    4  O   UNL     1      -9.931   4.984  67.493  1.00  0.00    -0.164 OA 
BRANCH   4   5
HETATM    5  C   UNL     1      -9.326   6.010  66.733  1.00  0.00    -0.138 A  
HETATM    6  C   UNL     1      -8.618   5.625  65.586  1.00  0.00    -0.150 A  
HETATM    7  C   UNL     1      -8.068   6.585  64.746  1.00  0.00    -0.112 A  
HETATM    8  C   UNL     1      -8.259   7.929  65.033  1.00  0.00    -0.134 A  
HETATM    9  C   UNL     1      -9.000   8.317  66.162  1.00  0.00    -0.222 A  
HETATM   10  C   UNL     1      -9.539   7.365  67.033  1.00  0.00    -0.221 A  
HETATM   11  C   UNL     1     -10.314   7.824  68.217  1.00  0.00    -0.198 C  
HETATM   12  O   UNL     1     -10.758   7.000  69.006  1.00  0.00    -0.218 OA 
HETATM   13  C   UNL     1     -10.539   9.286  68.439  1.00  0.00    -0.234 A  
HETATM   14  C   UNL     1     -11.274   9.783  69.537  1.00  0.00    -0.142 A  
HETATM   15  O   UNL     1      -8.752  10.580  65.602  1.00  0.00    -0.167 OA 
HETATM   16  C   UNL     1     -11.457  11.161  69.736  1.00  0.00    -0.388 A  
HETATM   17  C   UNL     1     -10.927  12.069  68.815  1.00  0.00    -0.282 A  
HETATM   18  C   UNL     1      -9.213   9.757  66.385  1.00  0.00    -0.160 C  
HETATM   19  C   UNL     1     -11.051  13.543  68.972  1.00  0.00    -0.250 C  
HETATM   20  C   UNL     1     -10.001  10.209  67.543  1.00  0.00    -0.231 A  
HETATM   21  O   UNL     1     -12.176  13.955  69.590  1.00  0.00    -0.333 OA 
HETATM   22  C   UNL     1     -10.192  11.589  67.725  1.00  0.00    -0.200 A  
HETATM   23  O   UNL     1     -10.216  14.316  68.536  1.00  0.00    -0.234 OA 
BRANCH  14  24
HETATM   24  O   UNL     1     -11.813   8.824  70.443  1.00  0.00    -0.120 OA 
BRANCH  24  25
HETATM   25  C   UNL     1     -11.369   8.434  71.708  1.00  0.00    -0.300 C  
HETATM   26  O   UNL     1     -10.604   9.061  72.426  1.00  0.00    -0.182 OA 
HETATM   27  C   UNL     1     -11.996   7.119  72.070  1.00  0.00    -0.332 C  
ENDBRANCH  24  25
ENDBRANCH  14  24
ENDBRANCH   4   5
ENDBRANCH   2   4
TORSDOF 4
ENDMDL
MODEL       82
REMARK 921   NORMALIZED FREE ENERGY PREDICTED BY IDOCK:   -4.33 KCAL/MOL
REMARK 922        TOTAL FREE ENERGY PREDICTED BY IDOCK:   -5.99 KCAL/MOL
REMARK 923 INTER-LIGAND FREE ENERGY PREDICTED BY IDOCK:   -5.97 KCAL/MOL
REMARK 924 INTRA-LIGAND FREE ENERGY PREDICTED BY IDOCK:   -0.02 KCAL/MOL
REMARK 927      BINDING AFFINITY PREDICTED BY RF-SCORE:    0.00 PKD
ROOT
HETATM    1  C   UNL     1     -12.072  12.321  64.493  1.00  0.00    -0.462 C  
HETATM    2  C   UNL     1     -12.666  13.192  65.559  1.00  0.00    -0.304 C  
HETATM    3  O   UNL     1     -13.496  14.067  65.345  1.00  0.00    -0.679 OA 
ENDROOT
BRANCH   2   4
HETATM    4  O   UNL     1     -12.189  12.787  66.803  1.00  0.00    -0.470 OA 
BRANCH   4   5
HETATM    5  C   UNL     1     -10.786  12.675  66.928  1.00  0.00    -0.242 A  
HETATM    6  C   UNL     1     -10.002  13.582  66.201  1.00  0.00    -0.310 A  
HETATM    7  C   UNL     1      -8.621  13.585  66.340  1.00  0.00     0.342 A  
HETATM    8  C   UNL     1      -8.026  12.705  67.234  1.00  0.00    -0.166 A  
HETATM    9  C   UNL     1      -8.812  11.821  67.992  1.00  0.00    -0.164 A  
HETATM   10  C   UNL     1     -10.202  11.786  67.846  1.00  0.00    -0.203 A  
HETATM   11  C   UNL     1     -10.992  10.831  68.668  1.00  0.00    -0.239 C  
HETATM   12  O   UNL     1     -12.206  10.766  68.521  1.00  0.00    -0.470 OA 
HETATM   13  C   UNL     1     -10.299   9.952  69.660  1.00  0.00    -0.265 A  
HETATM   14  C   UNL     1     -10.995   9.032  70.476  1.00  0.00    -0.252 A  
HETATM   15  O   UNL     1      -6.911  11.005  69.093  1.00  0.00    -0.074 OA 
HETATM   16  C   UNL     1     -10.321   8.204  71.388  1.00  0.00    -0.258 A  
HETATM   17  C   UNL     1      -8.933   8.304  71.519  1.00  0.00    -0.223 A  
HETATM   18  C   UNL     1      -8.128  10.950  68.962  1.00  0.00    -0.126 C  
HETATM   19  C   UNL     1      -8.146   7.441  72.440  1.00  0.00    -0.101 C  
HETATM   20  C   UNL     1      -8.913  10.021  69.792  1.00  0.00    -0.209 A  
HETATM   21  O   UNL     1      -8.795   7.065  73.560  1.00  0.00    -0.129 OA 
HETATM   22  C   UNL     1      -8.232   9.208  70.714  1.00  0.00    -0.226 A  
HETATM   23  O   UNL     1      -6.988   7.135  72.212  1.00  0.00    -0.063 OA 
BRANCH  14  24
HETATM   24  O   UNL     1     -12.410   8.973  70.324  1.00  0.00     0.210 OA 
BRANCH  24  25
HETATM   25  C   UNL     1     -13.421   9.545  71.098  1.00  0.00    -0.215 C  
HETATM   26  O   UNL     1     -13.532  10.731  71.372  1.00  0.00    -0.216 OA 
HETATM   27  C   UNL     1     -14.379   8.475  71.534  1.00  0.00    -0.451 C  
ENDBRANCH  24  25
ENDBRANCH  14  24
ENDBRANCH   4   5
ENDBRANCH   2   4
TORSDOF 4
ENDMDL
MODEL       83
REMARK 921   NORMALIZED FREE ENERGY PREDICTED BY IDOCK:   -4.25 KCAL/MOL
REMARK 922        TOTAL FREE ENERGY PREDICTED BY IDOCK:   -5.89 KCAL/MOL
REMARK 923 INTER-LIGAND FREE ENERGY PREDICTED BY IDOCK:   -6.03 KCAL/MOL
REMARK 924 INTRA-LIGAND FREE ENERGY PREDICTED BY IDOCK:    0.14 KCAL/MOL
REMARK 927      BINDING AFFINITY PREDICTED BY RF-SCORE:    0.00 PKD
ROOT
HETATM    1  C   UNL     1     -10.668   5.405  67.251  1.00  0.00    -0.180 C  
HETATM    2  C   UNL     1     -10.727   6.102  68.578  1.00  0.00    -0.300 C  
HETATM    3  O   UNL     1     -11.656   5.993  69.369  1.00  0.00    -0.275 OA 
ENDROOT
BRANCH   2   4
HETATM    4  O   UNL     1      -9.541   6.801  68.782  1.00  0.00    -0.134 OA 
BRANCH   4   5
HETATM    5  C   UNL     1      -9.122   7.645  67.728  1.00  0.00    -0.130 A  
HETATM    6  C   UNL     1      -8.468   7.041  66.645  1.00  0.00    -0.121 A  
HETATM    7  C   UNL     1      -8.103   7.795  65.538  1.00  0.00    -0.128 A  
HETATM    8  C   UNL     1      -8.427   9.144  65.497  1.00  0.00    -0.160 A  
HETATM    9  C   UNL     1      -9.116   9.743  66.565  1.00  0.00    -0.182 A  
HETATM   10  C   UNL     1      -9.468   9.005  67.699  1.00  0.00    -0.166 A  
HETATM   11  C   UNL     1     -10.196   9.683  68.806  1.00  0.00    -0.196 C  
HETATM   12  O   UNL     1     -10.476   9.057  69.819  1.00  0.00    -0.207 OA 
HETATM   13  C   UNL     1     -10.572  11.125  68.676  1.00  0.00    -0.222 A  
HETATM   14  C   UNL     1     -11.271  11.821  69.686  1.00  0.00    -0.152 A  
HETATM   15  O   UNL     1      -9.181  11.793  65.430  1.00  0.00    -0.148 OA 
HETATM   16  C   UNL     1     -11.598  13.180  69.551  1.00  0.00    -0.347 A  
HETATM   17  C   UNL     1     -11.253  13.861  68.379  1.00  0.00    -0.291 A  
HETATM   18  C   UNL     1      -9.478  11.164  66.439  1.00  0.00    -0.193 C  
HETATM   19  C   UNL     1     -11.537  15.307  68.174  1.00  0.00    -0.330 C  
HETATM   20  C   UNL     1     -10.219  11.828  67.525  1.00  0.00    -0.214 A  
HETATM   21  O   UNL     1     -12.650  15.759  68.785  1.00  0.00     0.252 OA 
HETATM   22  C   UNL     1     -10.557  13.184  67.373  1.00  0.00    -0.247 A  
HETATM   23  O   UNL     1     -10.836  16.013  67.470  1.00  0.00    -0.317 OA 
BRANCH  14  24
HETATM   24  O   UNL     1     -11.620  11.087  70.857  1.00  0.00    -0.225 OA 
BRANCH  24  25
HETATM   25  C   UNL     1     -12.793  11.105  71.612  1.00  0.00    -0.419 C  
HETATM   26  O   UNL     1     -13.290  12.086  72.146  1.00  0.00    -0.510 OA 
HETATM   27  C   UNL     1     -13.375   9.722  71.658  1.00  0.00    -0.487 C  
ENDBRANCH  24  25
ENDBRANCH  14  24
ENDBRANCH   4   5
ENDBRANCH   2   4
TORSDOF 4
ENDMDL
MODEL       84
REMARK 921   NORMALIZED FREE ENERGY PREDICTED BY IDOCK:   -4.20 KCAL/MOL
REMARK 922        TOTAL FREE ENERGY PREDICTED BY IDOCK:   -5.83 KCAL/MOL
REMARK 923 INTER-LIGAND FREE ENERGY PREDICTED BY IDOCK:   -5.79 KCAL/MOL
REMARK 924 INTRA-LIGAND FREE ENERGY PREDICTED BY IDOCK:   -0.04 KCAL/MOL
REMARK 927      BINDING AFFINITY PREDICTED BY RF-SCORE:    0.00 PKD
ROOT
HETATM    1  C   UNL     1     -13.256  14.453  71.331  1.00  0.00    -0.418 C  
HETATM    2  C   UNL     1     -11.984  15.223  71.135  1.00  0.00    -0.345 C  
HETATM    3  O   UNL     1     -11.780  16.339  71.595  1.00  0.00    -0.480 OA 
ENDROOT
BRANCH   2   4
HETATM    4  O   UNL     1     -11.074  14.435  70.434  1.00  0.00    -0.093 OA 
BRANCH   4   5
HETATM    5  C   UNL     1     -11.199  14.437  69.027  1.00  0.00    -0.264 A  
HETATM    6  C   UNL     1     -12.277  13.729  68.478  1.00  0.00    -0.194 A  
HETATM    7  C   UNL     1     -12.511  13.755  67.109  1.00  0.00    -0.086 A  
HETATM    8  C   UNL     1     -11.688  14.521  66.294  1.00  0.00    -0.364 A  
HETATM    9  C   UNL     1     -10.630  15.261  66.847  1.00  0.00    -0.304 A  
HETATM   10  C   UNL     1     -10.364  15.226  68.219  1.00  0.00    -0.234 A  
HETATM   11  C   UNL     1      -9.230  16.025  68.757  1.00  0.00    -0.224 C  
HETATM   12  O   UNL     1      -8.966  15.972  69.951  1.00  0.00     0.073 OA 
HETATM   13  C   UNL     1      -8.419  16.880  67.837  1.00  0.00    -0.203 A  
HETATM   14  C   UNL     1      -7.338  17.668  68.289  1.00  0.00    -0.234 A  
HETATM   15  O   UNL     1     -10.083  16.133  64.740  1.00  0.00    -0.313 OA 
HETATM   16  C   UNL     1      -6.578  18.449  67.404  1.00  0.00    -0.199 A  
HETATM   17  C   UNL     1      -6.909  18.476  66.045  1.00  0.00    -0.303 A  
HETATM   18  C   UNL     1      -9.826  16.096  65.938  1.00  0.00    -0.353 C  
HETATM   19  C   UNL     1      -6.133  19.254  65.042  1.00  0.00    -0.276 C  
HETATM   20  C   UNL     1      -8.719  16.905  66.476  1.00  0.00    -0.304 A  
HETATM   21  O   UNL     1      -5.573  20.387  65.511  1.00  0.00    -0.172 OA 
HETATM   22  C   UNL     1      -7.975  17.696  65.585  1.00  0.00     0.378 A  
HETATM   23  O   UNL     1      -6.051  18.909  63.876  1.00  0.00    -0.354 OA 
BRANCH  14  24
HETATM   24  O   UNL     1      -7.043  17.627  69.682  1.00  0.00    -0.021 OA 
BRANCH  24  25
HETATM   25  C   UNL     1      -6.056  18.290  70.412  1.00  0.00     0.120 C  
HETATM   26  O   UNL     1      -5.158  17.761  71.052  1.00  0.00    -0.311 OA 
HETATM   27  C   UNL     1      -6.250  19.772  70.278  1.00  0.00    -0.313 C  
ENDBRANCH  24  25
ENDBRANCH  14  24
ENDBRANCH   4   5
ENDBRANCH   2   4
TORSDOF 4
ENDMDL
MODEL       85
REMARK 921   NORMALIZED FREE ENERGY PREDICTED BY IDOCK:   -4.14 KCAL/MOL
REMARK 922        TOTAL FREE ENERGY PREDICTED BY IDOCK:   -5.76 KCAL/MOL
REMARK 923 INTER-LIGAND FREE ENERGY PREDICTED BY IDOCK:   -5.12 KCAL/MOL
REMARK 924 INTRA-LIGAND FREE ENERGY PREDICTED BY IDOCK:   -0.64 KCAL/MOL
REMARK 927      BINDING AFFINITY PREDICTED BY RF-SCORE:    0.00 PKD
ROOT
HETATM    1  C   UNL     1      -9.006   4.379  66.698  1.00  0.00    -0.117 C  
HETATM    2  C   UNL     1      -9.059   5.794  66.204  1.00  0.00    -0.153 C  
HETATM    3  O   UNL     1      -8.611   6.161  65.125  1.00  0.00    -0.132 OA 
ENDROOT
BRANCH   2   4
HETATM    4  O   UNL     1      -9.760   6.574  67.119  1.00  0.00    -0.132 OA 
BRANCH   4   5
HETATM    5  C   UNL     1      -8.984   7.276  68.068  1.00  0.00    -0.131 A  
HETATM    6  C   UNL     1      -8.215   6.513  68.958  1.00  0.00    -0.116 A  
HETATM    7  C   UNL     1      -7.364   7.135  69.862  1.00  0.00    -0.084 A  
HETATM    8  C   UNL     1      -7.253   8.519  69.850  1.00  0.00    -0.051 A  
HETATM    9  C   UNL     1      -7.995   9.284  68.933  1.00  0.00    -0.098 A  
HETATM   10  C   UNL     1      -8.876   8.676  68.034  1.00  0.00    -0.141 A  
HETATM   11  C   UNL     1      -9.641   9.528  67.084  1.00  0.00    -0.160 C  
HETATM   12  O   UNL     1     -10.443   9.009  66.317  1.00  0.00    -0.179 OA 
HETATM   13  C   UNL     1      -9.431  11.009  67.076  1.00  0.00    -0.191 A  
HETATM   14  C   UNL     1     -10.120  11.868  66.193  1.00  0.00    -0.228 A  
HETATM   15  O   UNL     1      -7.004  11.259  69.714  1.00  0.00    -0.106 OA 
HETATM   16  C   UNL     1      -9.921  13.258  66.216  1.00  0.00    -0.291 A  
HETATM   17  C   UNL     1      -9.001  13.811  67.112  1.00  0.00    -0.241 A  
HETATM   18  C   UNL     1      -7.794  10.742  68.933  1.00  0.00    -0.136 C  
HETATM   19  C   UNL     1      -8.759  15.274  67.218  1.00  0.00    -0.197 C  
HETATM   20  C   UNL     1      -8.534  11.582  67.976  1.00  0.00    -0.148 A  
HETATM   21  O   UNL     1      -8.909  15.960  66.067  1.00  0.00    -0.333 OA 
HETATM   22  C   UNL     1      -8.317  12.970  67.996  1.00  0.00    -0.169 A  
HETATM   23  O   UNL     1      -8.408  15.801  68.260  1.00  0.00    -0.156 OA 
BRANCH  14  24
HETATM   24  O   UNL     1     -11.036  11.264  65.283  1.00  0.00    -0.234 OA 
BRANCH  24  25
HETATM   25  C   UNL     1     -11.116  11.360  63.893  1.00  0.00    -0.329 C  
HETATM   26  O   UNL     1     -12.091  11.726  63.253  1.00  0.00    -0.452 OA 
HETATM   27  C   UNL     1      -9.800  10.960  63.291  1.00  0.00    -0.409 C  
ENDBRANCH  24  25
ENDBRANCH  14  24
ENDBRANCH   4   5
ENDBRANCH   2   4
TORSDOF 4
ENDMDL
MODEL       86
REMARK 921   NORMALIZED FREE ENERGY PREDICTED BY IDOCK:   -3.99 KCAL/MOL
REMARK 922        TOTAL FREE ENERGY PREDICTED BY IDOCK:   -5.57 KCAL/MOL
REMARK 923 INTER-LIGAND FREE ENERGY PREDICTED BY IDOCK:   -4.84 KCAL/MOL
REMARK 924 INTRA-LIGAND FREE ENERGY PREDICTED BY IDOCK:   -0.73 KCAL/MOL
REMARK 927      BINDING AFFINITY PREDICTED BY RF-SCORE:    0.00 PKD
ROOT
HETATM    1  C   UNL     1      -5.456   8.294  62.591  1.00  0.00    -0.069 C  
HETATM    2  C   UNL     1      -6.639   8.062  63.483  1.00  0.00    -0.071 C  
HETATM    3  O   UNL     1      -7.469   7.180  63.306  1.00  0.00    -0.078 OA 
ENDROOT
BRANCH   2   4
HETATM    4  O   UNL     1      -6.579   8.941  64.562  1.00  0.00    -0.070 OA 
BRANCH   4   5
HETATM    5  C   UNL     1      -6.534   8.353  65.846  1.00  0.00    -0.053 A  
HETATM    6  C   UNL     1      -5.424   7.550  66.145  1.00  0.00    -0.028 A  
HETATM    7  C   UNL     1      -5.272   7.008  67.414  1.00  0.00    -0.012 A  
HETATM    8  C   UNL     1      -6.209   7.300  68.395  1.00  0.00    -0.035 A  
HETATM    9  C   UNL     1      -7.303   8.134  68.108  1.00  0.00    -0.096 A  
HETATM   10  C   UNL     1      -7.486   8.668  66.829  1.00  0.00    -0.086 A  
HETATM   11  C   UNL     1      -8.660   9.544  66.572  1.00  0.00    -0.134 C  
HETATM   12  O   UNL     1      -8.851   9.986  65.447  1.00  0.00    -0.155 OA 
HETATM   13  C   UNL     1      -9.602   9.873  67.687  1.00  0.00    -0.172 A  
HETATM   14  C   UNL     1     -10.728  10.706  67.508  1.00  0.00    -0.272 A  
HETATM   15  O   UNL     1      -8.050   7.991  70.325  1.00  0.00    -0.108 OA 
HETATM   16  C   UNL     1     -11.609  10.987  68.565  1.00  0.00    -0.380 A  
HETATM   17  C   UNL     1     -11.359  10.456  69.834  1.00  0.00    -0.370 A  
HETATM   18  C   UNL     1      -8.234   8.450  69.204  1.00  0.00    -0.120 C  
HETATM   19  C   UNL     1     -12.262  10.681  70.995  1.00  0.00    -0.393 C  
HETATM   20  C   UNL     1      -9.383   9.337  68.955  1.00  0.00    -0.150 A  
HETATM   21  O   UNL     1     -12.903  11.867  70.993  1.00  0.00    -0.300 OA 
HETATM   22  C   UNL     1     -10.250   9.625  70.022  1.00  0.00    -0.296 A  
HETATM   23  O   UNL     1     -12.376   9.869  71.896  1.00  0.00    -0.380 OA 
BRANCH  14  24
HETATM   24  O   UNL     1     -10.938  11.242  66.205  1.00  0.00    -0.266 OA 
BRANCH  24  25
HETATM   25  C   UNL     1     -10.931  12.567  65.766  1.00  0.00    -0.292 C  
HETATM   26  O   UNL     1     -11.893  13.187  65.337  1.00  0.00    -0.335 OA 
HETATM   27  C   UNL     1      -9.550  13.133  65.919  1.00  0.00    -0.122 C  
ENDBRANCH  24  25
ENDBRANCH  14  24
ENDBRANCH   4   5
ENDBRANCH   2   4
TORSDOF 4
ENDMDL
MODEL       87
REMARK 921   NORMALIZED FREE ENERGY PREDICTED BY IDOCK:   -3.82 KCAL/MOL
REMARK 922        TOTAL FREE ENERGY PREDICTED BY IDOCK:   -5.36 KCAL/MOL
REMARK 923 INTER-LIGAND FREE ENERGY PREDICTED BY IDOCK:   -4.61 KCAL/MOL
REMARK 924 INTRA-LIGAND FREE ENERGY PREDICTED BY IDOCK:   -0.75 KCAL/MOL
REMARK 927      BINDING AFFINITY PREDICTED BY RF-SCORE:    0.00 PKD
ROOT
HETATM    1  C   UNL     1      -9.893  10.846  63.394  1.00  0.00    -0.408 C  
HETATM    2  C   UNL     1     -10.974  11.674  64.022  1.00  0.00    -0.387 C  
HETATM    3  O   UNL     1     -11.690  12.451  63.402  1.00  0.00    -0.468 OA 
ENDROOT
BRANCH   2   4
HETATM    4  O   UNL     1     -11.075  11.351  65.373  1.00  0.00    -0.231 OA 
BRANCH   4   5
HETATM    5  C   UNL     1     -10.077  11.884  66.219  1.00  0.00    -0.220 A  
HETATM    6  C   UNL     1      -9.946  13.280  66.257  1.00  0.00    -0.291 A  
HETATM    7  C   UNL     1      -9.044  13.876  67.128  1.00  0.00    -0.245 A  
HETATM    8  C   UNL     1      -8.300  13.080  67.987  1.00  0.00    -0.169 A  
HETATM    9  C   UNL     1      -8.457  11.683  67.977  1.00  0.00    -0.151 A  
HETATM   10  C   UNL     1      -9.341  11.063  67.090  1.00  0.00    -0.177 A  
HETATM   11  C   UNL     1      -9.471   9.582  67.114  1.00  0.00    -0.149 C  
HETATM   12  O   UNL     1     -10.214   9.026  66.316  1.00  0.00    -0.284 OA 
HETATM   13  C   UNL     1      -8.688   8.782  68.107  1.00  0.00    -0.134 A  
HETATM   14  C   UNL     1      -8.776   7.375  68.186  1.00  0.00    -0.122 A  
HETATM   15  O   UNL     1      -6.923  11.455  69.735  1.00  0.00    -0.086 OA 
HETATM   16  C   UNL     1      -8.018   6.643  69.114  1.00  0.00    -0.112 A  
HETATM   17  C   UNL     1      -7.175   7.316  70.003  1.00  0.00    -0.078 A  
HETATM   18  C   UNL     1      -7.679  10.896  68.949  1.00  0.00    -0.135 C  
HETATM   19  C   UNL     1      -6.318   6.609  70.993  1.00  0.00    -0.041 C  
HETATM   20  C   UNL     1      -7.826   9.432  68.988  1.00  0.00    -0.079 A  
HETATM   21  O   UNL     1      -6.826   5.452  71.461  1.00  0.00    -0.056 OA 
HETATM   22  C   UNL     1      -7.076   8.709  69.932  1.00  0.00    -0.050 A  
HETATM   23  O   UNL     1      -5.257   7.070  71.379  1.00  0.00    -0.026 OA 
BRANCH  14  24
HETATM   24  O   UNL     1      -9.659   6.728  67.274  1.00  0.00    -0.129 OA 
BRANCH  24  25
HETATM   25  C   UNL     1     -10.339   5.515  67.390  1.00  0.00    -0.225 C  
HETATM   26  O   UNL     1     -10.866   5.079  68.403  1.00  0.00     0.168 OA 
HETATM   27  C   UNL     1     -10.344   4.820  66.059  1.00  0.00    -0.328 C  
ENDBRANCH  24  25
ENDBRANCH  14  24
ENDBRANCH   4   5
ENDBRANCH   2   4
TORSDOF 4
ENDMDL
MODEL       88
REMARK 921   NORMALIZED FREE ENERGY PREDICTED BY IDOCK:   -3.81 KCAL/MOL
REMARK 922        TOTAL FREE ENERGY PREDICTED BY IDOCK:   -5.35 KCAL/MOL
REMARK 923 INTER-LIGAND FREE ENERGY PREDICTED BY IDOCK:   -5.14 KCAL/MOL
REMARK 924 INTRA-LIGAND FREE ENERGY PREDICTED BY IDOCK:   -0.21 KCAL/MOL
REMARK 927      BINDING AFFINITY PREDICTED BY RF-SCORE:    0.00 PKD
ROOT
HETATM    1  C   UNL     1      -8.518  13.039  68.116  1.00  0.00    -0.176 C  
HETATM    2  C   UNL     1      -8.253  12.036  67.033  1.00  0.00    -0.169 C  
HETATM    3  O   UNL     1      -7.174  11.908  66.467  1.00  0.00     0.008 OA 
ENDROOT
BRANCH   2   4
HETATM    4  O   UNL     1      -9.384  11.245  66.853  1.00  0.00    -0.173 OA 
BRANCH   4   5
HETATM    5  C   UNL     1      -9.155   9.869  66.625  1.00  0.00    -0.147 A  
HETATM    6  C   UNL     1      -8.473   9.519  65.451  1.00  0.00    -0.157 A  
HETATM    7  C   UNL     1      -8.140   8.194  65.202  1.00  0.00    -0.139 A  
HETATM    8  C   UNL     1      -8.455   7.225  66.145  1.00  0.00    -0.144 A  
HETATM    9  C   UNL     1      -9.106   7.579  67.339  1.00  0.00    -0.135 A  
HETATM   10  C   UNL     1      -9.472   8.904  67.595  1.00  0.00    -0.164 A  
HETATM   11  C   UNL     1     -10.161   9.231  68.872  1.00  0.00    -0.195 C  
HETATM   12  O   UNL     1     -10.519  10.381  69.090  1.00  0.00    -0.199 OA 
HETATM   13  C   UNL     1     -10.417   8.153  69.877  1.00  0.00    -0.226 A  
HETATM   14  C   UNL     1     -11.058   8.401  71.110  1.00  0.00    -0.256 A  
HETATM   15  O   UNL     1      -9.021   5.362  68.094  1.00  0.00    -0.109 OA 
HETATM   16  C   UNL     1     -11.305   7.370  72.031  1.00  0.00    -0.301 A  
HETATM   17  C   UNL     1     -10.886   6.068  71.740  1.00  0.00    -0.312 A  
HETATM   18  C   UNL     1      -9.366   6.516  68.323  1.00  0.00    -0.118 C  
HETATM   19  C   UNL     1     -11.138   4.918  72.650  1.00  0.00    -0.155 C  
HETATM   20  C   UNL     1     -10.026   6.844  69.597  1.00  0.00    -0.179 A  
HETATM   21  O   UNL     1     -11.161   5.226  73.961  1.00  0.00    -0.139 OA 
HETATM   22  C   UNL     1     -10.255   5.808  70.519  1.00  0.00    -0.284 A  
HETATM   23  O   UNL     1     -11.271   3.780  72.235  1.00  0.00     0.423 OA 
BRANCH  14  24
HETATM   24  O   UNL     1     -11.454   9.744  71.376  1.00  0.00    -0.371 OA 
BRANCH  24  25
HETATM   25  C   UNL     1     -12.679  10.250  71.813  1.00  0.00    -0.433 C  
HETATM   26  O   UNL     1     -13.526   9.637  72.446  1.00  0.00    -0.432 OA 
HETATM   27  C   UNL     1     -12.797  11.688  71.399  1.00  0.00    -0.461 C  
ENDBRANCH  24  25
ENDBRANCH  14  24
ENDBRANCH   4   5
ENDBRANCH   2   4
TORSDOF 4
ENDMDL
MODEL       89
REMARK 921   NORMALIZED FREE ENERGY PREDICTED BY IDOCK:   -3.77 KCAL/MOL
REMARK 922        TOTAL FREE ENERGY PREDICTED BY IDOCK:   -5.30 KCAL/MOL
REMARK 923 INTER-LIGAND FREE ENERGY PREDICTED BY IDOCK:   -5.12 KCAL/MOL
REMARK 924 INTRA-LIGAND FREE ENERGY PREDICTED BY IDOCK:   -0.18 KCAL/MOL
REMARK 927      BINDING AFFINITY PREDICTED BY RF-SCORE:    0.00 PKD
ROOT
HETATM    1  C   UNL     1     -13.816  14.245  71.626  1.00  0.00    -0.473 C  
HETATM    2  C   UNL     1     -12.603  13.709  70.926  1.00  0.00    -0.346 C  
HETATM    3  O   UNL     1     -11.478  14.180  71.046  1.00  0.00    -0.082 OA 
ENDROOT
BRANCH   2   4
HETATM    4  O   UNL     1     -12.952  12.568  70.208  1.00  0.00     0.251 OA 
BRANCH   4   5
HETATM    5  C   UNL     1     -12.835  11.338  70.894  1.00  0.00    -0.251 A  
HETATM    6  C   UNL     1     -13.629  11.163  72.037  1.00  0.00    -0.133 A  
HETATM    7  C   UNL     1     -13.628   9.950  72.712  1.00  0.00     0.279 A  
HETATM    8  C   UNL     1     -12.864   8.900  72.223  1.00  0.00    -0.475 A  
HETATM    9  C   UNL     1     -12.096   9.061  71.057  1.00  0.00    -0.304 A  
HETATM   10  C   UNL     1     -12.065  10.283  70.379  1.00  0.00    -0.373 A  
HETATM   11  C   UNL     1     -11.236  10.407  69.150  1.00  0.00    -0.246 C  
HETATM   12  O   UNL     1     -11.171  11.483  68.569  1.00  0.00    -0.215 OA 
HETATM   13  C   UNL     1     -10.483   9.221  68.637  1.00  0.00    -0.236 A  
HETATM   14  C   UNL     1      -9.687   9.273  67.471  1.00  0.00    -0.158 A  
HETATM   15  O   UNL     1     -11.402   6.825  71.152  1.00  0.00    -0.266 OA 
HETATM   16  C   UNL     1      -8.974   8.151  67.018  1.00  0.00    -0.160 A  
HETATM   17  C   UNL     1      -9.069   6.943  67.715  1.00  0.00    -0.118 A  
HETATM   18  C   UNL     1     -11.348   7.896  70.559  1.00  0.00    -0.234 C  
HETATM   19  C   UNL     1      -8.321   5.721  67.316  1.00  0.00    -0.104 C  
HETATM   20  C   UNL     1     -10.547   8.012  69.329  1.00  0.00    -0.193 A  
HETATM   21  O   UNL     1      -8.103   5.595  65.992  1.00  0.00    -0.104 OA 
HETATM   22  C   UNL     1      -9.850   6.880  68.874  1.00  0.00    -0.147 A  
HETATM   23  O   UNL     1      -7.971   4.880  68.127  1.00  0.00    -0.086 OA 
BRANCH  14  24
HETATM   24  O   UNL     1      -9.631  10.517  66.780  1.00  0.00    -0.163 OA 
BRANCH  24  25
HETATM   25  C   UNL     1     -10.231  10.908  65.582  1.00  0.00    -0.263 C  
HETATM   26  O   UNL     1     -11.301  11.489  65.470  1.00  0.00    -0.214 OA 
HETATM   27  C   UNL     1      -9.346  10.519  64.433  1.00  0.00    -0.307 C  
ENDBRANCH  24  25
ENDBRANCH  14  24
ENDBRANCH   4   5
ENDBRANCH   2   4
TORSDOF 4
ENDMDL
MODEL       90
REMARK 921   NORMALIZED FREE ENERGY PREDICTED BY IDOCK:   -3.74 KCAL/MOL
REMARK 922        TOTAL FREE ENERGY PREDICTED BY IDOCK:   -5.26 KCAL/MOL
REMARK 923 INTER-LIGAND FREE ENERGY PREDICTED BY IDOCK:   -4.71 KCAL/MOL
REMARK 924 INTRA-LIGAND FREE ENERGY PREDICTED BY IDOCK:   -0.56 KCAL/MOL
REMARK 927      BINDING AFFINITY PREDICTED BY RF-SCORE:    0.00 PKD
ROOT
HETATM    1  C   UNL     1      -9.160  13.780  67.645  1.00  0.00    -0.196 C  
HETATM    2  C   UNL     1      -9.781  12.505  67.156  1.00  0.00    -0.205 C  
HETATM    3  O   UNL     1     -10.690  12.455  66.337  1.00  0.00    -0.239 OA 
ENDROOT
BRANCH   2   4
HETATM    4  O   UNL     1      -9.105  11.422  67.712  1.00  0.00    -0.151 OA 
BRANCH   4   5
HETATM    5  C   UNL     1      -8.662  10.430  66.808  1.00  0.00    -0.127 A  
HETATM    6  C   UNL     1      -7.990  10.865  65.657  1.00  0.00    -0.037 A  
HETATM    7  C   UNL     1      -7.454   9.944  64.767  1.00  0.00    -0.136 A  
HETATM    8  C   UNL     1      -7.558   8.588  65.048  1.00  0.00    -0.093 A  
HETATM    9  C   UNL     1      -8.199   8.151  66.219  1.00  0.00    -0.114 A  
HETATM   10  C   UNL     1      -8.766   9.063  67.114  1.00  0.00    -0.123 A  
HETATM   11  C   UNL     1      -9.437   8.553  68.340  1.00  0.00    -0.135 C  
HETATM   12  O   UNL     1      -9.970   9.340  69.110  1.00  0.00    -0.169 OA 
HETATM   13  C   UNL     1      -9.461   7.083  68.618  1.00  0.00    -0.135 A  
HETATM   14  C   UNL     1     -10.073   6.539  69.768  1.00  0.00    -0.178 A  
HETATM   15  O   UNL     1      -7.710   5.917  65.705  1.00  0.00    -0.090 OA 
HETATM   16  C   UNL     1     -10.100   5.154  70.000  1.00  0.00    -0.345 A  
HETATM   17  C   UNL     1      -9.485   4.288  69.091  1.00  0.00    -0.245 A  
HETATM   18  C   UNL     1      -8.230   6.704  66.487  1.00  0.00    -0.114 C  
HETATM   19  C   UNL     1      -9.499   2.809  69.250  1.00  0.00    -0.075 C  
HETATM   20  C   UNL     1      -8.873   6.201  67.713  1.00  0.00    -0.110 A  
HETATM   21  O   UNL     1      -9.508   2.376  70.527  1.00  0.00    -0.136 OA 
HETATM   22  C   UNL     1      -8.880   4.815  67.945  1.00  0.00    -0.114 A  
HETATM   23  O   UNL     1      -9.461   2.052  68.295  1.00  0.00    -0.196 OA 
BRANCH  14  24
HETATM   24  O   UNL     1     -10.672   7.456  70.679  1.00  0.00    -0.221 OA 
BRANCH  24  25
HETATM   25  C   UNL     1     -11.737   7.277  71.564  1.00  0.00    -0.289 C  
HETATM   26  O   UNL     1     -12.824   6.788  71.291  1.00  0.00    -0.326 OA 
HETATM   27  C   UNL     1     -11.337   7.764  72.926  1.00  0.00    -0.406 C  
ENDBRANCH  24  25
ENDBRANCH  14  24
ENDBRANCH   4   5
ENDBRANCH   2   4
TORSDOF 4
ENDMDL
MODEL       91
REMARK 921   NORMALIZED FREE ENERGY PREDICTED BY IDOCK:   -3.71 KCAL/MOL
REMARK 922        TOTAL FREE ENERGY PREDICTED BY IDOCK:   -5.22 KCAL/MOL
REMARK 923 INTER-LIGAND FREE ENERGY PREDICTED BY IDOCK:   -5.01 KCAL/MOL
REMARK 924 INTRA-LIGAND FREE ENERGY PREDICTED BY IDOCK:   -0.21 KCAL/MOL
REMARK 927      BINDING AFFINITY PREDICTED BY RF-SCORE:    0.00 PKD
ROOT
HETATM    1  C   UNL     1      -9.585   3.505  67.314  1.00  0.00    -0.166 C  
HETATM    2  C   UNL     1      -9.840   4.829  66.657  1.00  0.00    -0.214 C  
HETATM    3  O   UNL     1      -9.367   5.161  65.578  1.00  0.00    -0.161 OA 
ENDROOT
BRANCH   2   4
HETATM    4  O   UNL     1     -10.748   5.554  67.424  1.00  0.00    -0.228 OA 
BRANCH   4   5
HETATM    5  C   UNL     1     -10.253   6.100  68.629  1.00  0.00    -0.181 A  
HETATM    6  C   UNL     1     -10.171   5.243  69.736  1.00  0.00    -0.364 A  
HETATM    7  C   UNL     1      -9.617   5.688  70.929  1.00  0.00    -0.212 A  
HETATM    8  C   UNL     1      -9.111   6.979  71.003  1.00  0.00    -0.151 A  
HETATM    9  C   UNL     1      -9.159   7.827  69.884  1.00  0.00    -0.147 A  
HETATM   10  C   UNL     1      -9.736   7.405  68.683  1.00  0.00    -0.152 A  
HETATM   11  C   UNL     1      -9.766   8.340  67.526  1.00  0.00    -0.165 C  
HETATM   12  O   UNL     1     -10.302   7.993  66.482  1.00  0.00    -0.260 OA 
HETATM   13  C   UNL     1      -9.148   9.696  67.649  1.00  0.00    -0.141 A  
HETATM   14  C   UNL     1      -9.136  10.624  66.585  1.00  0.00    -0.160 A  
HETATM   15  O   UNL     1      -8.037   9.515  71.062  1.00  0.00    -0.312 OA 
HETATM   16  C   UNL     1      -8.566  11.899  66.728  1.00  0.00    -0.181 A  
HETATM   17  C   UNL     1      -7.969  12.258  67.941  1.00  0.00    -0.152 A  
HETATM   18  C   UNL     1      -8.558   9.166  70.009  1.00  0.00    -0.163 C  
HETATM   19  C   UNL     1      -7.373  13.600  68.180  1.00  0.00    -0.121 C  
HETATM   20  C   UNL     1      -8.567  10.082  68.856  1.00  0.00    -0.138 A  
HETATM   21  O   UNL     1      -6.838  14.186  67.091  1.00  0.00    -0.165 OA 
HETATM   22  C   UNL     1      -7.979  11.349  69.004  1.00  0.00    -0.026 A  
HETATM   23  O   UNL     1      -7.337  14.106  69.289  1.00  0.00    -0.101 OA 
BRANCH  14  24
HETATM   24  O   UNL     1      -9.738  10.214  65.360  1.00  0.00    -0.247 OA 
BRANCH  24  25
HETATM   25  C   UNL     1      -9.174  10.044  64.095  1.00  0.00    -0.271 C  
HETATM   26  O   UNL     1      -9.628  10.471  63.043  1.00  0.00    -0.307 OA 
HETATM   27  C   UNL     1      -7.899   9.262  64.220  1.00  0.00    -0.125 C  
ENDBRANCH  24  25
ENDBRANCH  14  24
ENDBRANCH   4   5
ENDBRANCH   2   4
TORSDOF 4
ENDMDL
MODEL       92
REMARK 921   NORMALIZED FREE ENERGY PREDICTED BY IDOCK:   -3.65 KCAL/MOL
REMARK 922        TOTAL FREE ENERGY PREDICTED BY IDOCK:   -5.15 KCAL/MOL
REMARK 923 INTER-LIGAND FREE ENERGY PREDICTED BY IDOCK:   -5.05 KCAL/MOL
REMARK 924 INTRA-LIGAND FREE ENERGY PREDICTED BY IDOCK:   -0.11 KCAL/MOL
REMARK 927      BINDING AFFINITY PREDICTED BY RF-SCORE:    0.00 PKD
ROOT
HETATM    1  C   UNL     1     -12.934  11.321  71.603  1.00  0.00    -0.537 C  
HETATM    2  C   UNL     1     -12.786   9.830  71.531  1.00  0.00    -0.406 C  
HETATM    3  O   UNL     1     -13.696   9.064  71.242  1.00  0.00    -0.318 OA 
ENDROOT
BRANCH   2   4
HETATM    4  O   UNL     1     -11.455   9.490  71.759  1.00  0.00    -0.384 OA 
BRANCH   4   5
HETATM    5  C   UNL     1     -11.087   8.162  71.446  1.00  0.00    -0.247 A  
HETATM    6  C   UNL     1     -11.771   7.133  72.110  1.00  0.00    -0.322 A  
HETATM    7  C   UNL     1     -11.520   5.805  71.793  1.00  0.00    -0.199 A  
HETATM    8  C   UNL     1     -10.614   5.507  70.784  1.00  0.00    -0.320 A  
HETATM    9  C   UNL     1      -9.956   6.537  70.092  1.00  0.00    -0.190 A  
HETATM   10  C   UNL     1     -10.176   7.879  70.416  1.00  0.00    -0.197 A  
HETATM   11  C   UNL     1      -9.454   8.935  69.656  1.00  0.00    -0.168 C  
HETATM   12  O   UNL     1      -9.611  10.111  69.956  1.00  0.00    -0.200 OA 
HETATM   13  C   UNL     1      -8.537   8.552  68.537  1.00  0.00    -0.138 A  
HETATM   14  C   UNL     1      -7.832   9.508  67.774  1.00  0.00    -0.095 A  
HETATM   15  O   UNL     1      -8.879   4.979  68.710  1.00  0.00    -0.092 OA 
HETATM   16  C   UNL     1      -6.963   9.125  66.740  1.00  0.00    -0.081 A  
HETATM   17  C   UNL     1      -6.806   7.770  66.434  1.00  0.00    -0.062 A  
HETATM   18  C   UNL     1      -9.047   6.159  68.997  1.00  0.00    -0.124 C  
HETATM   19  C   UNL     1      -5.881   7.284  65.375  1.00  0.00    -0.037 C  
HETATM   20  C   UNL     1      -8.351   7.205  68.230  1.00  0.00    -0.124 A  
HETATM   21  O   UNL     1      -5.722   8.122  64.331  1.00  0.00    -0.050 OA 
HETATM   22  C   UNL     1      -7.496   6.813  67.186  1.00  0.00    -0.091 A  
HETATM   23  O   UNL     1      -5.344   6.191  65.433  1.00  0.00    -0.013 OA 
BRANCH  14  24
HETATM   24  O   UNL     1      -8.032  10.879  68.106  1.00  0.00    -0.108 OA 
BRANCH  24  25
HETATM   25  C   UNL     1      -8.874  11.830  67.527  1.00  0.00    -0.162 C  
HETATM   26  O   UNL     1      -9.989  11.620  67.071  1.00  0.00    -0.200 OA 
HETATM   27  C   UNL     1      -8.206  13.173  67.565  1.00  0.00    -0.183 C  
ENDBRANCH  24  25
ENDBRANCH  14  24
ENDBRANCH   4   5
ENDBRANCH   2   4
TORSDOF 4
ENDMDL
MODEL       93
REMARK 921   NORMALIZED FREE ENERGY PREDICTED BY IDOCK:   -3.65 KCAL/MOL
REMARK 922        TOTAL FREE ENERGY PREDICTED BY IDOCK:   -5.15 KCAL/MOL
REMARK 923 INTER-LIGAND FREE ENERGY PREDICTED BY IDOCK:   -4.71 KCAL/MOL
REMARK 924 INTRA-LIGAND FREE ENERGY PREDICTED BY IDOCK:   -0.44 KCAL/MOL
REMARK 927      BINDING AFFINITY PREDICTED BY RF-SCORE:    0.00 PKD
ROOT
HETATM    1  C   UNL     1     -11.695  10.434  68.280  1.00  0.00     0.047 C  
HETATM    2  C   UNL     1     -11.878  10.859  69.707  1.00  0.00    -0.345 C  
HETATM    3  O   UNL     1     -12.679  10.345  70.478  1.00  0.00    -0.324 OA 
ENDROOT
BRANCH   2   4
HETATM    4  O   UNL     1     -10.948  11.849  70.014  1.00  0.00     0.119 OA 
BRANCH   4   5
HETATM    5  C   UNL     1     -11.438  13.173  70.063  1.00  0.00    -0.024 A  
HETATM    6  C   UNL     1     -12.527  13.423  70.911  1.00  0.00    -0.439 A  
HETATM    7  C   UNL     1     -13.008  14.715  71.074  1.00  0.00    -0.419 A  
HETATM    8  C   UNL     1     -12.376  15.763  70.419  1.00  0.00    -0.367 A  
HETATM    9  C   UNL     1     -11.261  15.520  69.598  1.00  0.00    -0.301 A  
HETATM   10  C   UNL     1     -10.780  14.222  69.402  1.00  0.00    -0.155 A  
HETATM   11  C   UNL     1      -9.598  14.014  68.522  1.00  0.00    -0.201 C  
HETATM   12  O   UNL     1      -9.191  12.879  68.314  1.00  0.00    -0.204 OA 
HETATM   13  C   UNL     1      -8.922  15.191  67.893  1.00  0.00    -0.174 A  
HETATM   14  C   UNL     1      -7.792  15.059  67.057  1.00  0.00    -0.129 A  
HETATM   15  O   UNL     1     -11.023  17.812  69.169  1.00  0.00     0.264 OA 
HETATM   16  C   UNL     1      -7.183  16.176  66.462  1.00  0.00     0.044 A  
HETATM   17  C   UNL     1      -7.684  17.456  66.720  1.00  0.00    -0.273 A  
HETATM   18  C   UNL     1     -10.602  16.678  68.972  1.00  0.00    -0.340 C  
HETATM   19  C   UNL     1      -7.114  18.684  66.104  1.00  0.00    -0.260 C  
HETATM   20  C   UNL     1      -9.418  16.473  68.121  1.00  0.00    -0.222 A  
HETATM   21  O   UNL     1      -5.791  18.633  65.857  1.00  0.00    -0.154 OA 
HETATM   22  C   UNL     1      -8.806  17.599  67.543  1.00  0.00    -0.231 A  
HETATM   23  O   UNL     1      -7.792  19.673  65.881  1.00  0.00    -0.336 OA 
BRANCH  14  24
HETATM   24  O   UNL     1      -7.301  13.740  66.833  1.00  0.00     0.163 OA 
BRANCH  24  25
HETATM   25  C   UNL     1      -6.182  13.096  67.361  1.00  0.00    -0.035 C  
HETATM   26  O   UNL     1      -5.495  12.262  66.789  1.00  0.00    -0.329 OA 
HETATM   27  C   UNL     1      -5.930  13.599  68.753  1.00  0.00    -0.084 C  
ENDBRANCH  24  25
ENDBRANCH  14  24
ENDBRANCH   4   5
ENDBRANCH   2   4
TORSDOF 4
ENDMDL
MODEL       94
REMARK 921   NORMALIZED FREE ENERGY PREDICTED BY IDOCK:   -3.64 KCAL/MOL
REMARK 922        TOTAL FREE ENERGY PREDICTED BY IDOCK:   -5.13 KCAL/MOL
REMARK 923 INTER-LIGAND FREE ENERGY PREDICTED BY IDOCK:   -5.66 KCAL/MOL
REMARK 924 INTRA-LIGAND FREE ENERGY PREDICTED BY IDOCK:    0.53 KCAL/MOL
REMARK 927      BINDING AFFINITY PREDICTED BY RF-SCORE:    0.00 PKD
ROOT
HETATM    1  C   UNL     1      -6.928  20.388  68.655  1.00  0.00    -0.146 C  
HETATM    2  C   UNL     1      -7.536  19.491  69.692  1.00  0.00     0.103 C  
HETATM    3  O   UNL     1      -6.891  18.888  70.540  1.00  0.00     0.517 OA 
ENDROOT
BRANCH   2   4
HETATM    4  O   UNL     1      -8.924  19.534  69.580  1.00  0.00    -0.042 OA 
BRANCH   4   5
HETATM    5  C   UNL     1      -9.444  19.573  68.267  1.00  0.00    -0.366 A  
HETATM    6  C   UNL     1      -9.258  20.757  67.539  1.00  0.00    -0.325 A  
HETATM    7  C   UNL     1      -9.669  20.838  66.215  1.00  0.00     0.171 A  
HETATM    8  C   UNL     1     -10.231  19.724  65.608  1.00  0.00    -0.360 A  
HETATM    9  C   UNL     1     -10.385  18.525  66.325  1.00  0.00    -0.459 A  
HETATM   10  C   UNL     1     -10.001  18.433  67.666  1.00  0.00    -0.355 A  
HETATM   11  C   UNL     1     -10.185  17.143  68.384  1.00  0.00    -0.340 C  
HETATM   12  O   UNL     1      -9.887  17.062  69.569  1.00  0.00    -0.086 OA 
HETATM   13  C   UNL     1     -10.738  15.958  67.658  1.00  0.00    -0.312 A  
HETATM   14  C   UNL     1     -10.928  14.706  68.281  1.00  0.00    -0.252 A  
HETATM   15  O   UNL     1     -11.252  17.452  64.430  1.00  0.00    -0.978 OA 
HETATM   16  C   UNL     1     -11.466  13.612  67.585  1.00  0.00    -0.357 A  
HETATM   17  C   UNL     1     -11.801  13.749  66.234  1.00  0.00    -0.426 A  
HETATM   18  C   UNL     1     -10.938  17.362  65.611  1.00  0.00     0.143 C  
HETATM   19  C   UNL     1     -12.404  12.647  65.437  1.00  0.00    -0.436 C  
HETATM   20  C   UNL     1     -11.098  16.080  66.316  1.00  0.00     0.037 A  
HETATM   21  O   UNL     1     -12.024  11.407  65.803  1.00  0.00    -0.024 OA 
HETATM   22  C   UNL     1     -11.622  14.986  65.606  1.00  0.00    -0.188 A  
HETATM   23  O   UNL     1     -13.152  12.859  64.498  1.00  0.00    -0.728 OA 
BRANCH  14  24
HETATM   24  O   UNL     1     -10.558  14.603  69.653  1.00  0.00    -0.202 OA 
BRANCH  24  25
HETATM   25  C   UNL     1     -11.306  14.188  70.757  1.00  0.00     0.205 C  
HETATM   26  O   UNL     1     -12.052  13.221  70.797  1.00  0.00    -0.341 OA 
HETATM   27  C   UNL     1     -11.038  15.109  71.912  1.00  0.00    -0.116 C  
ENDBRANCH  24  25
ENDBRANCH  14  24
ENDBRANCH   4   5
ENDBRANCH   2   4
TORSDOF 4
ENDMDL
MODEL       95
REMARK 921   NORMALIZED FREE ENERGY PREDICTED BY IDOCK:   -3.55 KCAL/MOL
REMARK 922        TOTAL FREE ENERGY PREDICTED BY IDOCK:   -5.02 KCAL/MOL
REMARK 923 INTER-LIGAND FREE ENERGY PREDICTED BY IDOCK:   -4.81 KCAL/MOL
REMARK 924 INTRA-LIGAND FREE ENERGY PREDICTED BY IDOCK:   -0.21 KCAL/MOL
REMARK 927      BINDING AFFINITY PREDICTED BY RF-SCORE:    0.00 PKD
ROOT
HETATM    1  C   UNL     1     -11.472  13.648  64.101  1.00  0.00    -0.359 C  
HETATM    2  C   UNL     1     -12.264  14.693  64.828  1.00  0.00    -0.394 C  
HETATM    3  O   UNL     1     -13.239  15.265  64.356  1.00  0.00     0.043 OA 
ENDROOT
BRANCH   2   4
HETATM    4  O   UNL     1     -11.767  14.830  66.121  1.00  0.00    -0.342 OA 
BRANCH   4   5
HETATM    5  C   UNL     1     -10.374  15.034  66.237  1.00  0.00    -0.296 A  
HETATM    6  C   UNL     1      -9.863  16.252  65.768  1.00  0.00    -0.332 A  
HETATM    7  C   UNL     1      -8.517  16.556  65.925  1.00  0.00    -0.016 A  
HETATM    8  C   UNL     1      -7.690  15.658  66.585  1.00  0.00    -0.068 A  
HETATM    9  C   UNL     1      -8.207  14.453  67.089  1.00  0.00    -0.202 A  
HETATM   10  C   UNL     1      -9.554  14.119  66.917  1.00  0.00    -0.275 A  
HETATM   11  C   UNL     1     -10.056  12.830  67.466  1.00  0.00    -0.213 C  
HETATM   12  O   UNL     1     -11.224  12.511  67.289  1.00  0.00    -0.264 OA 
HETATM   13  C   UNL     1      -9.129  11.932  68.223  1.00  0.00    -0.183 A  
HETATM   14  C   UNL     1      -9.548  10.702  68.776  1.00  0.00    -0.186 A  
HETATM   15  O   UNL     1      -6.119  13.880  67.986  1.00  0.00    -0.114 OA 
HETATM   16  C   UNL     1      -8.656   9.867  69.468  1.00  0.00    -0.194 A  
HETATM   17  C   UNL     1      -7.327  10.265  69.641  1.00  0.00    -0.150 A  
HETATM   18  C   UNL     1      -7.292  13.565  67.826  1.00  0.00    -0.163 C  
HETATM   19  C   UNL     1      -6.316   9.422  70.334  1.00  0.00    -0.066 C  
HETATM   20  C   UNL     1      -7.795  12.302  68.390  1.00  0.00    -0.151 A  
HETATM   21  O   UNL     1      -6.806   8.641  71.317  1.00  0.00    -0.061 OA 
HETATM   22  C   UNL     1      -6.899  11.480  69.094  1.00  0.00    -0.112 A  
HETATM   23  O   UNL     1      -5.130   9.471  70.056  1.00  0.00    -0.032 OA 
BRANCH  14  24
HETATM   24  O   UNL     1     -10.913  10.340  68.593  1.00  0.00    -0.226 OA 
BRANCH  24  25
HETATM   25  C   UNL     1     -11.987  10.402  69.483  1.00  0.00    -0.103 C  
HETATM   26  O   UNL     1     -13.031  11.014  69.309  1.00  0.00    -0.024 OA 
HETATM   27  C   UNL     1     -11.673   9.576  70.697  1.00  0.00    -0.330 C  
ENDBRANCH  24  25
ENDBRANCH  14  24
ENDBRANCH   4   5
ENDBRANCH   2   4
TORSDOF 4
ENDMDL
MODEL       96
REMARK 921   NORMALIZED FREE ENERGY PREDICTED BY IDOCK:   -3.53 KCAL/MOL
REMARK 922        TOTAL FREE ENERGY PREDICTED BY IDOCK:   -5.00 KCAL/MOL
REMARK 923 INTER-LIGAND FREE ENERGY PREDICTED BY IDOCK:   -4.89 KCAL/MOL
REMARK 924 INTRA-LIGAND FREE ENERGY PREDICTED BY IDOCK:   -0.11 KCAL/MOL
REMARK 927      BINDING AFFINITY PREDICTED BY RF-SCORE:    0.00 PKD
ROOT
HETATM    1  C   UNL     1      -8.879   7.569  74.249  1.00  0.00    -0.247 C  
HETATM    2  C   UNL     1      -9.098   8.095  72.862  1.00  0.00    -0.267 C  
HETATM    3  O   UNL     1      -8.372   8.919  72.318  1.00  0.00    -0.384 OA 
ENDROOT
BRANCH   2   4
HETATM    4  O   UNL     1     -10.184   7.440  72.288  1.00  0.00    -0.190 OA 
BRANCH   4   5
HETATM    5  C   UNL     1     -10.009   6.066  72.007  1.00  0.00    -0.170 A  
HETATM    6  C   UNL     1     -10.237   5.163  73.055  1.00  0.00    -0.217 A  
HETATM    7  C   UNL     1     -10.164   3.795  72.831  1.00  0.00    -0.233 A  
HETATM    8  C   UNL     1      -9.902   3.329  71.550  1.00  0.00    -0.206 A  
HETATM    9  C   UNL     1      -9.710   4.232  70.490  1.00  0.00    -0.282 A  
HETATM   10  C   UNL     1      -9.754   5.613  70.703  1.00  0.00    -0.232 A  
HETATM   11  C   UNL     1      -9.542   6.530  69.550  1.00  0.00    -0.145 C  
HETATM   12  O   UNL     1      -9.541   7.740  69.732  1.00  0.00    -0.167 OA 
HETATM   13  C   UNL     1      -9.326   5.967  68.181  1.00  0.00    -0.115 A  
HETATM   14  C   UNL     1      -9.129   6.785  67.047  1.00  0.00    -0.131 A  
HETATM   15  O   UNL     1      -9.473   2.464  68.969  1.00  0.00    -0.148 OA 
HETATM   16  C   UNL     1      -8.910   6.234  65.774  1.00  0.00    -0.122 A  
HETATM   17  C   UNL     1      -8.911   4.846  65.611  1.00  0.00    -0.146 A  
HETATM   18  C   UNL     1      -9.488   3.677  69.145  1.00  0.00    -0.165 C  
HETATM   19  C   UNL     1      -8.655   4.188  64.301  1.00  0.00    -0.112 C  
HETATM   20  C   UNL     1      -9.303   4.585  68.000  1.00  0.00    -0.182 A  
HETATM   21  O   UNL     1      -9.070   4.885  63.225  1.00  0.00    -0.091 OA 
HETATM   22  C   UNL     1      -9.100   4.025  66.728  1.00  0.00    -0.153 A  
HETATM   23  O   UNL     1      -8.148   3.082  64.219  1.00  0.00    -0.081 OA 
BRANCH  14  24
HETATM   24  O   UNL     1      -9.152   8.194  67.252  1.00  0.00    -0.134 OA 
BRANCH  24  25
HETATM   25  C   UNL     1      -9.780   9.200  66.515  1.00  0.00    -0.241 C  
HETATM   26  O   UNL     1      -9.398   9.653  65.446  1.00  0.00    -0.221 OA 
HETATM   27  C   UNL     1     -11.024   9.637  67.232  1.00  0.00    -0.107 C  
ENDBRANCH  24  25
ENDBRANCH  14  24
ENDBRANCH   4   5
ENDBRANCH   2   4
TORSDOF 4
ENDMDL
MODEL       97
REMARK 921   NORMALIZED FREE ENERGY PREDICTED BY IDOCK:   -3.52 KCAL/MOL
REMARK 922        TOTAL FREE ENERGY PREDICTED BY IDOCK:   -4.99 KCAL/MOL
REMARK 923 INTER-LIGAND FREE ENERGY PREDICTED BY IDOCK:   -4.47 KCAL/MOL
REMARK 924 INTRA-LIGAND FREE ENERGY PREDICTED BY IDOCK:   -0.52 KCAL/MOL
REMARK 927      BINDING AFFINITY PREDICTED BY RF-SCORE:    0.00 PKD
ROOT
HETATM    1  C   UNL     1     -12.046   8.805  71.478  1.00  0.00    -0.388 C  
HETATM    2  C   UNL     1     -11.042   8.079  72.323  1.00  0.00    -0.331 C  
HETATM    3  O   UNL     1     -11.293   7.589  73.417  1.00  0.00    -0.249 OA 
ENDROOT
BRANCH   2   4
HETATM    4  O   UNL     1      -9.839   7.986  71.628  1.00  0.00    -0.158 OA 
BRANCH   4   5
HETATM    5  C   UNL     1      -9.655   6.822  70.848  1.00  0.00    -0.168 A  
HETATM    6  C   UNL     1      -9.945   5.591  71.454  1.00  0.00    -0.241 A  
HETATM    7  C   UNL     1      -9.867   4.414  70.723  1.00  0.00    -0.273 A  
HETATM    8  C   UNL     1      -9.537   4.470  69.376  1.00  0.00    -0.264 A  
HETATM    9  C   UNL     1      -9.282   5.706  68.758  1.00  0.00    -0.133 A  
HETATM   10  C   UNL     1      -9.330   6.899  69.484  1.00  0.00    -0.147 A  
HETATM   11  C   UNL     1      -9.051   8.183  68.787  1.00  0.00    -0.144 C  
HETATM   12  O   UNL     1      -9.053   9.230  69.421  1.00  0.00    -0.141 OA 
HETATM   13  C   UNL     1      -8.762   8.185  67.319  1.00  0.00    -0.125 A  
HETATM   14  C   UNL     1      -8.498   9.371  66.599  1.00  0.00    -0.126 A  
HETATM   15  O   UNL     1      -8.970   4.654  66.686  1.00  0.00    -0.111 OA 
HETATM   16  C   UNL     1      -8.212   9.348  65.225  1.00  0.00    -0.133 A  
HETATM   17  C   UNL     1      -8.211   8.130  64.538  1.00  0.00    -0.118 A  
HETATM   18  C   UNL     1      -8.989   5.706  67.315  1.00  0.00    -0.111 C  
HETATM   19  C   UNL     1      -7.887   8.020  63.091  1.00  0.00    -0.148 C  
HETATM   20  C   UNL     1      -8.736   6.979  66.620  1.00  0.00    -0.131 A  
HETATM   21  O   UNL     1      -8.237   9.088  62.348  1.00  0.00    -0.147 OA 
HETATM   22  C   UNL     1      -8.466   6.947  65.242  1.00  0.00    -0.062 A  
HETATM   23  O   UNL     1      -7.381   7.019  62.613  1.00  0.00    -0.064 OA 
BRANCH  14  24
HETATM   24  O   UNL     1      -8.525  10.593  67.331  1.00  0.00    -0.122 OA 
BRANCH  24  25
HETATM   25  C   UNL     1      -7.606  11.643  67.361  1.00  0.00    -0.139 C  
HETATM   26  O   UNL     1      -6.567  11.708  66.720  1.00  0.00    -0.138 OA 
HETATM   27  C   UNL     1      -8.099  12.708  68.297  1.00  0.00    -0.161 C  
ENDBRANCH  24  25
ENDBRANCH  14  24
ENDBRANCH   4   5
ENDBRANCH   2   4
TORSDOF 4
ENDMDL
MODEL       98
REMARK 921   NORMALIZED FREE ENERGY PREDICTED BY IDOCK:   -3.43 KCAL/MOL
REMARK 922        TOTAL FREE ENERGY PREDICTED BY IDOCK:   -4.88 KCAL/MOL
REMARK 923 INTER-LIGAND FREE ENERGY PREDICTED BY IDOCK:   -4.73 KCAL/MOL
REMARK 924 INTRA-LIGAND FREE ENERGY PREDICTED BY IDOCK:   -0.15 KCAL/MOL
REMARK 927      BINDING AFFINITY PREDICTED BY RF-SCORE:    0.00 PKD
ROOT
HETATM    1  C   UNL     1      -8.355   8.474  69.615  1.00  0.00    -0.121 C  
HETATM    2  C   UNL     1      -6.952   8.218  69.151  1.00  0.00    -0.063 C  
HETATM    3  O   UNL     1      -6.249   7.304  69.563  1.00  0.00    -0.030 OA 
ENDROOT
BRANCH   2   4
HETATM    4  O   UNL     1      -6.631   9.120  68.139  1.00  0.00    -0.059 OA 
BRANCH   4   5
HETATM    5  C   UNL     1      -7.691   9.510  67.290  1.00  0.00    -0.091 A  
HETATM    6  C   UNL     1      -8.332   8.500  66.559  1.00  0.00    -0.113 A  
HETATM    7  C   UNL     1      -9.434   8.798  65.769  1.00  0.00    -0.239 A  
HETATM    8  C   UNL     1      -9.919  10.099  65.740  1.00  0.00    -0.339 A  
HETATM    9  C   UNL     1      -9.300  11.105  66.501  1.00  0.00    -0.199 A  
HETATM   10  C   UNL     1      -8.174  10.829  67.282  1.00  0.00    -0.121 A  
HETATM   11  C   UNL     1      -7.552  11.927  68.069  1.00  0.00    -0.122 C  
HETATM   12  O   UNL     1      -6.544  11.705  68.726  1.00  0.00    -0.061 OA 
HETATM   13  C   UNL     1      -8.158  13.295  68.046  1.00  0.00    -0.157 A  
HETATM   14  C   UNL     1      -7.620  14.376  68.779  1.00  0.00    -0.131 A  
HETATM   15  O   UNL     1     -10.892  12.676  65.797  1.00  0.00    -0.266 OA 
HETATM   16  C   UNL     1      -8.195  15.656  68.728  1.00  0.00    -0.183 A  
HETATM   17  C   UNL     1      -9.343  15.869  67.958  1.00  0.00    -0.201 A  
HETATM   18  C   UNL     1      -9.892  12.453  66.470  1.00  0.00    -0.235 C  
HETATM   19  C   UNL     1      -9.991  17.202  67.829  1.00  0.00    -0.290 C  
HETATM   20  C   UNL     1      -9.290  13.534  67.269  1.00  0.00    -0.233 A  
HETATM   21  O   UNL     1      -9.881  17.994  68.914  1.00  0.00    -0.352 OA 
HETATM   22  C   UNL     1      -9.882  14.807  67.224  1.00  0.00    -0.230 A  
HETATM   23  O   UNL     1     -10.609  17.529  66.831  1.00  0.00    -0.305 OA 
BRANCH  14  24
HETATM   24  O   UNL     1      -6.461  14.113  69.564  1.00  0.00    -0.115 OA 
BRANCH  24  25
HETATM   25  C   UNL     1      -5.876  14.867  70.582  1.00  0.00    -0.126 C  
HETATM   26  O   UNL     1      -5.561  16.047  70.514  1.00  0.00    -0.165 OA 
HETATM   27  C   UNL     1      -5.704  14.008  71.801  1.00  0.00    -0.188 C  
ENDBRANCH  24  25
ENDBRANCH  14  24
ENDBRANCH   4   5
ENDBRANCH   2   4
TORSDOF 4
ENDMDL
MODEL       99
REMARK 921   NORMALIZED FREE ENERGY PREDICTED BY IDOCK:   -3.36 KCAL/MOL
REMARK 922        TOTAL FREE ENERGY PREDICTED BY IDOCK:   -4.79 KCAL/MOL
REMARK 923 INTER-LIGAND FREE ENERGY PREDICTED BY IDOCK:   -5.46 KCAL/MOL
REMARK 924 INTRA-LIGAND FREE ENERGY PREDICTED BY IDOCK:    0.67 KCAL/MOL
REMARK 927      BINDING AFFINITY PREDICTED BY RF-SCORE:    0.00 PKD
ROOT
HETATM    1  C   UNL     1      -7.327   5.941  73.743  1.00  0.00    -0.089 C  
HETATM    2  C   UNL     1      -7.053   5.794  72.276  1.00  0.00    -0.084 C  
HETATM    3  O   UNL     1      -5.932   5.812  71.783  1.00  0.00    -0.031 OA 
ENDROOT
BRANCH   2   4
HETATM    4  O   UNL     1      -8.250   5.555  71.607  1.00  0.00    -0.115 OA 
BRANCH   4   5
HETATM    5  C   UNL     1      -9.309   6.449  71.881  1.00  0.00    -0.152 A  
HETATM    6  C   UNL     1      -9.845   6.431  73.177  1.00  0.00    -0.178 A  
HETATM    7  C   UNL     1     -10.830   7.339  73.541  1.00  0.00    -0.290 A  
HETATM    8  C   UNL     1     -11.253   8.289  72.622  1.00  0.00    -0.410 A  
HETATM    9  C   UNL     1     -10.691   8.333  71.335  1.00  0.00    -0.282 A  
HETATM   10  C   UNL     1      -9.716   7.410  70.942  1.00  0.00    -0.169 A  
HETATM   11  C   UNL     1      -9.152   7.495  69.568  1.00  0.00    -0.143 C  
HETATM   12  O   UNL     1      -8.326   6.669  69.201  1.00  0.00    -0.122 OA 
HETATM   13  C   UNL     1      -9.603   8.581  68.643  1.00  0.00    -0.153 A  
HETATM   14  C   UNL     1      -9.098   8.719  67.332  1.00  0.00    -0.133 A  
HETATM   15  O   UNL     1     -11.982  10.211  70.787  1.00  0.00    -0.297 OA 
HETATM   16  C   UNL     1      -9.549   9.736  66.475  1.00  0.00    -0.249 A  
HETATM   17  C   UNL     1     -10.500  10.654  66.930  1.00  0.00    -0.304 A  
HETATM   18  C   UNL     1     -11.142   9.397  70.422  1.00  0.00    -0.261 C  
HETATM   19  C   UNL     1     -11.049  11.739  66.073  1.00  0.00    -0.312 C  
HETATM   20  C   UNL     1     -10.565   9.494  69.071  1.00  0.00    -0.238 A  
HETATM   21  O   UNL     1     -10.194  12.220  65.149  1.00  0.00    -0.271 OA 
HETATM   22  C   UNL     1     -11.011  10.525  68.226  1.00  0.00    -0.314 A  
HETATM   23  O   UNL     1     -12.174  12.182  66.228  1.00  0.00    -0.604 OA 
BRANCH  14  24
HETATM   24  O   UNL     1      -8.118   7.774  66.911  1.00  0.00    -0.112 OA 
BRANCH  24  25
HETATM   25  C   UNL     1      -6.725   7.852  66.938  1.00  0.00    -0.068 C  
HETATM   26  O   UNL     1      -6.043   8.211  67.887  1.00  0.00    -0.045 OA 
HETATM   27  C   UNL     1      -6.178   7.406  65.613  1.00  0.00    -0.038 C  
ENDBRANCH  24  25
ENDBRANCH  14  24
ENDBRANCH   4   5
ENDBRANCH   2   4
TORSDOF 4
ENDMDL
MODEL      100
REMARK 921   NORMALIZED FREE ENERGY PREDICTED BY IDOCK:   -3.34 KCAL/MOL
REMARK 922        TOTAL FREE ENERGY PREDICTED BY IDOCK:   -4.77 KCAL/MOL
REMARK 923 INTER-LIGAND FREE ENERGY PREDICTED BY IDOCK:   -4.23 KCAL/MOL
REMARK 924 INTRA-LIGAND FREE ENERGY PREDICTED BY IDOCK:   -0.54 KCAL/MOL
REMARK 927      BINDING AFFINITY PREDICTED BY RF-SCORE:    0.00 PKD
ROOT
HETATM    1  C   UNL     1      -9.588   2.465  71.118  1.00  0.00    -0.215 C  
HETATM    2  C   UNL     1      -9.459   3.948  70.939  1.00  0.00    -0.166 C  
HETATM    3  O   UNL     1      -8.567   4.623  71.437  1.00  0.00    -0.107 OA 
ENDROOT
BRANCH   2   4
HETATM    4  O   UNL     1     -10.448   4.393  70.065  1.00  0.00     0.094 OA 
BRANCH   4   5
HETATM    5  C   UNL     1     -10.688   5.785  70.048  1.00  0.00    -0.330 A  
HETATM    6  C   UNL     1     -11.214   6.359  71.214  1.00  0.00    -0.346 A  
HETATM    7  C   UNL     1     -11.397   7.732  71.299  1.00  0.00    -0.289 A  
HETATM    8  C   UNL     1     -11.018   8.536  70.233  1.00  0.00    -0.245 A  
HETATM    9  C   UNL     1     -10.456   7.967  69.078  1.00  0.00    -0.210 A  
HETATM   10  C   UNL     1     -10.288   6.584  68.965  1.00  0.00    -0.226 A  
HETATM   11  C   UNL     1      -9.690   6.027  67.721  1.00  0.00    -0.115 C  
HETATM   12  O   UNL     1      -9.573   4.815  67.596  1.00  0.00    -0.139 OA 
HETATM   13  C   UNL     1      -9.243   6.949  66.632  1.00  0.00    -0.185 A  
HETATM   14  C   UNL     1      -8.660   6.482  65.434  1.00  0.00    -0.068 A  
HETATM   15  O   UNL     1     -10.159  10.087  68.124  1.00  0.00    -0.149 OA 
HETATM   16  C   UNL     1      -8.265   7.366  64.417  1.00  0.00    -0.004 A  
HETATM   17  C   UNL     1      -8.422   8.743  64.596  1.00  0.00    -0.169 A  
HETATM   18  C   UNL     1     -10.025   8.875  68.003  1.00  0.00    -0.178 C  
HETATM   19  C   UNL     1      -8.057   9.740  63.554  1.00  0.00    -0.150 C  
HETATM   20  C   UNL     1      -9.411   8.325  66.783  1.00  0.00    -0.232 A  
HETATM   21  O   UNL     1      -7.019   9.386  62.770  1.00  0.00    -0.096 OA 
HETATM   22  C   UNL     1      -9.003   9.218  65.777  1.00  0.00    -0.234 A  
HETATM   23  O   UNL     1      -8.630  10.811  63.450  1.00  0.00    -0.158 OA 
BRANCH  14  24
HETATM   24  O   UNL     1      -8.500   5.073  65.296  1.00  0.00    -0.128 OA 
BRANCH  24  25
HETATM   25  C   UNL     1      -7.339   4.307  65.181  1.00  0.00    -0.072 C  
HETATM   26  O   UNL     1      -6.199   4.739  65.092  1.00  0.00    -0.032 OA 
HETATM   27  C   UNL     1      -7.702   2.851  65.202  1.00  0.00    -0.081 C  
ENDBRANCH  24  25
ENDBRANCH  14  24
ENDBRANCH   4   5
ENDBRANCH   2   4
TORSDOF 4
ENDMDL
MODEL      101
REMARK 921   NORMALIZED FREE ENERGY PREDICTED BY IDOCK:   -3.34 KCAL/MOL
REMARK 922        TOTAL FREE ENERGY PREDICTED BY IDOCK:   -4.77 KCAL/MOL
REMARK 923 INTER-LIGAND FREE ENERGY PREDICTED BY IDOCK:   -6.10 KCAL/MOL
REMARK 924 INTRA-LIGAND FREE ENERGY PREDICTED BY IDOCK:    1.33 KCAL/MOL
REMARK 927      BINDING AFFINITY PREDICTED BY RF-SCORE:    0.00 PKD
ROOT
HETATM    1  C   UNL     1     -11.390  17.044  68.706  1.00  0.00     0.201 C  
HETATM    2  C   UNL     1     -11.503  16.090  69.858  1.00  0.00    -0.326 C  
HETATM    3  O   UNL     1     -10.645  15.951  70.719  1.00  0.00    -0.143 OA 
ENDROOT
BRANCH   2   4
HETATM    4  O   UNL     1     -12.752  15.475  69.823  1.00  0.00    -0.189 OA 
BRANCH   4   5
HETATM    5  C   UNL     1     -12.906  14.326  70.631  1.00  0.00    -0.314 A  
HETATM    6  C   UNL     1     -13.638  14.469  71.818  1.00  0.00    -0.474 A  
HETATM    7  C   UNL     1     -13.900  13.365  72.618  1.00  0.00    -0.448 A  
HETATM    8  C   UNL     1     -13.462  12.112  72.213  1.00  0.00    -0.298 A  
HETATM    9  C   UNL     1     -12.760  11.960  71.005  1.00  0.00    -0.354 A  
HETATM   10  C   UNL     1     -12.465  13.064  70.199  1.00  0.00    -0.166 A  
HETATM   11  C   UNL     1     -11.717  12.854  68.930  1.00  0.00    -0.327 C  
HETATM   12  O   UNL     1     -11.421  13.818  68.236  1.00  0.00    -0.274 OA 
HETATM   13  C   UNL     1     -11.327  11.471  68.516  1.00  0.00    -0.337 A  
HETATM   14  C   UNL     1     -10.625  11.207  67.320  1.00  0.00    -0.239 A  
HETATM   15  O   UNL     1     -12.652   9.639  71.309  1.00  0.00    -0.316 OA 
HETATM   16  C   UNL     1     -10.253   9.902  66.960  1.00  0.00    -0.294 A  
HETATM   17  C   UNL     1     -10.604   8.829  67.785  1.00  0.00    -0.256 A  
HETATM   18  C   UNL     1     -12.368  10.599  70.603  1.00  0.00    -0.369 C  
HETATM   19  C   UNL     1     -10.219   7.423  67.488  1.00  0.00    -0.224 C  
HETATM   20  C   UNL     1     -11.649  10.390  69.335  1.00  0.00    -0.272 A  
HETATM   21  O   UNL     1     -10.131   7.124  66.177  1.00  0.00     0.070 OA 
HETATM   22  C   UNL     1     -11.295   9.079  68.975  1.00  0.00     0.373 A  
HETATM   23  O   UNL     1     -10.040   6.599  68.368  1.00  0.00    -0.144 OA 
BRANCH  14  24
HETATM   24  O   UNL     1     -10.301  12.324  66.498  1.00  0.00    -0.223 OA 
BRANCH  24  25
HETATM   25  C   UNL     1      -9.315  13.299  66.655  1.00  0.00    -0.242 C  
HETATM   26  O   UNL     1      -8.205  13.128  67.138  1.00  0.00    -0.176 OA 
HETATM   27  C   UNL     1      -9.819  14.607  66.117  1.00  0.00    -0.334 C  
ENDBRANCH  24  25
ENDBRANCH  14  24
ENDBRANCH   4   5
ENDBRANCH   2   4
TORSDOF 4
ENDMDL
MODEL      102
REMARK 921   NORMALIZED FREE ENERGY PREDICTED BY IDOCK:   -3.22 KCAL/MOL
REMARK 922        TOTAL FREE ENERGY PREDICTED BY IDOCK:   -4.62 KCAL/MOL
REMARK 923 INTER-LIGAND FREE ENERGY PREDICTED BY IDOCK:   -4.42 KCAL/MOL
REMARK 924 INTRA-LIGAND FREE ENERGY PREDICTED BY IDOCK:   -0.20 KCAL/MOL
REMARK 927      BINDING AFFINITY PREDICTED BY RF-SCORE:    0.00 PKD
ROOT
HETATM    1  C   UNL     1     -13.649   9.676  72.025  1.00  0.00    -0.467 C  
HETATM    2  C   UNL     1     -13.091   8.288  71.911  1.00  0.00    -0.344 C  
HETATM    3  O   UNL     1     -13.774   7.286  71.742  1.00  0.00    -0.358 OA 
ENDROOT
BRANCH   2   4
HETATM    4  O   UNL     1     -11.700   8.349  71.943  1.00  0.00    -0.291 OA 
BRANCH   4   5
HETATM    5  C   UNL     1     -11.013   7.281  71.324  1.00  0.00    -0.243 A  
HETATM    6  C   UNL     1     -10.973   6.060  72.012  1.00  0.00    -0.313 A  
HETATM    7  C   UNL     1     -10.388   4.945  71.428  1.00  0.00    -0.221 A  
HETATM    8  C   UNL     1      -9.877   5.040  70.141  1.00  0.00    -0.303 A  
HETATM    9  C   UNL     1      -9.949   6.253  69.435  1.00  0.00    -0.192 A  
HETATM   10  C   UNL     1     -10.511   7.393  70.017  1.00  0.00    -0.233 A  
HETATM   11  C   UNL     1     -10.563   8.656  69.232  1.00  0.00    -0.192 C  
HETATM   12  O   UNL     1     -11.019   9.669  69.745  1.00  0.00    -0.234 OA 
HETATM   13  C   UNL     1     -10.053   8.680  67.827  1.00  0.00    -0.266 A  
HETATM   14  C   UNL     1     -10.083   9.844  67.028  1.00  0.00    -0.218 A  
HETATM   15  O   UNL     1      -8.966   5.266  67.550  1.00  0.00    -0.110 OA 
HETATM   16  C   UNL     1      -9.582   9.849  65.716  1.00  0.00    -0.312 A  
HETATM   17  C   UNL     1      -9.062   8.671  65.170  1.00  0.00    -0.045 A  
HETATM   18  C   UNL     1      -9.437   6.278  68.055  1.00  0.00    -0.116 C  
HETATM   19  C   UNL     1      -8.484   8.604  63.801  1.00  0.00    -0.055 C  
HETATM   20  C   UNL     1      -9.511   7.522  67.270  1.00  0.00    -0.186 A  
HETATM   21  O   UNL     1      -9.042   9.444  62.908  1.00  0.00    -0.234 OA 
HETATM   22  C   UNL     1      -9.022   7.513  65.953  1.00  0.00    -0.128 A  
HETATM   23  O   UNL     1      -7.602   7.815  63.507  1.00  0.00    -0.111 OA 
BRANCH  14  24
HETATM   24  O   UNL     1     -10.637  11.019  67.615  1.00  0.00    -0.192 OA 
BRANCH  24  25
HETATM   25  C   UNL     1     -11.769  11.753  67.260  1.00  0.00    -0.217 C  
HETATM   26  O   UNL     1     -11.980  12.269  66.172  1.00  0.00    -0.579 OA 
HETATM   27  C   UNL     1     -12.715  11.800  68.425  1.00  0.00     1.741 C  
ENDBRANCH  24  25
ENDBRANCH  14  24
ENDBRANCH   4   5
ENDBRANCH   2   4
TORSDOF 4
ENDMDL
MODEL      103
REMARK 921   NORMALIZED FREE ENERGY PREDICTED BY IDOCK:   -3.18 KCAL/MOL
REMARK 922        TOTAL FREE ENERGY PREDICTED BY IDOCK:   -4.57 KCAL/MOL
REMARK 923 INTER-LIGAND FREE ENERGY PREDICTED BY IDOCK:   -5.19 KCAL/MOL
REMARK 924 INTRA-LIGAND FREE ENERGY PREDICTED BY IDOCK:    0.62 KCAL/MOL
REMARK 927      BINDING AFFINITY PREDICTED BY RF-SCORE:    0.00 PKD
ROOT
HETATM    1  C   UNL     1     -10.601   5.703  65.757  1.00  0.00     0.348 C  
HETATM    2  C   UNL     1     -10.629   6.585  66.970  1.00  0.00    -0.332 C  
HETATM    3  O   UNL     1     -11.556   6.623  67.769  1.00  0.00     0.057 OA 
ENDROOT
BRANCH   2   4
HETATM    4  O   UNL     1      -9.419   7.266  67.070  1.00  0.00    -0.142 OA 
BRANCH   4   5
HETATM    5  C   UNL     1      -8.981   7.938  65.906  1.00  0.00    -0.123 A  
HETATM    6  C   UNL     1      -8.178   7.215  65.012  1.00  0.00    -0.095 A  
HETATM    7  C   UNL     1      -7.780   7.783  63.810  1.00  0.00    -0.123 A  
HETATM    8  C   UNL     1      -8.216   9.060  63.484  1.00  0.00    -0.178 A  
HETATM    9  C   UNL     1      -9.051   9.772  64.361  1.00  0.00    -0.296 A  
HETATM   10  C   UNL     1      -9.440   9.226  65.588  1.00  0.00    -0.324 A  
HETATM   11  C   UNL     1     -10.323  10.019  66.485  1.00  0.00    -0.198 C  
HETATM   12  O   UNL     1     -10.640   9.566  67.578  1.00  0.00    -0.259 OA 
HETATM   13  C   UNL     1     -10.812  11.364  66.051  1.00  0.00    -0.306 A  
HETATM   14  C   UNL     1     -11.658  12.160  66.853  1.00  0.00    -0.341 A  
HETATM   15  O   UNL     1      -9.190  11.558  62.849  1.00  0.00    -0.327 OA 
HETATM   16  C   UNL     1     -12.090  13.428  66.432  1.00  0.00    -0.464 A  
HETATM   17  C   UNL     1     -11.699  13.912  65.180  1.00  0.00    -0.357 A  
HETATM   18  C   UNL     1      -9.523  11.100  63.936  1.00  0.00    -0.227 C  
HETATM   19  C   UNL     1     -12.089  15.257  64.677  1.00  0.00    -0.187 C  
HETATM   20  C   UNL     1     -10.417  11.874  64.814  1.00  0.00    -0.333 A  
HETATM   21  O   UNL     1     -13.289  15.697  65.105  1.00  0.00     1.268 OA 
HETATM   22  C   UNL     1     -10.856  13.135  64.378  1.00  0.00    -0.417 A  
HETATM   23  O   UNL     1     -11.390  15.889  63.904  1.00  0.00    -0.406 OA 
BRANCH  14  24
HETATM   24  O   UNL     1     -12.048  11.624  68.114  1.00  0.00    -0.577 OA 
BRANCH  24  25
HETATM   25  C   UNL     1     -11.574  11.907  69.396  1.00  0.00    -0.325 C  
HETATM   26  O   UNL     1     -10.953  11.141  70.118  1.00  0.00    -0.138 OA 
HETATM   27  C   UNL     1     -11.930  13.321  69.755  1.00  0.00    -0.391 C  
ENDBRANCH  24  25
ENDBRANCH  14  24
ENDBRANCH   4   5
ENDBRANCH   2   4
TORSDOF 4
ENDMDL
MODEL      104
REMARK 921   NORMALIZED FREE ENERGY PREDICTED BY IDOCK:   -3.12 KCAL/MOL
REMARK 922        TOTAL FREE ENERGY PREDICTED BY IDOCK:   -4.50 KCAL/MOL
REMARK 923 INTER-LIGAND FREE ENERGY PREDICTED BY IDOCK:   -4.57 KCAL/MOL
REMARK 924 INTRA-LIGAND FREE ENERGY PREDICTED BY IDOCK:    0.07 KCAL/MOL
REMARK 927      BINDING AFFINITY PREDICTED BY RF-SCORE:    0.00 PKD
ROOT
HETATM    1  C   UNL     1     -11.424  19.713  67.266  1.00  0.00     0.535 C  
HETATM    2  C   UNL     1     -10.171  19.073  66.746  1.00  0.00    -0.396 C  
HETATM    3  O   UNL     1      -9.596  19.423  65.724  1.00  0.00    -0.394 OA 
ENDROOT
BRANCH   2   4
HETATM    4  O   UNL     1      -9.745  18.100  67.647  1.00  0.00    -0.279 OA 
BRANCH   4   5
HETATM    5  C   UNL     1      -8.542  17.433  67.324  1.00  0.00    -0.212 A  
HETATM    6  C   UNL     1      -7.465  18.224  66.896  1.00  0.00    -0.235 A  
HETATM    7  C   UNL     1      -6.229  17.646  66.641  1.00  0.00    -0.221 A  
HETATM    8  C   UNL     1      -6.058  16.285  66.851  1.00  0.00     0.040 A  
HETATM    9  C   UNL     1      -7.125  15.497  67.316  1.00  0.00    -0.225 A  
HETATM   10  C   UNL     1      -8.384  16.057  67.553  1.00  0.00    -0.177 A  
HETATM   11  C   UNL     1      -9.484  15.183  68.042  1.00  0.00    -0.199 C  
HETATM   12  O   UNL     1     -10.600  15.654  68.217  1.00  0.00    -0.248 OA 
HETATM   13  C   UNL     1      -9.221  13.735  68.310  1.00  0.00    -0.204 A  
HETATM   14  C   UNL     1     -10.220  12.857  68.784  1.00  0.00    -0.091 A  
HETATM   15  O   UNL     1      -5.753  13.597  67.377  1.00  0.00    -0.354 OA 
HETATM   16  C   UNL     1      -9.956  11.497  69.011  1.00  0.00    -0.040 A  
HETATM   17  C   UNL     1      -8.669  10.996  68.791  1.00  0.00    -0.146 A  
HETATM   18  C   UNL     1      -6.867  14.070  67.570  1.00  0.00    -0.131 C  
HETATM   19  C   UNL     1      -8.319   9.562  68.979  1.00  0.00    -0.126 C  
HETATM   20  C   UNL     1      -7.950  13.211  68.077  1.00  0.00    -0.156 A  
HETATM   21  O   UNL     1      -9.016   8.929  69.943  1.00  0.00    -0.143 OA 
HETATM   22  C   UNL     1      -7.672  11.855  68.317  1.00  0.00    -0.127 A  
HETATM   23  O   UNL     1      -7.437   9.020  68.335  1.00  0.00    -0.081 OA 
BRANCH  14  24
HETATM   24  O   UNL     1     -11.513  13.409  69.012  1.00  0.00    -0.263 OA 
BRANCH  24  25
HETATM   25  C   UNL     1     -12.282  13.448  70.176  1.00  0.00    -0.315 C  
HETATM   26  O   UNL     1     -12.972  12.539  70.613  1.00  0.00     0.005 OA 
HETATM   27  C   UNL     1     -12.118  14.788  70.834  1.00  0.00    -0.387 C  
ENDBRANCH  24  25
ENDBRANCH  14  24
ENDBRANCH   4   5
ENDBRANCH   2   4
TORSDOF 4
ENDMDL
MODEL      105
REMARK 921   NORMALIZED FREE ENERGY PREDICTED BY IDOCK:   -3.03 KCAL/MOL
REMARK 922        TOTAL FREE ENERGY PREDICTED BY IDOCK:   -4.39 KCAL/MOL
REMARK 923 INTER-LIGAND FREE ENERGY PREDICTED BY IDOCK:   -4.56 KCAL/MOL
REMARK 924 INTRA-LIGAND FREE ENERGY PREDICTED BY IDOCK:    0.17 KCAL/MOL
REMARK 927      BINDING AFFINITY PREDICTED BY RF-SCORE:    0.00 PKD
ROOT
HETATM    1  C   UNL     1     -13.465  14.206  70.866  1.00  0.00    -0.148 C  
HETATM    2  C   UNL     1     -12.182  14.011  71.618  1.00  0.00    -0.141 C  
HETATM    3  O   UNL     1     -12.077  14.117  72.833  1.00  0.00     0.122 OA 
ENDROOT
BRANCH   2   4
HETATM    4  O   UNL     1     -11.186  13.614  70.729  1.00  0.00     0.435 OA 
BRANCH   4   5
HETATM    5  C   UNL     1     -11.227  14.195  69.442  1.00  0.00    -0.255 A  
HETATM    6  C   UNL     1     -11.587  15.548  69.361  1.00  0.00    -0.366 A  
HETATM    7  C   UNL     1     -11.569  16.207  68.139  1.00  0.00    -0.133 A  
HETATM    8  C   UNL     1     -11.154  15.523  67.004  1.00  0.00    -0.238 A  
HETATM    9  C   UNL     1     -10.758  14.178  67.090  1.00  0.00    -0.280 A  
HETATM   10  C   UNL     1     -10.794  13.492  68.307  1.00  0.00    -0.277 A  
HETATM   11  C   UNL     1     -10.367  12.067  68.348  1.00  0.00    -0.214 C  
HETATM   12  O   UNL     1     -10.431  11.446  69.400  1.00  0.00    -0.138 OA 
HETATM   13  C   UNL     1      -9.870  11.403  67.103  1.00  0.00    -0.212 A  
HETATM   14  C   UNL     1      -9.442  10.058  67.079  1.00  0.00    -0.164 A  
HETATM   15  O   UNL     1     -10.231  14.143  64.806  1.00  0.00    -0.419 OA 
HETATM   16  C   UNL     1      -8.997   9.449  65.895  1.00  0.00    -0.217 A  
HETATM   17  C   UNL     1      -8.946  10.192  64.712  1.00  0.00    -0.236 A  
HETATM   18  C   UNL     1     -10.277  13.523  65.862  1.00  0.00    -0.301 C  
HETATM   19  C   UNL     1      -8.516   9.610  63.412  1.00  0.00    -0.188 C  
HETATM   20  C   UNL     1      -9.832  12.120  65.908  1.00  0.00    -0.265 A  
HETATM   21  O   UNL     1      -7.595   8.631  63.505  1.00  0.00    -0.112 OA 
HETATM   22  C   UNL     1      -9.373  11.525  64.721  1.00  0.00    -0.059 A  
HETATM   23  O   UNL     1      -8.939  10.022  62.345  1.00  0.00    -0.219 OA 
BRANCH  14  24
HETATM   24  O   UNL     1      -9.492   9.340  68.309  1.00  0.00    -0.138 OA 
BRANCH  24  25
HETATM   25  C   UNL     1      -8.936   8.107  68.653  1.00  0.00    -0.137 C  
HETATM   26  O   UNL     1      -7.882   7.934  69.247  1.00  0.00    -0.110 OA 
HETATM   27  C   UNL     1      -9.848   7.006  68.195  1.00  0.00    -0.151 C  
ENDBRANCH  24  25
ENDBRANCH  14  24
ENDBRANCH   4   5
ENDBRANCH   2   4
TORSDOF 4
ENDMDL
MODEL      106
REMARK 921   NORMALIZED FREE ENERGY PREDICTED BY IDOCK:   -3.00 KCAL/MOL
REMARK 922        TOTAL FREE ENERGY PREDICTED BY IDOCK:   -4.35 KCAL/MOL
REMARK 923 INTER-LIGAND FREE ENERGY PREDICTED BY IDOCK:   -4.44 KCAL/MOL
REMARK 924 INTRA-LIGAND FREE ENERGY PREDICTED BY IDOCK:    0.09 KCAL/MOL
REMARK 927      BINDING AFFINITY PREDICTED BY RF-SCORE:    0.00 PKD
ROOT
HETATM    1  C   UNL     1      -9.398   6.587  70.222  1.00  0.00    -0.163 C  
HETATM    2  C   UNL     1     -10.427   7.648  69.968  1.00  0.00    -0.229 C  
HETATM    3  O   UNL     1     -11.173   8.100  70.827  1.00  0.00    -0.257 OA 
ENDROOT
BRANCH   2   4
HETATM    4  O   UNL     1     -10.327   8.077  68.647  1.00  0.00    -0.204 OA 
BRANCH   4   5
HETATM    5  C   UNL     1      -9.020   8.297  68.157  1.00  0.00    -0.139 A  
HETATM    6  C   UNL     1      -8.307   7.176  67.706  1.00  0.00    -0.118 A  
HETATM    7  C   UNL     1      -7.051   7.327  67.136  1.00  0.00    -0.087 A  
HETATM    8  C   UNL     1      -6.522   8.602  66.982  1.00  0.00    -0.057 A  
HETATM    9  C   UNL     1      -7.250   9.729  67.399  1.00  0.00    -0.086 A  
HETATM   10  C   UNL     1      -8.506   9.594  67.999  1.00  0.00    -0.118 A  
HETATM   11  C   UNL     1      -9.238  10.816  68.427  1.00  0.00    -0.164 C  
HETATM   12  O   UNL     1     -10.321  10.708  68.987  1.00  0.00    -0.196 OA 
HETATM   13  C   UNL     1      -8.644  12.166  68.177  1.00  0.00    -0.177 A  
HETATM   14  C   UNL     1      -9.294  13.362  68.551  1.00  0.00    -0.097 A  
HETATM   15  O   UNL     1      -5.568  11.160  66.615  1.00  0.00    -0.084 OA 
HETATM   16  C   UNL     1      -8.709  14.618  68.322  1.00  0.00    -0.173 A  
HETATM   17  C   UNL     1      -7.467  14.698  67.686  1.00  0.00    -0.205 A  
HETATM   18  C   UNL     1      -6.660  11.056  67.161  1.00  0.00    -0.089 C  
HETATM   19  C   UNL     1      -6.769  15.988  67.437  1.00  0.00    -0.190 C  
HETATM   20  C   UNL     1      -7.397  12.266  67.563  1.00  0.00    -0.137 A  
HETATM   21  O   UNL     1      -7.583  17.041  67.225  1.00  0.00    -0.153 OA 
HETATM   22  C   UNL     1      -6.811  13.519  67.315  1.00  0.00     0.098 A  
HETATM   23  O   UNL     1      -5.554  16.070  67.389  1.00  0.00    -0.217 OA 
BRANCH  14  24
HETATM   24  O   UNL     1     -10.566  13.240  69.180  1.00  0.00    -0.123 OA 
BRANCH  24  25
HETATM   25  C   UNL     1     -11.756  13.931  68.945  1.00  0.00    -0.337 C  
HETATM   26  O   UNL     1     -12.238  14.181  67.850  1.00  0.00    -0.319 OA 
HETATM   27  C   UNL     1     -12.376  14.312  70.259  1.00  0.00    -0.418 C  
ENDBRANCH  24  25
ENDBRANCH  14  24
ENDBRANCH   4   5
ENDBRANCH   2   4
TORSDOF 4
ENDMDL
MODEL      107
REMARK 921   NORMALIZED FREE ENERGY PREDICTED BY IDOCK:   -2.79 KCAL/MOL
REMARK 922        TOTAL FREE ENERGY PREDICTED BY IDOCK:   -4.09 KCAL/MOL
REMARK 923 INTER-LIGAND FREE ENERGY PREDICTED BY IDOCK:   -4.07 KCAL/MOL
REMARK 924 INTRA-LIGAND FREE ENERGY PREDICTED BY IDOCK:   -0.02 KCAL/MOL
REMARK 927      BINDING AFFINITY PREDICTED BY RF-SCORE:    0.00 PKD
ROOT
HETATM    1  C   UNL     1     -11.497   9.565  71.120  1.00  0.00    -0.430 C  
HETATM    2  C   UNL     1     -10.229   8.961  71.646  1.00  0.00    -0.345 C  
HETATM    3  O   UNL     1     -10.183   8.164  72.574  1.00  0.00    -0.264 OA 
ENDROOT
BRANCH   2   4
HETATM    4  O   UNL     1      -9.158   9.385  70.863  1.00  0.00    -0.236 OA 
BRANCH   4   5
HETATM    5  C   UNL     1      -9.460   9.735  69.528  1.00  0.00    -0.212 A  
HETATM    6  C   UNL     1      -9.920  11.039  69.295  1.00  0.00    -0.088 A  
HETATM    7  C   UNL     1     -10.157  11.479  68.000  1.00  0.00    -0.197 A  
HETATM    8  C   UNL     1      -9.898  10.628  66.935  1.00  0.00    -0.228 A  
HETATM    9  C   UNL     1      -9.401   9.334  67.163  1.00  0.00    -0.166 A  
HETATM   10  C   UNL     1      -9.181   8.865  68.462  1.00  0.00    -0.137 A  
HETATM   11  C   UNL     1      -8.657   7.486  68.654  1.00  0.00    -0.129 C  
HETATM   12  O   UNL     1      -8.497   7.052  69.787  1.00  0.00    -0.134 OA 
HETATM   13  C   UNL     1      -8.337   6.638  67.464  1.00  0.00    -0.121 A  
HETATM   14  C   UNL     1      -7.828   5.326  67.581  1.00  0.00    -0.096 A  
HETATM   15  O   UNL     1      -9.274   8.928  64.858  1.00  0.00    -0.100 OA 
HETATM   16  C   UNL     1      -7.552   4.541  66.450  1.00  0.00    -0.090 A  
HETATM   17  C   UNL     1      -7.757   5.072  65.172  1.00  0.00    -0.083 A  
HETATM   18  C   UNL     1      -9.096   8.497  65.991  1.00  0.00    -0.194 C  
HETATM   19  C   UNL     1      -7.518   4.294  63.928  1.00  0.00    -0.062 C  
HETATM   20  C   UNL     1      -8.554   7.141  66.182  1.00  0.00    -0.151 A  
HETATM   21  O   UNL     1      -6.529   3.382  64.010  1.00  0.00    -0.029 OA 
HETATM   22  C   UNL     1      -8.266   6.369  65.043  1.00  0.00    -0.125 A  
HETATM   23  O   UNL     1      -8.144   4.500  62.902  1.00  0.00    -0.074 OA 
BRANCH  14  24
HETATM   24  O   UNL     1      -7.617   4.828  68.899  1.00  0.00    -0.067 OA 
BRANCH  24  25
HETATM   25  C   UNL     1      -8.080   3.658  69.502  1.00  0.00    -0.053 C  
HETATM   26  O   UNL     1      -7.387   2.737  69.910  1.00  0.00    -0.043 OA 
HETATM   27  C   UNL     1      -9.578   3.706  69.595  1.00  0.00    -0.211 C  
ENDBRANCH  24  25
ENDBRANCH  14  24
ENDBRANCH   4   5
ENDBRANCH   2   4
TORSDOF 4
ENDMDL
MODEL      108
REMARK 921   NORMALIZED FREE ENERGY PREDICTED BY IDOCK:   -2.73 KCAL/MOL
REMARK 922        TOTAL FREE ENERGY PREDICTED BY IDOCK:   -4.01 KCAL/MOL
REMARK 923 INTER-LIGAND FREE ENERGY PREDICTED BY IDOCK:   -3.64 KCAL/MOL
REMARK 924 INTRA-LIGAND FREE ENERGY PREDICTED BY IDOCK:   -0.37 KCAL/MOL
REMARK 927      BINDING AFFINITY PREDICTED BY RF-SCORE:    0.00 PKD
ROOT
HETATM    1  C   UNL     1      -6.519  14.407  70.156  1.00  0.00    -0.134 C  
HETATM    2  C   UNL     1      -7.558  15.058  69.293  1.00  0.00    -0.187 C  
HETATM    3  O   UNL     1      -7.360  16.062  68.620  1.00  0.00    -0.143 OA 
ENDROOT
BRANCH   2   4
HETATM    4  O   UNL     1      -8.723  14.294  69.321  1.00  0.00     0.079 OA 
BRANCH   4   5
HETATM    5  C   UNL     1      -9.346  14.058  68.076  1.00  0.00    -0.205 A  
HETATM    6  C   UNL     1     -10.087  15.111  67.519  1.00  0.00    -0.232 A  
HETATM    7  C   UNL     1     -10.657  14.978  66.261  1.00  0.00    -0.309 A  
HETATM    8  C   UNL     1     -10.455  13.807  65.542  1.00  0.00    -0.327 A  
HETATM    9  C   UNL     1      -9.683  12.766  66.083  1.00  0.00    -0.246 A  
HETATM   10  C   UNL     1      -9.122  12.871  67.359  1.00  0.00    -0.197 A  
HETATM   11  C   UNL     1      -8.313  11.741  67.890  1.00  0.00    -0.149 C  
HETATM   12  O   UNL     1      -7.850  11.807  69.021  1.00  0.00    -0.061 OA 
HETATM   13  C   UNL     1      -8.079  10.531  67.043  1.00  0.00    -0.118 A  
HETATM   14  C   UNL     1      -7.313   9.431  67.486  1.00  0.00    -0.084 A  
HETATM   15  O   UNL     1      -9.941  11.501  64.126  1.00  0.00    -0.253 OA 
HETATM   16  C   UNL     1      -7.121   8.297  66.681  1.00  0.00    -0.077 A  
HETATM   17  C   UNL     1      -7.675   8.258  65.397  1.00  0.00    -0.103 A  
HETATM   18  C   UNL     1      -9.460  11.571  65.251  1.00  0.00    -0.184 C  
HETATM   19  C   UNL     1      -7.542   7.081  64.497  1.00  0.00    -0.107 C  
HETATM   20  C   UNL     1      -8.640  10.463  65.768  1.00  0.00    -0.172 A  
HETATM   21  O   UNL     1      -6.400   6.381  64.643  1.00  0.00    -0.030 OA 
HETATM   22  C   UNL     1      -8.440   9.339  64.949  1.00  0.00    -0.182 A  
HETATM   23  O   UNL     1      -8.388   6.801  63.665  1.00  0.00     0.028 OA 
BRANCH  14  24
HETATM   24  O   UNL     1      -6.751   9.516  68.793  1.00  0.00    -0.051 OA 
BRANCH  24  25
HETATM   25  C   UNL     1      -6.767   8.594  69.840  1.00  0.00    -0.042 C  
HETATM   26  O   UNL     1      -5.907   7.758  70.075  1.00  0.00    -0.023 OA 
HETATM   27  C   UNL     1      -8.009   8.796  70.660  1.00  0.00    -0.130 C  
ENDBRANCH  24  25
ENDBRANCH  14  24
ENDBRANCH   4   5
ENDBRANCH   2   4
TORSDOF 4
ENDMDL
MODEL      109
REMARK 921   NORMALIZED FREE ENERGY PREDICTED BY IDOCK:   -2.65 KCAL/MOL
REMARK 922        TOTAL FREE ENERGY PREDICTED BY IDOCK:   -3.92 KCAL/MOL
REMARK 923 INTER-LIGAND FREE ENERGY PREDICTED BY IDOCK:   -3.49 KCAL/MOL
REMARK 924 INTRA-LIGAND FREE ENERGY PREDICTED BY IDOCK:   -0.43 KCAL/MOL
REMARK 927      BINDING AFFINITY PREDICTED BY RF-SCORE:    0.00 PKD
ROOT
HETATM    1  C   UNL     1      -8.485  12.463  68.171  1.00  0.00    -0.180 C  
HETATM    2  C   UNL     1      -9.597  11.917  67.325  1.00  0.00    -0.177 C  
HETATM    3  O   UNL     1     -10.085  12.507  66.370  1.00  0.00    -0.233 OA 
ENDROOT
BRANCH   2   4
HETATM    4  O   UNL     1      -9.907  10.627  67.750  1.00  0.00    -0.162 OA 
BRANCH   4   5
HETATM    5  C   UNL     1      -9.411   9.571  66.955  1.00  0.00    -0.146 A  
HETATM    6  C   UNL     1      -9.385   9.771  65.567  1.00  0.00    -0.299 A  
HETATM    7  C   UNL     1      -8.834   8.810  64.730  1.00  0.00    -0.089 A  
HETATM    8  C   UNL     1      -8.275   7.666  65.283  1.00  0.00    -0.136 A  
HETATM    9  C   UNL     1      -8.266   7.480  66.676  1.00  0.00    -0.125 A  
HETATM   10  C   UNL     1      -8.839   8.425  67.532  1.00  0.00    -0.139 A  
HETATM   11  C   UNL     1      -8.808   8.184  69.000  1.00  0.00    -0.144 C  
HETATM   12  O   UNL     1      -9.340   8.986  69.756  1.00  0.00    -0.159 OA 
HETATM   13  C   UNL     1      -8.135   6.962  69.540  1.00  0.00    -0.130 A  
HETATM   14  C   UNL     1      -8.065   6.683  70.922  1.00  0.00    -0.119 A  
HETATM   15  O   UNL     1      -7.095   5.463  66.444  1.00  0.00    -0.066 OA 
HETATM   16  C   UNL     1      -7.444   5.520  71.406  1.00  0.00    -0.098 A  
HETATM   17  C   UNL     1      -6.855   4.625  70.507  1.00  0.00    -0.037 A  
HETATM   18  C   UNL     1      -7.612   6.273  67.206  1.00  0.00    -0.093 C  
HETATM   19  C   UNL     1      -6.206   3.358  70.940  1.00  0.00    -0.019 C  
HETATM   20  C   UNL     1      -7.560   6.047  68.660  1.00  0.00    -0.091 A  
HETATM   21  O   UNL     1      -5.627   3.403  72.156  1.00  0.00    -0.007 OA 
HETATM   22  C   UNL     1      -6.922   4.889  69.135  1.00  0.00    -0.051 A  
HETATM   23  O   UNL     1      -6.169   2.372  70.225  1.00  0.00    -0.023 OA 
BRANCH  14  24
HETATM   24  O   UNL     1      -8.662   7.628  71.806  1.00  0.00    -0.113 OA 
BRANCH  24  25
HETATM   25  C   UNL     1      -9.669   7.458  72.757  1.00  0.00    -0.173 C  
HETATM   26  O   UNL     1     -10.857   7.287  72.523  1.00  0.00    -0.237 OA 
HETATM   27  C   UNL     1      -9.067   7.498  74.131  1.00  0.00    -0.249 C  
ENDBRANCH  24  25
ENDBRANCH  14  24
ENDBRANCH   4   5
ENDBRANCH   2   4
TORSDOF 4
ENDMDL
MODEL      110
REMARK 921   NORMALIZED FREE ENERGY PREDICTED BY IDOCK:   -2.50 KCAL/MOL
REMARK 922        TOTAL FREE ENERGY PREDICTED BY IDOCK:   -3.73 KCAL/MOL
REMARK 923 INTER-LIGAND FREE ENERGY PREDICTED BY IDOCK:   -3.18 KCAL/MOL
REMARK 924 INTRA-LIGAND FREE ENERGY PREDICTED BY IDOCK:   -0.55 KCAL/MOL
REMARK 927      BINDING AFFINITY PREDICTED BY RF-SCORE:    0.00 PKD
ROOT
HETATM    1  C   UNL     1      -5.416   6.856  73.645  1.00  0.00    -0.046 C  
HETATM    2  C   UNL     1      -5.774   6.830  72.189  1.00  0.00    -0.038 C  
HETATM    3  O   UNL     1      -5.232   6.107  71.362  1.00  0.00    -0.017 OA 
ENDROOT
BRANCH   2   4
HETATM    4  O   UNL     1      -6.853   7.682  71.966  1.00  0.00    -0.059 OA 
BRANCH   4   5
HETATM    5  C   UNL     1      -6.541   8.979  71.501  1.00  0.00    -0.064 A  
HETATM    6  C   UNL     1      -5.586   9.706  72.226  1.00  0.00     0.071 A  
HETATM    7  C   UNL     1      -5.169  10.954  71.781  1.00  0.00     0.092 A  
HETATM    8  C   UNL     1      -5.678  11.457  70.592  1.00  0.00    -0.119 A  
HETATM    9  C   UNL     1      -6.608  10.714  69.845  1.00  0.00    -0.137 A  
HETATM   10  C   UNL     1      -7.059   9.467  70.291  1.00  0.00    -0.110 A  
HETATM   11  C   UNL     1      -8.045   8.718  69.467  1.00  0.00    -0.105 C  
HETATM   12  O   UNL     1      -8.475   7.644  69.867  1.00  0.00    -0.133 OA 
HETATM   13  C   UNL     1      -8.511   9.285  68.164  1.00  0.00    -0.121 A  
HETATM   14  C   UNL     1      -9.437   8.618  67.333  1.00  0.00    -0.150 A  
HETATM   15  O   UNL     1      -6.653  12.361  68.178  1.00  0.00    -0.062 OA 
HETATM   16  C   UNL     1      -9.874   9.177  66.122  1.00  0.00    -0.363 A  
HETATM   17  C   UNL     1      -9.364  10.411  65.706  1.00  0.00    -0.230 A  
HETATM   18  C   UNL     1      -7.072  11.277  68.567  1.00  0.00    -0.083 C  
HETATM   19  C   UNL     1      -9.800  11.082  64.452  1.00  0.00    -0.298 C  
HETATM   20  C   UNL     1      -8.030  10.523  67.741  1.00  0.00    -0.106 A  
HETATM   21  O   UNL     1     -10.149  10.247  63.453  1.00  0.00    -0.103 OA 
HETATM   22  C   UNL     1      -8.449  11.084  66.522  1.00  0.00    -0.161 A  
HETATM   23  O   UNL     1      -9.799  12.295  64.331  1.00  0.00    -0.211 OA 
BRANCH  14  24
HETATM   24  O   UNL     1      -9.920   7.355  67.784  1.00  0.00    -0.152 OA 
BRANCH  24  25
HETATM   25  C   UNL     1     -10.047   6.145  67.100  1.00  0.00    -0.170 C  
HETATM   26  O   UNL     1     -10.998   5.804  66.413  1.00  0.00    -0.206 OA 
HETATM   27  C   UNL     1      -8.813   5.319  67.322  1.00  0.00    -0.105 C  
ENDBRANCH  24  25
ENDBRANCH  14  24
ENDBRANCH   4   5
ENDBRANCH   2   4
TORSDOF 4
ENDMDL
MODEL      111
REMARK 921   NORMALIZED FREE ENERGY PREDICTED BY IDOCK:   -2.25 KCAL/MOL
REMARK 922        TOTAL FREE ENERGY PREDICTED BY IDOCK:   -3.42 KCAL/MOL
REMARK 923 INTER-LIGAND FREE ENERGY PREDICTED BY IDOCK:   -3.73 KCAL/MOL
REMARK 924 INTRA-LIGAND FREE ENERGY PREDICTED BY IDOCK:    0.31 KCAL/MOL
REMARK 927      BINDING AFFINITY PREDICTED BY RF-SCORE:    0.00 PKD
ROOT
HETATM    1  C   UNL     1      -7.589   8.720  71.724  1.00  0.00    -0.082 C  
HETATM    2  C   UNL     1      -8.129   9.515  70.572  1.00  0.00    -0.166 C  
HETATM    3  O   UNL     1      -7.508  10.404  70.003  1.00  0.00    -0.159 OA 
ENDROOT
BRANCH   2   4
HETATM    4  O   UNL     1      -9.382   9.021  70.220  1.00  0.00    -0.169 OA 
BRANCH   4   5
HETATM    5  C   UNL     1      -9.557   7.623  70.329  1.00  0.00    -0.172 A  
HETATM    6  C   UNL     1     -10.159   7.141  71.500  1.00  0.00    -0.197 A  
HETATM    7  C   UNL     1     -10.437   5.788  71.640  1.00  0.00    -0.286 A  
HETATM    8  C   UNL     1     -10.149   4.923  70.594  1.00  0.00    -0.306 A  
HETATM    9  C   UNL     1      -9.579   5.409  69.405  1.00  0.00    -0.203 A  
HETATM   10  C   UNL     1      -9.268   6.764  69.256  1.00  0.00    -0.141 A  
HETATM   11  C   UNL     1      -8.665   7.231  67.980  1.00  0.00    -0.127 C  
HETATM   12  O   UNL     1      -8.354   8.408  67.853  1.00  0.00    -0.128 OA 
HETATM   13  C   UNL     1      -8.435   6.261  66.865  1.00  0.00    -0.109 A  
HETATM   14  C   UNL     1      -7.875   6.645  65.627  1.00  0.00    -0.105 A  
HETATM   15  O   UNL     1      -9.642   3.269  68.449  1.00  0.00    -0.168 OA 
HETATM   16  C   UNL     1      -7.651   5.713  64.601  1.00  0.00    -0.085 A  
HETATM   17  C   UNL     1      -8.014   4.376  64.789  1.00  0.00    -0.090 A  
HETATM   18  C   UNL     1      -9.345   4.451  68.312  1.00  0.00    -0.147 C  
HETATM   19  C   UNL     1      -7.781   3.325  63.763  1.00  0.00    -0.075 C  
HETATM   20  C   UNL     1      -8.770   4.919  67.040  1.00  0.00    -0.103 A  
HETATM   21  O   UNL     1      -7.843   3.754  62.487  1.00  0.00    -0.060 OA 
HETATM   22  C   UNL     1      -8.565   3.982  66.013  1.00  0.00    -0.110 A  
HETATM   23  O   UNL     1      -7.591   2.158  64.060  1.00  0.00    -0.058 OA 
BRANCH  14  24
HETATM   24  O   UNL     1      -7.535   8.020  65.468  1.00  0.00    -0.076 OA 
BRANCH  24  25
HETATM   25  C   UNL     1      -7.879   8.919  64.458  1.00  0.00    -0.126 C  
HETATM   26  O   UNL     1      -8.451   8.643  63.413  1.00  0.00    -0.165 OA 
HETATM   27  C   UNL     1      -7.451  10.302  64.858  1.00  0.00    -0.114 C  
ENDBRANCH  24  25
ENDBRANCH  14  24
ENDBRANCH   4   5
ENDBRANCH   2   4
TORSDOF 4
ENDMDL
MODEL      112
REMARK 921   NORMALIZED FREE ENERGY PREDICTED BY IDOCK:   -2.13 KCAL/MOL
REMARK 922        TOTAL FREE ENERGY PREDICTED BY IDOCK:   -3.28 KCAL/MOL
REMARK 923 INTER-LIGAND FREE ENERGY PREDICTED BY IDOCK:   -2.49 KCAL/MOL
REMARK 924 INTRA-LIGAND FREE ENERGY PREDICTED BY IDOCK:   -0.79 KCAL/MOL
REMARK 927      BINDING AFFINITY PREDICTED BY RF-SCORE:    0.00 PKD
ROOT
HETATM    1  C   UNL     1      -7.044   5.932  74.027  1.00  0.00    -0.081 C  
HETATM    2  C   UNL     1      -6.959   5.640  72.559  1.00  0.00    -0.083 C  
HETATM    3  O   UNL     1      -6.126   4.897  72.055  1.00  0.00    -0.022 OA 
ENDROOT
BRANCH   2   4
HETATM    4  O   UNL     1      -8.013   6.271  71.903  1.00  0.00    -0.101 OA 
BRANCH   4   5
HETATM    5  C   UNL     1      -7.669   7.352  71.061  1.00  0.00    -0.091 A  
HETATM    6  C   UNL     1      -7.144   8.499  71.673  1.00  0.00    -0.102 A  
HETATM    7  C   UNL     1      -6.706   9.567  70.902  1.00  0.00    -0.085 A  
HETATM    8  C   UNL     1      -6.758   9.473  69.518  1.00  0.00    -0.049 A  
HETATM    9  C   UNL     1      -7.249   8.310  68.902  1.00  0.00    -0.078 A  
HETATM   10  C   UNL     1      -7.718   7.235  69.663  1.00  0.00    -0.105 A  
HETATM   11  C   UNL     1      -8.230   6.024  68.966  1.00  0.00    -0.108 C  
HETATM   12  O   UNL     1      -8.678   5.092  69.621  1.00  0.00    -0.091 OA 
HETATM   13  C   UNL     1      -8.202   5.957  67.472  1.00  0.00    -0.105 A  
HETATM   14  C   UNL     1      -8.665   4.834  66.753  1.00  0.00    -0.107 A  
HETATM   15  O   UNL     1      -6.796   9.191  66.778  1.00  0.00    -0.078 OA 
HETATM   16  C   UNL     1      -8.646   4.800  65.350  1.00  0.00    -0.134 A  
HETATM   17  C   UNL     1      -8.133   5.889  64.638  1.00  0.00    -0.132 A  
HETATM   18  C   UNL     1      -7.229   8.249  67.431  1.00  0.00    -0.084 C  
HETATM   19  C   UNL     1      -8.108   5.941  63.152  1.00  0.00    -0.098 C  
HETATM   20  C   UNL     1      -7.714   7.041  66.743  1.00  0.00    -0.098 A  
HETATM   21  O   UNL     1      -7.959   4.748  62.544  1.00  0.00    -0.064 OA 
HETATM   22  C   UNL     1      -7.676   7.010  65.339  1.00  0.00    -0.111 A  
HETATM   23  O   UNL     1      -8.174   6.993  62.538  1.00  0.00    -0.114 OA 
BRANCH  14  24
HETATM   24  O   UNL     1      -9.164   3.738  67.515  1.00  0.00    -0.152 OA 
BRANCH  24  25
HETATM   25  C   UNL     1      -8.866   2.377  67.432  1.00  0.00    -0.136 C  
HETATM   26  O   UNL     1      -9.375   1.575  66.663  1.00  0.00    -0.026 OA 
HETATM   27  C   UNL     1      -7.798   2.041  68.432  1.00  0.00    -0.056 C  
ENDBRANCH  24  25
ENDBRANCH  14  24
ENDBRANCH   4   5
ENDBRANCH   2   4
TORSDOF 4
ENDMDL
MODEL      113
REMARK 921   NORMALIZED FREE ENERGY PREDICTED BY IDOCK:   -1.69 KCAL/MOL
REMARK 922        TOTAL FREE ENERGY PREDICTED BY IDOCK:   -2.73 KCAL/MOL
REMARK 923 INTER-LIGAND FREE ENERGY PREDICTED BY IDOCK:   -3.96 KCAL/MOL
REMARK 924 INTRA-LIGAND FREE ENERGY PREDICTED BY IDOCK:    1.23 KCAL/MOL
REMARK 927      BINDING AFFINITY PREDICTED BY RF-SCORE:    0.00 PKD
ROOT
HETATM    1  C   UNL     1     -11.728  11.745  70.769  1.00  0.00     0.155 C  
HETATM    2  C   UNL     1     -10.889  11.397  69.576  1.00  0.00    -0.108 C  
HETATM    3  O   UNL     1      -9.668  11.483  69.548  1.00  0.00     0.311 OA 
ENDROOT
BRANCH   2   4
HETATM    4  O   UNL     1     -11.709  10.893  68.569  1.00  0.00    -0.382 OA 
BRANCH   4   5
HETATM    5  C   UNL     1     -11.133  10.799  67.282  1.00  0.00    -0.270 A  
HETATM    6  C   UNL     1     -11.379  11.853  66.392  1.00  0.00    -0.400 A  
HETATM    7  C   UNL     1     -10.778  11.869  65.140  1.00  0.00    -0.339 A  
HETATM    8  C   UNL     1      -9.902  10.849  64.794  1.00  0.00    -0.343 A  
HETATM    9  C   UNL     1      -9.625   9.811  65.699  1.00  0.00    -0.329 A  
HETATM   10  C   UNL     1     -10.241   9.765  66.954  1.00  0.00    -0.310 A  
HETATM   11  C   UNL     1      -9.918   8.645  67.878  1.00  0.00    -0.188 C  
HETATM   12  O   UNL     1     -10.480   8.575  68.963  1.00  0.00    -0.219 OA 
HETATM   13  C   UNL     1      -8.918   7.610  67.472  1.00  0.00    -0.128 A  
HETATM   14  C   UNL     1      -8.563   6.529  68.308  1.00  0.00    -0.115 A  
HETATM   15  O   UNL     1      -8.100   8.852  64.200  1.00  0.00    -0.144 OA 
HETATM   16  C   UNL     1      -7.634   5.558  67.899  1.00  0.00    -0.085 A  
HETATM   17  C   UNL     1      -7.021   5.671  66.647  1.00  0.00    -0.064 A  
HETATM   18  C   UNL     1      -8.647   8.788  65.295  1.00  0.00    -0.187 C  
HETATM   19  C   UNL     1      -6.052   4.667  66.131  1.00  0.00    -0.031 C  
HETATM   20  C   UNL     1      -8.311   7.692  66.220  1.00  0.00    -0.133 A  
HETATM   21  O   UNL     1      -5.305   4.061  67.075  1.00  0.00    -0.011 OA 
HETATM   22  C   UNL     1      -7.368   6.735  65.808  1.00  0.00    -0.075 A  
HETATM   23  O   UNL     1      -5.920   4.446  64.939  1.00  0.00    -0.021 OA 
BRANCH  14  24
HETATM   24  O   UNL     1      -9.197   6.459  69.582  1.00  0.00    -0.142 OA 
BRANCH  24  25
HETATM   25  C   UNL     1     -10.424   5.903  69.946  1.00  0.00    -0.270 C  
HETATM   26  O   UNL     1     -10.883   4.846  69.539  1.00  0.00     0.192 OA 
HETATM   27  C   UNL     1     -11.100   6.800  70.942  1.00  0.00    -0.322 C  
ENDBRANCH  24  25
ENDBRANCH  14  24
ENDBRANCH   4   5
ENDBRANCH   2   4
TORSDOF 4
ENDMDL
MODEL      114
REMARK 921   NORMALIZED FREE ENERGY PREDICTED BY IDOCK:   -1.65 KCAL/MOL
REMARK 922        TOTAL FREE ENERGY PREDICTED BY IDOCK:   -2.68 KCAL/MOL
REMARK 923 INTER-LIGAND FREE ENERGY PREDICTED BY IDOCK:   -3.29 KCAL/MOL
REMARK 924 INTRA-LIGAND FREE ENERGY PREDICTED BY IDOCK:    0.61 KCAL/MOL
REMARK 927      BINDING AFFINITY PREDICTED BY RF-SCORE:    0.00 PKD
ROOT
HETATM    1  C   UNL     1      -8.509   5.499  68.078  1.00  0.00    -0.098 C  
HETATM    2  C   UNL     1      -9.618   6.467  68.366  1.00  0.00    -0.125 C  
HETATM    3  O   UNL     1     -10.706   6.145  68.828  1.00  0.00    -0.243 OA 
ENDROOT
BRANCH   2   4
HETATM    4  O   UNL     1      -9.176   7.762  68.108  1.00  0.00    -0.139 OA 
BRANCH   4   5
HETATM    5  C   UNL     1      -8.069   8.208  68.865  1.00  0.00    -0.116 A  
HETATM    6  C   UNL     1      -7.161   7.235  69.307  1.00  0.00    -0.081 A  
HETATM    7  C   UNL     1      -6.008   7.608  69.984  1.00  0.00    -0.023 A  
HETATM    8  C   UNL     1      -5.743   8.956  70.185  1.00  0.00    -0.030 A  
HETATM    9  C   UNL     1      -6.633   9.934  69.709  1.00  0.00    -0.066 A  
HETATM   10  C   UNL     1      -7.812   9.576  69.049  1.00  0.00    -0.077 A  
HETATM   11  C   UNL     1      -8.725  10.647  68.565  1.00  0.00    -0.141 C  
HETATM   12  O   UNL     1      -9.777  10.344  68.019  1.00  0.00    -0.148 OA 
HETATM   13  C   UNL     1      -8.354  12.083  68.756  1.00  0.00     0.048 A  
HETATM   14  C   UNL     1      -9.173  13.144  68.312  1.00  0.00    -0.194 A  
HETATM   15  O   UNL     1      -5.225  11.647  70.469  1.00  0.00    -0.092 OA 
HETATM   16  C   UNL     1      -8.814  14.486  68.518  1.00  0.00    -0.182 A  
HETATM   17  C   UNL     1      -7.605  14.789  69.153  1.00  0.00    -0.151 A  
HETATM   18  C   UNL     1      -6.272  11.347  69.906  1.00  0.00    -0.143 C  
HETATM   19  C   UNL     1      -7.171  16.183  69.436  1.00  0.00    -0.204 C  
HETATM   20  C   UNL     1      -7.164  12.407  69.406  1.00  0.00     0.231 A  
HETATM   21  O   UNL     1      -7.583  17.099  68.538  1.00  0.00    -0.222 OA 
HETATM   22  C   UNL     1      -6.788  13.746  69.603  1.00  0.00     0.049 A  
HETATM   23  O   UNL     1      -6.459  16.461  70.386  1.00  0.00     0.155 OA 
BRANCH  14  24
HETATM   24  O   UNL     1     -10.387  12.794  67.653  1.00  0.00    -0.216 OA 
BRANCH  24  25
HETATM   25  C   UNL     1     -11.669  13.330  67.786  1.00  0.00    -0.358 C  
HETATM   26  O   UNL     1     -12.191  13.695  68.830  1.00  0.00    -0.339 OA 
HETATM   27  C   UNL     1     -12.315  13.412  66.434  1.00  0.00    -0.381 C  
ENDBRANCH  24  25
ENDBRANCH  14  24
ENDBRANCH   4   5
ENDBRANCH   2   4
TORSDOF 4
ENDMDL
MODEL      115
REMARK 921   NORMALIZED FREE ENERGY PREDICTED BY IDOCK:   -1.60 KCAL/MOL
REMARK 922        TOTAL FREE ENERGY PREDICTED BY IDOCK:   -2.62 KCAL/MOL
REMARK 923 INTER-LIGAND FREE ENERGY PREDICTED BY IDOCK:   -3.95 KCAL/MOL
REMARK 924 INTRA-LIGAND FREE ENERGY PREDICTED BY IDOCK:    1.32 KCAL/MOL
REMARK 927      BINDING AFFINITY PREDICTED BY RF-SCORE:    0.00 PKD
ROOT
HETATM    1  C   UNL     1      -6.430  16.590  70.123  1.00  0.00     0.211 C  
HETATM    2  C   UNL     1      -7.111  17.553  69.197  1.00  0.00    -0.195 C  
HETATM    3  O   UNL     1      -6.523  18.245  68.375  1.00  0.00    -0.199 OA 
ENDROOT
BRANCH   2   4
HETATM    4  O   UNL     1      -8.490  17.461  69.370  1.00  0.00     0.123 OA 
BRANCH   4   5
HETATM    5  C   UNL     1      -9.256  17.271  68.198  1.00  0.00    -0.267 A  
HETATM    6  C   UNL     1      -9.884  18.400  67.654  1.00  0.00    -0.328 A  
HETATM    7  C   UNL     1     -10.584  18.305  66.459  1.00  0.00    -0.313 A  
HETATM    8  C   UNL     1     -10.624  17.090  65.788  1.00  0.00    -0.218 A  
HETATM    9  C   UNL     1      -9.963  15.966  66.314  1.00  0.00    -0.318 A  
HETATM   10  C   UNL     1      -9.275  16.037  67.529  1.00  0.00    -0.214 A  
HETATM   11  C   UNL     1      -8.593  14.821  68.046  1.00  0.00    -0.166 C  
HETATM   12  O   UNL     1      -8.020  14.861  69.127  1.00  0.00    -0.162 OA 
HETATM   13  C   UNL     1      -8.618  13.556  67.247  1.00  0.00    -0.218 A  
HETATM   14  C   UNL     1      -7.982  12.372  67.680  1.00  0.00    -0.164 A  
HETATM   15  O   UNL     1     -10.586  14.678  64.457  1.00  0.00    -0.318 OA 
HETATM   16  C   UNL     1      -8.034  11.191  66.922  1.00  0.00    -0.151 A  
HETATM   17  C   UNL     1      -8.706  11.185  65.695  1.00  0.00    -0.126 A  
HETATM   18  C   UNL     1      -9.997  14.720  65.531  1.00  0.00    -0.356 C  
HETATM   19  C   UNL     1      -8.832   9.967  64.851  1.00  0.00    -0.193 C  
HETATM   20  C   UNL     1      -9.301  13.523  66.032  1.00  0.00    -0.020 A  
HETATM   21  O   UNL     1      -7.795   9.110  64.933  1.00  0.00    -0.109 OA 
HETATM   22  C   UNL     1      -9.345  12.351  65.259  1.00  0.00     0.221 A  
HETATM   23  O   UNL     1      -9.784   9.785  64.112  1.00  0.00    -0.152 OA 
BRANCH  14  24
HETATM   24  O   UNL     1      -7.293  12.424  68.925  1.00  0.00    -0.100 OA 
BRANCH  24  25
HETATM   25  C   UNL     1      -5.940  12.241  69.212  1.00  0.00    -0.087 C  
HETATM   26  O   UNL     1      -5.345  11.173  69.222  1.00  0.00    -0.041 OA 
HETATM   27  C   UNL     1      -5.307  13.573  69.493  1.00  0.00    -0.085 C  
ENDBRANCH  24  25
ENDBRANCH  14  24
ENDBRANCH   4   5
ENDBRANCH   2   4
TORSDOF 4
ENDMDL
MODEL      116
REMARK 921   NORMALIZED FREE ENERGY PREDICTED BY IDOCK:   -1.04 KCAL/MOL
REMARK 922        TOTAL FREE ENERGY PREDICTED BY IDOCK:   -1.93 KCAL/MOL
REMARK 923 INTER-LIGAND FREE ENERGY PREDICTED BY IDOCK:   -2.72 KCAL/MOL
REMARK 924 INTRA-LIGAND FREE ENERGY PREDICTED BY IDOCK:    0.79 KCAL/MOL
REMARK 927      BINDING AFFINITY PREDICTED BY RF-SCORE:    0.00 PKD
ROOT
HETATM    1  C   UNL     1     -12.216  13.980  66.589  1.00  0.00    -0.463 C  
HETATM    2  C   UNL     1     -12.077  13.008  67.723  1.00  0.00    -0.193 C  
HETATM    3  O   UNL     1     -12.924  12.844  68.593  1.00  0.00     1.176 OA 
ENDROOT
BRANCH   2   4
HETATM    4  O   UNL     1     -10.895  12.288  67.569  1.00  0.00    -0.221 OA 
BRANCH   4   5
HETATM    5  C   UNL     1     -10.641  11.290  68.536  1.00  0.00    -0.199 A  
HETATM    6  C   UNL     1     -11.357  11.365  69.739  1.00  0.00    -0.332 A  
HETATM    7  C   UNL     1     -11.219  10.373  70.701  1.00  0.00    -0.358 A  
HETATM    8  C   UNL     1     -10.395   9.286  70.443  1.00  0.00    -0.291 A  
HETATM    9  C   UNL     1      -9.705   9.190  69.223  1.00  0.00    -0.164 A  
HETATM   10  C   UNL     1      -9.811  10.192  68.254  1.00  0.00    -0.162 A  
HETATM   11  C   UNL     1      -9.060  10.047  66.978  1.00  0.00    -0.142 C  
HETATM   12  O   UNL     1      -9.116  10.936  66.138  1.00  0.00    -0.171 OA 
HETATM   13  C   UNL     1      -8.238   8.822  66.733  1.00  0.00    -0.108 A  
HETATM   14  C   UNL     1      -7.511   8.623  65.539  1.00  0.00    -0.085 A  
HETATM   15  O   UNL     1      -8.821   7.108  69.837  1.00  0.00    -0.141 OA 
HETATM   16  C   UNL     1      -6.730   7.473  65.338  1.00  0.00    -0.045 A  
HETATM   17  C   UNL     1      -6.687   6.484  66.326  1.00  0.00    -0.053 A  
HETATM   18  C   UNL     1      -8.889   7.988  68.987  1.00  0.00    -0.145 C  
HETATM   19  C   UNL     1      -5.860   5.254  66.201  1.00  0.00    -0.018 C  
HETATM   20  C   UNL     1      -8.165   7.834  67.714  1.00  0.00    -0.126 A  
HETATM   21  O   UNL     1      -5.701   4.803  64.941  1.00  0.00    -0.013 OA 
HETATM   22  C   UNL     1      -7.399   6.673  67.515  1.00  0.00    -0.095 A  
HETATM   23  O   UNL     1      -5.399   4.680  67.172  1.00  0.00    -0.011 OA 
BRANCH  14  24
HETATM   24  O   UNL     1      -7.594   9.645  64.550  1.00  0.00    -0.116 OA 
BRANCH  24  25
HETATM   25  C   UNL     1      -7.860   9.553  63.183  1.00  0.00    -0.132 C  
HETATM   26  O   UNL     1      -7.647  10.421  62.349  1.00  0.00    -0.132 OA 
HETATM   27  C   UNL     1      -8.438   8.201  62.880  1.00  0.00     0.021 C  
ENDBRANCH  24  25
ENDBRANCH  14  24
ENDBRANCH   4   5
ENDBRANCH   2   4
TORSDOF 4
ENDMDL
MODEL      117
REMARK 921   NORMALIZED FREE ENERGY PREDICTED BY IDOCK:   -1.03 KCAL/MOL
REMARK 922        TOTAL FREE ENERGY PREDICTED BY IDOCK:   -1.91 KCAL/MOL
REMARK 923 INTER-LIGAND FREE ENERGY PREDICTED BY IDOCK:   -4.33 KCAL/MOL
REMARK 924 INTRA-LIGAND FREE ENERGY PREDICTED BY IDOCK:    2.42 KCAL/MOL
REMARK 927      BINDING AFFINITY PREDICTED BY RF-SCORE:    0.00 PKD
ROOT
HETATM    1  C   UNL     1      -5.988   7.387  69.567  1.00  0.00    -0.027 C  
HETATM    2  C   UNL     1      -5.925   6.529  68.338  1.00  0.00    -0.021 C  
HETATM    3  O   UNL     1      -5.423   5.412  68.307  1.00  0.00    -0.010 OA 
ENDROOT
BRANCH   2   4
HETATM    4  O   UNL     1      -6.592   7.168  67.297  1.00  0.00    -0.054 OA 
BRANCH   4   5
HETATM    5  C   UNL     1      -6.928   8.524  67.508  1.00  0.00    -0.079 A  
HETATM    6  C   UNL     1      -6.218   9.482  66.770  1.00  0.00    -0.065 A  
HETATM    7  C   UNL     1      -6.550  10.827  66.864  1.00  0.00    -0.091 A  
HETATM    8  C   UNL     1      -7.617  11.210  67.666  1.00  0.00    -0.105 A  
HETATM    9  C   UNL     1      -8.353  10.247  68.377  1.00  0.00    -0.119 A  
HETATM   10  C   UNL     1      -8.017   8.892  68.315  1.00  0.00    -0.105 A  
HETATM   11  C   UNL     1      -8.824   7.910  69.087  1.00  0.00    -0.142 C  
HETATM   12  O   UNL     1      -8.515   6.725  69.070  1.00  0.00    -0.126 OA 
HETATM   13  C   UNL     1     -10.001   8.376  69.884  1.00  0.00    -0.190 A  
HETATM   14  C   UNL     1     -10.811   7.492  70.630  1.00  0.00    -0.240 A  
HETATM   15  O   UNL     1      -9.801  11.898  69.198  1.00  0.00     0.055 OA 
HETATM   16  C   UNL     1     -11.900   7.955  71.386  1.00  0.00    -0.328 A  
HETATM   17  C   UNL     1     -12.214   9.317  71.385  1.00  0.00    -0.426 A  
HETATM   18  C   UNL     1      -9.505  10.709  69.169  1.00  0.00    -0.170 C  
HETATM   19  C   UNL     1     -13.332   9.887  72.184  1.00  0.00    -0.399 C  
HETATM   20  C   UNL     1     -10.318   9.733  69.914  1.00  0.00    -0.291 A  
HETATM   21  O   UNL     1     -14.385   9.064  72.356  1.00  0.00    -0.499 OA 
HETATM   22  C   UNL     1     -11.416  10.203  70.654  1.00  0.00    -0.432 A  
HETATM   23  O   UNL     1     -13.308  11.029  72.611  1.00  0.00     0.142 OA 
BRANCH  14  24
HETATM   24  O   UNL     1     -10.468   6.110  70.591  1.00  0.00    -0.213 OA 
BRANCH  24  25
HETATM   25  C   UNL     1     -10.249   5.208  71.634  1.00  0.00    -0.212 C  
HETATM   26  O   UNL     1     -10.416   3.998  71.585  1.00  0.00    -0.019 OA 
HETATM   27  C   UNL     1      -9.753   5.954  72.839  1.00  0.00    -0.164 C  
ENDBRANCH  24  25
ENDBRANCH  14  24
ENDBRANCH   4   5
ENDBRANCH   2   4
TORSDOF 4
ENDMDL
MODEL      118
REMARK 921   NORMALIZED FREE ENERGY PREDICTED BY IDOCK:   -0.92 KCAL/MOL
REMARK 922        TOTAL FREE ENERGY PREDICTED BY IDOCK:   -1.78 KCAL/MOL
REMARK 923 INTER-LIGAND FREE ENERGY PREDICTED BY IDOCK:   -2.96 KCAL/MOL
REMARK 924 INTRA-LIGAND FREE ENERGY PREDICTED BY IDOCK:    1.18 KCAL/MOL
REMARK 927      BINDING AFFINITY PREDICTED BY RF-SCORE:    0.00 PKD
ROOT
HETATM    1  C   UNL     1      -9.660  16.178  69.385  1.00  0.00    -0.208 C  
HETATM    2  C   UNL     1      -9.570  15.945  67.907  1.00  0.00    -0.215 C  
HETATM    3  O   UNL     1     -10.539  15.901  67.159  1.00  0.00    -0.310 OA 
ENDROOT
BRANCH   2   4
HETATM    4  O   UNL     1      -8.230  15.877  67.533  1.00  0.00    -0.147 OA 
BRANCH   4   5
HETATM    5  C   UNL     1      -7.368  15.190  68.417  1.00  0.00    -0.115 A  
HETATM    6  C   UNL     1      -6.831  15.921  69.487  1.00  0.00    -0.192 A  
HETATM    7  C   UNL     1      -6.044  15.292  70.442  1.00  0.00    -0.071 A  
HETATM    8  C   UNL     1      -5.825  13.924  70.349  1.00  0.00    -0.161 A  
HETATM    9  C   UNL     1      -6.393  13.183  69.299  1.00  0.00    -0.106 A  
HETATM   10  C   UNL     1      -7.167  13.804  68.314  1.00  0.00    -0.114 A  
HETATM   11  C   UNL     1      -7.745  12.978  67.220  1.00  0.00    -0.105 C  
HETATM   12  O   UNL     1      -8.393  13.517  66.332  1.00  0.00     0.299 OA 
HETATM   13  C   UNL     1      -7.526  11.498  67.209  1.00  0.00    -0.139 A  
HETATM   14  C   UNL     1      -8.056  10.660  66.204  1.00  0.00    -0.154 A  
HETATM   15  O   UNL     1      -5.505  11.194  70.165  1.00  0.00    -0.069 OA 
HETATM   16  C   UNL     1      -7.823   9.275  66.204  1.00  0.00    -0.099 A  
HETATM   17  C   UNL     1      -7.071   8.700  67.233  1.00  0.00    -0.079 A  
HETATM   18  C   UNL     1      -6.169  11.728  69.284  1.00  0.00    -0.092 C  
HETATM   19  C   UNL     1      -6.754   7.247  67.285  1.00  0.00    -0.068 C  
HETATM   20  C   UNL     1      -6.762  10.908  68.214  1.00  0.00    -0.063 A  
HETATM   21  O   UNL     1      -7.694   6.442  66.752  1.00  0.00    -0.097 OA 
HETATM   22  C   UNL     1      -6.536   9.521  68.231  1.00  0.00    -0.053 A  
HETATM   23  O   UNL     1      -5.739   6.823  67.810  1.00  0.00    -0.017 OA 
BRANCH  14  24
HETATM   24  O   UNL     1      -8.831  11.282  65.184  1.00  0.00    -0.110 OA 
BRANCH  24  25
HETATM   25  C   UNL     1      -9.204  10.809  63.924  1.00  0.00    -0.235 C  
HETATM   26  O   UNL     1      -9.459  11.496  62.945  1.00  0.00    -0.381 OA 
HETATM   27  C   UNL     1      -9.227   9.308  63.944  1.00  0.00     0.136 C  
ENDBRANCH  24  25
ENDBRANCH  14  24
ENDBRANCH   4   5
ENDBRANCH   2   4
TORSDOF 4
ENDMDL
MODEL      119
REMARK 921   NORMALIZED FREE ENERGY PREDICTED BY IDOCK:   -0.28 KCAL/MOL
REMARK 922        TOTAL FREE ENERGY PREDICTED BY IDOCK:   -1.00 KCAL/MOL
REMARK 923 INTER-LIGAND FREE ENERGY PREDICTED BY IDOCK:   -1.65 KCAL/MOL
REMARK 924 INTRA-LIGAND FREE ENERGY PREDICTED BY IDOCK:    0.66 KCAL/MOL
REMARK 927      BINDING AFFINITY PREDICTED BY RF-SCORE:    0.00 PKD
ROOT
HETATM    1  C   UNL     1      -5.871   7.833  72.756  1.00  0.00    -0.044 C  
HETATM    2  C   UNL     1      -6.701   7.975  71.515  1.00  0.00    -0.053 C  
HETATM    3  O   UNL     1      -6.692   7.175  70.589  1.00  0.00    -0.050 OA 
ENDROOT
BRANCH   2   4
HETATM    4  O   UNL     1      -7.520   9.095  71.637  1.00  0.00    -0.326 OA 
BRANCH   4   5
HETATM    5  C   UNL     1      -7.004  10.306  71.125  1.00  0.00     0.870 A  
HETATM    6  C   UNL     1      -5.799  10.771  71.672  1.00  0.00     0.490 A  
HETATM    7  C   UNL     1      -5.190  11.910  71.161  1.00  0.00    -0.102 A  
HETATM    8  C   UNL     1      -5.766  12.562  70.079  1.00  0.00    -0.140 A  
HETATM    9  C   UNL     1      -6.953  12.076  69.506  1.00  0.00     0.085 A  
HETATM   10  C   UNL     1      -7.594  10.946  70.023  1.00  0.00     0.433 A  
HETATM   11  C   UNL     1      -8.851  10.471  69.384  1.00  0.00    -0.075 C  
HETATM   12  O   UNL     1      -9.440   9.505  69.852  1.00  0.00    -0.190 OA 
HETATM   13  C   UNL     1      -9.389  11.179  68.181  1.00  0.00    -0.176 A  
HETATM   14  C   UNL     1     -10.570  10.770  67.525  1.00  0.00    -0.237 A  
HETATM   15  O   UNL     1      -6.903  13.756  67.872  1.00  0.00    -0.119 OA 
HETATM   16  C   UNL     1     -11.066  11.461  66.408  1.00  0.00    -0.301 A  
HETATM   17  C   UNL     1     -10.367  12.564  65.909  1.00  0.00    -0.284 A  
HETATM   18  C   UNL     1      -7.487  12.779  68.327  1.00  0.00    -0.124 C  
HETATM   19  C   UNL     1     -10.845  13.365  64.750  1.00  0.00    -0.375 C  
HETATM   20  C   UNL     1      -8.717  12.293  67.681  1.00  0.00    -0.175 A  
HETATM   21  O   UNL     1     -11.538  12.670  63.827  1.00  0.00    -0.400 OA 
HETATM   22  C   UNL     1      -9.198  12.981  66.554  1.00  0.00    -0.187 A  
HETATM   23  O   UNL     1     -10.588  14.551  64.631  1.00  0.00    -0.405 OA 
BRANCH  14  24
HETATM   24  O   UNL     1     -11.244   9.631  68.053  1.00  0.00    -0.129 OA 
BRANCH  24  25
HETATM   25  C   UNL     1     -10.958   8.272  67.912  1.00  0.00     0.176 C  
HETATM   26  O   UNL     1     -10.899   7.452  68.817  1.00  0.00    -0.155 OA 
HETATM   27  C   UNL     1     -10.750   7.957  66.459  1.00  0.00     0.342 C  
ENDBRANCH  24  25
ENDBRANCH  14  24
ENDBRANCH   4   5
ENDBRANCH   2   4
TORSDOF 4
ENDMDL
MODEL      120
REMARK 921   NORMALIZED FREE ENERGY PREDICTED BY IDOCK:   -0.02 KCAL/MOL
REMARK 922        TOTAL FREE ENERGY PREDICTED BY IDOCK:   -0.67 KCAL/MOL
REMARK 923 INTER-LIGAND FREE ENERGY PREDICTED BY IDOCK:   -0.48 KCAL/MOL
REMARK 924 INTRA-LIGAND FREE ENERGY PREDICTED BY IDOCK:   -0.18 KCAL/MOL
REMARK 927      BINDING AFFINITY PREDICTED BY RF-SCORE:    0.00 PKD
ROOT
HETATM    1  C   UNL     1      -5.680   6.403  73.595  1.00  0.00    -0.054 C  
HETATM    2  C   UNL     1      -6.584   6.571  72.410  1.00  0.00    -0.059 C  
HETATM    3  O   UNL     1      -6.614   5.802  71.457  1.00  0.00    -0.049 OA 
ENDROOT
BRANCH   2   4
HETATM    4  O   UNL     1      -7.415   7.668  72.617  1.00  0.00    -0.076 OA 
BRANCH   4   5
HETATM    5  C   UNL     1      -6.958   8.904  72.108  1.00  0.00     0.089 A  
HETATM    6  C   UNL     1      -5.699   9.349  72.538  1.00  0.00     0.058 A  
HETATM    7  C   UNL     1      -5.150  10.512  72.016  1.00  0.00     0.023 A  
HETATM    8  C   UNL     1      -5.842  11.210  71.036  1.00  0.00     0.093 A  
HETATM    9  C   UNL     1      -7.086  10.747  70.576  1.00  0.00     0.641 A  
HETATM   10  C   UNL     1      -7.666   9.592  71.109  1.00  0.00     0.189 A  
HETATM   11  C   UNL     1      -8.987   9.141  70.593  1.00  0.00    -0.244 C  
HETATM   12  O   UNL     1      -9.521   8.152  71.078  1.00  0.00    -0.150 OA 
HETATM   13  C   UNL     1      -9.655   9.901  69.491  1.00  0.00    -0.242 A  
HETATM   14  C   UNL     1     -10.902   9.518  68.952  1.00  0.00    -0.150 A  
HETATM   15  O   UNL     1      -7.217  12.500  69.027  1.00  0.00    -0.084 OA 
HETATM   16  C   UNL     1     -11.519  10.257  67.931  1.00  0.00    -0.030 A  
HETATM   17  C   UNL     1     -10.879  11.385  67.409  1.00  0.00    -0.301 A  
HETATM   18  C   UNL     1      -7.747  11.501  69.498  1.00  0.00     0.366 C  
HETATM   19  C   UNL     1     -11.482  12.237  66.349  1.00  0.00    -0.378 C  
HETATM   20  C   UNL     1      -9.042  11.040  68.971  1.00  0.00    -0.076 A  
HETATM   21  O   UNL     1     -12.275  11.582  65.477  1.00  0.00     0.050 OA 
HETATM   22  C   UNL     1      -9.644  11.777  67.937  1.00  0.00    -0.187 A  
HETATM   23  O   UNL     1     -11.239  13.428  66.256  1.00  0.00    -0.298 OA 
BRANCH  14  24
HETATM   24  O   UNL     1     -11.514   8.353  69.499  1.00  0.00     0.183 OA 
BRANCH  24  25
HETATM   25  C   UNL     1     -12.480   8.231  70.499  1.00  0.00     0.419 C  
HETATM   26  O   UNL     1     -13.012   9.152  71.102  1.00  0.00    -0.279 OA 
HETATM   27  C   UNL     1     -12.788   6.777  70.716  1.00  0.00     0.060 C  
ENDBRANCH  24  25
ENDBRANCH  14  24
ENDBRANCH   4   5
ENDBRANCH   2   4
TORSDOF 4
ENDMDL
MODEL      121
REMARK 921   NORMALIZED FREE ENERGY PREDICTED BY IDOCK:    0.11 KCAL/MOL
REMARK 922        TOTAL FREE ENERGY PREDICTED BY IDOCK:   -0.51 KCAL/MOL
REMARK 923 INTER-LIGAND FREE ENERGY PREDICTED BY IDOCK:   -4.09 KCAL/MOL
REMARK 924 INTRA-LIGAND FREE ENERGY PREDICTED BY IDOCK:    3.59 KCAL/MOL
REMARK 927      BINDING AFFINITY PREDICTED BY RF-SCORE:    0.00 PKD
ROOT
HETATM    1  C   UNL     1     -10.182  18.757  69.067  1.00  0.00    -0.181 C  
HETATM    2  C   UNL     1     -10.120  17.372  69.639  1.00  0.00     0.165 C  
HETATM    3  O   UNL     1      -9.096  16.704  69.709  1.00  0.00     0.281 OA 
ENDROOT
BRANCH   2   4
HETATM    4  O   UNL     1     -11.373  17.025  70.138  1.00  0.00     0.248 OA 
BRANCH   4   5
HETATM    5  C   UNL     1     -11.540  15.676  70.526  1.00  0.00    -0.360 A  
HETATM    6  C   UNL     1     -12.052  15.437  71.809  1.00  0.00    -0.461 A  
HETATM    7  C   UNL     1     -12.321  14.140  72.226  1.00  0.00    -0.146 A  
HETATM    8  C   UNL     1     -12.113  13.086  71.347  1.00  0.00     0.328 A  
HETATM    9  C   UNL     1     -11.635  13.327  70.048  1.00  0.00    -0.212 A  
HETATM   10  C   UNL     1     -11.335  14.623  69.619  1.00  0.00    -0.317 A  
HETATM   11  C   UNL     1     -10.829  14.829  68.236  1.00  0.00    -0.249 C  
HETATM   12  O   UNL     1     -10.527  15.955  67.863  1.00  0.00    -0.271 OA 
HETATM   13  C   UNL     1     -10.685  13.660  67.314  1.00  0.00    -0.283 A  
HETATM   14  C   UNL     1     -10.220  13.792  65.987  1.00  0.00    -0.308 A  
HETATM   15  O   UNL     1     -11.772  11.046  69.527  1.00  0.00    -0.271 OA 
HETATM   16  C   UNL     1     -10.076  12.678  65.145  1.00  0.00    -0.257 A  
HETATM   17  C   UNL     1     -10.424  11.407  65.613  1.00  0.00    -0.316 A  
HETATM   18  C   UNL     1     -11.485  12.174  69.145  1.00  0.00    -0.296 C  
HETATM   19  C   UNL     1     -10.271  10.175  64.793  1.00  0.00    -0.051 C  
HETATM   20  C   UNL     1     -11.007  12.382  67.768  1.00  0.00    -0.267 A  
HETATM   21  O   UNL     1     -10.429  10.354  63.466  1.00  0.00     0.079 OA 
HETATM   22  C   UNL     1     -10.882  11.263  66.927  1.00  0.00    -0.333 A  
HETATM   23  O   UNL     1     -10.060   9.084  65.293  1.00  0.00     0.281 OA 
BRANCH  14  24
HETATM   24  O   UNL     1      -9.892  15.105  65.543  1.00  0.00    -0.338 OA 
BRANCH  24  25
HETATM   25  C   UNL     1     -10.678  16.055  64.889  1.00  0.00    -0.316 C  
HETATM   26  O   UNL     1     -11.494  15.829  64.007  1.00  0.00    -0.296 OA 
HETATM   27  C   UNL     1     -10.382  17.416  65.451  1.00  0.00     0.055 C  
ENDBRANCH  24  25
ENDBRANCH  14  24
ENDBRANCH   4   5
ENDBRANCH   2   4
TORSDOF 4
ENDMDL
MODEL      122
REMARK 921   NORMALIZED FREE ENERGY PREDICTED BY IDOCK:    0.58 KCAL/MOL
REMARK 922        TOTAL FREE ENERGY PREDICTED BY IDOCK:    0.07 KCAL/MOL
REMARK 923 INTER-LIGAND FREE ENERGY PREDICTED BY IDOCK:   -3.97 KCAL/MOL
REMARK 924 INTRA-LIGAND FREE ENERGY PREDICTED BY IDOCK:    4.04 KCAL/MOL
REMARK 927      BINDING AFFINITY PREDICTED BY RF-SCORE:    0.00 PKD
ROOT
HETATM    1  C   UNL     1      -8.371   5.637  70.428  1.00  0.00    -0.119 C  
HETATM    2  C   UNL     1      -9.851   5.819  70.270  1.00  0.00    -0.189 C  
HETATM    3  O   UNL     1     -10.470   6.791  70.683  1.00  0.00    -0.209 OA 
ENDROOT
BRANCH   2   4
HETATM    4  O   UNL     1     -10.366   4.765  69.520  1.00  0.00    -0.196 OA 
BRANCH   4   5
HETATM    5  C   UNL     1      -9.630   4.396  68.371  1.00  0.00    -0.140 A  
HETATM    6  C   UNL     1      -9.427   3.026  68.152  1.00  0.00    -0.219 A  
HETATM    7  C   UNL     1      -8.786   2.587  67.002  1.00  0.00    -0.137 A  
HETATM    8  C   UNL     1      -8.380   3.516  66.053  1.00  0.00    -0.106 A  
HETATM    9  C   UNL     1      -8.615   4.887  66.253  1.00  0.00    -0.115 A  
HETATM   10  C   UNL     1      -9.236   5.349  67.417  1.00  0.00    -0.112 A  
HETATM   11  C   UNL     1      -9.462   6.809  67.586  1.00  0.00    -0.118 C  
HETATM   12  O   UNL     1      -9.971   7.228  68.618  1.00  0.00    -0.158 OA 
HETATM   13  C   UNL     1      -9.059   7.756  66.500  1.00  0.00    -0.208 A  
HETATM   14  C   UNL     1      -9.255   9.151  66.597  1.00  0.00    -0.164 A  
HETATM   15  O   UNL     1      -7.684   5.397  64.163  1.00  0.00    -0.075 OA 
HETATM   16  C   UNL     1      -8.852  10.022  65.573  1.00  0.00    -0.189 A  
HETATM   17  C   UNL     1      -8.267   9.504  64.413  1.00  0.00    -0.148 A  
HETATM   18  C   UNL     1      -8.209   5.818  65.188  1.00  0.00    -0.140 C  
HETATM   19  C   UNL     1      -7.786  10.364  63.299  1.00  0.00    -0.090 C  
HETATM   20  C   UNL     1      -8.454   7.261  65.345  1.00  0.00    -0.096 A  
HETATM   21  O   UNL     1      -8.482  11.504  63.121  1.00  0.00     0.204 OA 
HETATM   22  C   UNL     1      -8.063   8.124  64.308  1.00  0.00    -0.127 A  
HETATM   23  O   UNL     1      -6.858  10.035  62.579  1.00  0.00    -0.111 OA 
BRANCH  14  24
HETATM   24  O   UNL     1      -9.870   9.638  67.786  1.00  0.00    -0.149 OA 
BRANCH  24  25
HETATM   25  C   UNL     1     -11.025  10.404  67.952  1.00  0.00    -0.297 C  
HETATM   26  O   UNL     1     -11.747  10.818  67.057  1.00  0.00    -0.237 OA 
HETATM   27  C   UNL     1     -11.264  10.631  69.416  1.00  0.00    -0.329 C  
ENDBRANCH  24  25
ENDBRANCH  14  24
ENDBRANCH   4   5
ENDBRANCH   2   4
TORSDOF 4
ENDMDL
MODEL      123
REMARK 921   NORMALIZED FREE ENERGY PREDICTED BY IDOCK:    1.15 KCAL/MOL
REMARK 922        TOTAL FREE ENERGY PREDICTED BY IDOCK:    0.77 KCAL/MOL
REMARK 923 INTER-LIGAND FREE ENERGY PREDICTED BY IDOCK:    0.22 KCAL/MOL
REMARK 924 INTRA-LIGAND FREE ENERGY PREDICTED BY IDOCK:    0.55 KCAL/MOL
REMARK 927      BINDING AFFINITY PREDICTED BY RF-SCORE:    0.00 PKD
ROOT
HETATM    1  C   UNL     1      -9.321   3.821  66.561  1.00  0.00    -0.204 C  
HETATM    2  C   UNL     1     -10.485   4.614  67.075  1.00  0.00     0.053 C  
HETATM    3  O   UNL     1     -11.526   4.787  66.452  1.00  0.00     1.096 OA 
ENDROOT
BRANCH   2   4
HETATM    4  O   UNL     1     -10.218   5.032  68.376  1.00  0.00    -0.146 OA 
BRANCH   4   5
HETATM    5  C   UNL     1      -8.861   5.273  68.689  1.00  0.00    -0.096 A  
HETATM    6  C   UNL     1      -7.993   4.173  68.664  1.00  0.00    -0.072 A  
HETATM    7  C   UNL     1      -6.633   4.348  68.880  1.00  0.00    -0.045 A  
HETATM    8  C   UNL     1      -6.135   5.628  69.082  1.00  0.00    -0.025 A  
HETATM    9  C   UNL     1      -6.999   6.736  69.071  1.00  0.00    -0.082 A  
HETATM   10  C   UNL     1      -8.375   6.576  68.881  1.00  0.00    -0.122 A  
HETATM   11  C   UNL     1      -9.250   7.779  68.879  1.00  0.00    -0.140 C  
HETATM   12  O   UNL     1     -10.460   7.647  68.751  1.00  0.00    -0.207 OA 
HETATM   13  C   UNL     1      -8.647   9.139  69.040  1.00  0.00    -0.133 A  
HETATM   14  C   UNL     1      -9.423  10.318  69.036  1.00  0.00    -0.200 A  
HETATM   15  O   UNL     1      -5.195   8.200  69.383  1.00  0.00    -0.028 OA 
HETATM   16  C   UNL     1      -8.837  11.583  69.207  1.00  0.00     0.423 A  
HETATM   17  C   UNL     1      -7.451  11.690  69.358  1.00  0.00     0.154 A  
HETATM   18  C   UNL     1      -6.405   8.073  69.238  1.00  0.00    -0.035 C  
HETATM   19  C   UNL     1      -6.761  12.990  69.575  1.00  0.00     0.029 C  
HETATM   20  C   UNL     1      -7.269   9.265  69.212  1.00  0.00    -0.065 A  
HETATM   21  O   UNL     1      -7.350  14.050  68.987  1.00  0.00    -0.120 OA 
HETATM   22  C   UNL     1      -6.672  10.528  69.368  1.00  0.00    -0.076 A  
HETATM   23  O   UNL     1      -5.719  13.075  70.202  1.00  0.00    -0.119 OA 
BRANCH  14  24
HETATM   24  O   UNL     1     -10.829  10.169  68.863  1.00  0.00    -0.207 OA 
BRANCH  24  25
HETATM   25  C   UNL     1     -11.732  10.947  68.137  1.00  0.00    -0.154 C  
HETATM   26  O   UNL     1     -11.651  11.223  66.949  1.00  0.00    -0.464 OA 
HETATM   27  C   UNL     1     -12.847  11.385  69.042  1.00  0.00     1.208 C  
ENDBRANCH  24  25
ENDBRANCH  14  24
ENDBRANCH   4   5
ENDBRANCH   2   4
TORSDOF 4
ENDMDL
MODEL      124
REMARK 921   NORMALIZED FREE ENERGY PREDICTED BY IDOCK:    1.67 KCAL/MOL
REMARK 922        TOTAL FREE ENERGY PREDICTED BY IDOCK:    1.42 KCAL/MOL
REMARK 923 INTER-LIGAND FREE ENERGY PREDICTED BY IDOCK:   -0.62 KCAL/MOL
REMARK 924 INTRA-LIGAND FREE ENERGY PREDICTED BY IDOCK:    2.04 KCAL/MOL
REMARK 927      BINDING AFFINITY PREDICTED BY RF-SCORE:    0.00 PKD
ROOT
HETATM    1  C   UNL     1      -9.495  12.746  65.479  1.00  0.00     0.098 C  
HETATM    2  C   UNL     1      -9.604  11.504  66.313  1.00  0.00    -0.218 C  
HETATM    3  O   UNL     1      -9.631  10.370  65.853  1.00  0.00    -0.184 OA 
ENDROOT
BRANCH   2   4
HETATM    4  O   UNL     1      -9.581  11.853  67.661  1.00  0.00    -0.179 OA 
BRANCH   4   5
HETATM    5  C   UNL     1     -10.707  11.471  68.425  1.00  0.00    -0.208 A  
HETATM    6  C   UNL     1     -11.938  12.049  68.085  1.00  0.00    -0.231 A  
HETATM    7  C   UNL     1     -13.100  11.658  68.737  1.00  0.00     2.834 A  
HETATM    8  C   UNL     1     -13.036  10.663  69.703  1.00  0.00     0.696 A  
HETATM    9  C   UNL     1     -11.809  10.056  70.018  1.00  0.00    -0.196 A  
HETATM   10  C   UNL     1     -10.625  10.454  69.390  1.00  0.00    -0.267 A  
HETATM   11  C   UNL     1      -9.349   9.784  69.759  1.00  0.00    -0.226 C  
HETATM   12  O   UNL     1      -8.302  10.151  69.243  1.00  0.00    -0.133 OA 
HETATM   13  C   UNL     1      -9.354   8.673  70.761  1.00  0.00    -0.231 A  
HETATM   14  C   UNL     1      -8.178   7.993  71.146  1.00  0.00    -0.106 A  
HETATM   15  O   UNL     1     -12.862   8.616  71.539  1.00  0.00    -0.323 OA 
HETATM   16  C   UNL     1      -8.204   6.965  72.102  1.00  0.00    -0.105 A  
HETATM   17  C   UNL     1      -9.421   6.581  72.674  1.00  0.00    -0.153 A  
HETATM   18  C   UNL     1     -11.814   8.969  71.012  1.00  0.00    -0.285 C  
HETATM   19  C   UNL     1      -9.525   5.525  73.715  1.00  0.00    -0.138 C  
HETATM   20  C   UNL     1     -10.554   8.290  71.358  1.00  0.00    -0.279 A  
HETATM   21  O   UNL     1      -8.610   4.540  73.619  1.00  0.00    -0.103 OA 
HETATM   22  C   UNL     1     -10.592   7.252  72.305  1.00  0.00    -0.257 A  
HETATM   23  O   UNL     1     -10.401   5.533  74.563  1.00  0.00    -0.269 OA 
BRANCH  14  24
HETATM   24  O   UNL     1      -6.961   8.401  70.528  1.00  0.00    -0.036 OA 
BRANCH  24  25
HETATM   25  C   UNL     1      -6.539   8.274  69.204  1.00  0.00    -0.043 C  
HETATM   26  O   UNL     1      -6.823   9.027  68.283  1.00  0.00    -0.064 OA 
HETATM   27  C   UNL     1      -5.655   7.068  69.078  1.00  0.00    -0.018 C  
ENDBRANCH  24  25
ENDBRANCH  14  24
ENDBRANCH   4   5
ENDBRANCH   2   4
TORSDOF 4
ENDMDL
MODEL      125
REMARK 921   NORMALIZED FREE ENERGY PREDICTED BY IDOCK:    2.82 KCAL/MOL
REMARK 922        TOTAL FREE ENERGY PREDICTED BY IDOCK:    2.83 KCAL/MOL
REMARK 923 INTER-LIGAND FREE ENERGY PREDICTED BY IDOCK:    2.33 KCAL/MOL
REMARK 924 INTRA-LIGAND FREE ENERGY PREDICTED BY IDOCK:    0.49 KCAL/MOL
REMARK 927      BINDING AFFINITY PREDICTED BY RF-SCORE:    0.00 PKD
ROOT
HETATM    1  C   UNL     1      -7.061  12.496  68.219  1.00  0.00    -0.104 C  
HETATM    2  C   UNL     1      -8.245  11.897  67.519  1.00  0.00    -0.155 C  
HETATM    3  O   UNL     1      -9.115  12.553  66.960  1.00  0.00    -0.199 OA 
ENDROOT
BRANCH   2   4
HETATM    4  O   UNL     1      -8.138  10.509  67.541  1.00  0.00    -0.107 OA 
BRANCH   4   5
HETATM    5  C   UNL     1      -7.796   9.889  66.318  1.00  0.00    -0.108 A  
HETATM    6  C   UNL     1      -6.908  10.575  65.477  1.00  0.00    -0.100 A  
HETATM    7  C   UNL     1      -6.464   9.990  64.299  1.00  0.00    -0.131 A  
HETATM    8  C   UNL     1      -6.876   8.703  63.981  1.00  0.00    -0.082 A  
HETATM    9  C   UNL     1      -7.736   7.999  64.841  1.00  0.00    -0.118 A  
HETATM   10  C   UNL     1      -8.214   8.582  66.018  1.00  0.00    -0.118 A  
HETATM   11  C   UNL     1      -9.125   7.799  66.896  1.00  0.00    -0.144 C  
HETATM   12  O   UNL     1      -9.579   8.313  67.910  1.00  0.00    -0.147 OA 
HETATM   13  C   UNL     1      -9.483   6.393  66.531  1.00  0.00    -0.189 A  
HETATM   14  C   UNL     1     -10.334   5.596  67.328  1.00  0.00    -0.241 A  
HETATM   15  O   UNL     1      -7.652   6.113  63.451  1.00  0.00    -0.071 OA 
HETATM   16  C   UNL     1     -10.672   4.284  66.956  1.00  0.00     1.055 A  
HETATM   17  C   UNL     1     -10.137   3.737  65.786  1.00  0.00     0.045 A  
HETATM   18  C   UNL     1      -8.096   6.619  64.476  1.00  0.00    -0.073 C  
HETATM   19  C   UNL     1     -10.472   2.368  65.310  1.00  0.00     1.512 C  
HETATM   20  C   UNL     1      -8.977   5.836  65.358  1.00  0.00    -0.047 A  
HETATM   21  O   UNL     1     -10.731   1.475  66.286  1.00  0.00     2.866 OA 
HETATM   22  C   UNL     1      -9.297   4.519  64.986  1.00  0.00    -0.157 A  
HETATM   23  O   UNL     1     -10.468   2.073  64.127  1.00  0.00     0.048 OA 
BRANCH  14  24
HETATM   24  O   UNL     1     -10.844   6.184  68.521  1.00  0.00    -0.266 OA 
BRANCH  24  25
HETATM   25  C   UNL     1     -10.414   6.054  69.842  1.00  0.00    -0.249 C  
HETATM   26  O   UNL     1     -11.087   5.656  70.781  1.00  0.00    -0.241 OA 
HETATM   27  C   UNL     1      -8.973   6.464  69.937  1.00  0.00    -0.142 C  
ENDBRANCH  24  25
ENDBRANCH  14  24
ENDBRANCH   4   5
ENDBRANCH   2   4
TORSDOF 4
ENDMDL
MODEL      126
REMARK 921   NORMALIZED FREE ENERGY PREDICTED BY IDOCK:    3.24 KCAL/MOL
REMARK 922        TOTAL FREE ENERGY PREDICTED BY IDOCK:    3.35 KCAL/MOL
REMARK 923 INTER-LIGAND FREE ENERGY PREDICTED BY IDOCK:   -3.58 KCAL/MOL
REMARK 924 INTRA-LIGAND FREE ENERGY PREDICTED BY IDOCK:    6.93 KCAL/MOL
REMARK 927      BINDING AFFINITY PREDICTED BY RF-SCORE:    0.00 PKD
ROOT
HETATM    1  C   UNL     1      -5.931   6.341  69.898  1.00  0.00    -0.018 C  
HETATM    2  C   UNL     1      -6.666   5.087  70.269  1.00  0.00    -0.036 C  
HETATM    3  O   UNL     1      -6.479   4.465  71.307  1.00  0.00    -0.018 OA 
ENDROOT
BRANCH   2   4
HETATM    4  O   UNL     1      -7.628   4.815  69.299  1.00  0.00    -0.056 OA 
BRANCH   4   5
HETATM    5  C   UNL     1      -7.604   5.633  68.148  1.00  0.00    -0.081 A  
HETATM    6  C   UNL     1      -7.018   5.097  66.992  1.00  0.00    -0.064 A  
HETATM    7  C   UNL     1      -7.034   5.811  65.802  1.00  0.00    -0.068 A  
HETATM    8  C   UNL     1      -7.668   7.045  65.757  1.00  0.00    -0.103 A  
HETATM    9  C   UNL     1      -8.288   7.568  66.904  1.00  0.00    -0.125 A  
HETATM   10  C   UNL     1      -8.260   6.875  68.118  1.00  0.00    -0.119 A  
HETATM   11  C   UNL     1      -8.929   7.469  69.307  1.00  0.00    -0.136 C  
HETATM   12  O   UNL     1      -8.878   6.889  70.383  1.00  0.00    -0.149 OA 
HETATM   13  C   UNL     1      -9.650   8.773  69.181  1.00  0.00    -0.162 A  
HETATM   14  C   UNL     1     -10.311   9.383  70.269  1.00  0.00    -0.245 A  
HETATM   15  O   UNL     1      -9.024   9.443  65.706  1.00  0.00    -0.161 OA 
HETATM   16  C   UNL     1     -10.967  10.617  70.132  1.00  0.00    -0.292 A  
HETATM   17  C   UNL     1     -10.995  11.251  68.886  1.00  0.00    -0.274 A  
HETATM   18  C   UNL     1      -8.990   8.856  66.781  1.00  0.00    -0.130 C  
HETATM   19  C   UNL     1     -11.642  12.573  68.668  1.00  0.00    -0.314 C  
HETATM   20  C   UNL     1      -9.672   9.432  67.952  1.00  0.00    -0.177 A  
HETATM   21  O   UNL     1     -12.710  12.819  69.453  1.00  0.00     0.348 OA 
HETATM   22  C   UNL     1     -10.340  10.659  67.801  1.00  0.00    -0.239 A  
HETATM   23  O   UNL     1     -11.255  13.353  67.814  1.00  0.00    -0.259 OA 
BRANCH  14  24
HETATM   24  O   UNL     1     -10.275   8.697  71.517  1.00  0.00    -0.224 OA 
BRANCH  24  25
HETATM   25  C   UNL     1      -9.188   8.356  72.324  1.00  0.00    -0.259 C  
HETATM   26  O   UNL     1      -8.688   9.059  73.190  1.00  0.00    -0.093 OA 
HETATM   27  C   UNL     1      -8.729   6.970  71.977  1.00  0.00    -0.128 C  
ENDBRANCH  24  25
ENDBRANCH  14  24
ENDBRANCH   4   5
ENDBRANCH   2   4
TORSDOF 4
ENDMDL
MODEL      127
REMARK 921   NORMALIZED FREE ENERGY PREDICTED BY IDOCK:    3.71 KCAL/MOL
REMARK 922        TOTAL FREE ENERGY PREDICTED BY IDOCK:    3.93 KCAL/MOL
REMARK 923 INTER-LIGAND FREE ENERGY PREDICTED BY IDOCK:   -4.67 KCAL/MOL
REMARK 924 INTRA-LIGAND FREE ENERGY PREDICTED BY IDOCK:    8.60 KCAL/MOL
REMARK 927      BINDING AFFINITY PREDICTED BY RF-SCORE:    0.00 PKD
ROOT
HETATM    1  C   UNL     1      -8.948   9.064  69.308  1.00  0.00    -0.144 C  
HETATM    2  C   UNL     1      -9.135  10.427  68.712  1.00  0.00    -0.165 C  
HETATM    3  O   UNL     1      -8.853  11.471  69.286  1.00  0.00     0.177 OA 
ENDROOT
BRANCH   2   4
HETATM    4  O   UNL     1      -9.590  10.297  67.402  1.00  0.00    -0.154 OA 
BRANCH   4   5
HETATM    5  C   UNL     1     -10.215  11.433  66.841  1.00  0.00    -0.219 A  
HETATM    6  C   UNL     1     -11.533  11.282  66.389  1.00  0.00     0.043 A  
HETATM    7  C   UNL     1     -12.238  12.375  65.903  1.00  0.00    -0.220 A  
HETATM    8  C   UNL     1     -11.637  13.627  65.905  1.00  0.00    -0.346 A  
HETATM    9  C   UNL     1     -10.329  13.787  66.391  1.00  0.00    -0.290 A  
HETATM   10  C   UNL     1      -9.595  12.693  66.860  1.00  0.00    -0.232 A  
HETATM   11  C   UNL     1      -8.213  12.912  67.364  1.00  0.00    -0.187 C  
HETATM   12  O   UNL     1      -7.548  11.956  67.742  1.00  0.00    -0.113 OA 
HETATM   13  C   UNL     1      -7.643  14.295  67.398  1.00  0.00    -0.185 A  
HETATM   14  C   UNL     1      -6.341  14.567  67.873  1.00  0.00    -0.161 A  
HETATM   15  O   UNL     1     -10.428  16.100  66.021  1.00  0.00    -0.321 OA 
HETATM   16  C   UNL     1      -5.820  15.871  67.880  1.00  0.00    -0.155 A  
HETATM   17  C   UNL     1      -6.610  16.935  67.432  1.00  0.00    -0.190 A  
HETATM   18  C   UNL     1      -9.766  15.147  66.416  1.00  0.00    -0.278 C  
HETATM   19  C   UNL     1      -6.118  18.338  67.379  1.00  0.00    -0.170 C  
HETATM   20  C   UNL     1      -8.406  15.366  66.937  1.00  0.00    -0.290 A  
HETATM   21  O   UNL     1      -5.220  18.661  68.330  1.00  0.00    -0.174 OA 
HETATM   22  C   UNL     1      -7.899  16.676  66.955  1.00  0.00    -0.261 A  
HETATM   23  O   UNL     1      -6.533  19.140  66.560  1.00  0.00    -0.186 OA 
BRANCH  14  24
HETATM   24  O   UNL     1      -5.575  13.459  68.337  1.00  0.00    -0.074 OA 
BRANCH  24  25
HETATM   25  C   UNL     1      -5.480  12.160  67.837  1.00  0.00    -0.065 C  
HETATM   26  O   UNL     1      -5.456  11.844  66.656  1.00  0.00    -0.268 OA 
HETATM   27  C   UNL     1      -5.393  11.193  68.981  1.00  0.00    -0.040 C  
ENDBRANCH  24  25
ENDBRANCH  14  24
ENDBRANCH   4   5
ENDBRANCH   2   4
TORSDOF 4
ENDMDL
MODEL      128
REMARK 921   NORMALIZED FREE ENERGY PREDICTED BY IDOCK:    4.15 KCAL/MOL
REMARK 922        TOTAL FREE ENERGY PREDICTED BY IDOCK:    4.48 KCAL/MOL
REMARK 923 INTER-LIGAND FREE ENERGY PREDICTED BY IDOCK:    4.67 KCAL/MOL
REMARK 924 INTRA-LIGAND FREE ENERGY PREDICTED BY IDOCK:   -0.19 KCAL/MOL
REMARK 927      BINDING AFFINITY PREDICTED BY RF-SCORE:    0.00 PKD
ROOT
HETATM    1  C   UNL     1      -6.488  10.308  72.337  1.00  0.00     1.823 C  
HETATM    2  C   UNL     1      -7.080  11.234  71.318  1.00  0.00     3.752 C  
HETATM    3  O   UNL     1      -6.717  12.392  71.151  1.00  0.00     1.370 OA 
ENDROOT
BRANCH   2   4
HETATM    4  O   UNL     1      -8.023  10.543  70.561  1.00  0.00     0.237 OA 
BRANCH   4   5
HETATM    5  C   UNL     1      -7.633  10.184  69.251  1.00  0.00    -0.117 A  
HETATM    6  C   UNL     1      -6.921  11.139  68.511  1.00  0.00    -0.072 A  
HETATM    7  C   UNL     1      -6.434  10.826  67.249  1.00  0.00    -0.070 A  
HETATM    8  C   UNL     1      -6.626   9.548  66.743  1.00  0.00    -0.068 A  
HETATM    9  C   UNL     1      -7.306   8.579  67.499  1.00  0.00    -0.089 A  
HETATM   10  C   UNL     1      -7.826   8.883  68.761  1.00  0.00    -0.101 A  
HETATM   11  C   UNL     1      -8.542   7.825  69.523  1.00  0.00    -0.135 C  
HETATM   12  O   UNL     1      -9.033   8.091  70.612  1.00  0.00    -0.144 OA 
HETATM   13  C   UNL     1      -8.661   6.447  68.952  1.00  0.00    -0.126 A  
HETATM   14  C   UNL     1      -9.319   5.399  69.631  1.00  0.00    -0.135 A  
HETATM   15  O   UNL     1      -6.953   6.968  65.833  1.00  0.00    -0.061 OA 
HETATM   16  C   UNL     1      -9.435   4.118  69.067  1.00  0.00    -0.244 A  
HETATM   17  C   UNL     1      -8.866   3.857  67.817  1.00  0.00    -0.135 A  
HETATM   18  C   UNL     1      -7.432   7.226  66.932  1.00  0.00    -0.097 C  
HETATM   19  C   UNL     1      -8.974   2.536  67.141  1.00  0.00    -0.152 C  
HETATM   20  C   UNL     1      -8.119   6.172  67.698  1.00  0.00    -0.113 A  
HETATM   21  O   UNL     1      -9.025   1.476  67.972  1.00  0.00    -0.099 OA 
HETATM   22  C   UNL     1      -8.216   4.890  67.133  1.00  0.00    -0.106 A  
HETATM   23  O   UNL     1      -8.972   2.426  65.927  1.00  0.00    -0.129 OA 
BRANCH  14  24
HETATM   24  O   UNL     1      -9.871   5.699  70.910  1.00  0.00    -0.170 OA 
BRANCH  24  25
HETATM   25  C   UNL     1     -10.754   4.965  71.703  1.00  0.00     0.001 C  
HETATM   26  O   UNL     1     -10.733   3.755  71.871  1.00  0.00     0.159 OA 
HETATM   27  C   UNL     1     -11.738   5.900  72.344  1.00  0.00    -0.307 C  
ENDBRANCH  24  25
ENDBRANCH  14  24
ENDBRANCH   4   5
ENDBRANCH   2   4
TORSDOF 4
ENDMDL
MODEL      129
REMARK 921   NORMALIZED FREE ENERGY PREDICTED BY IDOCK:    6.87 KCAL/MOL
REMARK 922        TOTAL FREE ENERGY PREDICTED BY IDOCK:    7.83 KCAL/MOL
REMARK 923 INTER-LIGAND FREE ENERGY PREDICTED BY IDOCK:    6.02 KCAL/MOL
REMARK 924 INTRA-LIGAND FREE ENERGY PREDICTED BY IDOCK:    1.82 KCAL/MOL
REMARK 927      BINDING AFFINITY PREDICTED BY RF-SCORE:    0.00 PKD
ROOT
HETATM    1  C   UNL     1     -11.971  13.999  70.353  1.00  0.00    -0.398 C  
HETATM    2  C   UNL     1     -12.784  14.555  69.223  1.00  0.00     0.327 C  
HETATM    3  O   UNL     1     -13.651  15.409  69.358  1.00  0.00     1.321 OA 
ENDROOT
BRANCH   2   4
HETATM    4  O   UNL     1     -12.335  14.011  68.022  1.00  0.00    -0.239 OA 
BRANCH   4   5
HETATM    5  C   UNL     1     -12.014  14.932  67.000  1.00  0.00    -0.107 A  
HETATM    6  C   UNL     1     -12.902  15.026  65.919  1.00  0.00     0.780 A  
HETATM    7  C   UNL     1     -12.694  15.967  64.920  1.00  0.00     1.644 A  
HETATM    8  C   UNL     1     -11.620  16.841  65.022  1.00  0.00     0.670 A  
HETATM    9  C   UNL     1     -10.750  16.773  66.123  1.00  0.00    -0.116 A  
HETATM   10  C   UNL     1     -10.928  15.815  67.125  1.00  0.00    -0.244 A  
HETATM   11  C   UNL     1      -9.980  15.780  68.271  1.00  0.00    -0.221 C  
HETATM   12  O   UNL     1     -10.105  14.922  69.134  1.00  0.00    -0.229 OA 
HETATM   13  C   UNL     1      -8.879  16.789  68.356  1.00  0.00    -0.237 A  
HETATM   14  C   UNL     1      -7.954  16.813  69.423  1.00  0.00     0.131 A  
HETATM   15  O   UNL     1      -9.528  18.608  65.326  1.00  0.00     0.479 OA 
HETATM   16  C   UNL     1      -6.916  17.758  69.473  1.00  0.00     0.020 A  
HETATM   17  C   UNL     1      -6.804  18.718  68.462  1.00  0.00    -0.285 A  
HETATM   18  C   UNL     1      -9.660  17.760  66.201  1.00  0.00    -0.187 C  
HETATM   19  C   UNL     1      -5.714  19.730  68.429  1.00  0.00    -0.216 C  
HETATM   20  C   UNL     1      -8.737  17.741  67.348  1.00  0.00    -0.235 A  
HETATM   21  O   UNL     1      -5.271  20.127  69.638  1.00  0.00    -0.193 OA 
HETATM   22  C   UNL     1      -7.711  18.700  67.398  1.00  0.00    -0.237 A  
HETATM   23  O   UNL     1      -5.290  20.192  67.384  1.00  0.00    -0.170 OA 
BRANCH  14  24
HETATM   24  O   UNL     1      -8.112  15.830  70.442  1.00  0.00     0.811 OA 
BRANCH  24  25
HETATM   25  C   UNL     1      -7.390  14.661  70.682  1.00  0.00     0.944 C  
HETATM   26  O   UNL     1      -7.727  13.529  70.364  1.00  0.00     1.791 OA 
HETATM   27  C   UNL     1      -6.109  15.004  71.385  1.00  0.00     0.410 C  
ENDBRANCH  24  25
ENDBRANCH  14  24
ENDBRANCH   4   5
ENDBRANCH   2   4
TORSDOF 4
ENDMDL
MODEL      130
REMARK 921   NORMALIZED FREE ENERGY PREDICTED BY IDOCK:   10.20 KCAL/MOL
REMARK 922        TOTAL FREE ENERGY PREDICTED BY IDOCK:   11.94 KCAL/MOL
REMARK 923 INTER-LIGAND FREE ENERGY PREDICTED BY IDOCK:    5.01 KCAL/MOL
REMARK 924 INTRA-LIGAND FREE ENERGY PREDICTED BY IDOCK:    6.93 KCAL/MOL
REMARK 927      BINDING AFFINITY PREDICTED BY RF-SCORE:    0.00 PKD
ROOT
HETATM    1  C   UNL     1     -12.853  15.524  73.445  1.00  0.00    -0.660 C  
HETATM    2  C   UNL     1     -13.508  15.512  72.096  1.00  0.00    -0.490 C  
HETATM    3  O   UNL     1     -14.224  16.411  71.673  1.00  0.00     0.863 OA 
ENDROOT
BRANCH   2   4
HETATM    4  O   UNL     1     -13.103  14.376  71.399  1.00  0.00    -0.316 OA 
BRANCH   4   5
HETATM    5  C   UNL     1     -11.928  14.504  70.625  1.00  0.00    -0.319 A  
HETATM    6  C   UNL     1     -11.555  15.798  70.234  1.00  0.00    -0.377 A  
HETATM    7  C   UNL     1     -10.369  16.008  69.544  1.00  0.00    -0.278 A  
HETATM    8  C   UNL     1      -9.537  14.929  69.277  1.00  0.00    -0.131 A  
HETATM    9  C   UNL     1      -9.891  13.637  69.700  1.00  0.00     1.025 A  
HETATM   10  C   UNL     1     -11.093  13.403  70.374  1.00  0.00     0.791 A  
HETATM   11  C   UNL     1     -11.426  12.017  70.800  1.00  0.00     0.948 C  
HETATM   12  O   UNL     1     -12.493  11.795  71.357  1.00  0.00    -0.282 OA 
HETATM   13  C   UNL     1     -10.459  10.905  70.540  1.00  0.00     0.948 A  
HETATM   14  C   UNL     1     -10.713   9.572  70.928  1.00  0.00    -0.333 A  
HETATM   15  O   UNL     1      -7.883  12.765  68.862  1.00  0.00    -0.012 OA 
HETATM   16  C   UNL     1      -9.800   8.541  70.657  1.00  0.00    -0.218 A  
HETATM   17  C   UNL     1      -8.595   8.836  70.012  1.00  0.00    -0.136 A  
HETATM   18  C   UNL     1      -8.943  12.542  69.435  1.00  0.00     1.290 C  
HETATM   19  C   UNL     1      -7.591   7.795  69.662  1.00  0.00    -0.092 C  
HETATM   20  C   UNL     1      -9.262  11.175  69.879  1.00  0.00     1.188 A  
HETATM   21  O   UNL     1      -7.537   6.751  70.512  1.00  0.00    -0.088 OA 
HETATM   22  C   UNL     1      -8.334  10.153  69.617  1.00  0.00    -0.174 A  
HETATM   23  O   UNL     1      -6.848   7.906  68.702  1.00  0.00    -0.059 OA 
BRANCH  14  24
HETATM   24  O   UNL     1     -11.944   9.315  71.599  1.00  0.00    -0.330 OA 
BRANCH  24  25
HETATM   25  C   UNL     1     -12.721  10.151  72.402  1.00  0.00     0.117 C  
HETATM   26  O   UNL     1     -12.363  11.211  72.895  1.00  0.00     2.258 OA 
HETATM   27  C   UNL     1     -14.091   9.557  72.558  1.00  0.00    -0.122 C  
ENDBRANCH  24  25
ENDBRANCH  14  24
ENDBRANCH   4   5
ENDBRANCH   2   4
TORSDOF 4
ENDMDL
MODEL      131
REMARK 921   NORMALIZED FREE ENERGY PREDICTED BY IDOCK:   10.53 KCAL/MOL
REMARK 922        TOTAL FREE ENERGY PREDICTED BY IDOCK:   12.34 KCAL/MOL
REMARK 923 INTER-LIGAND FREE ENERGY PREDICTED BY IDOCK:   10.63 KCAL/MOL
REMARK 924 INTRA-LIGAND FREE ENERGY PREDICTED BY IDOCK:    1.71 KCAL/MOL
REMARK 927      BINDING AFFINITY PREDICTED BY RF-SCORE:    0.00 PKD
ROOT
HETATM    1  C   UNL     1     -11.482   6.708  72.158  1.00  0.00    -0.323 C  
HETATM    2  C   UNL     1     -10.778   7.887  71.555  1.00  0.00    -0.227 C  
HETATM    3  O   UNL     1      -9.734   7.811  70.919  1.00  0.00    -0.168 OA 
ENDROOT
BRANCH   2   4
HETATM    4  O   UNL     1     -11.542   9.033  71.762  1.00  0.00    -0.329 OA 
BRANCH   4   5
HETATM    5  C   UNL     1     -11.891   9.769  70.608  1.00  0.00    -0.281 A  
HETATM    6  C   UNL     1     -13.232   9.722  70.200  1.00  0.00     0.579 A  
HETATM    7  C   UNL     1     -13.665  10.486  69.124  1.00  0.00     4.530 A  
HETATM    8  C   UNL     1     -12.766  11.326  68.481  1.00  0.00     1.570 A  
HETATM    9  C   UNL     1     -11.431  11.403  68.913  1.00  0.00    -0.363 A  
HETATM   10  C   UNL     1     -10.971  10.621  69.977  1.00  0.00    -0.325 A  
HETATM   11  C   UNL     1      -9.548  10.735  70.397  1.00  0.00     1.517 C  
HETATM   12  O   UNL     1      -9.126  10.028  71.302  1.00  0.00     0.525 OA 
HETATM   13  C   UNL     1      -8.643  11.704  69.705  1.00  0.00     1.254 A  
HETATM   14  C   UNL     1      -7.287  11.865  70.063  1.00  0.00     1.172 A  
HETATM   15  O   UNL     1     -10.960  13.044  67.307  1.00  0.00    -0.255 OA 
HETATM   16  C   UNL     1      -6.450  12.768  69.388  1.00  0.00    -0.096 A  
HETATM   17  C   UNL     1      -6.970  13.551  68.353  1.00  0.00    -0.105 A  
HETATM   18  C   UNL     1     -10.538  12.351  68.225  1.00  0.00    -0.222 C  
HETATM   19  C   UNL     1      -6.141  14.507  67.570  1.00  0.00     0.066 C  
HETATM   20  C   UNL     1      -9.136  12.480  68.657  1.00  0.00     0.038 A  
HETATM   21  O   UNL     1      -5.129  15.074  68.256  1.00  0.00    -0.100 OA 
HETATM   22  C   UNL     1      -8.311  13.398  67.986  1.00  0.00    -0.165 A  
HETATM   23  O   UNL     1      -6.391  14.783  66.409  1.00  0.00     1.836 OA 
BRANCH  14  24
HETATM   24  O   UNL     1      -6.800  11.061  71.134  1.00  0.00     0.651 OA 
BRANCH  24  25
HETATM   25  C   UNL     1      -5.940   9.962  71.114  1.00  0.00    -0.037 C  
HETATM   26  O   UNL     1      -5.356   9.487  72.078  1.00  0.00    -0.073 OA 
HETATM   27  C   UNL     1      -5.849   9.428  69.714  1.00  0.00    -0.036 C  
ENDBRANCH  24  25
ENDBRANCH  14  24
ENDBRANCH   4   5
ENDBRANCH   2   4
TORSDOF 4
ENDMDL
MODEL      132
REMARK 921   NORMALIZED FREE ENERGY PREDICTED BY IDOCK:   13.04 KCAL/MOL
REMARK 922        TOTAL FREE ENERGY PREDICTED BY IDOCK:   15.45 KCAL/MOL
REMARK 923 INTER-LIGAND FREE ENERGY PREDICTED BY IDOCK:   15.81 KCAL/MOL
REMARK 924 INTRA-LIGAND FREE ENERGY PREDICTED BY IDOCK:   -0.36 KCAL/MOL
REMARK 927      BINDING AFFINITY PREDICTED BY RF-SCORE:    0.00 PKD
ROOT
HETATM    1  C   UNL     1     -12.986  11.832  67.444  1.00  0.00     4.408 C  
HETATM    2  C   UNL     1     -12.756  11.309  68.831  1.00  0.00     1.029 C  
HETATM    3  O   UNL     1     -13.374  10.372  69.321  1.00  0.00     0.743 OA 
ENDROOT
BRANCH   2   4
HETATM    4  O   UNL     1     -11.694  11.997  69.411  1.00  0.00    -0.297 OA 
BRANCH   4   5
HETATM    5  C   UNL     1     -12.031  13.129  70.187  1.00  0.00    -0.310 A  
HETATM    6  C   UNL     1     -13.030  12.967  71.157  1.00  0.00    -0.259 A  
HETATM    7  C   UNL     1     -13.354  14.012  72.011  1.00  0.00    -0.514 A  
HETATM    8  C   UNL     1     -12.653  15.207  71.921  1.00  0.00    -0.417 A  
HETATM    9  C   UNL     1     -11.626  15.359  70.974  1.00  0.00    -0.410 A  
HETATM   10  C   UNL     1     -11.303  14.326  70.089  1.00  0.00    -0.187 A  
HETATM   11  C   UNL     1     -10.210  14.534  69.102  1.00  0.00    -0.164 C  
HETATM   12  O   UNL     1      -9.944  13.651  68.297  1.00  0.00    -0.227 OA 
HETATM   13  C   UNL     1      -9.448  15.822  69.095  1.00  0.00    -0.255 A  
HETATM   14  C   UNL     1      -8.394  16.075  68.191  1.00  0.00    -0.160 A  
HETATM   15  O   UNL     1     -11.164  17.519  71.759  1.00  0.00     0.920 OA 
HETATM   16  C   UNL     1      -7.705  17.299  68.190  1.00  0.00    -0.217 A  
HETATM   17  C   UNL     1      -8.045  18.285  69.122  1.00  0.00     0.037 A  
HETATM   18  C   UNL     1     -10.883  16.630  70.963  1.00  0.00     0.623 C  
HETATM   19  C   UNL     1      -7.383  19.617  69.164  1.00  0.00    -0.304 C  
HETATM   20  C   UNL     1      -9.785  16.826  70.002  1.00  0.00     0.837 A  
HETATM   21  O   UNL     1      -6.091  19.620  68.781  1.00  0.00    -0.230 OA 
HETATM   22  C   UNL     1      -9.090  18.047  70.020  1.00  0.00     1.905 A  
HETATM   23  O   UNL     1      -7.960  20.616  69.556  1.00  0.00     0.954 OA 
BRANCH  14  24
HETATM   24  O   UNL     1      -8.067  15.039  67.269  1.00  0.00    -0.181 OA 
BRANCH  24  25
HETATM   25  C   UNL     1      -6.969  14.907  66.418  1.00  0.00     2.557 C  
HETATM   26  O   UNL     1      -6.288  15.821  65.976  1.00  0.00     1.692 OA 
HETATM   27  C   UNL     1      -6.733  13.452  66.134  1.00  0.00     4.233 C  
ENDBRANCH  24  25
ENDBRANCH  14  24
ENDBRANCH   4   5
ENDBRANCH   2   4
TORSDOF 4
ENDMDL
MODEL      133
REMARK 921   NORMALIZED FREE ENERGY PREDICTED BY IDOCK:   13.19 KCAL/MOL
REMARK 922        TOTAL FREE ENERGY PREDICTED BY IDOCK:   15.63 KCAL/MOL
REMARK 923 INTER-LIGAND FREE ENERGY PREDICTED BY IDOCK:    2.33 KCAL/MOL
REMARK 924 INTRA-LIGAND FREE ENERGY PREDICTED BY IDOCK:   13.30 KCAL/MOL
REMARK 927      BINDING AFFINITY PREDICTED BY RF-SCORE:    0.00 PKD
ROOT
HETATM    1  C   UNL     1      -8.437   5.695  68.462  1.00  0.00    -0.105 C  
HETATM    2  C   UNL     1      -9.933   5.695  68.569  1.00  0.00    -0.157 C  
HETATM    3  O   UNL     1     -10.582   6.579  69.115  1.00  0.00    -0.200 OA 
ENDROOT
BRANCH   2   4
HETATM    4  O   UNL     1     -10.442   4.594  67.885  1.00  0.00     0.055 OA 
BRANCH   4   5
HETATM    5  C   UNL     1     -10.311   4.616  66.478  1.00  0.00    -0.194 A  
HETATM    6  C   UNL     1     -11.134   3.751  65.743  1.00  0.00     1.938 A  
HETATM    7  C   UNL     1     -11.119   3.778  64.355  1.00  0.00     0.168 A  
HETATM    8  C   UNL     1     -10.308   4.696  63.702  1.00  0.00     0.479 A  
HETATM    9  C   UNL     1      -9.510   5.589  64.437  1.00  0.00     0.716 A  
HETATM   10  C   UNL     1      -9.493   5.559  65.834  1.00  0.00    -0.115 A  
HETATM   11  C   UNL     1      -8.630   6.522  66.569  1.00  0.00    -0.123 C  
HETATM   12  O   UNL     1      -8.579   6.480  67.791  1.00  0.00    -0.117 OA 
HETATM   13  C   UNL     1      -7.826   7.530  65.810  1.00  0.00    -0.107 A  
HETATM   14  C   UNL     1      -6.996   8.476  66.450  1.00  0.00    -0.078 A  
HETATM   15  O   UNL     1      -8.752   6.603  62.464  1.00  0.00     0.126 OA 
HETATM   16  C   UNL     1      -6.236   9.401  65.717  1.00  0.00    -0.060 A  
HETATM   17  C   UNL     1      -6.316   9.412  64.321  1.00  0.00    -0.089 A  
HETATM   18  C   UNL     1      -8.712   6.574  63.688  1.00  0.00     0.617 C  
HETATM   19  C   UNL     1      -5.519  10.339  63.474  1.00  0.00    -0.138 C  
HETATM   20  C   UNL     1      -7.876   7.543  64.417  1.00  0.00    -0.128 A  
HETATM   21  O   UNL     1      -5.257  11.536  64.035  1.00  0.00     0.312 OA 
HETATM   22  C   UNL     1      -7.131   8.476  63.675  1.00  0.00    -0.089 A  
HETATM   23  O   UNL     1      -5.170  10.048  62.343  1.00  0.00    -0.085 OA 
BRANCH  14  24
HETATM   24  O   UNL     1      -6.954   8.445  67.874  1.00  0.00    -0.075 OA 
BRANCH  24  25
HETATM   25  C   UNL     1      -6.978   9.491  68.797  1.00  0.00    -0.067 C  
HETATM   26  O   UNL     1      -6.086   9.776  69.584  1.00  0.00    -0.042 OA 
HETATM   27  C   UNL     1      -8.273  10.239  68.667  1.00  0.00    -0.116 C  
ENDBRANCH  24  25
ENDBRANCH  14  24
ENDBRANCH   4   5
ENDBRANCH   2   4
TORSDOF 4
ENDMDL
MODEL      134
REMARK 921   NORMALIZED FREE ENERGY PREDICTED BY IDOCK:   13.36 KCAL/MOL
REMARK 922        TOTAL FREE ENERGY PREDICTED BY IDOCK:   15.84 KCAL/MOL
REMARK 923 INTER-LIGAND FREE ENERGY PREDICTED BY IDOCK:   15.70 KCAL/MOL
REMARK 924 INTRA-LIGAND FREE ENERGY PREDICTED BY IDOCK:    0.14 KCAL/MOL
REMARK 927      BINDING AFFINITY PREDICTED BY RF-SCORE:    0.00 PKD
ROOT
HETATM    1  C   UNL     1     -10.516  17.386  71.513  1.00  0.00     3.152 C  
HETATM    2  C   UNL     1      -9.976  16.106  70.947  1.00  0.00     1.673 C  
HETATM    3  O   UNL     1     -10.666  15.252  70.406  1.00  0.00    -0.288 OA 
ENDROOT
BRANCH   2   4
HETATM    4  O   UNL     1      -8.588  16.102  71.064  1.00  0.00     3.306 OA 
BRANCH   4   5
HETATM    5  C   UNL     1      -7.860  16.337  69.877  1.00  0.00     0.703 A  
HETATM    6  C   UNL     1      -7.470  17.658  69.615  1.00  0.00     0.524 A  
HETATM    7  C   UNL     1      -6.681  17.951  68.511  1.00  0.00    -0.227 A  
HETATM    8  C   UNL     1      -6.251  16.918  67.689  1.00  0.00    -0.171 A  
HETATM    9  C   UNL     1      -6.609  15.589  67.971  1.00  0.00    -0.156 A  
HETATM   10  C   UNL     1      -7.424  15.278  69.063  1.00  0.00    -0.163 A  
HETATM   11  C   UNL     1      -7.779  13.857  69.320  1.00  0.00     0.202 C  
HETATM   12  O   UNL     1      -8.523  13.577  70.251  1.00  0.00     2.672 OA 
HETATM   13  C   UNL     1      -7.233  12.781  68.435  1.00  0.00    -0.115 A  
HETATM   14  C   UNL     1      -7.526  11.414  68.633  1.00  0.00    -0.119 A  
HETATM   15  O   UNL     1      -5.348  14.818  66.151  1.00  0.00     3.370 OA 
HETATM   16  C   UNL     1      -7.016  10.423  67.779  1.00  0.00    -0.083 A  
HETATM   17  C   UNL     1      -6.176  10.786  66.721  1.00  0.00    -0.083 A  
HETATM   18  C   UNL     1      -6.078  14.533  67.094  1.00  0.00     0.786 C  
HETATM   19  C   UNL     1      -5.623   9.798  65.756  1.00  0.00    -0.050 C  
HETATM   20  C   UNL     1      -6.411  13.124  67.363  1.00  0.00    -0.063 A  
HETATM   21  O   UNL     1      -5.393   8.572  66.267  1.00  0.00    -0.030 OA 
HETATM   22  C   UNL     1      -5.883  12.137  66.512  1.00  0.00     0.501 A  
HETATM   23  O   UNL     1      -5.360  10.094  64.603  1.00  0.00    -0.080 OA 
BRANCH  14  24
HETATM   24  O   UNL     1      -8.370  11.084  69.732  1.00  0.00     0.278 OA 
BRANCH  24  25
HETATM   25  C   UNL     1      -9.077   9.911  70.002  1.00  0.00    -0.178 C  
HETATM   26  O   UNL     1      -9.790   9.305  69.216  1.00  0.00    -0.164 OA 
HETATM   27  C   UNL     1      -8.812   9.487  71.417  1.00  0.00     0.504 C  
ENDBRANCH  24  25
ENDBRANCH  14  24
ENDBRANCH   4   5
ENDBRANCH   2   4
TORSDOF 4
ENDMDL
MODEL      135
REMARK 921   NORMALIZED FREE ENERGY PREDICTED BY IDOCK:   13.62 KCAL/MOL
REMARK 922        TOTAL FREE ENERGY PREDICTED BY IDOCK:   16.16 KCAL/MOL
REMARK 923 INTER-LIGAND FREE ENERGY PREDICTED BY IDOCK:    6.90 KCAL/MOL
REMARK 924 INTRA-LIGAND FREE ENERGY PREDICTED BY IDOCK:    9.26 KCAL/MOL
REMARK 927      BINDING AFFINITY PREDICTED BY RF-SCORE:    0.00 PKD
ROOT
HETATM    1  C   UNL     1      -9.518  15.923  69.784  1.00  0.00    -0.036 C  
HETATM    2  C   UNL     1      -8.248  15.496  69.110  1.00  0.00    -0.247 C  
HETATM    3  O   UNL     1      -8.150  15.272  67.910  1.00  0.00    -0.129 OA 
ENDROOT
BRANCH   2   4
HETATM    4  O   UNL     1      -7.215  15.484  70.044  1.00  0.00    -0.091 OA 
BRANCH   4   5
HETATM    5  C   UNL     1      -6.700  14.215  70.392  1.00  0.00     0.139 A  
HETATM    6  C   UNL     1      -6.271  14.038  71.715  1.00  0.00     0.519 A  
HETATM    7  C   UNL     1      -5.832  12.795  72.149  1.00  0.00     1.244 A  
HETATM    8  C   UNL     1      -5.858  11.719  71.272  1.00  0.00     0.458 A  
HETATM    9  C   UNL     1      -6.323  11.886  69.956  1.00  0.00    -0.072 A  
HETATM   10  C   UNL     1      -6.745  13.136  69.494  1.00  0.00     0.023 A  
HETATM   11  C   UNL     1      -7.227  13.264  68.092  1.00  0.00    -0.112 C  
HETATM   12  O   UNL     1      -7.563  14.362  67.666  1.00  0.00    -0.148 OA 
HETATM   13  C   UNL     1      -7.292  12.056  67.214  1.00  0.00    -0.151 A  
HETATM   14  C   UNL     1      -7.749  12.111  65.879  1.00  0.00     1.205 A  
HETATM   15  O   UNL     1      -6.024   9.604  69.515  1.00  0.00    -0.033 OA 
HETATM   16  C   UNL     1      -7.784  10.967  65.066  1.00  0.00     0.259 A  
HETATM   17  C   UNL     1      -7.384   9.733  65.590  1.00  0.00    -0.106 A  
HETATM   18  C   UNL     1      -6.378  10.697  69.090  1.00  0.00    -0.053 C  
HETATM   19  C   UNL     1      -7.362   8.484  64.784  1.00  0.00    -0.091 C  
HETATM   20  C   UNL     1      -6.878  10.820  67.710  1.00  0.00    -0.073 A  
HETATM   21  O   UNL     1      -8.305   8.412  63.823  1.00  0.00    -0.145 OA 
HETATM   22  C   UNL     1      -6.924   9.667  66.910  1.00  0.00    -0.085 A  
HETATM   23  O   UNL     1      -6.577   7.579  65.009  1.00  0.00    -0.043 OA 
BRANCH  14  24
HETATM   24  O   UNL     1      -8.164  13.383  65.388  1.00  0.00     2.637 OA 
BRANCH  24  25
HETATM   25  C   UNL     1      -9.396  13.789  64.874  1.00  0.00     1.104 C  
HETATM   26  O   UNL     1     -10.126  14.646  65.349  1.00  0.00    -0.349 OA 
HETATM   27  C   UNL     1      -9.688  13.018  63.619  1.00  0.00     1.283 C  
ENDBRANCH  24  25
ENDBRANCH  14  24
ENDBRANCH   4   5
ENDBRANCH   2   4
TORSDOF 4
ENDMDL
MODEL      136
REMARK 921   NORMALIZED FREE ENERGY PREDICTED BY IDOCK:   13.98 KCAL/MOL
REMARK 922        TOTAL FREE ENERGY PREDICTED BY IDOCK:   16.61 KCAL/MOL
REMARK 923 INTER-LIGAND FREE ENERGY PREDICTED BY IDOCK:   16.11 KCAL/MOL
REMARK 924 INTRA-LIGAND FREE ENERGY PREDICTED BY IDOCK:    0.49 KCAL/MOL
REMARK 927      BINDING AFFINITY PREDICTED BY RF-SCORE:    0.00 PKD
ROOT
HETATM    1  C   UNL     1      -7.066  12.495  68.220  1.00  0.00    -0.104 C  
HETATM    2  C   UNL     1      -8.273  11.924  67.536  1.00  0.00    -0.155 C  
HETATM    3  O   UNL     1      -9.120  12.598  66.965  1.00  0.00    -0.201 OA 
ENDROOT
BRANCH   2   4
HETATM    4  O   UNL     1      -8.215  10.533  67.588  1.00  0.00    -0.110 OA 
BRANCH   4   5
HETATM    5  C   UNL     1      -9.391   9.844  67.218  1.00  0.00    -0.145 A  
HETATM    6  C   UNL     1     -10.151  10.389  66.173  1.00  0.00    -0.299 A  
HETATM    7  C   UNL     1     -11.274   9.722  65.700  1.00  0.00     2.045 A  
HETATM    8  C   UNL     1     -11.614   8.492  66.247  1.00  0.00     4.658 A  
HETATM    9  C   UNL     1     -10.833   7.927  67.269  1.00  0.00    -0.189 A  
HETATM   10  C   UNL     1      -9.714   8.596  67.775  1.00  0.00    -0.202 A  
HETATM   11  C   UNL     1      -8.919   7.959  68.859  1.00  0.00    -0.141 C  
HETATM   12  O   UNL     1      -7.960   8.553  69.335  1.00  0.00    -0.102 OA 
HETATM   13  C   UNL     1      -9.300   6.604  69.364  1.00  0.00    -0.147 A  
HETATM   14  C   UNL     1      -8.580   5.944  70.383  1.00  0.00    -0.135 A  
HETATM   15  O   UNL     1     -12.186   6.013  67.305  1.00  0.00     2.636 OA 
HETATM   16  C   UNL     1      -8.966   4.679  70.855  1.00  0.00    -0.163 A  
HETATM   17  C   UNL     1     -10.073   4.038  70.289  1.00  0.00     0.067 A  
HETATM   18  C   UNL     1     -11.215   6.597  67.772  1.00  0.00    -0.150 C  
HETATM   19  C   UNL     1     -10.563   2.713  70.755  1.00  0.00     1.845 C  
HETATM   20  C   UNL     1     -10.413   5.957  68.828  1.00  0.00    -0.314 A  
HETATM   21  O   UNL     1      -9.606   1.886  71.220  1.00  0.00    -0.125 OA 
HETATM   22  C   UNL     1     -10.798   4.684  69.282  1.00  0.00     1.342 A  
HETATM   23  O   UNL     1     -11.736   2.391  70.679  1.00  0.00     6.358 OA 
BRANCH  14  24
HETATM   24  O   UNL     1      -7.448   6.622  70.921  1.00  0.00    -0.081 OA 
BRANCH  24  25
HETATM   25  C   UNL     1      -6.090   6.469  70.639  1.00  0.00    -0.031 C  
HETATM   26  O   UNL     1      -5.184   7.169  71.065  1.00  0.00    -0.026 OA 
HETATM   27  C   UNL     1      -5.902   5.286  69.733  1.00  0.00    -0.017 C  
ENDBRANCH  24  25
ENDBRANCH  14  24
ENDBRANCH   4   5
ENDBRANCH   2   4
TORSDOF 4
ENDMDL
MODEL      137
REMARK 921   NORMALIZED FREE ENERGY PREDICTED BY IDOCK:   14.82 KCAL/MOL
REMARK 922        TOTAL FREE ENERGY PREDICTED BY IDOCK:   17.64 KCAL/MOL
REMARK 923 INTER-LIGAND FREE ENERGY PREDICTED BY IDOCK:   16.93 KCAL/MOL
REMARK 924 INTRA-LIGAND FREE ENERGY PREDICTED BY IDOCK:    0.72 KCAL/MOL
REMARK 927      BINDING AFFINITY PREDICTED BY RF-SCORE:    0.00 PKD
ROOT
HETATM    1  C   UNL     1      -6.874  14.156  72.652  1.00  0.00     2.930 C  
HETATM    2  C   UNL     1      -6.359  15.472  72.150  1.00  0.00     2.055 C  
HETATM    3  O   UNL     1      -5.239  15.906  72.388  1.00  0.00     0.021 OA 
ENDROOT
BRANCH   2   4
HETATM    4  O   UNL     1      -7.316  16.054  71.322  1.00  0.00     2.948 OA 
BRANCH   4   5
HETATM    5  C   UNL     1      -7.030  16.051  69.938  1.00  0.00     0.076 A  
HETATM    6  C   UNL     1      -6.058  16.953  69.482  1.00  0.00    -0.224 A  
HETATM    7  C   UNL     1      -5.667  16.948  68.150  1.00  0.00    -0.120 A  
HETATM    8  C   UNL     1      -6.219  16.016  67.282  1.00  0.00    -0.155 A  
HETATM    9  C   UNL     1      -7.166  15.086  67.745  1.00  0.00    -0.186 A  
HETATM   10  C   UNL     1      -7.591  15.093  69.077  1.00  0.00    -0.162 A  
HETATM   11  C   UNL     1      -8.597  14.091  69.521  1.00  0.00     0.761 C  
HETATM   12  O   UNL     1      -9.004  14.112  70.675  1.00  0.00     2.594 OA 
HETATM   13  C   UNL     1      -9.109  13.071  68.554  1.00  0.00    -0.053 A  
HETATM   14  C   UNL     1     -10.056  12.089  68.917  1.00  0.00    -0.015 A  
HETATM   15  O   UNL     1      -7.279  14.081  65.631  1.00  0.00     4.908 OA 
HETATM   16  C   UNL     1     -10.536  11.153  67.988  1.00  0.00    -0.217 A  
HETATM   17  C   UNL     1     -10.051  11.167  66.676  1.00  0.00    -0.256 A  
HETATM   18  C   UNL     1      -7.676  14.089  66.790  1.00  0.00     0.623 C  
HETATM   19  C   UNL     1     -10.533  10.229  65.628  1.00  0.00    -0.082 C  
HETATM   20  C   UNL     1      -8.653  13.082  67.236  1.00  0.00    -0.206 A  
HETATM   21  O   UNL     1     -10.906   9.016  66.080  1.00  0.00     0.613 OA 
HETATM   22  C   UNL     1      -9.116  12.139  66.303  1.00  0.00    -0.141 A  
HETATM   23  O   UNL     1     -10.547  10.528  64.446  1.00  0.00    -0.235 OA 
BRANCH  14  24
HETATM   24  O   UNL     1     -10.512  12.096  70.267  1.00  0.00     1.455 OA 
BRANCH  24  25
HETATM   25  C   UNL     1     -11.731  11.683  70.805  1.00  0.00     0.189 C  
HETATM   26  O   UNL     1     -12.334  12.224  71.721  1.00  0.00     0.068 OA 
HETATM   27  C   UNL     1     -12.211  10.465  70.070  1.00  0.00    -0.262 C  
ENDBRANCH  24  25
ENDBRANCH  14  24
ENDBRANCH   4   5
ENDBRANCH   2   4
TORSDOF 4
ENDMDL
MODEL      138
REMARK 921   NORMALIZED FREE ENERGY PREDICTED BY IDOCK:   14.97 KCAL/MOL
REMARK 922        TOTAL FREE ENERGY PREDICTED BY IDOCK:   17.83 KCAL/MOL
REMARK 923 INTER-LIGAND FREE ENERGY PREDICTED BY IDOCK:   15.42 KCAL/MOL
REMARK 924 INTRA-LIGAND FREE ENERGY PREDICTED BY IDOCK:    2.41 KCAL/MOL
REMARK 927      BINDING AFFINITY PREDICTED BY RF-SCORE:    0.00 PKD
ROOT
HETATM    1  C   UNL     1      -7.548  14.290  71.812  1.00  0.00     4.440 C  
HETATM    2  C   UNL     1      -7.969  15.652  71.345  1.00  0.00     4.459 C  
HETATM    3  O   UNL     1      -7.192  16.510  70.945  1.00  0.00     2.391 OA 
ENDROOT
BRANCH   2   4
HETATM    4  O   UNL     1      -9.359  15.734  71.361  1.00  0.00     2.659 OA 
BRANCH   4   5
HETATM    5  C   UNL     1      -9.980  16.077  70.139  1.00  0.00     0.190 A  
HETATM    6  C   UNL     1     -10.565  17.349  70.053  1.00  0.00     0.567 A  
HETATM    7  C   UNL     1     -11.119  17.786  68.857  1.00  0.00     0.698 A  
HETATM    8  C   UNL     1     -11.055  16.967  67.738  1.00  0.00    -0.090 A  
HETATM    9  C   UNL     1     -10.437  15.708  67.813  1.00  0.00    -0.273 A  
HETATM   10  C   UNL     1      -9.897  15.240  69.015  1.00  0.00    -0.230 A  
HETATM   11  C   UNL     1      -9.254  13.899  69.046  1.00  0.00     0.207 C  
HETATM   12  O   UNL     1      -8.811  13.464  70.101  1.00  0.00     2.689 OA 
HETATM   13  C   UNL     1      -9.160  13.089  67.792  1.00  0.00    -0.200 A  
HETATM   14  C   UNL     1      -8.555  11.814  67.756  1.00  0.00    -0.151 A  
HETATM   15  O   UNL     1     -10.814  15.339  65.529  1.00  0.00    -0.333 OA 
HETATM   16  C   UNL     1      -8.494  11.063  66.571  1.00  0.00    -0.161 A  
HETATM   17  C   UNL     1      -9.019  11.593  65.388  1.00  0.00     0.085 A  
HETATM   18  C   UNL     1     -10.354  14.907  66.580  1.00  0.00    -0.283 C  
HETATM   19  C   UNL     1      -9.021  10.847  64.101  1.00  0.00    -0.101 C  
HETATM   20  C   UNL     1      -9.696  13.590  66.607  1.00  0.00    -0.281 A  
HETATM   21  O   UNL     1      -7.982  10.005  63.932  1.00  0.00    -0.142 OA 
HETATM   22  C   UNL     1      -9.626  12.853  65.413  1.00  0.00     0.063 A  
HETATM   23  O   UNL     1      -9.876  11.022  63.250  1.00  0.00    -0.301 OA 
BRANCH  14  24
HETATM   24  O   UNL     1      -8.016  11.317  68.977  1.00  0.00    -0.132 OA 
BRANCH  24  25
HETATM   25  C   UNL     1      -7.811  10.003  69.400  1.00  0.00    -0.141 C  
HETATM   26  O   UNL     1      -6.900   9.611  70.115  1.00  0.00    -0.069 OA 
HETATM   27  C   UNL     1      -8.902   9.129  68.853  1.00  0.00    -0.139 C  
ENDBRANCH  24  25
ENDBRANCH  14  24
ENDBRANCH   4   5
ENDBRANCH   2   4
TORSDOF 4
ENDMDL
MODEL      139
REMARK 921   NORMALIZED FREE ENERGY PREDICTED BY IDOCK:   20.31 KCAL/MOL
REMARK 922        TOTAL FREE ENERGY PREDICTED BY IDOCK:   24.42 KCAL/MOL
REMARK 923 INTER-LIGAND FREE ENERGY PREDICTED BY IDOCK:   12.27 KCAL/MOL
REMARK 924 INTRA-LIGAND FREE ENERGY PREDICTED BY IDOCK:   12.14 KCAL/MOL
REMARK 927      BINDING AFFINITY PREDICTED BY RF-SCORE:    0.00 PKD
ROOT
HETATM    1  C   UNL     1      -8.873   3.529  68.807  1.00  0.00    -0.161 C  
HETATM    2  C   UNL     1      -9.562   4.859  68.884  1.00  0.00    -0.158 C  
HETATM    3  O   UNL     1      -9.188   5.785  69.592  1.00  0.00    -0.135 OA 
ENDROOT
BRANCH   2   4
HETATM    4  O   UNL     1     -10.614   4.884  67.972  1.00  0.00     0.028 OA 
BRANCH   4   5
HETATM    5  C   UNL     1     -10.571   5.903  66.995  1.00  0.00    -0.305 A  
HETATM    6  C   UNL     1     -11.341   5.715  65.838  1.00  0.00     1.038 A  
HETATM    7  C   UNL     1     -11.413   6.712  64.874  1.00  0.00     8.567 A  
HETATM    8  C   UNL     1     -10.745   7.911  65.084  1.00  0.00     5.737 A  
HETATM    9  C   UNL     1     -10.004   8.115  66.259  1.00  0.00    -0.148 A  
HETATM   10  C   UNL     1      -9.899   7.114  67.229  1.00  0.00    -0.217 A  
HETATM   11  C   UNL     1      -9.101   7.376  68.457  1.00  0.00    -0.136 C  
HETATM   12  O   UNL     1      -8.972   6.493  69.295  1.00  0.00    -0.131 OA 
HETATM   13  C   UNL     1      -8.456   8.711  68.655  1.00  0.00    -0.130 A  
HETATM   14  C   UNL     1      -7.695   9.023  69.802  1.00  0.00    -0.077 A  
HETATM   15  O   UNL     1      -9.479  10.303  65.600  1.00  0.00    -0.191 OA 
HETATM   16  C   UNL     1      -7.083  10.278  69.959  1.00  0.00    -0.161 A  
HETATM   17  C   UNL     1      -7.249  11.256  68.974  1.00  0.00    -0.119 A  
HETATM   18  C   UNL     1      -9.362   9.427  66.449  1.00  0.00    -0.187 C  
HETATM   19  C   UNL     1      -6.608  12.596  69.053  1.00  0.00    -0.100 C  
HETATM   20  C   UNL     1      -8.592   9.693  67.675  1.00  0.00    -0.126 A  
HETATM   21  O   UNL     1      -6.441  13.073  70.302  1.00  0.00     0.026 OA 
HETATM   22  C   UNL     1      -7.997  10.957  67.831  1.00  0.00    -0.111 A  
HETATM   23  O   UNL     1      -6.299  13.228  68.057  1.00  0.00    -0.096 OA 
BRANCH  14  24
HETATM   24  O   UNL     1      -7.564   8.005  70.790  1.00  0.00    -0.073 OA 
BRANCH  24  25
HETATM   25  C   UNL     1      -7.759   8.063  72.171  1.00  0.00    -0.106 C  
HETATM   26  O   UNL     1      -6.959   7.713  73.026  1.00  0.00    -0.065 OA 
HETATM   27  C   UNL     1      -9.113   8.645  72.457  1.00  0.00    -0.187 C  
ENDBRANCH  24  25
ENDBRANCH  14  24
ENDBRANCH   4   5
ENDBRANCH   2   4
TORSDOF 4
ENDMDL
MODEL      140
REMARK 921   NORMALIZED FREE ENERGY PREDICTED BY IDOCK:   22.21 KCAL/MOL
REMARK 922        TOTAL FREE ENERGY PREDICTED BY IDOCK:   26.75 KCAL/MOL
REMARK 923 INTER-LIGAND FREE ENERGY PREDICTED BY IDOCK:   17.35 KCAL/MOL
REMARK 924 INTRA-LIGAND FREE ENERGY PREDICTED BY IDOCK:    9.40 KCAL/MOL
REMARK 927      BINDING AFFINITY PREDICTED BY RF-SCORE:    0.00 PKD
ROOT
HETATM    1  C   UNL     1      -8.840  16.359  68.283  1.00  0.00    -0.202 C  
HETATM    2  C   UNL     1      -8.545  15.728  66.955  1.00  0.00    -0.247 C  
HETATM    3  O   UNL     1      -7.418  15.600  66.492  1.00  0.00    -0.077 OA 
ENDROOT
BRANCH   2   4
HETATM    4  O   UNL     1      -9.729  15.250  66.400  1.00  0.00    -0.251 OA 
BRANCH   4   5
HETATM    5  C   UNL     1     -10.775  14.968  67.307  1.00  0.00    -0.298 A  
HETATM    6  C   UNL     1     -11.998  15.621  67.098  1.00  0.00     0.570 A  
HETATM    7  C   UNL     1     -13.095  15.330  67.898  1.00  0.00     2.983 A  
HETATM    8  C   UNL     1     -12.979  14.358  68.883  1.00  0.00     1.362 A  
HETATM    9  C   UNL     1     -11.765  13.676  69.070  1.00  0.00    -0.375 A  
HETATM   10  C   UNL     1     -10.643  13.974  68.290  1.00  0.00    -0.253 A  
HETATM   11  C   UNL     1      -9.378  13.227  68.526  1.00  0.00    -0.091 C  
HETATM   12  O   UNL     1      -8.380  13.506  67.875  1.00  0.00    -0.149 OA 
HETATM   13  C   UNL     1      -9.333  12.147  69.560  1.00  0.00     1.353 A  
HETATM   14  C   UNL     1      -8.167  11.397  69.824  1.00  0.00     1.083 A  
HETATM   15  O   UNL     1     -12.716  12.355  70.756  1.00  0.00    -0.238 OA 
HETATM   16  C   UNL     1      -8.142  10.400  70.812  1.00  0.00     1.611 A  
HETATM   17  C   UNL     1      -9.303  10.117  71.539  1.00  0.00     2.959 A  
HETATM   18  C   UNL     1     -11.719  12.620  70.094  1.00  0.00    -0.168 C  
HETATM   19  C   UNL     1      -9.348   9.098  72.622  1.00  0.00     1.106 C  
HETATM   20  C   UNL     1     -10.474  11.864  70.310  1.00  0.00     1.938 A  
HETATM   21  O   UNL     1      -8.518   8.050  72.450  1.00  0.00    -0.127 OA 
HETATM   22  C   UNL     1     -10.463  10.857  71.290  1.00  0.00     3.174 A  
HETATM   23  O   UNL     1     -10.111   9.190  73.568  1.00  0.00     2.198 OA 
BRANCH  14  24
HETATM   24  O   UNL     1      -7.010  11.703  69.050  1.00  0.00    -0.099 OA 
BRANCH  24  25
HETATM   25  C   UNL     1      -6.903  12.296  67.791  1.00  0.00    -0.109 C  
HETATM   26  O   UNL     1      -6.420  13.394  67.552  1.00  0.00    -0.166 OA 
HETATM   27  C   UNL     1      -7.459  11.364  66.754  1.00  0.00    -0.137 C  
ENDBRANCH  24  25
ENDBRANCH  14  24
ENDBRANCH   4   5
ENDBRANCH   2   4
TORSDOF 4
ENDMDL
MODEL      141
REMARK 921   NORMALIZED FREE ENERGY PREDICTED BY IDOCK:   23.36 KCAL/MOL
REMARK 922        TOTAL FREE ENERGY PREDICTED BY IDOCK:   28.18 KCAL/MOL
REMARK 923 INTER-LIGAND FREE ENERGY PREDICTED BY IDOCK:   24.44 KCAL/MOL
REMARK 924 INTRA-LIGAND FREE ENERGY PREDICTED BY IDOCK:    3.74 KCAL/MOL
REMARK 927      BINDING AFFINITY PREDICTED BY RF-SCORE:    0.00 PKD
ROOT
HETATM    1  C   UNL     1      -8.830   8.189  72.851  1.00  0.00    -0.307 C  
HETATM    2  C   UNL     1      -9.356   8.420  71.466  1.00  0.00    -0.200 C  
HETATM    3  O   UNL     1      -8.661   8.407  70.458  1.00  0.00    -0.135 OA 
ENDROOT
BRANCH   2   4
HETATM    4  O   UNL     1     -10.741   8.561  71.518  1.00  0.00    -0.226 OA 
BRANCH   4   5
HETATM    5  C   UNL     1     -11.380   8.906  70.306  1.00  0.00    -0.159 A  
HETATM    6  C   UNL     1     -12.493   8.141  69.928  1.00  0.00     1.528 A  
HETATM    7  C   UNL     1     -13.220   8.475  68.793  1.00  0.00     9.511 A  
HETATM    8  C   UNL     1     -12.858   9.596  68.059  1.00  0.00     7.641 A  
HETATM    9  C   UNL     1     -11.766  10.385  68.457  1.00  0.00    -0.039 A  
HETATM   10  C   UNL     1     -11.007  10.050  69.582  1.00  0.00    -0.301 A  
HETATM   11  C   UNL     1      -9.858  10.915  69.964  1.00  0.00     0.741 C  
HETATM   12  O   UNL     1      -9.163  10.609  70.924  1.00  0.00     1.601 OA 
HETATM   13  C   UNL     1      -9.555  12.145  69.168  1.00  0.00     0.441 A  
HETATM   14  C   UNL     1      -8.486  13.010  69.486  1.00  0.00     1.462 A  
HETATM   15  O   UNL     1     -12.151  11.884  66.697  1.00  0.00    -0.587 OA 
HETATM   16  C   UNL     1      -8.209  14.150  68.714  1.00  0.00    -0.074 A  
HETATM   17  C   UNL     1      -9.023  14.459  67.620  1.00  0.00    -0.192 A  
HETATM   18  C   UNL     1     -11.464  11.591  67.668  1.00  0.00    -0.285 C  
HETATM   19  C   UNL     1      -8.776  15.630  66.737  1.00  0.00    -0.271 C  
HETATM   20  C   UNL     1     -10.342  12.459  68.061  1.00  0.00    -0.220 A  
HETATM   21  O   UNL     1      -8.221  16.695  67.348  1.00  0.00    -0.164 OA 
HETATM   22  C   UNL     1     -10.083  13.607  67.292  1.00  0.00    -0.239 A  
HETATM   23  O   UNL     1      -9.093  15.634  65.560  1.00  0.00    -0.157 OA 
BRANCH  14  24
HETATM   24  O   UNL     1      -7.691  12.670  70.619  1.00  0.00     3.113 OA 
BRANCH  24  25
HETATM   25  C   UNL     1      -6.495  13.224  71.077  1.00  0.00     1.096 C  
HETATM   26  O   UNL     1      -5.416  12.654  71.139  1.00  0.00    -0.251 OA 
HETATM   27  C   UNL     1      -6.729  14.654  71.470  1.00  0.00     1.111 C  
ENDBRANCH  24  25
ENDBRANCH  14  24
ENDBRANCH   4   5
ENDBRANCH   2   4
TORSDOF 4
ENDMDL
MODEL      142
REMARK 921   NORMALIZED FREE ENERGY PREDICTED BY IDOCK:   24.10 KCAL/MOL
REMARK 922        TOTAL FREE ENERGY PREDICTED BY IDOCK:   29.08 KCAL/MOL
REMARK 923 INTER-LIGAND FREE ENERGY PREDICTED BY IDOCK:   26.40 KCAL/MOL
REMARK 924 INTRA-LIGAND FREE ENERGY PREDICTED BY IDOCK:    2.69 KCAL/MOL
REMARK 927      BINDING AFFINITY PREDICTED BY RF-SCORE:    0.00 PKD
ROOT
HETATM    1  C   UNL     1      -6.058   7.362  69.582  1.00  0.00    -0.030 C  
HETATM    2  C   UNL     1      -6.049   6.537  68.330  1.00  0.00    -0.025 C  
HETATM    3  O   UNL     1      -5.687   5.368  68.283  1.00  0.00    -0.014 OA 
ENDROOT
BRANCH   2   4
HETATM    4  O   UNL     1      -6.588   7.282  67.285  1.00  0.00    -0.059 OA 
BRANCH   4   5
HETATM    5  C   UNL     1      -6.725   8.670  67.512  1.00  0.00    -0.066 A  
HETATM    6  C   UNL     1      -5.730   9.296  68.276  1.00  0.00    -0.038 A  
HETATM    7  C   UNL     1      -5.755  10.670  68.469  1.00  0.00    -0.040 A  
HETATM    8  C   UNL     1      -6.753  11.424  67.867  1.00  0.00    -0.064 A  
HETATM    9  C   UNL     1      -7.730  10.803  67.070  1.00  0.00    -0.121 A  
HETATM   10  C   UNL     1      -7.735   9.417  66.886  1.00  0.00    -0.091 A  
HETATM   11  C   UNL     1      -8.791   8.805  66.035  1.00  0.00    -0.175 C  
HETATM   12  O   UNL     1      -8.828   7.589  65.897  1.00  0.00    -0.166 OA 
HETATM   13  C   UNL     1      -9.803   9.676  65.361  1.00  0.00    -0.322 A  
HETATM   14  C   UNL     1     -10.823   9.156  64.535  1.00  0.00     5.762 A  
HETATM   15  O   UNL     1      -8.702  12.876  66.570  1.00  0.00    -0.101 OA 
HETATM   16  C   UNL     1     -11.774   9.991  63.927  1.00  0.00     6.090 A  
HETATM   17  C   UNL     1     -11.701  11.375  64.117  1.00  0.00    -0.036 A  
HETATM   18  C   UNL     1      -8.731  11.661  66.415  1.00  0.00    -0.170 C  
HETATM   19  C   UNL     1     -12.689  12.321  63.532  1.00  0.00    -0.393 C  
HETATM   20  C   UNL     1      -9.761  11.056  65.554  1.00  0.00    -0.274 A  
HETATM   21  O   UNL     1     -13.213  11.938  62.351  1.00  0.00     0.737 OA 
HETATM   22  C   UNL     1     -10.699  11.902  64.937  1.00  0.00    -0.350 A  
HETATM   23  O   UNL     1     -12.967  13.381  64.067  1.00  0.00    -0.456 OA 
BRANCH  14  24
HETATM   24  O   UNL     1     -10.852   7.743  64.353  1.00  0.00     8.729 OA 
BRANCH  24  25
HETATM   25  C   UNL     1      -9.949   6.902  63.702  1.00  0.00     5.557 C  
HETATM   26  O   UNL     1      -9.245   7.203  62.748  1.00  0.00     1.056 OA 
HETATM   27  C   UNL     1      -9.955   5.556  64.367  1.00  0.00     1.458 C  
ENDBRANCH  24  25
ENDBRANCH  14  24
ENDBRANCH   4   5
ENDBRANCH   2   4
TORSDOF 4
ENDMDL
MODEL      143
REMARK 921   NORMALIZED FREE ENERGY PREDICTED BY IDOCK:   24.29 KCAL/MOL
REMARK 922        TOTAL FREE ENERGY PREDICTED BY IDOCK:   29.32 KCAL/MOL
REMARK 923 INTER-LIGAND FREE ENERGY PREDICTED BY IDOCK:   28.97 KCAL/MOL
REMARK 924 INTRA-LIGAND FREE ENERGY PREDICTED BY IDOCK:    0.35 KCAL/MOL
REMARK 927      BINDING AFFINITY PREDICTED BY RF-SCORE:    0.00 PKD
ROOT
HETATM    1  C   UNL     1     -10.491  17.429  71.568  1.00  0.00     3.152 C  
HETATM    2  C   UNL     1      -9.929  16.116  71.111  1.00  0.00     2.227 C  
HETATM    3  O   UNL     1     -10.612  15.176  70.724  1.00  0.00    -0.179 OA 
ENDROOT
BRANCH   2   4
HETATM    4  O   UNL     1      -8.538  16.184  71.119  1.00  0.00     3.770 OA 
BRANCH   4   5
HETATM    5  C   UNL     1      -7.974  17.475  71.010  1.00  0.00     6.542 A  
HETATM    6  C   UNL     1      -7.619  18.123  72.201  1.00  0.00     9.677 A  
HETATM    7  C   UNL     1      -6.984  19.357  72.167  1.00  0.00     2.225 A  
HETATM    8  C   UNL     1      -6.670  19.925  70.940  1.00  0.00     0.198 A  
HETATM    9  C   UNL     1      -6.991  19.261  69.744  1.00  0.00    -0.075 A  
HETATM   10  C   UNL     1      -7.654  18.030  69.760  1.00  0.00     0.826 A  
HETATM   11  C   UNL     1      -7.976  17.365  68.469  1.00  0.00    -0.266 C  
HETATM   12  O   UNL     1      -8.589  16.305  68.470  1.00  0.00    -0.191 OA 
HETATM   13  C   UNL     1      -7.556  17.997  67.180  1.00  0.00    -0.226 A  
HETATM   14  C   UNL     1      -7.823  17.411  65.924  1.00  0.00    -0.042 A  
HETATM   15  O   UNL     1      -5.987  20.958  68.479  1.00  0.00    -0.332 OA 
HETATM   16  C   UNL     1      -7.435  18.032  64.726  1.00  0.00     3.302 A  
HETATM   17  C   UNL     1      -6.743  19.246  64.768  1.00  0.00     0.166 A  
HETATM   18  C   UNL     1      -6.585  19.889  68.476  1.00  0.00    -0.289 C  
HETATM   19  C   UNL     1      -6.326  19.980  63.543  1.00  0.00     0.261 C  
HETATM   20  C   UNL     1      -6.883  19.218  67.200  1.00  0.00    -0.206 A  
HETATM   21  O   UNL     1      -6.034  19.199  62.485  1.00  0.00     0.002 OA 
HETATM   22  C   UNL     1      -6.476  19.839  66.007  1.00  0.00    -0.221 A  
HETATM   23  O   UNL     1      -6.219  21.194  63.519  1.00  0.00    -0.305 OA 
BRANCH  14  24
HETATM   24  O   UNL     1      -8.515  16.165  65.924  1.00  0.00    -0.261 OA 
BRANCH  24  25
HETATM   25  C   UNL     1      -9.854  15.881  65.654  1.00  0.00    -0.302 C  
HETATM   26  O   UNL     1     -10.302  14.802  65.294  1.00  0.00    -0.350 OA 
HETATM   27  C   UNL     1     -10.680  17.112  65.892  1.00  0.00    -0.132 C  
ENDBRANCH  24  25
ENDBRANCH  14  24
ENDBRANCH   4   5
ENDBRANCH   2   4
TORSDOF 4
ENDMDL
MODEL      144
REMARK 921   NORMALIZED FREE ENERGY PREDICTED BY IDOCK:   25.11 KCAL/MOL
REMARK 922        TOTAL FREE ENERGY PREDICTED BY IDOCK:   30.34 KCAL/MOL
REMARK 923 INTER-LIGAND FREE ENERGY PREDICTED BY IDOCK:   30.76 KCAL/MOL
REMARK 924 INTRA-LIGAND FREE ENERGY PREDICTED BY IDOCK:   -0.42 KCAL/MOL
REMARK 927      BINDING AFFINITY PREDICTED BY RF-SCORE:    0.00 PKD
ROOT
HETATM    1  C   UNL     1     -13.078  16.234  73.274  1.00  0.00    -0.432 C  
HETATM    2  C   UNL     1     -13.526  16.307  71.845  1.00  0.00     0.944 C  
HETATM    3  O   UNL     1     -14.309  17.144  71.413  1.00  0.00     6.874 OA 
ENDROOT
BRANCH   2   4
HETATM    4  O   UNL     1     -12.851  15.341  71.102  1.00  0.00    -0.357 OA 
BRANCH   4   5
HETATM    5  C   UNL     1     -11.599  15.724  70.569  1.00  0.00    -0.375 A  
HETATM    6  C   UNL     1     -11.407  17.087  70.302  1.00  0.00     0.758 A  
HETATM    7  C   UNL     1     -10.175  17.547  69.856  1.00  0.00     0.494 A  
HETATM    8  C   UNL     1      -9.125  16.651  69.714  1.00  0.00     0.699 A  
HETATM    9  C   UNL     1      -9.305  15.291  70.017  1.00  0.00     0.165 A  
HETATM   10  C   UNL     1     -10.545  14.805  70.442  1.00  0.00     0.122 A  
HETATM   11  C   UNL     1     -10.689  13.357  70.749  1.00  0.00     2.798 C  
HETATM   12  O   UNL     1     -11.779  12.914  71.086  1.00  0.00     0.434 OA 
HETATM   13  C   UNL     1      -9.504  12.451  70.637  1.00  0.00     7.123 A  
HETATM   14  C   UNL     1      -9.574  11.070  70.924  1.00  0.00     4.294 A  
HETATM   15  O   UNL     1      -7.054  14.841  69.543  1.00  0.00    -0.160 OA 
HETATM   16  C   UNL     1      -8.453  10.235  70.794  1.00  0.00     1.446 A  
HETATM   17  C   UNL     1      -7.227  10.779  70.399  1.00  0.00     0.569 A  
HETATM   18  C   UNL     1      -8.140  14.398  69.897  1.00  0.00     0.662 C  
HETATM   19  C   UNL     1      -6.003   9.955  70.209  1.00  0.00    -0.064 C  
HETATM   20  C   UNL     1      -8.277  12.969  70.224  1.00  0.00     3.967 A  
HETATM   21  O   UNL     1      -5.911   8.880  71.017  1.00  0.00    -0.036 OA 
HETATM   22  C   UNL     1      -7.146  12.144  70.108  1.00  0.00     1.123 A  
HETATM   23  O   UNL     1      -5.133  10.259  69.411  1.00  0.00    -0.039 OA 
BRANCH  14  24
HETATM   24  O   UNL     1     -10.837  10.558  71.340  1.00  0.00     0.652 OA 
BRANCH  24  25
HETATM   25  C   UNL     1     -11.513   9.403  70.944  1.00  0.00    -0.316 C  
HETATM   26  O   UNL     1     -11.317   8.772  69.915  1.00  0.00    -0.124 OA 
HETATM   27  C   UNL     1     -12.520   9.032  71.994  1.00  0.00    -0.460 C  
ENDBRANCH  24  25
ENDBRANCH  14  24
ENDBRANCH   4   5
ENDBRANCH   2   4
TORSDOF 4
ENDMDL
MODEL      145
REMARK 921   NORMALIZED FREE ENERGY PREDICTED BY IDOCK:   29.05 KCAL/MOL
REMARK 922        TOTAL FREE ENERGY PREDICTED BY IDOCK:   35.20 KCAL/MOL
REMARK 923 INTER-LIGAND FREE ENERGY PREDICTED BY IDOCK:   12.21 KCAL/MOL
REMARK 924 INTRA-LIGAND FREE ENERGY PREDICTED BY IDOCK:   22.98 KCAL/MOL
REMARK 927      BINDING AFFINITY PREDICTED BY RF-SCORE:    0.00 PKD
ROOT
HETATM    1  C   UNL     1      -7.466   7.001  69.759  1.00  0.00    -0.098 C  
HETATM    2  C   UNL     1      -7.228   5.744  70.541  1.00  0.00    -0.078 C  
HETATM    3  O   UNL     1      -6.319   5.601  71.350  1.00  0.00    -0.039 OA 
ENDROOT
BRANCH   2   4
HETATM    4  O   UNL     1      -8.240   4.830  70.260  1.00  0.00    -0.077 OA 
BRANCH   4   5
HETATM    5  C   UNL     1      -9.226   5.251  69.340  1.00  0.00    -0.114 A  
HETATM    6  C   UNL     1      -9.479   4.415  68.243  1.00  0.00    -0.210 A  
HETATM    7  C   UNL     1     -10.491   4.724  67.345  1.00  0.00     0.002 A  
HETATM    8  C   UNL     1     -11.275   5.849  67.563  1.00  0.00     0.119 A  
HETATM    9  C   UNL     1     -11.046   6.669  68.681  1.00  0.00    -0.288 A  
HETATM   10  C   UNL     1     -10.015   6.387  69.583  1.00  0.00    -0.193 A  
HETATM   11  C   UNL     1      -9.810   7.285  70.751  1.00  0.00    -0.178 C  
HETATM   12  O   UNL     1      -8.887   7.070  71.525  1.00  0.00    -0.128 OA 
HETATM   13  C   UNL     1     -10.727   8.447  70.967  1.00  0.00    -0.267 A  
HETATM   14  C   UNL     1     -10.589   9.329  72.061  1.00  0.00     0.056 A  
HETATM   15  O   UNL     1     -12.856   8.040  68.100  1.00  0.00     6.951 OA 
HETATM   16  C   UNL     1     -11.450  10.425  72.234  1.00  0.00     2.414 A  
HETATM   17  C   UNL     1     -12.488  10.640  71.321  1.00  0.00    -0.515 A  
HETATM   18  C   UNL     1     -11.943   7.817  68.887  1.00  0.00     2.058 C  
HETATM   19  C   UNL     1     -13.421  11.795  71.419  1.00  0.00     0.290 C  
HETATM   20  C   UNL     1     -11.755   8.692  70.057  1.00  0.00     0.283 A  
HETATM   21  O   UNL     1     -13.674  12.215  72.674  1.00  0.00    -0.084 OA 
HETATM   22  C   UNL     1     -12.631   9.776  70.231  1.00  0.00     0.124 A  
HETATM   23  O   UNL     1     -13.946  12.290  70.437  1.00  0.00     2.644 OA 
BRANCH  14  24
HETATM   24  O   UNL     1      -9.531   9.066  72.977  1.00  0.00     0.137 OA 
BRANCH  24  25
HETATM   25  C   UNL     1      -8.316   8.407  72.782  1.00  0.00    -0.135 C  
HETATM   26  O   UNL     1      -7.208   8.844  73.058  1.00  0.00    -0.343 OA 
HETATM   27  C   UNL     1      -8.576   7.052  72.190  1.00  0.00    -0.117 C  
ENDBRANCH  24  25
ENDBRANCH  14  24
ENDBRANCH   4   5
ENDBRANCH   2   4
TORSDOF 4
ENDMDL
MODEL      146
REMARK 921   NORMALIZED FREE ENERGY PREDICTED BY IDOCK:   30.21 KCAL/MOL
REMARK 922        TOTAL FREE ENERGY PREDICTED BY IDOCK:   36.63 KCAL/MOL
REMARK 923 INTER-LIGAND FREE ENERGY PREDICTED BY IDOCK:   12.01 KCAL/MOL
REMARK 924 INTRA-LIGAND FREE ENERGY PREDICTED BY IDOCK:   24.62 KCAL/MOL
REMARK 927      BINDING AFFINITY PREDICTED BY RF-SCORE:    0.00 PKD
ROOT
HETATM    1  C   UNL     1      -7.558   8.363  69.949  1.00  0.00    -0.076 C  
HETATM    2  C   UNL     1      -8.604   9.273  69.378  1.00  0.00    -0.142 C  
HETATM    3  O   UNL     1      -8.653  10.478  69.588  1.00  0.00    -0.107 OA 
ENDROOT
BRANCH   2   4
HETATM    4  O   UNL     1      -9.430   8.545  68.525  1.00  0.00    -0.142 OA 
BRANCH   4   5
HETATM    5  C   UNL     1     -10.330   9.296  67.736  1.00  0.00    -0.237 A  
HETATM    6  C   UNL     1     -11.459   8.627  67.240  1.00  0.00     1.725 A  
HETATM    7  C   UNL     1     -12.428   9.320  66.527  1.00  0.00    10.522 A  
HETATM    8  C   UNL     1     -12.288  10.689  66.343  1.00  0.00     4.356 A  
HETATM    9  C   UNL     1     -11.176  11.367  66.871  1.00  0.00    -0.331 A  
HETATM   10  C   UNL     1     -10.178  10.681  67.569  1.00  0.00    -0.236 A  
HETATM   11  C   UNL     1      -9.018  11.442  68.108  1.00  0.00    -0.169 C  
HETATM   12  O   UNL     1      -8.120  10.846  68.687  1.00  0.00    -0.127 OA 
HETATM   13  C   UNL     1      -8.955  12.926  67.931  1.00  0.00    -0.193 A  
HETATM   14  C   UNL     1      -7.886  13.705  68.427  1.00  0.00    -0.140 A  
HETATM   15  O   UNL     1     -12.003  13.418  66.093  1.00  0.00    -0.371 OA 
HETATM   16  C   UNL     1      -7.838  15.095  68.234  1.00  0.00    -0.124 A  
HETATM   17  C   UNL     1      -8.882  15.736  67.560  1.00  0.00    -0.196 A  
HETATM   18  C   UNL     1     -11.110  12.827  66.689  1.00  0.00    -0.276 C  
HETATM   19  C   UNL     1      -8.888  17.199  67.288  1.00  0.00    -0.217 C  
HETATM   20  C   UNL     1      -9.974  13.582  67.243  1.00  0.00    -0.236 A  
HETATM   21  O   UNL     1      -8.268  17.951  68.219  1.00  0.00    -0.272 OA 
HETATM   22  C   UNL     1      -9.943  14.975  67.059  1.00  0.00    -0.242 A  
HETATM   23  O   UNL     1      -9.449  17.677  66.318  1.00  0.00    -0.359 OA 
BRANCH  14  24
HETATM   24  O   UNL     1      -6.852  13.016  69.124  1.00  0.00    -0.104 OA 
BRANCH  24  25
HETATM   25  C   UNL     1      -6.542  11.656  69.158  1.00  0.00    -0.101 C  
HETATM   26  O   UNL     1      -6.346  10.988  70.163  1.00  0.00    -0.136 OA 
HETATM   27  C   UNL     1      -6.504  11.121  67.756  1.00  0.00    -0.063 C  
ENDBRANCH  24  25
ENDBRANCH  14  24
ENDBRANCH   4   5
ENDBRANCH   2   4
TORSDOF 4
ENDMDL
MODEL      147
REMARK 921   NORMALIZED FREE ENERGY PREDICTED BY IDOCK:   30.56 KCAL/MOL
REMARK 922        TOTAL FREE ENERGY PREDICTED BY IDOCK:   37.06 KCAL/MOL
REMARK 923 INTER-LIGAND FREE ENERGY PREDICTED BY IDOCK:   34.15 KCAL/MOL
REMARK 924 INTRA-LIGAND FREE ENERGY PREDICTED BY IDOCK:    2.91 KCAL/MOL
REMARK 927      BINDING AFFINITY PREDICTED BY RF-SCORE:    0.00 PKD
ROOT
HETATM    1  C   UNL     1      -8.097  12.335  69.312  1.00  0.00     0.603 C  
HETATM    2  C   UNL     1      -8.910  11.633  68.267  1.00  0.00    -0.167 C  
HETATM    3  O   UNL     1      -8.439  10.884  67.420  1.00  0.00    -0.119 OA 
ENDROOT
BRANCH   2   4
HETATM    4  O   UNL     1     -10.260  11.904  68.476  1.00  0.00    -0.213 OA 
BRANCH   4   5
HETATM    5  C   UNL     1     -10.566  13.166  69.033  1.00  0.00    -0.056 A  
HETATM    6  C   UNL     1     -11.246  13.179  70.259  1.00  0.00     0.478 A  
HETATM    7  C   UNL     1     -11.505  14.380  70.905  1.00  0.00    -0.105 A  
HETATM    8  C   UNL     1     -11.051  15.566  70.344  1.00  0.00    -0.357 A  
HETATM    9  C   UNL     1     -10.337  15.552  69.134  1.00  0.00    -0.237 A  
HETATM   10  C   UNL     1     -10.089  14.355  68.456  1.00  0.00    -0.244 A  
HETATM   11  C   UNL     1      -9.331  14.391  67.177  1.00  0.00    -0.220 C  
HETATM   12  O   UNL     1      -9.141  13.353  66.556  1.00  0.00    -0.211 OA 
HETATM   13  C   UNL     1      -8.813  15.694  66.655  1.00  0.00    -0.327 A  
HETATM   14  C   UNL     1      -8.079  15.792  65.453  1.00  0.00     3.146 A  
HETATM   15  O   UNL     1     -10.043  17.876  69.232  1.00  0.00    -0.281 OA 
HETATM   16  C   UNL     1      -7.618  17.028  64.972  1.00  0.00     3.821 A  
HETATM   17  C   UNL     1      -7.863  18.191  65.708  1.00  0.00     0.050 A  
HETATM   18  C   UNL     1      -9.836  16.836  68.616  1.00  0.00    -0.261 C  
HETATM   19  C   UNL     1      -7.435  19.540  65.249  1.00  0.00     0.256 C  
HETATM   20  C   UNL     1      -9.064  16.868  67.362  1.00  0.00    -0.221 A  
HETATM   21  O   UNL     1      -6.301  19.559  64.522  1.00  0.00    -0.377 OA 
HETATM   22  C   UNL     1      -8.593  18.108  66.898  1.00  0.00    -0.268 A  
HETATM   23  O   UNL     1      -8.045  20.552  65.549  1.00  0.00     0.107 OA 
BRANCH  14  24
HETATM   24  O   UNL     1      -7.835  14.581  64.742  1.00  0.00     7.446 OA 
BRANCH  24  25
HETATM   25  C   UNL     1      -8.540  14.001  63.686  1.00  0.00    10.916 C  
HETATM   26  O   UNL     1      -8.102  13.180  62.893  1.00  0.00     6.337 OA 
HETATM   27  C   UNL     1      -9.945  14.529  63.679  1.00  0.00     4.660 C  
ENDBRANCH  24  25
ENDBRANCH  14  24
ENDBRANCH   4   5
ENDBRANCH   2   4
TORSDOF 4
ENDMDL
MODEL      148
REMARK 921   NORMALIZED FREE ENERGY PREDICTED BY IDOCK:   31.51 KCAL/MOL
REMARK 922        TOTAL FREE ENERGY PREDICTED BY IDOCK:   38.24 KCAL/MOL
REMARK 923 INTER-LIGAND FREE ENERGY PREDICTED BY IDOCK:   11.45 KCAL/MOL
REMARK 924 INTRA-LIGAND FREE ENERGY PREDICTED BY IDOCK:   26.79 KCAL/MOL
REMARK 927      BINDING AFFINITY PREDICTED BY RF-SCORE:    0.00 PKD
ROOT
HETATM    1  C   UNL     1     -11.103   8.901  70.655  1.00  0.00    -0.306 C  
HETATM    2  C   UNL     1      -9.811   8.836  71.413  1.00  0.00    -0.283 C  
HETATM    3  O   UNL     1      -9.222   7.795  71.675  1.00  0.00    -0.132 OA 
ENDROOT
BRANCH   2   4
HETATM    4  O   UNL     1      -9.370  10.129  71.681  1.00  0.00     1.558 OA 
BRANCH   4   5
HETATM    5  C   UNL     1      -8.815  10.839  70.592  1.00  0.00     2.784 A  
HETATM    6  C   UNL     1      -8.560  12.205  70.780  1.00  0.00     8.035 A  
HETATM    7  C   UNL     1      -7.940  12.946  69.784  1.00  0.00     1.713 A  
HETATM    8  C   UNL     1      -7.539  12.314  68.615  1.00  0.00    -0.089 A  
HETATM    9  C   UNL     1      -7.760  10.937  68.439  1.00  0.00    -0.116 A  
HETATM   10  C   UNL     1      -8.406  10.180  69.421  1.00  0.00    -0.174 A  
HETATM   11  C   UNL     1      -8.620   8.726  69.190  1.00  0.00    -0.128 C  
HETATM   12  O   UNL     1      -9.218   8.061  70.026  1.00  0.00    -0.154 OA 
HETATM   13  C   UNL     1      -8.110   8.089  67.936  1.00  0.00    -0.129 A  
HETATM   14  C   UNL     1      -8.272   6.713  67.664  1.00  0.00    -0.122 A  
HETATM   15  O   UNL     1      -6.682  10.985  66.358  1.00  0.00    -0.128 OA 
HETATM   16  C   UNL     1      -7.801   6.139  66.472  1.00  0.00    -0.104 A  
HETATM   17  C   UNL     1      -7.129   6.935  65.539  1.00  0.00    -0.068 A  
HETATM   18  C   UNL     1      -7.265  10.313  67.201  1.00  0.00    -0.090 C  
HETATM   19  C   UNL     1      -6.629   6.408  64.241  1.00  0.00    -0.034 C  
HETATM   20  C   UNL     1      -7.456   8.869  66.984  1.00  0.00    -0.087 A  
HETATM   21  O   UNL     1      -6.246   5.116  64.262  1.00  0.00    -0.022 OA 
HETATM   22  C   UNL     1      -6.966   8.301  65.795  1.00  0.00    -0.067 A  
HETATM   23  O   UNL     1      -6.535   7.110  63.248  1.00  0.00    -0.050 OA 
BRANCH  14  24
HETATM   24  O   UNL     1      -8.946   5.932  68.647  1.00  0.00    -0.117 OA 
BRANCH  24  25
HETATM   25  C   UNL     1      -9.944   6.295  69.553  1.00  0.00    -0.164 C  
HETATM   26  O   UNL     1     -10.135   7.416  70.001  1.00  0.00    -0.187 OA 
HETATM   27  C   UNL     1     -10.773   5.089  69.888  1.00  0.00     0.110 C  
ENDBRANCH  24  25
ENDBRANCH  14  24
ENDBRANCH   4   5
ENDBRANCH   2   4
TORSDOF 4
ENDMDL
MODEL      149
REMARK 921   NORMALIZED FREE ENERGY PREDICTED BY IDOCK:   35.83 KCAL/MOL
REMARK 922        TOTAL FREE ENERGY PREDICTED BY IDOCK:   43.57 KCAL/MOL
REMARK 923 INTER-LIGAND FREE ENERGY PREDICTED BY IDOCK:   38.74 KCAL/MOL
REMARK 924 INTRA-LIGAND FREE ENERGY PREDICTED BY IDOCK:    4.83 KCAL/MOL
REMARK 927      BINDING AFFINITY PREDICTED BY RF-SCORE:    0.00 PKD
ROOT
HETATM    1  C   UNL     1     -13.148  12.204  71.911  1.00  0.00    -0.475 C  
HETATM    2  C   UNL     1     -13.208  11.671  73.311  1.00  0.00     4.899 C  
HETATM    3  O   UNL     1     -13.956  12.104  74.178  1.00  0.00     8.049 OA 
ENDROOT
BRANCH   2   4
HETATM    4  O   UNL     1     -12.354  10.577  73.423  1.00  0.00     4.202 OA 
BRANCH   4   5
HETATM    5  C   UNL     1     -12.141   9.827  72.245  1.00  0.00     0.242 A  
HETATM    6  C   UNL     1     -12.705   8.544  72.191  1.00  0.00    -0.423 A  
HETATM    7  C   UNL     1     -12.607   7.783  71.034  1.00  0.00    -0.140 A  
HETATM    8  C   UNL     1     -11.980   8.319  69.918  1.00  0.00     0.724 A  
HETATM    9  C   UNL     1     -11.447   9.619  69.958  1.00  0.00    -0.191 A  
HETATM   10  C   UNL     1     -11.513  10.390  71.122  1.00  0.00    -0.223 A  
HETATM   11  C   UNL     1     -10.932  11.759  71.117  1.00  0.00     3.354 C  
HETATM   12  O   UNL     1     -10.951  12.429  72.142  1.00  0.00     6.366 OA 
HETATM   13  C   UNL     1     -10.324  12.306  69.864  1.00  0.00     1.378 A  
HETATM   14  C   UNL     1      -9.767  13.601  69.794  1.00  0.00     1.461 A  
HETATM   15  O   UNL     1     -10.808   9.473  67.707  1.00  0.00    -0.269 OA 
HETATM   16  C   UNL     1      -9.185  14.087  68.612  1.00  0.00    -0.119 A  
HETATM   17  C   UNL     1      -9.177  13.287  67.465  1.00  0.00    -0.213 A  
HETATM   18  C   UNL     1     -10.840  10.152  68.727  1.00  0.00    -0.225 C  
HETATM   19  C   UNL     1      -8.552  13.719  66.185  1.00  0.00     0.770 C  
HETATM   20  C   UNL     1     -10.288  11.517  68.716  1.00  0.00    -0.213 A  
HETATM   21  O   UNL     1      -8.597  15.045  65.951  1.00  0.00     0.234 OA 
HETATM   22  C   UNL     1      -9.722  12.000  67.524  1.00  0.00    -0.188 A  
HETATM   23  O   UNL     1      -8.076  12.922  65.395  1.00  0.00     2.381 OA 
BRANCH  14  24
HETATM   24  O   UNL     1      -9.810  14.391  70.979  1.00  0.00     2.002 OA 
BRANCH  24  25
HETATM   25  C   UNL     1     -10.393  15.638  71.206  1.00  0.00     0.908 C  
HETATM   26  O   UNL     1     -11.004  16.307  70.385  1.00  0.00    -0.337 OA 
HETATM   27  C   UNL     1     -10.172  16.036  72.637  1.00  0.00     4.785 C  
ENDBRANCH  24  25
ENDBRANCH  14  24
ENDBRANCH   4   5
ENDBRANCH   2   4
TORSDOF 4
ENDMDL
MODEL      150
REMARK 921   NORMALIZED FREE ENERGY PREDICTED BY IDOCK:   40.67 KCAL/MOL
REMARK 922        TOTAL FREE ENERGY PREDICTED BY IDOCK:   49.53 KCAL/MOL
REMARK 923 INTER-LIGAND FREE ENERGY PREDICTED BY IDOCK:   40.12 KCAL/MOL
REMARK 924 INTRA-LIGAND FREE ENERGY PREDICTED BY IDOCK:    9.42 KCAL/MOL
REMARK 927      BINDING AFFINITY PREDICTED BY RF-SCORE:    0.00 PKD
ROOT
HETATM    1  C   UNL     1     -11.615  19.818  68.794  1.00  0.00     2.930 C  
HETATM    2  C   UNL     1     -10.414  19.866  69.690  1.00  0.00     0.429 C  
HETATM    3  O   UNL     1      -9.425  20.555  69.476  1.00  0.00     0.628 OA 
ENDROOT
BRANCH   2   4
HETATM    4  O   UNL     1     -10.650  19.081  70.816  1.00  0.00     1.441 OA 
BRANCH   4   5
HETATM    5  C   UNL     1     -10.214  17.738  70.745  1.00  0.00     2.487 A  
HETATM    6  C   UNL     1      -9.811  17.131  71.943  1.00  0.00     7.173 A  
HETATM    7  C   UNL     1      -9.450  15.790  71.963  1.00  0.00     5.642 A  
HETATM    8  C   UNL     1      -9.529  15.047  70.793  1.00  0.00     1.524 A  
HETATM    9  C   UNL     1      -9.969  15.645  69.599  1.00  0.00    -0.290 A  
HETATM   10  C   UNL     1     -10.311  16.999  69.555  1.00  0.00    -0.156 A  
HETATM   11  C   UNL     1     -10.769  17.588  68.268  1.00  0.00    -0.309 C  
HETATM   12  O   UNL     1     -11.036  18.781  68.209  1.00  0.00    -0.008 OA 
HETATM   13  C   UNL     1     -10.894  16.721  67.055  1.00  0.00    -0.066 A  
HETATM   14  C   UNL     1     -11.332  17.219  65.808  1.00  0.00     0.922 A  
HETATM   15  O   UNL     1      -9.798  13.602  68.463  1.00  0.00    -0.230 OA 
HETATM   16  C   UNL     1     -11.424  16.391  64.678  1.00  0.00    -0.092 A  
HETATM   17  C   UNL     1     -11.103  15.034  64.786  1.00  0.00    -0.388 A  
HETATM   18  C   UNL     1     -10.082  14.793  68.404  1.00  0.00    -0.225 C  
HETATM   19  C   UNL     1     -11.145  14.101  63.629  1.00  0.00     1.021 C  
HETATM   20  C   UNL     1     -10.559  15.371  67.136  1.00  0.00    -0.305 A  
HETATM   21  O   UNL     1     -12.079  14.389  62.701  1.00  0.00     0.950 OA 
HETATM   22  C   UNL     1     -10.663  14.530  66.015  1.00  0.00    -0.306 A  
HETATM   23  O   UNL     1     -10.416  13.126  63.554  1.00  0.00    -0.123 OA 
BRANCH  14  24
HETATM   24  O   UNL     1     -11.666  18.602  65.743  1.00  0.00     1.568 OA 
BRANCH  24  25
HETATM   25  C   UNL     1     -11.741  19.458  64.644  1.00  0.00     4.332 C  
HETATM   26  O   UNL     1     -11.659  19.129  63.469  1.00  0.00     7.230 OA 
HETATM   27  C   UNL     1     -11.959  20.864  65.123  1.00  0.00     4.335 C  
ENDBRANCH  24  25
ENDBRANCH  14  24
ENDBRANCH   4   5
ENDBRANCH   2   4
TORSDOF 4
ENDMDL
MODEL      151
REMARK 921   NORMALIZED FREE ENERGY PREDICTED BY IDOCK:   50.61 KCAL/MOL
REMARK 922        TOTAL FREE ENERGY PREDICTED BY IDOCK:   61.81 KCAL/MOL
REMARK 923 INTER-LIGAND FREE ENERGY PREDICTED BY IDOCK:   62.15 KCAL/MOL
REMARK 924 INTRA-LIGAND FREE ENERGY PREDICTED BY IDOCK:   -0.35 KCAL/MOL
REMARK 927      BINDING AFFINITY PREDICTED BY RF-SCORE:    0.00 PKD
ROOT
HETATM    1  C   UNL     1      -6.184  19.526  69.177  1.00  0.00    -0.318 C  
HETATM    2  C   UNL     1      -6.790  18.158  69.073  1.00  0.00    -0.250 C  
HETATM    3  O   UNL     1      -6.567  17.248  69.861  1.00  0.00    -0.102 OA 
ENDROOT
BRANCH   2   4
HETATM    4  O   UNL     1      -7.688  18.133  68.009  1.00  0.00    -0.241 OA 
BRANCH   4   5
HETATM    5  C   UNL     1      -7.158  17.768  66.751  1.00  0.00    -0.201 A  
HETATM    6  C   UNL     1      -6.104  18.545  66.250  1.00  0.00    -0.208 A  
HETATM    7  C   UNL     1      -5.479  18.195  65.060  1.00  0.00    -0.080 A  
HETATM    8  C   UNL     1      -5.882  17.047  64.392  1.00  0.00     5.114 A  
HETATM    9  C   UNL     1      -6.913  16.247  64.912  1.00  0.00     7.880 A  
HETATM   10  C   UNL     1      -7.571  16.597  66.095  1.00  0.00    -0.090 A  
HETATM   11  C   UNL     1      -8.658  15.719  66.605  1.00  0.00    -0.287 C  
HETATM   12  O   UNL     1      -9.266  16.037  67.619  1.00  0.00    -0.203 OA 
HETATM   13  C   UNL     1      -9.006  14.462  65.874  1.00  0.00     0.384 A  
HETATM   14  C   UNL     1     -10.020  13.584  66.313  1.00  0.00    -0.298 A  
HETATM   15  O   UNL     1      -6.661  14.708  63.161  1.00  0.00    19.158 OA 
HETATM   16  C   UNL     1     -10.341  12.417  65.600  1.00  0.00    -0.284 A  
HETATM   17  C   UNL     1      -9.628  12.095  64.442  1.00  0.00     0.052 A  
HETATM   18  C   UNL     1      -7.260  15.014  64.186  1.00  0.00    20.003 C  
HETATM   19  C   UNL     1      -9.930  10.895  63.616  1.00  0.00    -0.359 C  
HETATM   20  C   UNL     1      -8.320  14.133  64.705  1.00  0.00     6.891 A  
HETATM   21  O   UNL     1     -10.399   9.836  64.305  1.00  0.00     0.567 OA 
HETATM   22  C   UNL     1      -8.623  12.960  63.994  1.00  0.00     4.210 A  
HETATM   23  O   UNL     1      -9.725  10.866  62.415  1.00  0.00    -0.172 OA 
BRANCH  14  24
HETATM   24  O   UNL     1     -10.712  13.938  67.507  1.00  0.00    -0.263 OA 
BRANCH  24  25
HETATM   25  C   UNL     1     -11.798  13.324  68.132  1.00  0.00    -0.353 C  
HETATM   26  O   UNL     1     -11.794  12.223  68.664  1.00  0.00    -0.310 OA 
HETATM   27  C   UNL     1     -12.988  14.238  68.071  1.00  0.00     1.910 C  
ENDBRANCH  24  25
ENDBRANCH  14  24
ENDBRANCH   4   5
ENDBRANCH   2   4
TORSDOF 4
ENDMDL
MODEL      152
REMARK 921   NORMALIZED FREE ENERGY PREDICTED BY IDOCK:   58.35 KCAL/MOL
REMARK 922        TOTAL FREE ENERGY PREDICTED BY IDOCK:   71.35 KCAL/MOL
REMARK 923 INTER-LIGAND FREE ENERGY PREDICTED BY IDOCK:   68.62 KCAL/MOL
REMARK 924 INTRA-LIGAND FREE ENERGY PREDICTED BY IDOCK:    2.73 KCAL/MOL
REMARK 927      BINDING AFFINITY PREDICTED BY RF-SCORE:    0.00 PKD
ROOT
HETATM    1  C   UNL     1      -7.370  13.043  68.250  1.00  0.00    -0.116 C  
HETATM    2  C   UNL     1      -5.942  13.345  68.593  1.00  0.00    -0.084 C  
HETATM    3  O   UNL     1      -5.460  13.203  69.710  1.00  0.00    -0.088 OA 
ENDROOT
BRANCH   2   4
HETATM    4  O   UNL     1      -5.261  13.720  67.438  1.00  0.00    -0.337 OA 
BRANCH   4   5
HETATM    5  C   UNL     1      -5.867  13.364  66.212  1.00  0.00     4.069 A  
HETATM    6  C   UNL     1      -5.310  12.284  65.511  1.00  0.00     3.125 A  
HETATM    7  C   UNL     1      -5.903  11.825  64.343  1.00  0.00     3.330 A  
HETATM    8  C   UNL     1      -7.074  12.422  63.895  1.00  0.00     7.423 A  
HETATM    9  C   UNL     1      -7.654  13.480  64.615  1.00  0.00    11.877 A  
HETATM   10  C   UNL     1      -7.057  13.971  65.780  1.00  0.00     6.725 A  
HETATM   11  C   UNL     1      -7.707  15.094  66.507  1.00  0.00     0.579 C  
HETATM   12  O   UNL     1      -7.173  15.557  67.507  1.00  0.00    -0.158 OA 
HETATM   13  C   UNL     1      -9.001  15.654  66.009  1.00  0.00    -0.297 A  
HETATM   14  C   UNL     1      -9.671  16.713  66.661  1.00  0.00    -0.266 A  
HETATM   15  O   UNL     1      -9.446  13.581  63.108  1.00  0.00     3.469 OA 
HETATM   16  C   UNL     1     -10.877  17.235  66.165  1.00  0.00     0.030 A  
HETATM   17  C   UNL     1     -11.450  16.682  65.015  1.00  0.00     0.290 A  
HETATM   18  C   UNL     1      -8.923  14.036  64.119  1.00  0.00     5.721 C  
HETATM   19  C   UNL     1     -12.707  17.200  64.412  1.00  0.00     6.138 C  
HETATM   20  C   UNL     1      -9.578  15.131  64.853  1.00  0.00     0.594 A  
HETATM   21  O   UNL     1     -13.588  17.716  65.292  1.00  0.00    11.031 OA 
HETATM   22  C   UNL     1     -10.793  15.636  64.358  1.00  0.00     0.086 A  
HETATM   23  O   UNL     1     -12.933  17.122  63.217  1.00  0.00     5.757 OA 
BRANCH  14  24
HETATM   24  O   UNL     1      -9.065  17.236  67.839  1.00  0.00    -0.232 OA 
BRANCH  24  25
HETATM   25  C   UNL     1      -9.629  17.554  69.075  1.00  0.00    -0.151 C  
HETATM   26  O   UNL     1      -9.898  18.678  69.475  1.00  0.00    -0.047 OA 
HETATM   27  C   UNL     1      -9.878  16.291  69.847  1.00  0.00     0.154 C  
ENDBRANCH  24  25
ENDBRANCH  14  24
ENDBRANCH   4   5
ENDBRANCH   2   4
TORSDOF 4
ENDMDL
MODEL      153
REMARK 921   NORMALIZED FREE ENERGY PREDICTED BY IDOCK:   68.79 KCAL/MOL
REMARK 922        TOTAL FREE ENERGY PREDICTED BY IDOCK:   84.24 KCAL/MOL
REMARK 923 INTER-LIGAND FREE ENERGY PREDICTED BY IDOCK:   75.28 KCAL/MOL
REMARK 924 INTRA-LIGAND FREE ENERGY PREDICTED BY IDOCK:    8.95 KCAL/MOL
REMARK 927      BINDING AFFINITY PREDICTED BY RF-SCORE:    0.00 PKD
ROOT
HETATM    1  C   UNL     1     -11.586  12.517  67.148  1.00  0.00    -0.437 C  
HETATM    2  C   UNL     1     -11.016  13.879  66.886  1.00  0.00    -0.295 C  
HETATM    3  O   UNL     1     -11.338  14.887  67.503  1.00  0.00    -0.321 OA 
ENDROOT
BRANCH   2   4
HETATM    4  O   UNL     1     -10.027  13.784  65.910  1.00  0.00    -0.297 OA 
BRANCH   4   5
HETATM    5  C   UNL     1      -8.882  14.589  66.100  1.00  0.00     0.207 A  
HETATM    6  C   UNL     1      -8.142  14.930  64.958  1.00  0.00     6.876 A  
HETATM    7  C   UNL     1      -7.054  15.786  65.058  1.00  0.00     9.083 A  
HETATM    8  C   UNL     1      -6.729  16.332  66.292  1.00  0.00     0.825 A  
HETATM    9  C   UNL     1      -7.492  16.022  67.430  1.00  0.00    -0.208 A  
HETATM   10  C   UNL     1      -8.575  15.142  67.354  1.00  0.00    -0.201 A  
HETATM   11  C   UNL     1      -9.352  14.842  68.586  1.00  0.00    -0.198 C  
HETATM   12  O   UNL     1     -10.279  14.043  68.538  1.00  0.00    -0.229 OA 
HETATM   13  C   UNL     1      -8.992  15.510  69.875  1.00  0.00     0.124 A  
HETATM   14  C   UNL     1      -9.696  15.274  71.076  1.00  0.00     1.604 A  
HETATM   15  O   UNL     1      -6.191  17.460  68.748  1.00  0.00    -0.168 OA 
HETATM   16  C   UNL     1      -9.329  15.900  72.278  1.00  0.00     7.605 A  
HETATM   17  C   UNL     1      -8.259  16.800  72.291  1.00  0.00    14.249 A  
HETATM   18  C   UNL     1      -7.130  16.674  68.700  1.00  0.00    -0.183 C  
HETATM   19  C   UNL     1      -7.790  17.477  73.530  1.00  0.00    14.630 C  
HETATM   20  C   UNL     1      -7.915  16.395  69.914  1.00  0.00     0.858 A  
HETATM   21  O   UNL     1      -8.754  17.729  74.438  1.00  0.00    10.607 OA 
HETATM   22  C   UNL     1      -7.550  17.038  71.109  1.00  0.00     5.919 A  
HETATM   23  O   UNL     1      -6.629  17.813  73.686  1.00  0.00     5.161 OA 
BRANCH  14  24
HETATM   24  O   UNL     1     -10.791  14.364  71.017  1.00  0.00     0.398 OA 
BRANCH  24  25
HETATM   25  C   UNL     1     -11.967  14.324  71.767  1.00  0.00    -0.023 C  
HETATM   26  O   UNL     1     -12.478  15.266  72.355  1.00  0.00    -0.319 OA 
HETATM   27  C   UNL     1     -12.531  12.933  71.730  1.00  0.00     0.017 C  
ENDBRANCH  24  25
ENDBRANCH  14  24
ENDBRANCH   4   5
ENDBRANCH   2   4
TORSDOF 4
ENDMDL
MODEL      154
REMARK 921   NORMALIZED FREE ENERGY PREDICTED BY IDOCK:   77.40 KCAL/MOL
REMARK 922        TOTAL FREE ENERGY PREDICTED BY IDOCK:   94.85 KCAL/MOL
REMARK 923 INTER-LIGAND FREE ENERGY PREDICTED BY IDOCK:   91.93 KCAL/MOL
REMARK 924 INTRA-LIGAND FREE ENERGY PREDICTED BY IDOCK:    2.92 KCAL/MOL
REMARK 927      BINDING AFFINITY PREDICTED BY RF-SCORE:    0.00 PKD
ROOT
HETATM    1  C   UNL     1      -9.799  10.933  65.539  1.00  0.00    -0.298 C  
HETATM    2  C   UNL     1      -8.851  11.848  64.823  1.00  0.00     0.704 C  
HETATM    3  O   UNL     1      -9.203  12.749  64.072  1.00  0.00     0.482 OA 
ENDROOT
BRANCH   2   4
HETATM    4  O   UNL     1      -7.547  11.558  65.216  1.00  0.00     0.653 OA 
BRANCH   4   5
HETATM    5  C   UNL     1      -6.767  12.652  65.653  1.00  0.00     4.689 A  
HETATM    6  C   UNL     1      -5.916  13.248  64.712  1.00  0.00    13.585 A  
HETATM    7  C   UNL     1      -5.182  14.379  65.046  1.00  0.00    15.448 A  
HETATM    8  C   UNL     1      -5.330  14.936  66.309  1.00  0.00     4.308 A  
HETATM    9  C   UNL     1      -6.211  14.362  67.241  1.00  0.00     0.418 A  
HETATM   10  C   UNL     1      -6.938  13.209  66.931  1.00  0.00     0.643 A  
HETATM   11  C   UNL     1      -7.856  12.636  67.951  1.00  0.00    -0.154 C  
HETATM   12  O   UNL     1      -8.469  11.605  67.703  1.00  0.00    -0.132 OA 
HETATM   13  C   UNL     1      -8.020  13.318  69.272  1.00  0.00     0.545 A  
HETATM   14  C   UNL     1      -8.883  12.829  70.277  1.00  0.00     4.998 A  
HETATM   15  O   UNL     1      -5.736  16.051  68.796  1.00  0.00    -0.106 OA 
HETATM   16  C   UNL     1      -9.007  13.475  71.517  1.00  0.00    11.519 A  
HETATM   17  C   UNL     1      -8.284  14.646  71.763  1.00  0.00     5.060 A  
HETATM   18  C   UNL     1      -6.364  15.029  68.545  1.00  0.00    -0.092 C  
HETATM   19  C   UNL     1      -8.338  15.370  73.061  1.00  0.00    10.650 C  
HETATM   20  C   UNL     1      -7.292  14.475  69.545  1.00  0.00    -0.063 A  
HETATM   21  O   UNL     1      -9.516  15.287  73.709  1.00  0.00     7.703 OA 
HETATM   22  C   UNL     1      -7.421  15.138  70.777  1.00  0.00     1.269 A  
HETATM   23  O   UNL     1      -7.397  16.023  73.481  1.00  0.00     8.952 OA 
BRANCH  14  24
HETATM   24  O   UNL     1      -9.616  11.643  69.982  1.00  0.00     1.514 OA 
BRANCH  24  25
HETATM   25  C   UNL     1      -9.194  10.313  69.939  1.00  0.00     0.022 C  
HETATM   26  O   UNL     1      -8.609   9.716  70.831  1.00  0.00    -0.233 OA 
HETATM   27  C   UNL     1      -9.589   9.709  68.623  1.00  0.00    -0.154 C  
ENDBRANCH  24  25
ENDBRANCH  14  24
ENDBRANCH   4   5
ENDBRANCH   2   4
TORSDOF 4
ENDMDL
