MODEL        1
REMARK 921   NORMALIZED FREE ENERGY PREDICTED BY IDOCK:   -6.08 KCAL/MOL
REMARK 922        TOTAL FREE ENERGY PREDICTED BY IDOCK:  -10.26 KCAL/MOL
REMARK 923 INTER-LIGAND FREE ENERGY PREDICTED BY IDOCK:   -8.93 KCAL/MOL
REMARK 924 INTRA-LIGAND FREE ENERGY PREDICTED BY IDOCK:   -1.33 KCAL/MOL
REMARK 927      BINDING AFFINITY PREDICTED BY RF-SCORE:    0.00 PKD
ROOT
HETATM    1  O   UNL     1     -11.296  16.614  63.951  1.00  0.00    -1.558 OA 
HETATM    2  C   UNL     1     -11.249  15.571  64.932  1.00  0.00    -0.389 C  
HETATM    3  H   UNL     1     -11.088  17.445  64.361  1.00  0.00     0.000 HD 
ENDROOT
BRANCH   2   4
HETATM    4  C   UNL     1      -9.832  15.567  65.560  1.00  0.00    -0.313 C  
BRANCH   4   5
HETATM    5  N   UNL     1      -9.296  16.901  66.021  1.00  0.00    -0.485 NA 
BRANCH   5   6
HETATM    6  C   UNL     1      -7.938  16.665  66.637  1.00  0.00    -0.280 C  
HETATM    7  O   UNL     1      -7.333  18.750  65.595  1.00  0.00    -0.474 OA 
HETATM    8  C   UNL     1      -6.859  17.559  66.030  1.00  0.00    -0.246 C  
HETATM    9  O   UNL     1      -5.680  17.250  65.962  1.00  0.00    -0.269 OA 
ENDBRANCH   5   6
BRANCH   5  10
HETATM   10  C   UNL     1     -10.203  17.435  67.098  1.00  0.00    -0.323 C  
HETATM   11  O   UNL     1     -10.751  19.148  65.506  1.00  0.00    -0.507 OA 
HETATM   12  O   UNL     1     -10.943  19.675  67.703  1.00  0.00    -0.380 OA 
HETATM   13  C   UNL     1     -10.652  18.872  66.827  1.00  0.00    -0.405 C  
ENDBRANCH   5  10
ENDBRANCH   4   5
ENDBRANCH   2   4
BRANCH   2  14
HETATM   14  C   UNL     1     -11.591  14.206  64.260  1.00  0.00    -0.309 C  
BRANCH  14  15
HETATM   15  N   UNL     1     -11.122  12.952  64.950  1.00  0.00    -0.288 NA 
BRANCH  15  16
HETATM   16  C   UNL     1     -12.129  12.607  66.023  1.00  0.00    -0.364 C  
HETATM   17  C   UNL     1     -11.478  12.125  67.315  1.00  0.00    -0.345 C  
HETATM   18  O   UNL     1     -10.253  12.675  67.521  1.00  0.00    -0.211 OA 
HETATM   19  O   UNL     1     -12.015  11.380  68.118  1.00  0.00    -0.594 OA 
ENDBRANCH  15  16
BRANCH  15  20
HETATM   20  C   UNL     1     -11.162  11.817  63.940  1.00  0.00    -0.414 C  
HETATM   21  C   UNL     1      -9.814  11.119  63.758  1.00  0.00    -0.331 C  
HETATM   22  O   UNL     1      -9.035  11.163  64.865  1.00  0.00    -0.151 OA 
HETATM   23  O   UNL     1      -9.484  10.534  62.741  1.00  0.00    -0.291 OA 
ENDBRANCH  15  20
ENDBRANCH  14  15
ENDBRANCH   2  14
TORSDOF 8
ENDMDL
MODEL        2
REMARK 921   NORMALIZED FREE ENERGY PREDICTED BY IDOCK:   -5.68 KCAL/MOL
REMARK 922        TOTAL FREE ENERGY PREDICTED BY IDOCK:   -9.67 KCAL/MOL
REMARK 923 INTER-LIGAND FREE ENERGY PREDICTED BY IDOCK:   -8.75 KCAL/MOL
REMARK 924 INTRA-LIGAND FREE ENERGY PREDICTED BY IDOCK:   -0.92 KCAL/MOL
REMARK 927      BINDING AFFINITY PREDICTED BY RF-SCORE:    0.00 PKD
ROOT
HETATM    1  O   UNL     1      -9.822  12.634  68.804  1.00  0.00    -0.402 OA 
HETATM    2  C   UNL     1     -10.873  13.452  68.278  1.00  0.00    -0.256 C  
HETATM    3  H   UNL     1      -9.400  13.085  69.526  1.00  0.00     0.000 HD 
ENDROOT
BRANCH   2   4
HETATM    4  C   UNL     1     -11.866  13.757  69.428  1.00  0.00    -0.341 C  
BRANCH   4   5
HETATM    5  N   UNL     1     -11.716  15.095  70.110  1.00  0.00    -0.283 NA 
BRANCH   5   6
HETATM    6  C   UNL     1     -12.972  15.350  70.909  1.00  0.00    -0.478 C  
HETATM    7  O   UNL     1     -11.467  16.014  72.669  1.00  0.00    -0.331 OA 
HETATM    8  C   UNL     1     -12.691  15.500  72.402  1.00  0.00    -0.397 C  
HETATM    9  O   UNL     1     -13.494  15.212  73.276  1.00  0.00    -0.459 OA 
ENDBRANCH   5   6
BRANCH   5  10
HETATM   10  C   UNL     1     -11.619  16.163  69.053  1.00  0.00    -0.298 C  
HETATM   11  O   UNL     1      -9.270  16.165  69.556  1.00  0.00    -0.212 OA 
HETATM   12  O   UNL     1     -10.159  18.089  68.750  1.00  0.00    -0.372 OA 
HETATM   13  C   UNL     1     -10.296  16.928  69.112  1.00  0.00    -0.319 C  
ENDBRANCH   5  10
ENDBRANCH   4   5
ENDBRANCH   2   4
BRANCH   2  14
HETATM   14  C   UNL     1     -11.566  12.712  67.093  1.00  0.00    -0.368 C  
BRANCH  14  15
HETATM   15  N   UNL     1     -11.499  13.357  65.733  1.00  0.00    -0.314 NA 
BRANCH  15  16
HETATM   16  C   UNL     1     -11.202  14.826  65.929  1.00  0.00    -0.340 C  
HETATM   17  C   UNL     1     -11.578  15.674  64.719  1.00  0.00    -0.218 C  
HETATM   18  O   UNL     1     -12.625  15.159  64.024  1.00  0.00    -0.791 OA 
HETATM   19  O   UNL     1     -11.047  16.735  64.432  1.00  0.00    -1.072 OA 
ENDBRANCH  15  16
BRANCH  15  20
HETATM   20  C   UNL     1     -10.307  12.772  64.993  1.00  0.00    -0.303 C  
HETATM   21  C   UNL     1     -10.700  11.783  63.896  1.00  0.00    -0.399 C  
HETATM   22  O   UNL     1     -11.916  12.040  63.356  1.00  0.00    -0.484 OA 
HETATM   23  O   UNL     1      -9.979  10.884  63.501  1.00  0.00    -0.312 OA 
ENDBRANCH  15  20
ENDBRANCH  14  15
ENDBRANCH   2  14
TORSDOF 8
ENDMDL
MODEL        3
REMARK 921   NORMALIZED FREE ENERGY PREDICTED BY IDOCK:   -5.57 KCAL/MOL
REMARK 922        TOTAL FREE ENERGY PREDICTED BY IDOCK:   -9.50 KCAL/MOL
REMARK 923 INTER-LIGAND FREE ENERGY PREDICTED BY IDOCK:   -8.20 KCAL/MOL
REMARK 924 INTRA-LIGAND FREE ENERGY PREDICTED BY IDOCK:   -1.30 KCAL/MOL
REMARK 927      BINDING AFFINITY PREDICTED BY RF-SCORE:    0.00 PKD
ROOT
HETATM    1  O   UNL     1     -12.223  14.822  67.951  1.00  0.00    -0.583 OA 
HETATM    2  C   UNL     1     -10.831  14.805  67.615  1.00  0.00    -0.285 C  
HETATM    3  H   UNL     1     -12.495  15.714  68.132  1.00  0.00     0.000 HD 
ENDROOT
BRANCH   2   4
HETATM    4  C   UNL     1     -10.621  15.732  66.391  1.00  0.00    -0.307 C  
BRANCH   4   5
HETATM    5  N   UNL     1      -9.826  16.993  66.631  1.00  0.00    -0.276 NA 
BRANCH   5   6
HETATM    6  C   UNL     1      -8.538  16.604  67.318  1.00  0.00    -0.191 C  
HETATM    7  O   UNL     1      -7.487  18.069  65.722  1.00  0.00    -0.514 OA 
HETATM    8  C   UNL     1      -7.305  16.975  66.498  1.00  0.00    -0.285 C  
HETATM    9  O   UNL     1      -6.248  16.367  66.549  1.00  0.00    -0.261 OA 
ENDBRANCH   5   6
BRANCH   5  10
HETATM   10  C   UNL     1     -10.601  17.876  67.571  1.00  0.00    -0.376 C  
HETATM   11  O   UNL     1     -10.541  19.486  65.789  1.00  0.00    -0.508 OA 
HETATM   12  O   UNL     1     -10.698  20.287  67.904  1.00  0.00    -0.178 OA 
HETATM   13  C   UNL     1     -10.601  19.342  67.133  1.00  0.00    -0.472 C  
ENDBRANCH   5  10
ENDBRANCH   4   5
ENDBRANCH   2   4
BRANCH   2  14
HETATM   14  C   UNL     1     -10.384  13.340  67.318  1.00  0.00    -0.247 C  
BRANCH  14  15
HETATM   15  N   UNL     1     -11.455  12.346  66.950  1.00  0.00    -0.339 NA 
BRANCH  15  16
HETATM   16  C   UNL     1     -11.320  12.042  65.476  1.00  0.00    -0.328 C  
HETATM   17  C   UNL     1     -12.521  12.512  64.662  1.00  0.00    -0.463 C  
HETATM   18  O   UNL     1     -13.121  13.605  65.198  1.00  0.00    -0.750 OA 
HETATM   19  O   UNL     1     -12.875  12.009  63.608  1.00  0.00    -0.713 OA 
ENDBRANCH  15  16
BRANCH  15  20
HETATM   20  C   UNL     1     -11.163  11.048  67.686  1.00  0.00    -0.305 C  
HETATM   21  C   UNL     1     -11.272  11.174  69.206  1.00  0.00    -0.267 C  
HETATM   22  O   UNL     1     -12.153  12.125  69.601  1.00  0.00    -0.280 OA 
HETATM   23  O   UNL     1     -10.673  10.461  69.991  1.00  0.00    -0.277 OA 
ENDBRANCH  15  20
ENDBRANCH  14  15
ENDBRANCH   2  14
TORSDOF 8
ENDMDL
MODEL        4
REMARK 921   NORMALIZED FREE ENERGY PREDICTED BY IDOCK:   -5.49 KCAL/MOL
REMARK 922        TOTAL FREE ENERGY PREDICTED BY IDOCK:   -9.39 KCAL/MOL
REMARK 923 INTER-LIGAND FREE ENERGY PREDICTED BY IDOCK:   -8.22 KCAL/MOL
REMARK 924 INTRA-LIGAND FREE ENERGY PREDICTED BY IDOCK:   -1.17 KCAL/MOL
REMARK 927      BINDING AFFINITY PREDICTED BY RF-SCORE:    0.00 PKD
ROOT
HETATM    1  O   UNL     1     -12.143  15.349  68.605  1.00  0.00    -0.550 OA 
HETATM    2  C   UNL     1     -10.715  15.460  68.593  1.00  0.00    -0.246 C  
HETATM    3  H   UNL     1     -12.476  15.624  69.451  1.00  0.00     0.000 HD 
ENDROOT
BRANCH   2   4
HETATM    4  C   UNL     1     -10.345  16.931  68.909  1.00  0.00    -0.333 C  
BRANCH   4   5
HETATM    5  N   UNL     1      -9.574  17.675  67.846  1.00  0.00    -0.275 NA 
BRANCH   5   6
HETATM    6  C   UNL     1      -8.216  18.014  68.411  1.00  0.00    -0.298 C  
HETATM    7  O   UNL     1      -7.434  17.731  66.151  1.00  0.00    -0.284 OA 
HETATM    8  C   UNL     1      -7.081  17.655  67.456  1.00  0.00    -0.169 C  
HETATM    9  O   UNL     1      -5.956  17.354  67.822  1.00  0.00    -0.132 OA 
ENDBRANCH   5   6
BRANCH   5  10
HETATM   10  C   UNL     1     -10.287  18.968  67.554  1.00  0.00    -0.422 C  
HETATM   11  O   UNL     1     -10.653  18.041  65.368  1.00  0.00    -0.648 OA 
HETATM   12  O   UNL     1     -10.577  20.300  65.536  1.00  0.00    -0.317 OA 
HETATM   13  C   UNL     1     -10.500  19.196  66.056  1.00  0.00    -0.467 C  
ENDBRANCH   5  10
ENDBRANCH   4   5
ENDBRANCH   2   4
BRANCH   2  14
HETATM   14  C   UNL     1     -10.168  15.008  67.204  1.00  0.00    -0.249 C  
BRANCH  14  15
HETATM   15  N   UNL     1     -10.874  13.871  66.513  1.00  0.00    -0.293 NA 
BRANCH  15  16
HETATM   16  C   UNL     1     -10.881  14.160  65.030  1.00  0.00    -0.398 C  
HETATM   17  C   UNL     1     -12.231  13.881  64.377  1.00  0.00    -0.413 C  
HETATM   18  O   UNL     1     -13.272  14.065  65.230  1.00  0.00    -0.782 OA 
HETATM   19  O   UNL     1     -12.378  13.587  63.202  1.00  0.00    -0.712 OA 
ENDBRANCH  15  16
BRANCH  15  20
HETATM   20  C   UNL     1     -10.038  12.615  66.703  1.00  0.00    -0.241 C  
HETATM   21  C   UNL     1     -10.693  11.584  67.623  1.00  0.00    -0.211 C  
HETATM   22  O   UNL     1     -12.047  11.636  67.606  1.00  0.00    -0.615 OA 
HETATM   23  O   UNL     1     -10.071  10.759  68.268  1.00  0.00    -0.161 OA 
ENDBRANCH  15  20
ENDBRANCH  14  15
ENDBRANCH   2  14
TORSDOF 8
ENDMDL
MODEL        5
REMARK 921   NORMALIZED FREE ENERGY PREDICTED BY IDOCK:   -5.47 KCAL/MOL
REMARK 922        TOTAL FREE ENERGY PREDICTED BY IDOCK:   -9.37 KCAL/MOL
REMARK 923 INTER-LIGAND FREE ENERGY PREDICTED BY IDOCK:   -8.48 KCAL/MOL
REMARK 924 INTRA-LIGAND FREE ENERGY PREDICTED BY IDOCK:   -0.88 KCAL/MOL
REMARK 927      BINDING AFFINITY PREDICTED BY RF-SCORE:    0.00 PKD
ROOT
HETATM    1  O   UNL     1     -10.523  14.377  69.887  1.00  0.00    -0.442 OA 
HETATM    2  C   UNL     1     -10.744  14.875  68.563  1.00  0.00    -0.245 C  
HETATM    3  H   UNL     1      -9.851  14.895  70.314  1.00  0.00     0.000 HD 
ENDROOT
BRANCH   2   4
HETATM    4  C   UNL     1     -11.148  16.367  68.673  1.00  0.00    -0.352 C  
BRANCH   4   5
HETATM    5  N   UNL     1     -10.459  17.323  67.728  1.00  0.00    -0.359 NA 
BRANCH   5   6
HETATM    6  C   UNL     1     -10.266  16.611  66.410  1.00  0.00    -0.315 C  
HETATM    7  O   UNL     1     -10.729  18.757  65.421  1.00  0.00    -0.556 OA 
HETATM    8  C   UNL     1     -10.797  17.419  65.229  1.00  0.00     0.056 C  
HETATM    9  O   UNL     1     -11.218  16.917  64.199  1.00  0.00    -1.176 OA 
ENDBRANCH   5   6
BRANCH   5  10
HETATM   10  C   UNL     1      -9.096  17.644  68.282  1.00  0.00    -0.276 C  
HETATM   11  O   UNL     1     -10.076  19.739  68.933  1.00  0.00    -0.455 OA 
HETATM   12  O   UNL     1      -7.843  19.715  68.542  1.00  0.00    -0.336 OA 
HETATM   13  C   UNL     1      -8.919  19.135  68.575  1.00  0.00    -0.363 C  
ENDBRANCH   5  10
ENDBRANCH   4   5
ENDBRANCH   2   4
BRANCH   2  14
HETATM   14  C   UNL     1     -11.848  14.024  67.863  1.00  0.00    -0.376 C  
BRANCH  14  15
HETATM   15  N   UNL     1     -11.446  13.221  66.653  1.00  0.00    -0.332 NA 
BRANCH  15  16
HETATM   16  C   UNL     1     -11.404  11.764  67.055  1.00  0.00    -0.321 C  
HETATM   17  C   UNL     1     -10.100  11.078  66.661  1.00  0.00    -0.220 C  
HETATM   18  O   UNL     1      -9.044  11.931  66.646  1.00  0.00    -0.194 OA 
HETATM   19  O   UNL     1      -9.993   9.882  66.445  1.00  0.00    -0.216 OA 
ENDBRANCH  15  16
BRANCH  15  20
HETATM   20  C   UNL     1     -12.550  13.350  65.616  1.00  0.00    -0.438 C  
HETATM   21  C   UNL     1     -12.030  13.644  64.209  1.00  0.00    -0.445 C  
HETATM   22  O   UNL     1     -10.789  13.149  63.984  1.00  0.00    -0.390 OA 
HETATM   23  O   UNL     1     -12.677  14.218  63.352  1.00  0.00    -0.733 OA 
ENDBRANCH  15  20
ENDBRANCH  14  15
ENDBRANCH   2  14
TORSDOF 8
ENDMDL
MODEL        6
REMARK 921   NORMALIZED FREE ENERGY PREDICTED BY IDOCK:   -5.43 KCAL/MOL
REMARK 922        TOTAL FREE ENERGY PREDICTED BY IDOCK:   -9.31 KCAL/MOL
REMARK 923 INTER-LIGAND FREE ENERGY PREDICTED BY IDOCK:   -8.18 KCAL/MOL
REMARK 924 INTRA-LIGAND FREE ENERGY PREDICTED BY IDOCK:   -1.13 KCAL/MOL
REMARK 927      BINDING AFFINITY PREDICTED BY RF-SCORE:    0.00 PKD
ROOT
HETATM    1  O   UNL     1     -11.645  16.350  63.676  1.00  0.00    -1.514 OA 
HETATM    2  C   UNL     1     -11.035  15.881  64.884  1.00  0.00    -0.411 C  
HETATM    3  H   UNL     1     -11.801  15.616  63.093  1.00  0.00     0.000 HD 
ENDROOT
BRANCH   2   4
HETATM    4  C   UNL     1     -11.977  14.827  65.520  1.00  0.00    -0.189 C  
BRANCH   4   5
HETATM    5  N   UNL     1     -11.382  13.466  65.786  1.00  0.00    -0.302 NA 
BRANCH   5   6
HETATM    6  C   UNL     1     -10.806  13.478  67.182  1.00  0.00    -0.284 C  
HETATM    7  O   UNL     1     -12.099  11.473  67.510  1.00  0.00    -0.614 OA 
HETATM    8  C   UNL     1     -11.557  12.547  68.131  1.00  0.00    -0.340 C  
HETATM    9  O   UNL     1     -11.644  12.731  69.334  1.00  0.00    -0.282 OA 
ENDBRANCH   5   6
BRANCH   5  10
HETATM   10  C   UNL     1     -10.247  13.242  64.822  1.00  0.00    -0.304 C  
HETATM   11  O   UNL     1     -11.939  12.400  63.339  1.00  0.00    -0.490 OA 
HETATM   12  O   UNL     1      -9.836  11.595  63.076  1.00  0.00    -0.393 OA 
HETATM   13  C   UNL     1     -10.630  12.310  63.672  1.00  0.00    -0.462 C  
ENDBRANCH   5  10
ENDBRANCH   4   5
ENDBRANCH   2   4
BRANCH   2  14
HETATM   14  C   UNL     1     -10.779  17.085  65.841  1.00  0.00    -0.139 C  
BRANCH  14  15
HETATM   15  N   UNL     1      -9.677  16.945  66.858  1.00  0.00    -0.250 NA 
BRANCH  15  16
HETATM   16  C   UNL     1      -8.478  16.339  66.166  1.00  0.00    -0.278 C  
HETATM   17  C   UNL     1      -7.451  15.776  67.142  1.00  0.00    -0.224 C  
HETATM   18  O   UNL     1      -8.014  15.331  68.295  1.00  0.00    -0.126 OA 
HETATM   19  O   UNL     1      -6.260  15.671  66.900  1.00  0.00    -0.241 OA 
ENDBRANCH  15  16
BRANCH  15  20
HETATM   20  C   UNL     1      -9.262  18.341  67.295  1.00  0.00    -0.256 C  
HETATM   21  C   UNL     1      -9.938  18.798  68.588  1.00  0.00    -0.394 C  
HETATM   22  O   UNL     1     -10.258  17.774  69.415  1.00  0.00    -0.253 OA 
HETATM   23  O   UNL     1     -10.128  19.966  68.878  1.00  0.00    -0.435 OA 
ENDBRANCH  15  20
ENDBRANCH  14  15
ENDBRANCH   2  14
TORSDOF 8
ENDMDL
MODEL        7
REMARK 921   NORMALIZED FREE ENERGY PREDICTED BY IDOCK:   -5.40 KCAL/MOL
REMARK 922        TOTAL FREE ENERGY PREDICTED BY IDOCK:   -9.25 KCAL/MOL
REMARK 923 INTER-LIGAND FREE ENERGY PREDICTED BY IDOCK:   -8.28 KCAL/MOL
REMARK 924 INTRA-LIGAND FREE ENERGY PREDICTED BY IDOCK:   -0.97 KCAL/MOL
REMARK 927      BINDING AFFINITY PREDICTED BY RF-SCORE:    0.00 PKD
ROOT
HETATM    1  O   UNL     1      -9.963  13.262  68.930  1.00  0.00    -0.420 OA 
HETATM    2  C   UNL     1     -11.167  13.443  68.177  1.00  0.00    -0.273 C  
HETATM    3  H   UNL     1      -9.991  13.804  69.710  1.00  0.00     0.000 HD 
ENDROOT
BRANCH   2   4
HETATM    4  C   UNL     1     -12.365  13.079  69.091  1.00  0.00     0.100 C  
BRANCH   4   5
HETATM    5  N   UNL     1     -12.165  13.279  70.574  1.00  0.00    -0.364 NA 
BRANCH   5   6
HETATM    6  C   UNL     1     -12.910  12.180  71.294  1.00  0.00    -0.250 C  
HETATM    7  O   UNL     1     -11.163  10.741  70.469  1.00  0.00    -0.282 OA 
HETATM    8  C   UNL     1     -12.460  10.788  70.856  1.00  0.00    -0.402 C  
HETATM    9  O   UNL     1     -13.183   9.805  70.874  1.00  0.00    -0.315 OA 
ENDBRANCH   5   6
BRANCH   5  10
HETATM   10  C   UNL     1     -12.788  14.592  70.968  1.00  0.00    -0.350 C  
HETATM   11  O   UNL     1     -10.537  15.430  70.975  1.00  0.00    -0.191 OA 
HETATM   12  O   UNL     1     -12.031  16.460  72.334  1.00  0.00    -0.530 OA 
HETATM   13  C   UNL     1     -11.765  15.584  71.523  1.00  0.00    -0.412 C  
ENDBRANCH   5  10
ENDBRANCH   4   5
ENDBRANCH   2   4
BRANCH   2  14
HETATM   14  C   UNL     1     -11.122  12.553  66.897  1.00  0.00    -0.278 C  
BRANCH  14  15
HETATM   15  N   UNL     1     -11.451  13.207  65.581  1.00  0.00    -0.314 NA 
BRANCH  15  16
HETATM   16  C   UNL     1     -11.270  14.699  65.744  1.00  0.00    -0.336 C  
HETATM   17  C   UNL     1     -11.742  15.491  64.529  1.00  0.00    -0.253 C  
HETATM   18  O   UNL     1     -12.759  14.879  63.869  1.00  0.00    -0.789 OA 
HETATM   19  O   UNL     1     -11.307  16.585  64.212  1.00  0.00    -1.020 OA 
ENDBRANCH  15  16
BRANCH  15  20
HETATM   20  C   UNL     1     -10.416  12.758  64.561  1.00  0.00    -0.368 C  
HETATM   21  C   UNL     1     -10.940  11.697  63.594  1.00  0.00    -0.431 C  
HETATM   22  O   UNL     1     -12.275  11.781  63.379  1.00  0.00    -0.511 OA 
HETATM   23  O   UNL     1     -10.230  10.886  63.026  1.00  0.00    -0.292 OA 
ENDBRANCH  15  20
ENDBRANCH  14  15
ENDBRANCH   2  14
TORSDOF 8
ENDMDL
MODEL        8
REMARK 921   NORMALIZED FREE ENERGY PREDICTED BY IDOCK:   -5.38 KCAL/MOL
REMARK 922        TOTAL FREE ENERGY PREDICTED BY IDOCK:   -9.23 KCAL/MOL
REMARK 923 INTER-LIGAND FREE ENERGY PREDICTED BY IDOCK:   -8.08 KCAL/MOL
REMARK 924 INTRA-LIGAND FREE ENERGY PREDICTED BY IDOCK:   -1.16 KCAL/MOL
REMARK 927      BINDING AFFINITY PREDICTED BY RF-SCORE:    0.00 PKD
ROOT
HETATM    1  O   UNL     1     -11.594  16.321  63.795  1.00  0.00    -1.539 OA 
HETATM    2  C   UNL     1     -10.859  15.993  64.979  1.00  0.00    -0.404 C  
HETATM    3  H   UNL     1     -11.730  15.536  63.277  1.00  0.00     0.000 HD 
ENDROOT
BRANCH   2   4
HETATM    4  C   UNL     1     -11.658  14.918  65.758  1.00  0.00    -0.234 C  
BRANCH   4   5
HETATM    5  N   UNL     1     -11.073  13.526  65.778  1.00  0.00    -0.286 NA 
BRANCH   5   6
HETATM    6  C   UNL     1     -12.141  12.569  65.304  1.00  0.00    -0.444 C  
HETATM    7  O   UNL     1     -10.786  12.366  63.323  1.00  0.00    -0.432 OA 
HETATM    8  C   UNL     1     -12.049  12.289  63.806  1.00  0.00    -0.532 C  
HETATM    9  O   UNL     1     -13.008  11.999  63.110  1.00  0.00    -0.662 OA 
ENDBRANCH   5   6
BRANCH   5  10
HETATM   10  C   UNL     1     -10.734  13.169  67.200  1.00  0.00    -0.255 C  
HETATM   11  O   UNL     1      -8.959  11.867  66.240  1.00  0.00    -0.207 OA 
HETATM   12  O   UNL     1      -9.771  11.191  68.245  1.00  0.00    -0.174 OA 
HETATM   13  C   UNL     1      -9.799  11.962  67.296  1.00  0.00    -0.187 C  
ENDBRANCH   5  10
ENDBRANCH   4   5
ENDBRANCH   2   4
BRANCH   2  14
HETATM   14  C   UNL     1     -10.636  17.281  65.829  1.00  0.00    -0.194 C  
BRANCH  14  15
HETATM   15  N   UNL     1      -9.249  17.537  66.358  1.00  0.00    -0.353 NA 
BRANCH  15  16
HETATM   16  C   UNL     1      -9.260  18.871  67.067  1.00  0.00    -0.303 C  
HETATM   17  C   UNL     1      -8.063  19.745  66.705  1.00  0.00    -0.304 C  
HETATM   18  O   UNL     1      -7.609  19.515  65.446  1.00  0.00    -0.401 OA 
HETATM   19  O   UNL     1      -7.595  20.605  67.434  1.00  0.00    -0.335 OA 
ENDBRANCH  15  16
BRANCH  15  20
HETATM   20  C   UNL     1      -8.950  16.489  67.418  1.00  0.00    -0.199 C  
HETATM   21  C   UNL     1      -7.655  15.719  67.161  1.00  0.00    -0.224 C  
HETATM   22  O   UNL     1      -6.731  16.439  66.480  1.00  0.00    -0.238 OA 
HETATM   23  O   UNL     1      -7.443  14.590  67.568  1.00  0.00    -0.171 OA 
ENDBRANCH  15  20
ENDBRANCH  14  15
ENDBRANCH   2  14
TORSDOF 8
ENDMDL
MODEL        9
REMARK 921   NORMALIZED FREE ENERGY PREDICTED BY IDOCK:   -5.38 KCAL/MOL
REMARK 922        TOTAL FREE ENERGY PREDICTED BY IDOCK:   -9.23 KCAL/MOL
REMARK 923 INTER-LIGAND FREE ENERGY PREDICTED BY IDOCK:   -8.10 KCAL/MOL
REMARK 924 INTRA-LIGAND FREE ENERGY PREDICTED BY IDOCK:   -1.13 KCAL/MOL
REMARK 927      BINDING AFFINITY PREDICTED BY RF-SCORE:    0.00 PKD
ROOT
HETATM    1  O   UNL     1     -11.355  16.655  64.036  1.00  0.00    -1.486 OA 
HETATM    2  C   UNL     1     -10.709  15.519  64.624  1.00  0.00    -0.165 C  
HETATM    3  H   UNL     1     -11.563  16.468  63.129  1.00  0.00     0.000 HD 
ENDROOT
BRANCH   2   4
HETATM    4  C   UNL     1     -11.660  14.303  64.488  1.00  0.00    -0.387 C  
BRANCH   4   5
HETATM    5  N   UNL     1     -11.217  13.024  65.156  1.00  0.00    -0.289 NA 
BRANCH   5   6
HETATM    6  C   UNL     1     -11.377  11.902  64.158  1.00  0.00    -0.380 C  
HETATM    7  O   UNL     1      -9.129  11.304  64.782  1.00  0.00    -0.142 OA 
HETATM    8  C   UNL     1     -10.044  11.259  63.784  1.00  0.00    -0.361 C  
HETATM    9  O   UNL     1      -9.823  10.731  62.706  1.00  0.00    -0.296 OA 
ENDBRANCH   5   6
BRANCH   5  10
HETATM   10  C   UNL     1     -12.137  12.744  66.314  1.00  0.00    -0.332 C  
HETATM   11  O   UNL     1     -10.123  12.576  67.613  1.00  0.00    -0.210 OA 
HETATM   12  O   UNL     1     -11.923  11.401  68.334  1.00  0.00    -0.539 OA 
HETATM   13  C   UNL     1     -11.403  12.146  67.516  1.00  0.00    -0.326 C  
ENDBRANCH   5  10
ENDBRANCH   4   5
ENDBRANCH   2   4
BRANCH   2  14
HETATM   14  C   UNL     1     -10.368  15.826  66.114  1.00  0.00    -0.320 C  
BRANCH  14  15
HETATM   15  N   UNL     1      -9.376  16.927  66.390  1.00  0.00    -0.266 NA 
BRANCH  15  16
HETATM   16  C   UNL     1     -10.020  17.905  67.346  1.00  0.00    -0.325 C  
HETATM   17  C   UNL     1     -10.363  19.237  66.689  1.00  0.00    -0.438 C  
HETATM   18  O   UNL     1     -10.648  19.111  65.367  1.00  0.00    -0.508 OA 
HETATM   19  O   UNL     1     -10.442  20.298  67.287  1.00  0.00    -0.346 OA 
ENDBRANCH  15  16
BRANCH  15  20
HETATM   20  C   UNL     1      -8.193  16.319  67.127  1.00  0.00    -0.189 C  
HETATM   21  C   UNL     1      -6.843  16.864  66.660  1.00  0.00    -0.236 C  
HETATM   22  O   UNL     1      -6.913  18.132  66.188  1.00  0.00    -0.232 OA 
HETATM   23  O   UNL     1      -5.796  16.248  66.748  1.00  0.00    -0.329 OA 
ENDBRANCH  15  20
ENDBRANCH  14  15
ENDBRANCH   2  14
TORSDOF 8
ENDMDL
MODEL       10
REMARK 921   NORMALIZED FREE ENERGY PREDICTED BY IDOCK:   -5.38 KCAL/MOL
REMARK 922        TOTAL FREE ENERGY PREDICTED BY IDOCK:   -9.23 KCAL/MOL
REMARK 923 INTER-LIGAND FREE ENERGY PREDICTED BY IDOCK:   -8.03 KCAL/MOL
REMARK 924 INTRA-LIGAND FREE ENERGY PREDICTED BY IDOCK:   -1.20 KCAL/MOL
REMARK 927      BINDING AFFINITY PREDICTED BY RF-SCORE:    0.00 PKD
ROOT
HETATM    1  O   UNL     1      -9.417  12.622  68.954  1.00  0.00    -0.397 OA 
HETATM    2  C   UNL     1      -9.516  13.818  68.173  1.00  0.00    -0.212 C  
HETATM    3  H   UNL     1      -9.474  12.839  69.877  1.00  0.00     0.000 HD 
ENDROOT
BRANCH   2   4
HETATM    4  C   UNL     1     -10.859  14.509  68.522  1.00  0.00    -0.249 C  
BRANCH   4   5
HETATM    5  N   UNL     1     -10.770  15.798  69.303  1.00  0.00    -0.227 NA 
BRANCH   5   6
HETATM    6  C   UNL     1      -9.419  16.413  69.027  1.00  0.00    -0.258 C  
HETATM    7  O   UNL     1     -10.671  18.190  67.989  1.00  0.00    -0.374 OA 
HETATM    8  C   UNL     1      -9.488  17.530  67.989  1.00  0.00    -0.280 C  
HETATM    9  O   UNL     1      -8.566  17.825  67.246  1.00  0.00    -0.227 OA 
ENDBRANCH   5   6
BRANCH   5  10
HETATM   10  C   UNL     1     -10.837  15.474  70.771  1.00  0.00    -0.261 C  
HETATM   11  O   UNL     1     -13.212  15.719  70.513  1.00  0.00    -0.449 OA 
HETATM   12  O   UNL     1     -12.344  16.139  72.565  1.00  0.00    -0.460 OA 
HETATM   13  C   UNL     1     -12.188  15.832  71.391  1.00  0.00    -0.445 C  
ENDBRANCH   5  10
ENDBRANCH   4   5
ENDBRANCH   2   4
BRANCH   2  14
HETATM   14  C   UNL     1      -9.422  13.461  66.658  1.00  0.00    -0.260 C  
BRANCH  14  15
HETATM   15  N   UNL     1     -10.665  12.938  65.987  1.00  0.00    -0.274 NA 
BRANCH  15  16
HETATM   16  C   UNL     1     -10.804  13.637  64.654  1.00  0.00    -0.407 C  
HETATM   17  C   UNL     1     -12.258  13.843  64.242  1.00  0.00    -0.408 C  
HETATM   18  O   UNL     1     -13.089  13.985  65.306  1.00  0.00    -0.782 OA 
HETATM   19  O   UNL     1     -12.636  13.938  63.086  1.00  0.00    -0.775 OA 
ENDBRANCH  15  16
BRANCH  15  20
HETATM   20  C   UNL     1     -10.448  11.464  65.679  1.00  0.00    -0.262 C  
HETATM   21  C   UNL     1     -10.824  10.541  66.838  1.00  0.00    -0.187 C  
HETATM   22  O   UNL     1     -11.801  11.047  67.629  1.00  0.00    -0.599 OA 
HETATM   23  O   UNL     1     -10.339   9.437  67.012  1.00  0.00    -0.240 OA 
ENDBRANCH  15  20
ENDBRANCH  14  15
ENDBRANCH   2  14
TORSDOF 8
ENDMDL
MODEL       11
REMARK 921   NORMALIZED FREE ENERGY PREDICTED BY IDOCK:   -5.38 KCAL/MOL
REMARK 922        TOTAL FREE ENERGY PREDICTED BY IDOCK:   -9.22 KCAL/MOL
REMARK 923 INTER-LIGAND FREE ENERGY PREDICTED BY IDOCK:   -7.97 KCAL/MOL
REMARK 924 INTRA-LIGAND FREE ENERGY PREDICTED BY IDOCK:   -1.25 KCAL/MOL
REMARK 927      BINDING AFFINITY PREDICTED BY RF-SCORE:    0.00 PKD
ROOT
HETATM    1  O   UNL     1      -9.642  14.497  69.517  1.00  0.00    -0.413 OA 
HETATM    2  C   UNL     1     -10.538  15.153  68.613  1.00  0.00    -0.234 C  
HETATM    3  H   UNL     1      -9.659  13.561  69.358  1.00  0.00     0.000 HD 
ENDROOT
BRANCH   2   4
HETATM    4  C   UNL     1     -10.100  14.805  67.167  1.00  0.00    -0.240 C  
BRANCH   4   5
HETATM    5  N   UNL     1     -10.865  13.700  66.479  1.00  0.00    -0.282 NA 
BRANCH   5   6
HETATM    6  C   UNL     1     -10.107  12.411  66.692  1.00  0.00    -0.221 C  
HETATM    7  O   UNL     1     -12.155  11.611  67.674  1.00  0.00    -0.615 OA 
HETATM    8  C   UNL     1     -10.808  11.479  67.677  1.00  0.00    -0.227 C  
HETATM    9  O   UNL     1     -10.222  10.673  68.383  1.00  0.00    -0.161 OA 
ENDBRANCH   5   6
BRANCH   5  10
HETATM   10  C   UNL     1     -10.887  13.982  65.001  1.00  0.00    -0.392 C  
HETATM   11  O   UNL     1     -13.247  14.311  65.302  1.00  0.00    -0.704 OA 
HETATM   12  O   UNL     1     -12.549  13.631  63.256  1.00  0.00    -0.816 OA 
HETATM   13  C   UNL     1     -12.299  13.931  64.415  1.00  0.00    -0.361 C  
ENDBRANCH   5  10
ENDBRANCH   4   5
ENDBRANCH   2   4
BRANCH   2  14
HETATM   14  C   UNL     1     -10.512  16.690  68.874  1.00  0.00    -0.322 C  
BRANCH  14  15
HETATM   15  N   UNL     1      -9.664  17.538  67.962  1.00  0.00    -0.277 NA 
BRANCH  15  16
HETATM   16  C   UNL     1     -10.488  18.731  67.537  1.00  0.00    -0.435 C  
HETATM   17  C   UNL     1     -10.520  18.921  66.024  1.00  0.00    -0.446 C  
HETATM   18  O   UNL     1     -10.408  17.749  65.347  1.00  0.00    -0.602 OA 
HETATM   19  O   UNL     1     -10.694  19.995  65.470  1.00  0.00    -0.426 OA 
ENDBRANCH  15  16
BRANCH  15  20
HETATM   20  C   UNL     1      -8.501  18.084  68.775  1.00  0.00    -0.205 C  
HETATM   21  C   UNL     1      -7.225  17.253  68.643  1.00  0.00    -0.231 C  
HETATM   22  O   UNL     1      -7.124  16.614  67.453  1.00  0.00    -0.135 OA 
HETATM   23  O   UNL     1      -6.354  17.206  69.494  1.00  0.00    -0.228 OA 
ENDBRANCH  15  20
ENDBRANCH  14  15
ENDBRANCH   2  14
TORSDOF 8
ENDMDL
MODEL       12
REMARK 921   NORMALIZED FREE ENERGY PREDICTED BY IDOCK:   -5.36 KCAL/MOL
REMARK 922        TOTAL FREE ENERGY PREDICTED BY IDOCK:   -9.20 KCAL/MOL
REMARK 923 INTER-LIGAND FREE ENERGY PREDICTED BY IDOCK:   -8.61 KCAL/MOL
REMARK 924 INTRA-LIGAND FREE ENERGY PREDICTED BY IDOCK:   -0.58 KCAL/MOL
REMARK 927      BINDING AFFINITY PREDICTED BY RF-SCORE:    0.00 PKD
ROOT
HETATM    1  O   UNL     1     -10.206  12.495  68.744  1.00  0.00    -0.363 OA 
HETATM    2  C   UNL     1     -11.047  13.450  68.087  1.00  0.00    -0.258 C  
HETATM    3  H   UNL     1      -9.740  12.918  69.455  1.00  0.00     0.000 HD 
ENDROOT
BRANCH   2   4
HETATM    4  C   UNL     1     -12.017  14.040  69.142  1.00  0.00    -0.360 C  
BRANCH   4   5
HETATM    5  N   UNL     1     -11.587  15.325  69.808  1.00  0.00    -0.290 NA 
BRANCH   5   6
HETATM    6  C   UNL     1     -10.141  15.571  69.447  1.00  0.00    -0.266 C  
HETATM    7  O   UNL     1     -10.917  17.715  68.671  1.00  0.00    -0.114 OA 
HETATM    8  C   UNL     1      -9.970  16.761  68.506  1.00  0.00    -0.271 C  
HETATM    9  O   UNL     1      -9.060  16.862  67.699  1.00  0.00    -0.220 OA 
ENDBRANCH   5   6
BRANCH   5  10
HETATM   10  C   UNL     1     -11.663  15.139  71.301  1.00  0.00    -0.359 C  
HETATM   11  O   UNL     1     -14.015  15.541  71.029  1.00  0.00    -0.535 OA 
HETATM   12  O   UNL     1     -13.097  16.075  73.032  1.00  0.00    -0.493 OA 
HETATM   13  C   UNL     1     -12.977  15.654  71.890  1.00  0.00    -0.463 C  
ENDBRANCH   5  10
ENDBRANCH   4   5
ENDBRANCH   2   4
BRANCH   2  14
HETATM   14  C   UNL     1     -11.812  12.756  66.919  1.00  0.00    -0.371 C  
BRANCH  14  15
HETATM   15  N   UNL     1     -11.701  13.372  65.549  1.00  0.00    -0.327 NA 
BRANCH  15  16
HETATM   16  C   UNL     1     -11.349  14.832  65.723  1.00  0.00    -0.336 C  
HETATM   17  C   UNL     1     -11.759  15.687  64.528  1.00  0.00    -0.220 C  
HETATM   18  O   UNL     1     -12.854  15.203  63.888  1.00  0.00    -0.671 OA 
HETATM   19  O   UNL     1     -11.210  16.730  64.211  1.00  0.00    -1.163 OA 
ENDBRANCH  15  16
BRANCH  15  20
HETATM   20  C   UNL     1     -10.522  12.727  64.838  1.00  0.00    -0.321 C  
HETATM   21  C   UNL     1     -10.933  11.623  63.864  1.00  0.00    -0.407 C  
HETATM   22  O   UNL     1     -12.168  11.804  63.339  1.00  0.00    -0.511 OA 
HETATM   23  O   UNL     1     -10.209  10.696  63.544  1.00  0.00    -0.295 OA 
ENDBRANCH  15  20
ENDBRANCH  14  15
ENDBRANCH   2  14
TORSDOF 8
ENDMDL
MODEL       13
REMARK 921   NORMALIZED FREE ENERGY PREDICTED BY IDOCK:   -5.35 KCAL/MOL
REMARK 922        TOTAL FREE ENERGY PREDICTED BY IDOCK:   -9.19 KCAL/MOL
REMARK 923 INTER-LIGAND FREE ENERGY PREDICTED BY IDOCK:   -8.11 KCAL/MOL
REMARK 924 INTRA-LIGAND FREE ENERGY PREDICTED BY IDOCK:   -1.09 KCAL/MOL
REMARK 927      BINDING AFFINITY PREDICTED BY RF-SCORE:    0.00 PKD
ROOT
HETATM    1  O   UNL     1     -11.500  16.564  63.935  1.00  0.00    -1.608 OA 
HETATM    2  C   UNL     1     -10.998  16.302  65.250  1.00  0.00    -0.236 C  
HETATM    3  H   UNL     1     -11.808  17.461  63.885  1.00  0.00     0.000 HD 
ENDROOT
BRANCH   2   4
HETATM    4  C   UNL     1      -9.866  17.319  65.543  1.00  0.00     0.254 C  
BRANCH   4   5
HETATM    5  N   UNL     1      -9.041  17.068  66.783  1.00  0.00    -0.236 NA 
BRANCH   5   6
HETATM    6  C   UNL     1      -8.858  18.389  67.491  1.00  0.00    -0.261 C  
HETATM    7  O   UNL     1     -10.477  17.538  69.056  1.00  0.00    -0.350 OA 
HETATM    8  C   UNL     1      -9.963  18.663  68.507  1.00  0.00    -0.388 C  
HETATM    9  O   UNL     1     -10.335  19.783  68.820  1.00  0.00    -0.415 OA 
ENDBRANCH   5   6
BRANCH   5  10
HETATM   10  C   UNL     1      -7.680  16.580  66.361  1.00  0.00    -0.259 C  
HETATM   11  O   UNL     1      -8.178  14.651  67.703  1.00  0.00    -0.146 OA 
HETATM   12  O   UNL     1      -5.993  15.193  67.438  1.00  0.00    -0.334 OA 
HETATM   13  C   UNL     1      -7.175  15.427  67.230  1.00  0.00    -0.194 C  
ENDBRANCH   5  10
ENDBRANCH   4   5
ENDBRANCH   2   4
BRANCH   2  14
HETATM   14  C   UNL     1     -10.493  14.829  65.332  1.00  0.00    -0.380 C  
BRANCH  14  15
HETATM   15  N   UNL     1     -11.297  13.861  66.160  1.00  0.00    -0.314 NA 
BRANCH  15  16
HETATM   16  C   UNL     1     -11.768  14.587  67.399  1.00  0.00    -0.400 C  
HETATM   17  C   UNL     1     -11.729  13.713  68.649  1.00  0.00    -0.354 C  
HETATM   18  O   UNL     1     -10.750  12.772  68.599  1.00  0.00    -0.245 OA 
HETATM   19  O   UNL     1     -12.449  13.873  69.621  1.00  0.00    -0.300 OA 
ENDBRANCH  15  16
BRANCH  15  20
HETATM   20  C   UNL     1     -12.547  13.497  65.374  1.00  0.00    -0.483 C  
HETATM   21  C   UNL     1     -12.316  12.389  64.346  1.00  0.00    -0.447 C  
HETATM   22  O   UNL     1     -11.327  11.532  64.697  1.00  0.00    -0.258 OA 
HETATM   23  O   UNL     1     -12.984  12.250  63.337  1.00  0.00    -0.753 OA 
ENDBRANCH  15  20
ENDBRANCH  14  15
ENDBRANCH   2  14
TORSDOF 8
ENDMDL
MODEL       14
REMARK 921   NORMALIZED FREE ENERGY PREDICTED BY IDOCK:   -5.32 KCAL/MOL
REMARK 922        TOTAL FREE ENERGY PREDICTED BY IDOCK:   -9.14 KCAL/MOL
REMARK 923 INTER-LIGAND FREE ENERGY PREDICTED BY IDOCK:   -8.39 KCAL/MOL
REMARK 924 INTRA-LIGAND FREE ENERGY PREDICTED BY IDOCK:   -0.75 KCAL/MOL
REMARK 927      BINDING AFFINITY PREDICTED BY RF-SCORE:    0.00 PKD
ROOT
HETATM    1  O   UNL     1     -10.813  14.218  70.143  1.00  0.00    -0.461 OA 
HETATM    2  C   UNL     1     -10.971  14.468  68.741  1.00  0.00    -0.250 C  
HETATM    3  H   UNL     1     -10.214  14.855  70.513  1.00  0.00     0.000 HD 
ENDROOT
BRANCH   2   4
HETATM    4  C   UNL     1     -11.489  15.918  68.568  1.00  0.00    -0.377 C  
BRANCH   4   5
HETATM    5  N   UNL     1     -10.567  16.883  67.862  1.00  0.00    -0.352 NA 
BRANCH   5   6
HETATM    6  C   UNL     1     -10.355  16.375  66.456  1.00  0.00    -0.303 C  
HETATM    7  O   UNL     1     -10.644  18.675  65.804  1.00  0.00    -0.567 OA 
HETATM    8  C   UNL     1     -10.782  17.390  65.399  1.00  0.00    -0.035 C  
HETATM    9  O   UNL     1     -11.184  17.085  64.288  1.00  0.00    -1.186 OA 
ENDBRANCH   5   6
BRANCH   5  10
HETATM   10  C   UNL     1      -9.234  16.870  68.562  1.00  0.00    -0.260 C  
HETATM   11  O   UNL     1      -9.600  19.223  68.871  1.00  0.00    -0.396 OA 
HETATM   12  O   UNL     1      -7.449  18.511  68.791  1.00  0.00    -0.290 OA 
HETATM   13  C   UNL     1      -8.648  18.272  68.733  1.00  0.00    -0.220 C  
ENDBRANCH   5  10
ENDBRANCH   4   5
ENDBRANCH   2   4
BRANCH   2  14
HETATM   14  C   UNL     1     -11.955  13.422  68.133  1.00  0.00    -0.321 C  
BRANCH  14  15
HETATM   15  N   UNL     1     -11.704  12.970  66.717  1.00  0.00    -0.364 NA 
BRANCH  15  16
HETATM   16  C   UNL     1     -12.311  13.995  65.787  1.00  0.00    -0.480 C  
HETATM   17  C   UNL     1     -12.623  13.430  64.405  1.00  0.00    -0.190 C  
HETATM   18  O   UNL     1     -12.924  12.106  64.437  1.00  0.00    -0.680 OA 
HETATM   19  O   UNL     1     -12.666  14.098  63.385  1.00  0.00    -0.767 OA 
ENDBRANCH  15  16
BRANCH  15  20
HETATM   20  C   UNL     1     -10.204  13.002  66.473  1.00  0.00    -0.268 C  
HETATM   21  C   UNL     1      -9.569  11.612  66.415  1.00  0.00    -0.217 C  
HETATM   22  O   UNL     1     -10.421  10.654  65.976  1.00  0.00    -0.239 OA 
HETATM   23  O   UNL     1      -8.403  11.386  66.683  1.00  0.00    -0.164 OA 
ENDBRANCH  15  20
ENDBRANCH  14  15
ENDBRANCH   2  14
TORSDOF 8
ENDMDL
MODEL       15
REMARK 921   NORMALIZED FREE ENERGY PREDICTED BY IDOCK:   -5.31 KCAL/MOL
REMARK 922        TOTAL FREE ENERGY PREDICTED BY IDOCK:   -9.12 KCAL/MOL
REMARK 923 INTER-LIGAND FREE ENERGY PREDICTED BY IDOCK:   -7.95 KCAL/MOL
REMARK 924 INTRA-LIGAND FREE ENERGY PREDICTED BY IDOCK:   -1.17 KCAL/MOL
REMARK 927      BINDING AFFINITY PREDICTED BY RF-SCORE:    0.00 PKD
ROOT
HETATM    1  O   UNL     1     -12.017  16.104  63.805  1.00  0.00    -1.394 OA 
HETATM    2  C   UNL     1     -11.091  15.791  64.851  1.00  0.00    -0.399 C  
HETATM    3  H   UNL     1     -12.291  15.304  63.373  1.00  0.00     0.000 HD 
ENDROOT
BRANCH   2   4
HETATM    4  C   UNL     1     -11.788  14.815  65.832  1.00  0.00    -0.204 C  
BRANCH   4   5
HETATM    5  N   UNL     1     -11.167  13.446  65.976  1.00  0.00    -0.294 NA 
BRANCH   5   6
HETATM    6  C   UNL     1     -12.146  12.435  65.431  1.00  0.00    -0.365 C  
HETATM    7  O   UNL     1     -10.847  12.576  63.408  1.00  0.00    -0.439 OA 
HETATM    8  C   UNL     1     -12.077  12.318  63.910  1.00  0.00    -0.506 C  
HETATM    9  O   UNL     1     -13.026  12.000  63.210  1.00  0.00    -0.736 OA 
ENDBRANCH   5   6
BRANCH   5  10
HETATM   10  C   UNL     1     -10.976  13.158  67.441  1.00  0.00    -0.264 C  
HETATM   11  O   UNL     1      -9.044  11.916  66.740  1.00  0.00    -0.186 OA 
HETATM   12  O   UNL     1     -10.047  11.271  68.668  1.00  0.00    -0.197 OA 
HETATM   13  C   UNL     1     -10.003  12.005  67.691  1.00  0.00    -0.191 C  
ENDBRANCH   5  10
ENDBRANCH   4   5
ENDBRANCH   2   4
BRANCH   2  14
HETATM   14  C   UNL     1     -10.641  17.105  65.560  1.00  0.00    -0.150 C  
BRANCH  14  15
HETATM   15  N   UNL     1      -9.663  16.982  66.700  1.00  0.00    -0.264 NA 
BRANCH  15  16
HETATM   16  C   UNL     1      -8.421  16.298  66.177  1.00  0.00    -0.278 C  
HETATM   17  C   UNL     1      -7.606  15.627  67.277  1.00  0.00    -0.214 C  
HETATM   18  O   UNL     1      -8.374  15.200  68.312  1.00  0.00    -0.142 OA 
HETATM   19  O   UNL     1      -6.403  15.431  67.217  1.00  0.00    -0.305 OA 
ENDBRANCH  15  16
BRANCH  15  20
HETATM   20  C   UNL     1      -9.242  18.385  67.110  1.00  0.00    -0.264 C  
HETATM   21  C   UNL     1      -9.970  18.898  68.352  1.00  0.00    -0.391 C  
HETATM   22  O   UNL     1     -10.348  17.908  69.197  1.00  0.00    -0.340 OA 
HETATM   23  O   UNL     1     -10.150  20.078  68.595  1.00  0.00    -0.425 OA 
ENDBRANCH  15  20
ENDBRANCH  14  15
ENDBRANCH   2  14
TORSDOF 8
ENDMDL
MODEL       16
REMARK 921   NORMALIZED FREE ENERGY PREDICTED BY IDOCK:   -5.30 KCAL/MOL
REMARK 922        TOTAL FREE ENERGY PREDICTED BY IDOCK:   -9.11 KCAL/MOL
REMARK 923 INTER-LIGAND FREE ENERGY PREDICTED BY IDOCK:   -8.04 KCAL/MOL
REMARK 924 INTRA-LIGAND FREE ENERGY PREDICTED BY IDOCK:   -1.08 KCAL/MOL
REMARK 927      BINDING AFFINITY PREDICTED BY RF-SCORE:    0.00 PKD
ROOT
HETATM    1  O   UNL     1     -12.705  15.288  69.253  1.00  0.00    -0.520 OA 
HETATM    2  C   UNL     1     -11.631  15.393  68.312  1.00  0.00    -0.348 C  
HETATM    3  H   UNL     1     -13.356  14.678  68.925  1.00  0.00     0.000 HD 
ENDROOT
BRANCH   2   4
HETATM    4  C   UNL     1     -11.040  13.977  68.097  1.00  0.00    -0.260 C  
BRANCH   4   5
HETATM    5  N   UNL     1     -11.303  13.333  66.757  1.00  0.00    -0.314 NA 
BRANCH   5   6
HETATM    6  C   UNL     1      -9.975  12.894  66.187  1.00  0.00    -0.272 C  
HETATM    7  O   UNL     1     -10.670  10.678  66.827  1.00  0.00    -0.250 OA 
HETATM    8  C   UNL     1      -9.598  11.477  66.615  1.00  0.00    -0.197 C  
HETATM    9  O   UNL     1      -8.447  11.088  66.733  1.00  0.00    -0.137 OA 
ENDBRANCH   5   6
BRANCH   5  10
HETATM   10  C   UNL     1     -11.879  14.372  65.832  1.00  0.00    -0.367 C  
HETATM   11  O   UNL     1     -13.054  12.535  64.826  1.00  0.00    -0.853 OA 
HETATM   12  O   UNL     1     -12.606  14.324  63.508  1.00  0.00    -0.814 OA 
HETATM   13  C   UNL     1     -12.525  13.757  64.589  1.00  0.00    -0.315 C  
ENDBRANCH   5  10
ENDBRANCH   4   5
ENDBRANCH   2   4
BRANCH   2  14
HETATM   14  C   UNL     1     -10.563  16.394  68.849  1.00  0.00    -0.307 C  
BRANCH  14  15
HETATM   15  N   UNL     1      -9.746  17.152  67.836  1.00  0.00    -0.263 NA 
BRANCH  15  16
HETATM   16  C   UNL     1     -10.461  18.451  67.539  1.00  0.00    -0.419 C  
HETATM   17  C   UNL     1     -10.498  18.781  66.051  1.00  0.00    -0.432 C  
HETATM   18  O   UNL     1     -10.505  17.670  65.268  1.00  0.00    -0.630 OA 
HETATM   19  O   UNL     1     -10.578  19.912  65.600  1.00  0.00    -0.495 OA 
ENDBRANCH  15  16
BRANCH  15  20
HETATM   20  C   UNL     1      -8.423  17.528  68.486  1.00  0.00    -0.280 C  
HETATM   21  C   UNL     1      -7.204  17.127  67.655  1.00  0.00    -0.157 C  
HETATM   22  O   UNL     1      -7.450  17.100  66.323  1.00  0.00    -0.280 OA 
HETATM   23  O   UNL     1      -6.104  16.903  68.128  1.00  0.00    -0.125 OA 
ENDBRANCH  15  20
ENDBRANCH  14  15
ENDBRANCH   2  14
TORSDOF 8
ENDMDL
MODEL       17
REMARK 921   NORMALIZED FREE ENERGY PREDICTED BY IDOCK:   -5.30 KCAL/MOL
REMARK 922        TOTAL FREE ENERGY PREDICTED BY IDOCK:   -9.11 KCAL/MOL
REMARK 923 INTER-LIGAND FREE ENERGY PREDICTED BY IDOCK:   -7.48 KCAL/MOL
REMARK 924 INTRA-LIGAND FREE ENERGY PREDICTED BY IDOCK:   -1.64 KCAL/MOL
REMARK 927      BINDING AFFINITY PREDICTED BY RF-SCORE:    0.00 PKD
ROOT
HETATM    1  O   UNL     1      -9.248  14.933  67.797  1.00  0.00    -0.182 OA 
HETATM    2  C   UNL     1     -10.324  15.317  68.660  1.00  0.00    -0.232 C  
HETATM    3  H   UNL     1      -9.283  13.996  67.643  1.00  0.00     0.000 HD 
ENDROOT
BRANCH   2   4
HETATM    4  C   UNL     1     -11.654  14.892  67.987  1.00  0.00    -0.341 C  
BRANCH   4   5
HETATM    5  N   UNL     1     -11.568  13.782  66.967  1.00  0.00    -0.345 NA 
BRANCH   5   6
HETATM    6  C   UNL     1     -12.649  14.014  65.939  1.00  0.00    -0.449 C  
HETATM    7  O   UNL     1     -10.861  13.882  64.332  1.00  0.00    -0.388 OA 
HETATM    8  C   UNL     1     -12.084  14.409  64.577  1.00  0.00    -0.481 C  
HETATM    9  O   UNL     1     -12.678  15.109  63.772  1.00  0.00    -0.722 OA 
ENDBRANCH   5   6
BRANCH   5  10
HETATM   10  C   UNL     1     -11.860  12.475  67.655  1.00  0.00    -0.317 C  
HETATM   11  O   UNL     1      -9.510  12.049  67.407  1.00  0.00    -0.173 OA 
HETATM   12  O   UNL     1     -10.885  10.249  67.502  1.00  0.00    -0.276 OA 
HETATM   13  C   UNL     1     -10.726  11.462  67.497  1.00  0.00    -0.222 C  
ENDBRANCH   5  10
ENDBRANCH   4   5
ENDBRANCH   2   4
BRANCH   2  14
HETATM   14  C   UNL     1     -10.267  16.855  68.913  1.00  0.00    -0.314 C  
BRANCH  14  15
HETATM   15  N   UNL     1      -9.435  17.686  67.970  1.00  0.00    -0.274 NA 
BRANCH  15  16
HETATM   16  C   UNL     1     -10.281  18.849  67.505  1.00  0.00    -0.391 C  
HETATM   17  C   UNL     1     -10.506  18.853  65.996  1.00  0.00    -0.446 C  
HETATM   18  O   UNL     1     -10.508  17.604  65.464  1.00  0.00    -0.636 OA 
HETATM   19  O   UNL     1     -10.726  19.856  65.338  1.00  0.00    -0.421 OA 
ENDBRANCH  15  16
BRANCH  15  20
HETATM   20  C   UNL     1      -8.282  18.282  68.762  1.00  0.00    -0.234 C  
HETATM   21  C   UNL     1      -7.074  17.351  68.868  1.00  0.00    -0.251 C  
HETATM   22  O   UNL     1      -6.956  16.506  67.815  1.00  0.00    -0.130 OA 
HETATM   23  O   UNL     1      -6.264  17.391  69.776  1.00  0.00    -0.250 OA 
ENDBRANCH  15  20
ENDBRANCH  14  15
ENDBRANCH   2  14
TORSDOF 8
ENDMDL
MODEL       18
REMARK 921   NORMALIZED FREE ENERGY PREDICTED BY IDOCK:   -5.30 KCAL/MOL
REMARK 922        TOTAL FREE ENERGY PREDICTED BY IDOCK:   -9.11 KCAL/MOL
REMARK 923 INTER-LIGAND FREE ENERGY PREDICTED BY IDOCK:   -7.94 KCAL/MOL
REMARK 924 INTRA-LIGAND FREE ENERGY PREDICTED BY IDOCK:   -1.17 KCAL/MOL
REMARK 927      BINDING AFFINITY PREDICTED BY RF-SCORE:    0.00 PKD
ROOT
HETATM    1  O   UNL     1      -8.252  13.709  69.057  1.00  0.00    -0.341 OA 
HETATM    2  C   UNL     1      -9.155  14.455  68.234  1.00  0.00    -0.193 C  
HETATM    3  H   UNL     1      -8.216  14.098  69.923  1.00  0.00     0.000 HD 
ENDROOT
BRANCH   2   4
HETATM    4  C   UNL     1     -10.543  14.458  68.924  1.00  0.00    -0.247 C  
BRANCH   4   5
HETATM    5  N   UNL     1     -11.147  15.810  69.216  1.00  0.00    -0.273 NA 
BRANCH   5   6
HETATM    6  C   UNL     1     -12.554  15.589  69.719  1.00  0.00    -0.062 C  
HETATM    7  O   UNL     1     -11.704  16.390  71.825  1.00  0.00    -0.478 OA 
HETATM    8  C   UNL     1     -12.636  15.598  71.243  1.00  0.00    -0.463 C  
HETATM    9  O   UNL     1     -13.471  14.978  71.882  1.00  0.00    -0.340 OA 
ENDBRANCH   5   6
BRANCH   5  10
HETATM   10  C   UNL     1     -11.235  16.584  67.928  1.00  0.00    -0.155 C  
HETATM   11  O   UNL     1      -9.542  17.990  68.890  1.00  0.00    -0.297 OA 
HETATM   12  O   UNL     1     -10.927  18.933  67.363  1.00  0.00    -0.437 OA 
HETATM   13  C   UNL     1     -10.584  17.964  68.027  1.00  0.00    -0.356 C  
ENDBRANCH   5  10
ENDBRANCH   4   5
ENDBRANCH   2   4
BRANCH   2  14
HETATM   14  C   UNL     1      -9.215  13.816  66.812  1.00  0.00    -0.244 C  
BRANCH  14  15
HETATM   15  N   UNL     1     -10.558  13.354  66.311  1.00  0.00    -0.287 NA 
BRANCH  15  16
HETATM   16  C   UNL     1     -10.803  14.004  64.969  1.00  0.00    -0.392 C  
HETATM   17  C   UNL     1     -12.262  13.929  64.530  1.00  0.00    -0.417 C  
HETATM   18  O   UNL     1     -13.124  13.919  65.580  1.00  0.00    -0.699 OA 
HETATM   19  O   UNL     1     -12.631  13.942  63.368  1.00  0.00    -0.853 OA 
ENDBRANCH  15  16
BRANCH  15  20
HETATM   20  C   UNL     1     -10.475  11.857  66.055  1.00  0.00    -0.245 C  
HETATM   21  C   UNL     1     -11.128  11.017  67.152  1.00  0.00    -0.267 C  
HETATM   22  O   UNL     1     -12.145  11.655  67.780  1.00  0.00    -0.613 OA 
HETATM   23  O   UNL     1     -10.810   9.870  67.409  1.00  0.00    -0.280 OA 
ENDBRANCH  15  20
ENDBRANCH  14  15
ENDBRANCH   2  14
TORSDOF 8
ENDMDL
MODEL       19
REMARK 921   NORMALIZED FREE ENERGY PREDICTED BY IDOCK:   -5.29 KCAL/MOL
REMARK 922        TOTAL FREE ENERGY PREDICTED BY IDOCK:   -9.09 KCAL/MOL
REMARK 923 INTER-LIGAND FREE ENERGY PREDICTED BY IDOCK:   -7.86 KCAL/MOL
REMARK 924 INTRA-LIGAND FREE ENERGY PREDICTED BY IDOCK:   -1.23 KCAL/MOL
REMARK 927      BINDING AFFINITY PREDICTED BY RF-SCORE:    0.00 PKD
ROOT
HETATM    1  O   UNL     1     -10.949  17.179  64.685  1.00  0.00    -1.005 OA 
HETATM    2  C   UNL     1     -10.428  16.036  65.373  1.00  0.00    -0.392 C  
HETATM    3  H   UNL     1     -11.541  16.894  63.999  1.00  0.00     0.000 HD 
ENDROOT
BRANCH   2   4
HETATM    4  C   UNL     1     -11.625  15.230  65.940  1.00  0.00     0.003 C  
BRANCH   4   5
HETATM    5  N   UNL     1     -11.472  13.728  65.969  1.00  0.00    -0.318 NA 
BRANCH   5   6
HETATM    6  C   UNL     1     -10.620  13.373  67.164  1.00  0.00    -0.259 C  
HETATM    7  O   UNL     1     -12.126  11.512  67.423  1.00  0.00    -0.593 OA 
HETATM    8  C   UNL     1     -11.296  12.356  68.080  1.00  0.00    -0.287 C  
HETATM    9  O   UNL     1     -11.095  12.286  69.282  1.00  0.00    -0.225 OA 
ENDBRANCH   5   6
BRANCH   5  10
HETATM   10  C   UNL     1     -10.731  13.298  64.731  1.00  0.00    -0.378 C  
HETATM   11  O   UNL     1     -12.871  12.528  63.960  1.00  0.00    -0.707 OA 
HETATM   12  O   UNL     1     -11.035  11.474  63.148  1.00  0.00    -0.286 OA 
HETATM   13  C   UNL     1     -11.536  12.320  63.874  1.00  0.00    -0.444 C  
ENDBRANCH   5  10
ENDBRANCH   4   5
ENDBRANCH   2   4
BRANCH   2  14
HETATM   14  C   UNL     1      -9.457  16.503  66.500  1.00  0.00    -0.273 C  
BRANCH  14  15
HETATM   15  N   UNL     1     -10.067  17.038  67.769  1.00  0.00    -0.291 NA 
BRANCH  15  16
HETATM   16  C   UNL     1      -9.655  16.127  68.903  1.00  0.00    -0.245 C  
HETATM   17  C   UNL     1     -10.807  15.799  69.848  1.00  0.00    -0.327 C  
HETATM   18  O   UNL     1     -12.013  15.799  69.224  1.00  0.00    -0.369 OA 
HETATM   19  O   UNL     1     -10.667  15.504  71.024  1.00  0.00    -0.267 OA 
ENDBRANCH  15  16
BRANCH  15  20
HETATM   20  C   UNL     1      -9.440  18.393  68.057  1.00  0.00    -0.290 C  
HETATM   21  C   UNL     1     -10.002  19.517  67.187  1.00  0.00    -0.373 C  
HETATM   22  O   UNL     1     -11.284  19.306  66.801  1.00  0.00    -0.179 OA 
HETATM   23  O   UNL     1      -9.387  20.531  66.906  1.00  0.00    -0.357 OA 
ENDBRANCH  15  20
ENDBRANCH  14  15
ENDBRANCH   2  14
TORSDOF 8
ENDMDL
MODEL       20
REMARK 921   NORMALIZED FREE ENERGY PREDICTED BY IDOCK:   -5.28 KCAL/MOL
REMARK 922        TOTAL FREE ENERGY PREDICTED BY IDOCK:   -9.08 KCAL/MOL
REMARK 923 INTER-LIGAND FREE ENERGY PREDICTED BY IDOCK:   -7.79 KCAL/MOL
REMARK 924 INTRA-LIGAND FREE ENERGY PREDICTED BY IDOCK:   -1.28 KCAL/MOL
REMARK 927      BINDING AFFINITY PREDICTED BY RF-SCORE:    0.00 PKD
ROOT
HETATM    1  O   UNL     1     -11.651  11.632  66.536  1.00  0.00    -0.473 OA 
HETATM    2  C   UNL     1     -11.012  12.500  67.479  1.00  0.00    -0.251 C  
HETATM    3  H   UNL     1     -12.163  10.980  67.000  1.00  0.00     0.000 HD 
ENDROOT
BRANCH   2   4
HETATM    4  C   UNL     1     -12.112  13.147  68.358  1.00  0.00    -0.181 C  
BRANCH   4   5
HETATM    5  N   UNL     1     -12.235  12.631  69.771  1.00  0.00    -0.200 NA 
BRANCH   5   6
HETATM    6  C   UNL     1     -11.783  13.729  70.705  1.00  0.00    -0.081 C  
HETATM    7  O   UNL     1     -13.841  13.294  71.878  1.00  0.00    -0.374 OA 
HETATM    8  C   UNL     1     -12.913  14.239  71.595  1.00  0.00    -0.346 C  
HETATM    9  O   UNL     1     -12.970  15.376  72.035  1.00  0.00    -0.345 OA 
ENDBRANCH   5   6
BRANCH   5  10
HETATM   10  C   UNL     1     -11.295  11.468  69.940  1.00  0.00    -0.186 C  
HETATM   11  O   UNL     1     -13.223  10.287  70.753  1.00  0.00    -0.385 OA 
HETATM   12  O   UNL     1     -11.197   9.611  71.513  1.00  0.00    -0.372 OA 
HETATM   13  C   UNL     1     -11.875  10.370  70.834  1.00  0.00    -0.377 C  
ENDBRANCH   5  10
ENDBRANCH   4   5
ENDBRANCH   2   4
BRANCH   2  14
HETATM   14  C   UNL     1     -10.172  13.570  66.717  1.00  0.00    -0.264 C  
BRANCH  14  15
HETATM   15  N   UNL     1     -10.847  14.873  66.377  1.00  0.00    -0.320 NA 
BRANCH  15  16
HETATM   16  C   UNL     1      -9.900  15.995  66.734  1.00  0.00    -0.250 C  
HETATM   17  C   UNL     1     -10.519  17.015  67.684  1.00  0.00    -0.343 C  
HETATM   18  O   UNL     1     -11.449  16.466  68.507  1.00  0.00    -0.351 OA 
HETATM   19  O   UNL     1     -10.179  18.185  67.753  1.00  0.00    -0.345 OA 
ENDBRANCH  15  16
BRANCH  15  20
HETATM   20  C   UNL     1     -11.029  14.928  64.868  1.00  0.00    -0.408 C  
HETATM   21  C   UNL     1     -12.269  14.178  64.380  1.00  0.00    -0.439 C  
HETATM   22  O   UNL     1     -13.267  14.143  65.295  1.00  0.00    -0.760 OA 
HETATM   23  O   UNL     1     -12.379  13.703  63.264  1.00  0.00    -0.743 OA 
ENDBRANCH  15  20
ENDBRANCH  14  15
ENDBRANCH   2  14
TORSDOF 8
ENDMDL
MODEL       21
REMARK 921   NORMALIZED FREE ENERGY PREDICTED BY IDOCK:   -5.26 KCAL/MOL
REMARK 922        TOTAL FREE ENERGY PREDICTED BY IDOCK:   -9.05 KCAL/MOL
REMARK 923 INTER-LIGAND FREE ENERGY PREDICTED BY IDOCK:   -7.86 KCAL/MOL
REMARK 924 INTRA-LIGAND FREE ENERGY PREDICTED BY IDOCK:   -1.19 KCAL/MOL
REMARK 927      BINDING AFFINITY PREDICTED BY RF-SCORE:    0.00 PKD
ROOT
HETATM    1  O   UNL     1      -9.788  14.924  69.485  1.00  0.00    -0.374 OA 
HETATM    2  C   UNL     1     -10.787  15.047  68.467  1.00  0.00    -0.250 C  
HETATM    3  H   UNL     1      -8.991  15.357  69.202  1.00  0.00     0.000 HD 
ENDROOT
BRANCH   2   4
HETATM    4  C   UNL     1     -11.015  16.555  68.197  1.00  0.00    -0.336 C  
BRANCH   4   5
HETATM    5  N   UNL     1     -10.515  17.086  66.875  1.00  0.00    -0.299 NA 
BRANCH   5   6
HETATM    6  C   UNL     1     -10.108  15.905  66.026  1.00  0.00    -0.337 C  
HETATM    7  O   UNL     1     -11.480  16.918  64.326  1.00  0.00    -1.142 OA 
HETATM    8  C   UNL     1     -10.989  15.744  64.790  1.00  0.00    -0.393 C  
HETATM    9  O   UNL     1     -11.214  14.672  64.251  1.00  0.00    -0.224 OA 
ENDBRANCH   5   6
BRANCH   5  10
HETATM   10  C   UNL     1      -9.285  17.917  67.126  1.00  0.00    -0.258 C  
HETATM   11  O   UNL     1     -10.455  19.646  65.939  1.00  0.00    -0.494 OA 
HETATM   12  O   UNL     1      -8.189  19.702  65.885  1.00  0.00    -0.380 OA 
HETATM   13  C   UNL     1      -9.227  19.163  66.242  1.00  0.00    -0.313 C  
ENDBRANCH   5  10
ENDBRANCH   4   5
ENDBRANCH   2   4
BRANCH   2  14
HETATM   14  C   UNL     1     -12.095  14.335  68.931  1.00  0.00    -0.279 C  
BRANCH  14  15
HETATM   15  N   UNL     1     -12.009  13.437  70.138  1.00  0.00    -0.336 NA 
BRANCH  15  16
HETATM   16  C   UNL     1     -13.065  13.881  71.125  1.00  0.00    -0.281 C  
HETATM   17  C   UNL     1     -12.485  14.646  72.309  1.00  0.00    -0.306 C  
HETATM   18  O   UNL     1     -11.357  15.331  71.989  1.00  0.00    -0.433 OA 
HETATM   19  O   UNL     1     -13.004  14.699  73.412  1.00  0.00    -0.526 OA 
ENDBRANCH  15  16
BRANCH  15  20
HETATM   20  C   UNL     1     -12.389  12.030  69.704  1.00  0.00    -0.021 C  
HETATM   21  C   UNL     1     -11.384  11.401  68.740  1.00  0.00    -0.271 C  
HETATM   22  O   UNL     1     -10.121  11.860  68.909  1.00  0.00    -0.158 OA 
HETATM   23  O   UNL     1     -11.668  10.533  67.933  1.00  0.00    -0.453 OA 
ENDBRANCH  15  20
ENDBRANCH  14  15
ENDBRANCH   2  14
TORSDOF 8
ENDMDL
MODEL       22
REMARK 921   NORMALIZED FREE ENERGY PREDICTED BY IDOCK:   -5.26 KCAL/MOL
REMARK 922        TOTAL FREE ENERGY PREDICTED BY IDOCK:   -9.05 KCAL/MOL
REMARK 923 INTER-LIGAND FREE ENERGY PREDICTED BY IDOCK:   -8.43 KCAL/MOL
REMARK 924 INTRA-LIGAND FREE ENERGY PREDICTED BY IDOCK:   -0.62 KCAL/MOL
REMARK 927      BINDING AFFINITY PREDICTED BY RF-SCORE:    0.00 PKD
ROOT
HETATM    1  O   UNL     1     -12.423  14.699  68.629  1.00  0.00    -0.583 OA 
HETATM    2  C   UNL     1     -11.424  14.314  67.677  1.00  0.00    -0.346 C  
HETATM    3  H   UNL     1     -13.148  14.086  68.593  1.00  0.00     0.000 HD 
ENDROOT
BRANCH   2   4
HETATM    4  C   UNL     1     -10.976  12.868  68.008  1.00  0.00    -0.247 C  
BRANCH   4   5
HETATM    5  N   UNL     1     -11.450  11.785  67.070  1.00  0.00    -0.471 NA 
BRANCH   5   6
HETATM    6  C   UNL     1     -10.944  10.463  67.597  1.00  0.00    -0.312 C  
HETATM    7  O   UNL     1     -12.462  10.847  69.427  1.00  0.00    -0.352 OA 
HETATM    8  C   UNL     1     -11.306  10.243  69.064  1.00  0.00    -0.180 C  
HETATM    9  O   UNL     1     -10.639   9.570  69.834  1.00  0.00    -0.212 OA 
ENDBRANCH   5   6
BRANCH   5  10
HETATM   10  C   UNL     1     -10.824  12.012  65.720  1.00  0.00    -0.287 C  
HETATM   11  O   UNL     1     -13.036  12.637  65.023  1.00  0.00    -0.808 OA 
HETATM   12  O   UNL     1     -11.647  11.802  63.438  1.00  0.00    -0.410 OA 
HETATM   13  C   UNL     1     -11.862  12.112  64.601  1.00  0.00    -0.328 C  
ENDBRANCH   5  10
ENDBRANCH   4   5
ENDBRANCH   2   4
BRANCH   2  14
HETATM   14  C   UNL     1     -10.233  15.320  67.736  1.00  0.00    -0.237 C  
BRANCH  14  15
HETATM   15  N   UNL     1      -9.941  16.127  66.498  1.00  0.00    -0.265 NA 
BRANCH  15  16
HETATM   16  C   UNL     1      -8.442  16.155  66.304  1.00  0.00    -0.322 C  
HETATM   17  C   UNL     1      -7.894  17.567  66.125  1.00  0.00    -0.246 C  
HETATM   18  O   UNL     1      -8.630  18.502  66.780  1.00  0.00    -0.266 OA 
HETATM   19  O   UNL     1      -6.870  17.834  65.518  1.00  0.00    -0.375 OA 
ENDBRANCH  15  16
BRANCH  15  20
HETATM   20  C   UNL     1     -10.514  15.380  65.304  1.00  0.00    -0.415 C  
HETATM   21  C   UNL     1     -11.527  16.201  64.505  1.00  0.00    -0.230 C  
HETATM   22  O   UNL     1     -11.302  17.535  64.568  1.00  0.00    -0.850 OA 
HETATM   23  O   UNL     1     -12.418  15.712  63.833  1.00  0.00    -0.693 OA 
ENDBRANCH  15  20
ENDBRANCH  14  15
ENDBRANCH   2  14
TORSDOF 8
ENDMDL
MODEL       23
REMARK 921   NORMALIZED FREE ENERGY PREDICTED BY IDOCK:   -5.26 KCAL/MOL
REMARK 922        TOTAL FREE ENERGY PREDICTED BY IDOCK:   -9.05 KCAL/MOL
REMARK 923 INTER-LIGAND FREE ENERGY PREDICTED BY IDOCK:   -8.13 KCAL/MOL
REMARK 924 INTRA-LIGAND FREE ENERGY PREDICTED BY IDOCK:   -0.91 KCAL/MOL
REMARK 927      BINDING AFFINITY PREDICTED BY RF-SCORE:    0.00 PKD
ROOT
HETATM    1  O   UNL     1     -12.007  15.435  68.254  1.00  0.00    -0.500 OA 
HETATM    2  C   UNL     1     -10.887  16.039  67.596  1.00  0.00    -0.311 C  
HETATM    3  H   UNL     1     -12.465  14.868  67.644  1.00  0.00     0.000 HD 
ENDROOT
BRANCH   2   4
HETATM    4  C   UNL     1      -9.975  14.906  67.063  1.00  0.00    -0.240 C  
BRANCH   4   5
HETATM    5  N   UNL     1     -10.661  13.772  66.341  1.00  0.00    -0.281 NA 
BRANCH   5   6
HETATM    6  C   UNL     1      -9.751  12.568  66.401  1.00  0.00    -0.249 C  
HETATM    7  O   UNL     1     -11.745  11.352  66.989  1.00  0.00    -0.535 OA 
HETATM    8  C   UNL     1     -10.398  11.385  67.117  1.00  0.00    -0.212 C  
HETATM    9  O   UNL     1      -9.769  10.535  67.727  1.00  0.00    -0.157 OA 
ENDBRANCH   5   6
BRANCH   5  10
HETATM   10  C   UNL     1     -10.823  14.155  64.894  1.00  0.00    -0.411 C  
HETATM   11  O   UNL     1     -13.180  13.960  65.314  1.00  0.00    -0.774 OA 
HETATM   12  O   UNL     1     -12.472  13.598  63.191  1.00  0.00    -0.786 OA 
HETATM   13  C   UNL     1     -12.225  13.855  64.361  1.00  0.00    -0.413 C  
ENDBRANCH   5  10
ENDBRANCH   4   5
ENDBRANCH   2   4
BRANCH   2  14
HETATM   14  C   UNL     1     -10.135  16.970  68.597  1.00  0.00    -0.303 C  
BRANCH  14  15
HETATM   15  N   UNL     1      -9.288  18.074  68.020  1.00  0.00    -0.265 NA 
BRANCH  15  16
HETATM   16  C   UNL     1      -7.844  17.632  68.079  1.00  0.00    -0.235 C  
HETATM   17  C   UNL     1      -6.882  18.783  68.352  1.00  0.00    -0.249 C  
HETATM   18  O   UNL     1      -7.444  19.769  69.098  1.00  0.00    -0.326 OA 
HETATM   19  O   UNL     1      -5.713  18.799  68.001  1.00  0.00    -0.187 OA 
ENDBRANCH  15  16
BRANCH  15  20
HETATM   20  C   UNL     1      -9.636  18.212  66.547  1.00  0.00    -0.317 C  
HETATM   21  C   UNL     1     -10.304  19.544  66.204  1.00  0.00    -0.520 C  
HETATM   22  O   UNL     1      -9.934  20.555  67.026  1.00  0.00    -0.453 OA 
HETATM   23  O   UNL     1     -11.054  19.703  65.257  1.00  0.00    -0.409 OA 
ENDBRANCH  15  20
ENDBRANCH  14  15
ENDBRANCH   2  14
TORSDOF 8
ENDMDL
MODEL       24
REMARK 921   NORMALIZED FREE ENERGY PREDICTED BY IDOCK:   -5.24 KCAL/MOL
REMARK 922        TOTAL FREE ENERGY PREDICTED BY IDOCK:   -9.03 KCAL/MOL
REMARK 923 INTER-LIGAND FREE ENERGY PREDICTED BY IDOCK:   -8.04 KCAL/MOL
REMARK 924 INTRA-LIGAND FREE ENERGY PREDICTED BY IDOCK:   -0.99 KCAL/MOL
REMARK 927      BINDING AFFINITY PREDICTED BY RF-SCORE:    0.00 PKD
ROOT
HETATM    1  O   UNL     1     -12.803  15.958  69.536  1.00  0.00    -0.499 OA 
HETATM    2  C   UNL     1     -11.513  15.644  68.999  1.00  0.00    -0.363 C  
HETATM    3  H   UNL     1     -12.732  16.089  70.475  1.00  0.00     0.000 HD 
ENDROOT
BRANCH   2   4
HETATM    4  C   UNL     1     -10.551  16.807  69.349  1.00  0.00    -0.318 C  
BRANCH   4   5
HETATM    5  N   UNL     1      -9.803  17.433  68.196  1.00  0.00    -0.287 NA 
BRANCH   5   6
HETATM    6  C   UNL     1      -8.435  17.831  68.694  1.00  0.00    -0.269 C  
HETATM    7  O   UNL     1      -7.624  16.113  67.215  1.00  0.00    -0.149 OA 
HETATM    8  C   UNL     1      -7.367  16.794  68.356  1.00  0.00    -0.198 C  
HETATM    9  O   UNL     1      -6.364  16.608  69.028  1.00  0.00    -0.160 OA 
ENDBRANCH   5   6
BRANCH   5  10
HETATM   10  C   UNL     1     -10.525  18.687  67.781  1.00  0.00    -0.411 C  
HETATM   11  O   UNL     1     -10.158  17.916  65.536  1.00  0.00    -0.530 OA 
HETATM   12  O   UNL     1     -10.352  20.153  65.844  1.00  0.00    -0.449 OA 
HETATM   13  C   UNL     1     -10.321  19.019  66.302  1.00  0.00    -0.459 C  
ENDBRANCH   5  10
ENDBRANCH   4   5
ENDBRANCH   2   4
BRANCH   2  14
HETATM   14  C   UNL     1     -11.629  15.429  67.458  1.00  0.00    -0.169 C  
BRANCH  14  15
HETATM   15  N   UNL     1     -11.504  14.020  66.940  1.00  0.00    -0.338 NA 
BRANCH  15  16
HETATM   16  C   UNL     1     -11.904  13.077  68.052  1.00  0.00    -0.347 C  
HETATM   17  C   UNL     1     -11.468  11.638  67.796  1.00  0.00    -0.302 C  
HETATM   18  O   UNL     1     -10.333  11.559  67.054  1.00  0.00    -0.209 OA 
HETATM   19  O   UNL     1     -12.032  10.659  68.256  1.00  0.00    -0.462 OA 
ENDBRANCH  15  16
BRANCH  15  20
HETATM   20  C   UNL     1     -12.527  13.835  65.831  1.00  0.00    -0.468 C  
HETATM   21  C   UNL     1     -11.935  13.980  64.429  1.00  0.00    -0.454 C  
HETATM   22  O   UNL     1     -10.627  13.632  64.363  1.00  0.00    -0.423 OA 
HETATM   23  O   UNL     1     -12.577  14.321  63.452  1.00  0.00    -0.777 OA 
ENDBRANCH  15  20
ENDBRANCH  14  15
ENDBRANCH   2  14
TORSDOF 8
ENDMDL
MODEL       25
REMARK 921   NORMALIZED FREE ENERGY PREDICTED BY IDOCK:   -5.22 KCAL/MOL
REMARK 922        TOTAL FREE ENERGY PREDICTED BY IDOCK:   -9.00 KCAL/MOL
REMARK 923 INTER-LIGAND FREE ENERGY PREDICTED BY IDOCK:   -7.61 KCAL/MOL
REMARK 924 INTRA-LIGAND FREE ENERGY PREDICTED BY IDOCK:   -1.38 KCAL/MOL
REMARK 927      BINDING AFFINITY PREDICTED BY RF-SCORE:    0.00 PKD
ROOT
HETATM    1  O   UNL     1     -10.087  12.850  68.724  1.00  0.00    -0.390 OA 
HETATM    2  C   UNL     1     -10.563  12.051  67.635  1.00  0.00    -0.210 C  
HETATM    3  H   UNL     1      -9.882  13.723  68.411  1.00  0.00     0.000 HD 
ENDROOT
BRANCH   2   4
HETATM    4  C   UNL     1     -11.804  12.754  67.031  1.00  0.00    -0.361 C  
BRANCH   4   5
HETATM    5  N   UNL     1     -11.639  13.345  65.651  1.00  0.00    -0.318 NA 
BRANCH   5   6
HETATM    6  C   UNL     1     -10.418  12.715  65.023  1.00  0.00    -0.308 C  
HETATM    7  O   UNL     1     -11.979  11.738  63.470  1.00  0.00    -0.482 OA 
HETATM    8  C   UNL     1     -10.775  11.577  64.069  1.00  0.00    -0.384 C  
HETATM    9  O   UNL     1     -10.044  10.626  63.844  1.00  0.00    -0.328 OA 
ENDBRANCH   5   6
BRANCH   5  10
HETATM   10  C   UNL     1     -11.375  14.820  65.791  1.00  0.00    -0.336 C  
HETATM   11  O   UNL     1     -12.776  15.050  63.853  1.00  0.00    -0.775 OA 
HETATM   12  O   UNL     1     -11.203  16.647  64.190  1.00  0.00    -1.103 OA 
HETATM   13  C   UNL     1     -11.743  15.604  64.530  1.00  0.00    -0.220 C  
ENDBRANCH   5  10
ENDBRANCH   4   5
ENDBRANCH   2   4
BRANCH   2  14
HETATM   14  C   UNL     1     -10.900  10.617  68.149  1.00  0.00    -0.245 C  
BRANCH  14  15
HETATM   15  N   UNL     1     -10.674  10.329  69.610  1.00  0.00    -0.246 NA 
BRANCH  15  16
HETATM   16  C   UNL     1     -11.993   9.898  70.209  1.00  0.00    -0.138 C  
HETATM   17  C   UNL     1     -12.609  10.961  71.114  1.00  0.00    -0.428 C  
HETATM   18  O   UNL     1     -12.279  12.223  70.738  1.00  0.00    -0.378 OA 
HETATM   19  O   UNL     1     -13.369  10.719  72.037  1.00  0.00    -0.447 OA 
ENDBRANCH  15  16
BRANCH  15  20
HETATM   20  C   UNL     1      -9.743   9.131  69.714  1.00  0.00    -0.181 C  
HETATM   21  C   UNL     1      -8.307   9.441  69.289  1.00  0.00    -0.131 C  
HETATM   22  O   UNL     1      -7.957  10.734  69.492  1.00  0.00    -0.118 OA 
HETATM   23  O   UNL     1      -7.531   8.606  68.860  1.00  0.00    -0.086 OA 
ENDBRANCH  15  20
ENDBRANCH  14  15
ENDBRANCH   2  14
TORSDOF 8
ENDMDL
MODEL       26
REMARK 921   NORMALIZED FREE ENERGY PREDICTED BY IDOCK:   -5.21 KCAL/MOL
REMARK 922        TOTAL FREE ENERGY PREDICTED BY IDOCK:   -8.98 KCAL/MOL
REMARK 923 INTER-LIGAND FREE ENERGY PREDICTED BY IDOCK:   -8.08 KCAL/MOL
REMARK 924 INTRA-LIGAND FREE ENERGY PREDICTED BY IDOCK:   -0.90 KCAL/MOL
REMARK 927      BINDING AFFINITY PREDICTED BY RF-SCORE:    0.00 PKD
ROOT
HETATM    1  O   UNL     1     -11.650  16.302  63.778  1.00  0.00    -1.539 OA 
HETATM    2  C   UNL     1     -10.986  16.010  65.013  1.00  0.00    -0.380 C  
HETATM    3  H   UNL     1     -11.849  15.491  63.325  1.00  0.00     0.000 HD 
ENDROOT
BRANCH   2   4
HETATM    4  C   UNL     1     -11.912  15.092  65.851  1.00  0.00     0.061 C  
BRANCH   4   5
HETATM    5  N   UNL     1     -11.528  13.634  65.923  1.00  0.00    -0.310 NA 
BRANCH   5   6
HETATM    6  C   UNL     1     -10.745  13.425  67.197  1.00  0.00    -0.264 C  
HETATM    7  O   UNL     1     -12.122  11.470  67.479  1.00  0.00    -0.614 OA 
HETATM    8  C   UNL     1     -11.410  12.418  68.132  1.00  0.00    -0.291 C  
HETATM    9  O   UNL     1     -11.295  12.441  69.347  1.00  0.00    -0.256 OA 
ENDBRANCH   5   6
BRANCH   5  10
HETATM   10  C   UNL     1     -10.618  13.320  64.766  1.00  0.00    -0.386 C  
HETATM   11  O   UNL     1     -12.565  12.339  63.759  1.00  0.00    -0.622 OA 
HETATM   12  O   UNL     1     -10.548  11.515  63.133  1.00  0.00    -0.335 OA 
HETATM   13  C   UNL     1     -11.214  12.282  63.814  1.00  0.00    -0.440 C  
ENDBRANCH   5  10
ENDBRANCH   4   5
ENDBRANCH   2   4
BRANCH   2  14
HETATM   14  C   UNL     1     -10.660  17.341  65.757  1.00  0.00    -0.194 C  
BRANCH  14  15
HETATM   15  N   UNL     1      -9.243  17.548  66.226  1.00  0.00    -0.432 NA 
BRANCH  15  16
HETATM   16  C   UNL     1      -8.967  19.034  66.229  1.00  0.00    -0.279 C  
HETATM   17  C   UNL     1      -7.495  19.364  65.999  1.00  0.00    -0.289 C  
HETATM   18  O   UNL     1      -6.865  18.438  65.231  1.00  0.00    -0.520 OA 
HETATM   19  O   UNL     1      -6.949  20.378  66.401  1.00  0.00    -0.241 OA 
ENDBRANCH  15  16
BRANCH  15  20
HETATM   20  C   UNL     1      -9.156  17.091  67.673  1.00  0.00    -0.229 C  
HETATM   21  C   UNL     1      -8.297  15.841  67.864  1.00  0.00    -0.149 C  
HETATM   22  O   UNL     1      -7.316  15.719  66.937  1.00  0.00    -0.210 OA 
HETATM   23  O   UNL     1      -8.438  15.054  68.783  1.00  0.00    -0.162 OA 
ENDBRANCH  15  20
ENDBRANCH  14  15
ENDBRANCH   2  14
TORSDOF 8
ENDMDL
MODEL       27
REMARK 921   NORMALIZED FREE ENERGY PREDICTED BY IDOCK:   -5.21 KCAL/MOL
REMARK 922        TOTAL FREE ENERGY PREDICTED BY IDOCK:   -8.97 KCAL/MOL
REMARK 923 INTER-LIGAND FREE ENERGY PREDICTED BY IDOCK:   -7.96 KCAL/MOL
REMARK 924 INTRA-LIGAND FREE ENERGY PREDICTED BY IDOCK:   -1.01 KCAL/MOL
REMARK 927      BINDING AFFINITY PREDICTED BY RF-SCORE:    0.00 PKD
ROOT
HETATM    1  O   UNL     1     -11.103  17.028  64.681  1.00  0.00    -0.997 OA 
HETATM    2  C   UNL     1     -10.499  15.790  65.073  1.00  0.00    -0.301 C  
HETATM    3  H   UNL     1     -11.912  16.853  64.214  1.00  0.00     0.000 HD 
ENDROOT
BRANCH   2   4
HETATM    4  C   UNL     1     -11.516  15.016  65.950  1.00  0.00    -0.224 C  
BRANCH   4   5
HETATM    5  N   UNL     1     -11.345  13.518  66.017  1.00  0.00    -0.308 NA 
BRANCH   5   6
HETATM    6  C   UNL     1     -10.495  13.203  67.224  1.00  0.00    -0.243 C  
HETATM    7  O   UNL     1     -12.115  11.475  67.656  1.00  0.00    -0.623 OA 
HETATM    8  C   UNL     1     -11.218  12.311  68.230  1.00  0.00    -0.267 C  
HETATM    9  O   UNL     1     -10.999  12.324  69.430  1.00  0.00    -0.158 OA 
ENDBRANCH   5   6
BRANCH   5  10
HETATM   10  C   UNL     1     -10.592  13.067  64.794  1.00  0.00    -0.362 C  
HETATM   11  O   UNL     1     -12.764  12.731  63.825  1.00  0.00    -0.689 OA 
HETATM   12  O   UNL     1     -11.069  11.449  63.037  1.00  0.00    -0.130 OA 
HETATM   13  C   UNL     1     -11.479  12.309  63.805  1.00  0.00    -0.466 C  
ENDBRANCH   5  10
ENDBRANCH   4   5
ENDBRANCH   2   4
BRANCH   2  14
HETATM   14  C   UNL     1      -9.171  16.076  65.838  1.00  0.00    -0.286 C  
BRANCH  14  15
HETATM   15  N   UNL     1      -8.851  17.511  66.166  1.00  0.00    -0.493 NA 
BRANCH  15  16
HETATM   16  C   UNL     1      -9.284  17.771  67.591  1.00  0.00    -0.249 C  
HETATM   17  C   UNL     1     -10.229  18.962  67.716  1.00  0.00    -0.393 C  
HETATM   18  O   UNL     1     -10.990  19.145  66.606  1.00  0.00    -0.331 OA 
HETATM   19  O   UNL     1     -10.344  19.643  68.721  1.00  0.00    -0.400 OA 
ENDBRANCH  15  16
BRANCH  15  20
HETATM   20  C   UNL     1      -7.339  17.673  66.139  1.00  0.00    -0.309 C  
HETATM   21  C   UNL     1      -6.876  18.913  65.375  1.00  0.00    -0.170 C  
HETATM   22  O   UNL     1      -7.778  19.924  65.398  1.00  0.00    -0.356 OA 
HETATM   23  O   UNL     1      -5.786  19.013  64.840  1.00  0.00    -0.209 OA 
ENDBRANCH  15  20
ENDBRANCH  14  15
ENDBRANCH   2  14
TORSDOF 8
ENDMDL
MODEL       28
REMARK 921   NORMALIZED FREE ENERGY PREDICTED BY IDOCK:   -5.21 KCAL/MOL
REMARK 922        TOTAL FREE ENERGY PREDICTED BY IDOCK:   -8.97 KCAL/MOL
REMARK 923 INTER-LIGAND FREE ENERGY PREDICTED BY IDOCK:   -7.54 KCAL/MOL
REMARK 924 INTRA-LIGAND FREE ENERGY PREDICTED BY IDOCK:   -1.43 KCAL/MOL
REMARK 927      BINDING AFFINITY PREDICTED BY RF-SCORE:    0.00 PKD
ROOT
HETATM    1  O   UNL     1     -12.352  14.205  67.499  1.00  0.00    -0.571 OA 
HETATM    2  C   UNL     1     -10.954  14.497  67.393  1.00  0.00    -0.303 C  
HETATM    3  H   UNL     1     -12.709  14.042  66.634  1.00  0.00     0.000 HD 
ENDROOT
BRANCH   2   4
HETATM    4  C   UNL     1     -10.263  13.295  66.700  1.00  0.00    -0.265 C  
BRANCH   4   5
HETATM    5  N   UNL     1     -11.159  12.157  66.277  1.00  0.00    -0.296 NA 
BRANCH   5   6
HETATM    6  C   UNL     1     -10.586  10.881  66.846  1.00  0.00    -0.261 C  
HETATM    7  O   UNL     1     -12.290  11.115  68.533  1.00  0.00    -0.561 OA 
HETATM    8  C   UNL     1     -11.057  10.618  68.275  1.00  0.00    -0.279 C  
HETATM    9  O   UNL     1     -10.404  10.001  69.101  1.00  0.00    -0.191 OA 
ENDBRANCH   5   6
BRANCH   5  10
HETATM   10  C   UNL     1     -11.119  12.049  64.775  1.00  0.00    -0.317 C  
HETATM   11  O   UNL     1     -13.232  13.189  64.837  1.00  0.00    -0.705 OA 
HETATM   12  O   UNL     1     -12.841  11.827  63.067  1.00  0.00    -0.457 OA 
HETATM   13  C   UNL     1     -12.481  12.312  64.131  1.00  0.00    -0.434 C  
ENDBRANCH   5  10
ENDBRANCH   4   5
ENDBRANCH   2   4
BRANCH   2  14
HETATM   14  C   UNL     1     -10.367  14.765  68.813  1.00  0.00    -0.248 C  
BRANCH  14  15
HETATM   15  N   UNL     1     -10.949  15.909  69.603  1.00  0.00    -0.290 NA 
BRANCH  15  16
HETATM   16  C   UNL     1     -11.129  15.444  71.030  1.00  0.00    -0.331 C  
HETATM   17  C   UNL     1     -12.520  15.741  71.579  1.00  0.00    -0.455 C  
HETATM   18  O   UNL     1     -13.476  15.739  70.614  1.00  0.00    -0.453 OA 
HETATM   19  O   UNL     1     -12.771  15.901  72.763  1.00  0.00    -0.407 OA 
ENDBRANCH  15  16
BRANCH  15  20
HETATM   20  C   UNL     1      -9.918  17.026  69.641  1.00  0.00     0.138 C  
HETATM   21  C   UNL     1      -9.939  17.913  68.396  1.00  0.00    -0.367 C  
HETATM   22  O   UNL     1     -11.160  17.984  67.811  1.00  0.00    -0.206 OA 
HETATM   23  O   UNL     1      -8.976  18.540  67.992  1.00  0.00    -0.287 OA 
ENDBRANCH  15  20
ENDBRANCH  14  15
ENDBRANCH   2  14
TORSDOF 8
ENDMDL
MODEL       29
REMARK 921   NORMALIZED FREE ENERGY PREDICTED BY IDOCK:   -5.21 KCAL/MOL
REMARK 922        TOTAL FREE ENERGY PREDICTED BY IDOCK:   -8.97 KCAL/MOL
REMARK 923 INTER-LIGAND FREE ENERGY PREDICTED BY IDOCK:   -7.77 KCAL/MOL
REMARK 924 INTRA-LIGAND FREE ENERGY PREDICTED BY IDOCK:   -1.20 KCAL/MOL
REMARK 927      BINDING AFFINITY PREDICTED BY RF-SCORE:    0.00 PKD
ROOT
HETATM    1  O   UNL     1     -12.389  13.894  67.951  1.00  0.00    -0.476 OA 
HETATM    2  C   UNL     1     -11.309  12.967  68.102  1.00  0.00    -0.294 C  
HETATM    3  H   UNL     1     -12.042  14.769  67.821  1.00  0.00     0.000 HD 
ENDROOT
BRANCH   2   4
HETATM    4  C   UNL     1     -10.420  13.054  66.835  1.00  0.00    -0.254 C  
BRANCH   4   5
HETATM    5  N   UNL     1     -10.707  14.195  65.889  1.00  0.00    -0.292 NA 
BRANCH   5   6
HETATM    6  C   UNL     1     -10.962  13.608  64.521  1.00  0.00    -0.396 C  
HETATM    7  O   UNL     1     -13.292  13.794  65.104  1.00  0.00    -0.688 OA 
HETATM    8  C   UNL     1     -12.395  13.104  64.361  1.00  0.00    -0.360 C  
HETATM    9  O   UNL     1     -12.713  12.187  63.620  1.00  0.00    -0.692 OA 
ENDBRANCH   5   6
BRANCH   5  10
HETATM   10  C   UNL     1      -9.479  15.061  65.796  1.00  0.00    -0.225 C  
HETATM   11  O   UNL     1     -10.732  16.631  67.112  1.00  0.00    -0.294 OA 
HETATM   12  O   UNL     1      -9.131  17.470  65.744  1.00  0.00    -0.509 OA 
HETATM   13  C   UNL     1      -9.755  16.514  66.183  1.00  0.00    -0.317 C  
ENDBRANCH   5  10
ENDBRANCH   4   5
ENDBRANCH   2   4
BRANCH   2  14
HETATM   14  C   UNL     1     -11.879  11.531  68.314  1.00  0.00    -0.256 C  
BRANCH  14  15
HETATM   15  N   UNL     1     -11.780  10.939  69.696  1.00  0.00    -0.302 NA 
BRANCH  15  16
HETATM   16  C   UNL     1     -10.385  10.384  69.866  1.00  0.00    -0.182 C  
HETATM   17  C   UNL     1     -10.331   9.198  70.824  1.00  0.00    -0.258 C  
HETATM   18  O   UNL     1     -11.481   8.476  70.829  1.00  0.00    -0.269 OA 
HETATM   19  O   UNL     1      -9.345   8.883  71.471  1.00  0.00    -0.246 OA 
ENDBRANCH  15  16
BRANCH  15  20
HETATM   20  C   UNL     1     -11.919  12.070  70.703  1.00  0.00    -0.160 C  
HETATM   21  C   UNL     1     -13.077  11.873  71.680  1.00  0.00    -0.328 C  
HETATM   22  O   UNL     1     -13.365  10.570  71.913  1.00  0.00    -0.418 OA 
HETATM   23  O   UNL     1     -13.656  12.787  72.241  1.00  0.00    -0.556 OA 
ENDBRANCH  15  20
ENDBRANCH  14  15
ENDBRANCH   2  14
TORSDOF 8
ENDMDL
MODEL       30
REMARK 921   NORMALIZED FREE ENERGY PREDICTED BY IDOCK:   -5.20 KCAL/MOL
REMARK 922        TOTAL FREE ENERGY PREDICTED BY IDOCK:   -8.97 KCAL/MOL
REMARK 923 INTER-LIGAND FREE ENERGY PREDICTED BY IDOCK:   -7.91 KCAL/MOL
REMARK 924 INTRA-LIGAND FREE ENERGY PREDICTED BY IDOCK:   -1.06 KCAL/MOL
REMARK 927      BINDING AFFINITY PREDICTED BY RF-SCORE:    0.00 PKD
ROOT
HETATM    1  O   UNL     1     -12.311  11.000  68.342  1.00  0.00    -0.762 OA 
HETATM    2  C   UNL     1     -11.115  10.327  67.933  1.00  0.00    -0.276 C  
HETATM    3  H   UNL     1     -12.815  10.433  68.914  1.00  0.00     0.000 HD 
ENDROOT
BRANCH   2   4
HETATM    4  C   UNL     1     -10.322   9.942  69.208  1.00  0.00    -0.219 C  
BRANCH   4   5
HETATM    5  N   UNL     1     -11.011   9.009  70.173  1.00  0.00    -0.238 NA 
BRANCH   5   6
HETATM    6  C   UNL     1     -11.320   9.789  71.429  1.00  0.00    -0.337 C  
HETATM    7  O   UNL     1     -13.626   9.435  70.833  1.00  0.00    -0.182 OA 
HETATM    8  C   UNL     1     -12.771  10.261  71.479  1.00  0.00    -0.452 C  
HETATM    9  O   UNL     1     -13.136  11.269  72.064  1.00  0.00    -0.495 OA 
ENDBRANCH   5   6
BRANCH   5  10
HETATM   10  C   UNL     1     -10.054   7.906  70.540  1.00  0.00    -0.192 C  
HETATM   11  O   UNL     1     -11.861   6.425  69.984  1.00  0.00    -0.404 OA 
HETATM   12  O   UNL     1     -10.346   5.688  71.501  1.00  0.00    -0.206 OA 
HETATM   13  C   UNL     1     -10.758   6.565  70.755  1.00  0.00    -0.241 C  
ENDBRANCH   5  10
ENDBRANCH   4   5
ENDBRANCH   2   4
BRANCH   2  14
HETATM   14  C   UNL     1     -10.288  11.258  66.993  1.00  0.00    -0.227 C  
BRANCH  14  15
HETATM   15  N   UNL     1     -11.006  12.416  66.352  1.00  0.00    -0.265 NA 
BRANCH  15  16
HETATM   16  C   UNL     1     -10.148  13.648  66.524  1.00  0.00    -0.286 C  
HETATM   17  C   UNL     1     -10.915  14.828  67.111  1.00  0.00    -0.320 C  
HETATM   18  O   UNL     1     -11.925  14.440  67.932  1.00  0.00    -0.353 OA 
HETATM   19  O   UNL     1     -10.624  15.998  66.923  1.00  0.00    -0.312 OA 
ENDBRANCH  15  16
BRANCH  15  20
HETATM   20  C   UNL     1     -11.084  12.151  64.857  1.00  0.00    -0.319 C  
HETATM   21  C   UNL     1     -12.469  12.410  64.266  1.00  0.00    -0.437 C  
HETATM   22  O   UNL     1     -13.168  13.358  64.937  1.00  0.00    -0.679 OA 
HETATM   23  O   UNL     1     -12.893  11.865  63.262  1.00  0.00    -0.702 OA 
ENDBRANCH  15  20
ENDBRANCH  14  15
ENDBRANCH   2  14
TORSDOF 8
ENDMDL
MODEL       31
REMARK 921   NORMALIZED FREE ENERGY PREDICTED BY IDOCK:   -5.20 KCAL/MOL
REMARK 922        TOTAL FREE ENERGY PREDICTED BY IDOCK:   -8.97 KCAL/MOL
REMARK 923 INTER-LIGAND FREE ENERGY PREDICTED BY IDOCK:   -8.12 KCAL/MOL
REMARK 924 INTRA-LIGAND FREE ENERGY PREDICTED BY IDOCK:   -0.85 KCAL/MOL
REMARK 927      BINDING AFFINITY PREDICTED BY RF-SCORE:    0.00 PKD
ROOT
HETATM    1  O   UNL     1     -12.220  11.147  68.077  1.00  0.00    -0.676 OA 
HETATM    2  C   UNL     1     -11.757  12.503  68.083  1.00  0.00    -0.348 C  
HETATM    3  H   UNL     1     -12.473  10.902  67.195  1.00  0.00     0.000 HD 
ENDROOT
BRANCH   2   4
HETATM    4  C   UNL     1     -10.571  12.609  67.091  1.00  0.00    -0.236 C  
BRANCH   4   5
HETATM    5  N   UNL     1     -10.922  12.879  65.648  1.00  0.00    -0.268 NA 
BRANCH   5   6
HETATM    6  C   UNL     1      -9.864  12.231  64.786  1.00  0.00    -0.105 C  
HETATM    7  O   UNL     1     -11.697  11.656  63.332  1.00  0.00    -0.402 OA 
HETATM    8  C   UNL     1     -10.460  11.289  63.742  1.00  0.00    -0.399 C  
HETATM    9  O   UNL     1      -9.877  10.313  63.297  1.00  0.00    -0.261 OA 
ENDBRANCH   5   6
BRANCH   5  10
HETATM   10  C   UNL     1     -10.862  14.364  65.410  1.00  0.00    -0.344 C  
HETATM   11  O   UNL     1     -13.243  14.211  65.125  1.00  0.00    -0.743 OA 
HETATM   12  O   UNL     1     -12.175  15.893  64.043  1.00  0.00    -0.719 OA 
HETATM   13  C   UNL     1     -12.139  14.907  64.765  1.00  0.00    -0.331 C  
ENDBRANCH   5  10
ENDBRANCH   4   5
ENDBRANCH   2   4
BRANCH   2  14
HETATM   14  C   UNL     1     -11.341  12.906  69.531  1.00  0.00    -0.153 C  
BRANCH  14  15
HETATM   15  N   UNL     1     -11.605  14.325  69.962  1.00  0.00    -0.271 NA 
BRANCH  15  16
HETATM   16  C   UNL     1     -11.773  15.166  68.717  1.00  0.00    -0.342 C  
HETATM   17  C   UNL     1     -10.694  16.234  68.573  1.00  0.00    -0.307 C  
HETATM   18  O   UNL     1      -9.512  15.863  69.130  1.00  0.00    -0.229 OA 
HETATM   19  O   UNL     1     -10.844  17.284  67.969  1.00  0.00    -0.381 OA 
ENDBRANCH  15  16
BRANCH  15  20
HETATM   20  C   UNL     1     -12.941  14.356  70.686  1.00  0.00    -0.289 C  
HETATM   21  C   UNL     1     -12.854  14.942  72.095  1.00  0.00    -0.325 C  
HETATM   22  O   UNL     1     -11.859  15.851  72.236  1.00  0.00    -0.433 OA 
HETATM   23  O   UNL     1     -13.629  14.667  72.994  1.00  0.00    -0.561 OA 
ENDBRANCH  15  20
ENDBRANCH  14  15
ENDBRANCH   2  14
TORSDOF 8
ENDMDL
MODEL       32
REMARK 921   NORMALIZED FREE ENERGY PREDICTED BY IDOCK:   -5.18 KCAL/MOL
REMARK 922        TOTAL FREE ENERGY PREDICTED BY IDOCK:   -8.94 KCAL/MOL
REMARK 923 INTER-LIGAND FREE ENERGY PREDICTED BY IDOCK:   -7.97 KCAL/MOL
REMARK 924 INTRA-LIGAND FREE ENERGY PREDICTED BY IDOCK:   -0.97 KCAL/MOL
REMARK 927      BINDING AFFINITY PREDICTED BY RF-SCORE:    0.00 PKD
ROOT
HETATM    1  O   UNL     1     -11.471  16.608  63.831  1.00  0.00    -1.604 OA 
HETATM    2  C   UNL     1     -11.417  15.636  64.881  1.00  0.00    -0.245 C  
HETATM    3  H   UNL     1     -11.176  17.449  64.161  1.00  0.00     0.000 HD 
ENDROOT
BRANCH   2   4
HETATM    4  C   UNL     1      -9.959  15.572  65.401  1.00  0.00    -0.304 C  
BRANCH   4   5
HETATM    5  N   UNL     1      -9.634  16.426  66.603  1.00  0.00    -0.242 NA 
BRANCH   5   6
HETATM    6  C   UNL     1      -9.300  17.813  66.109  1.00  0.00    -0.132 C  
HETATM    7  O   UNL     1     -11.112  18.529  67.524  1.00  0.00    -0.284 OA 
HETATM    8  C   UNL     1     -10.409  18.820  66.405  1.00  0.00    -0.439 C  
HETATM    9  O   UNL     1     -10.630  19.806  65.720  1.00  0.00    -0.523 OA 
ENDBRANCH   5   6
BRANCH   5  10
HETATM   10  C   UNL     1      -8.406  15.867  67.270  1.00  0.00    -0.186 C  
HETATM   11  O   UNL     1      -9.581  16.273  69.325  1.00  0.00    -0.248 OA 
HETATM   12  O   UNL     1      -7.316  16.302  69.404  1.00  0.00    -0.230 OA 
HETATM   13  C   UNL     1      -8.352  16.187  68.765  1.00  0.00    -0.231 C  
ENDBRANCH   5  10
ENDBRANCH   4   5
ENDBRANCH   2   4
BRANCH   2  14
HETATM   14  C   UNL     1     -11.902  14.256  64.340  1.00  0.00    -0.426 C  
BRANCH  14  15
HETATM   15  N   UNL     1     -11.224  13.021  64.872  1.00  0.00    -0.294 NA 
BRANCH  15  16
HETATM   16  C   UNL     1     -12.142  12.390  65.893  1.00  0.00    -0.281 C  
HETATM   17  C   UNL     1     -11.436  12.065  67.206  1.00  0.00    -0.335 C  
HETATM   18  O   UNL     1     -10.412  12.916  67.474  1.00  0.00    -0.220 OA 
HETATM   19  O   UNL     1     -11.783  11.181  67.972  1.00  0.00    -0.517 OA 
ENDBRANCH  15  16
BRANCH  15  20
HETATM   20  C   UNL     1     -11.100  12.024  63.731  1.00  0.00    -0.439 C  
HETATM   21  C   UNL     1      -9.791  11.234  63.756  1.00  0.00    -0.322 C  
HETATM   22  O   UNL     1      -9.289  11.072  65.004  1.00  0.00    -0.214 OA 
HETATM   23  O   UNL     1      -9.273  10.748  62.767  1.00  0.00    -0.258 OA 
ENDBRANCH  15  20
ENDBRANCH  14  15
ENDBRANCH   2  14
TORSDOF 8
ENDMDL
MODEL       33
REMARK 921   NORMALIZED FREE ENERGY PREDICTED BY IDOCK:   -5.18 KCAL/MOL
REMARK 922        TOTAL FREE ENERGY PREDICTED BY IDOCK:   -8.93 KCAL/MOL
REMARK 923 INTER-LIGAND FREE ENERGY PREDICTED BY IDOCK:   -8.12 KCAL/MOL
REMARK 924 INTRA-LIGAND FREE ENERGY PREDICTED BY IDOCK:   -0.81 KCAL/MOL
REMARK 927      BINDING AFFINITY PREDICTED BY RF-SCORE:    0.00 PKD
ROOT
HETATM    1  O   UNL     1     -10.660  14.814  70.343  1.00  0.00    -0.484 OA 
HETATM    2  C   UNL     1     -11.629  14.291  69.429  1.00  0.00    -0.306 C  
HETATM    3  H   UNL     1      -9.906  15.133  69.860  1.00  0.00     0.000 HD 
ENDROOT
BRANCH   2   4
HETATM    4  C   UNL     1     -12.013  15.420  68.439  1.00  0.00    -0.132 C  
BRANCH   4   5
HETATM    5  N   UNL     1     -11.280  15.436  67.119  1.00  0.00    -0.300 NA 
BRANCH   5   6
HETATM    6  C   UNL     1     -10.895  14.014  66.787  1.00  0.00    -0.294 C  
HETATM    7  O   UNL     1     -12.804  14.059  65.320  1.00  0.00    -0.686 OA 
HETATM    8  C   UNL     1     -12.013  13.259  66.073  1.00  0.00    -0.423 C  
HETATM    9  O   UNL     1     -12.171  12.051  66.146  1.00  0.00    -0.552 OA 
ENDBRANCH   5   6
BRANCH   5  10
HETATM   10  C   UNL     1     -10.012  16.230  67.285  1.00  0.00    -0.250 C  
HETATM   11  O   UNL     1     -10.707  17.379  65.294  1.00  0.00    -0.646 OA 
HETATM   12  O   UNL     1      -8.481  17.286  65.713  1.00  0.00    -0.532 OA 
HETATM   13  C   UNL     1      -9.630  16.997  66.019  1.00  0.00    -0.187 C  
ENDBRANCH   5  10
ENDBRANCH   4   5
ENDBRANCH   2   4
BRANCH   2  14
HETATM   14  C   UNL     1     -12.866  13.768  70.222  1.00  0.00    -0.032 C  
BRANCH  14  15
HETATM   15  N   UNL     1     -12.674  13.451  71.682  1.00  0.00    -0.304 NA 
BRANCH  15  16
HETATM   16  C   UNL     1     -13.404  14.501  72.487  1.00  0.00    -0.472 C  
HETATM   17  C   UNL     1     -12.495  15.234  73.469  1.00  0.00    -0.548 C  
HETATM   18  O   UNL     1     -11.211  15.313  73.034  1.00  0.00    -0.142 OA 
HETATM   19  O   UNL     1     -12.880  15.754  74.503  1.00  0.00    -0.524 OA 
ENDBRANCH  15  16
BRANCH  15  20
HETATM   20  C   UNL     1     -13.368  12.129  71.970  1.00  0.00    -0.365 C  
HETATM   21  C   UNL     1     -12.868  10.978  71.096  1.00  0.00    -0.392 C  
HETATM   22  O   UNL     1     -11.579  11.125  70.706  1.00  0.00    -0.239 OA 
HETATM   23  O   UNL     1     -13.536   9.998  70.817  1.00  0.00    -0.316 OA 
ENDBRANCH  15  20
ENDBRANCH  14  15
ENDBRANCH   2  14
TORSDOF 8
ENDMDL
MODEL       34
REMARK 921   NORMALIZED FREE ENERGY PREDICTED BY IDOCK:   -5.17 KCAL/MOL
REMARK 922        TOTAL FREE ENERGY PREDICTED BY IDOCK:   -8.92 KCAL/MOL
REMARK 923 INTER-LIGAND FREE ENERGY PREDICTED BY IDOCK:   -7.84 KCAL/MOL
REMARK 924 INTRA-LIGAND FREE ENERGY PREDICTED BY IDOCK:   -1.08 KCAL/MOL
REMARK 927      BINDING AFFINITY PREDICTED BY RF-SCORE:    0.00 PKD
ROOT
HETATM    1  O   UNL     1     -12.351  11.015  68.490  1.00  0.00    -0.762 OA 
HETATM    2  C   UNL     1     -11.870  12.361  68.410  1.00  0.00    -0.309 C  
HETATM    3  H   UNL     1     -12.568  10.703  67.619  1.00  0.00     0.000 HD 
ENDROOT
BRANCH   2   4
HETATM    4  C   UNL     1     -10.640  12.377  67.467  1.00  0.00    -0.219 C  
BRANCH   4   5
HETATM    5  N   UNL     1     -10.924  12.541  65.993  1.00  0.00    -0.274 NA 
BRANCH   5   6
HETATM    6  C   UNL     1      -9.778  11.921  65.230  1.00  0.00    -0.192 C  
HETATM    7  O   UNL     1     -11.444  11.379  63.578  1.00  0.00    -0.355 OA 
HETATM    8  C   UNL     1     -10.255  11.006  64.105  1.00  0.00    -0.357 C  
HETATM    9  O   UNL     1      -9.621  10.045  63.697  1.00  0.00    -0.273 OA 
ENDBRANCH   5   6
BRANCH   5  10
HETATM   10  C   UNL     1     -10.949  14.011  65.671  1.00  0.00    -0.300 C  
HETATM   11  O   UNL     1     -13.263  13.650  65.137  1.00  0.00    -0.739 OA 
HETATM   12  O   UNL     1     -12.208  15.353  64.076  1.00  0.00    -0.629 OA 
HETATM   13  C   UNL     1     -12.181  14.413  64.858  1.00  0.00    -0.433 C  
ENDBRANCH   5  10
ENDBRANCH   4   5
ENDBRANCH   2   4
BRANCH   2  14
HETATM   14  C   UNL     1     -11.512  12.873  69.839  1.00  0.00    -0.077 C  
BRANCH  14  15
HETATM   15  N   UNL     1     -11.980  14.253  70.223  1.00  0.00    -0.308 NA 
BRANCH  15  16
HETATM   16  C   UNL     1     -12.454  14.202  71.657  1.00  0.00    -0.311 C  
HETATM   17  C   UNL     1     -13.492  15.272  71.978  1.00  0.00    -0.448 C  
HETATM   18  O   UNL     1     -14.249  15.606  70.901  1.00  0.00    -0.392 OA 
HETATM   19  O   UNL     1     -13.677  15.737  73.090  1.00  0.00    -0.549 OA 
ENDBRANCH  15  16
BRANCH  15  20
HETATM   20  C   UNL     1     -10.776  15.181  70.200  1.00  0.00    -0.221 C  
HETATM   21  C   UNL     1     -10.665  15.999  68.913  1.00  0.00    -0.275 C  
HETATM   22  O   UNL     1     -11.864  16.246  68.332  1.00  0.00    -0.202 OA 
HETATM   23  O   UNL     1      -9.616  16.434  68.474  1.00  0.00    -0.215 OA 
ENDBRANCH  15  20
ENDBRANCH  14  15
ENDBRANCH   2  14
TORSDOF 8
ENDMDL
MODEL       35
REMARK 921   NORMALIZED FREE ENERGY PREDICTED BY IDOCK:   -5.16 KCAL/MOL
REMARK 922        TOTAL FREE ENERGY PREDICTED BY IDOCK:   -8.91 KCAL/MOL
REMARK 923 INTER-LIGAND FREE ENERGY PREDICTED BY IDOCK:   -7.96 KCAL/MOL
REMARK 924 INTRA-LIGAND FREE ENERGY PREDICTED BY IDOCK:   -0.95 KCAL/MOL
REMARK 927      BINDING AFFINITY PREDICTED BY RF-SCORE:    0.00 PKD
ROOT
HETATM    1  O   UNL     1     -10.468  12.074  68.440  1.00  0.00    -0.206 OA 
HETATM    2  C   UNL     1     -10.972  13.405  68.282  1.00  0.00    -0.259 C  
HETATM    3  H   UNL     1     -10.047  11.992  69.287  1.00  0.00     0.000 HD 
ENDROOT
BRANCH   2   4
HETATM    4  C   UNL     1     -11.957  13.686  69.446  1.00  0.00    -0.342 C  
BRANCH   4   5
HETATM    5  N   UNL     1     -11.833  15.030  70.122  1.00  0.00    -0.292 NA 
BRANCH   5   6
HETATM    6  C   UNL     1     -13.122  15.295  70.864  1.00  0.00    -0.464 C  
HETATM    7  O   UNL     1     -11.722  16.404  72.479  1.00  0.00    -0.513 OA 
HETATM    8  C   UNL     1     -12.884  15.731  72.307  1.00  0.00    -0.447 C  
HETATM    9  O   UNL     1     -13.670  15.522  73.217  1.00  0.00    -0.414 OA 
ENDBRANCH   5   6
BRANCH   5  10
HETATM   10  C   UNL     1     -11.687  16.089  69.061  1.00  0.00    -0.318 C  
HETATM   11  O   UNL     1      -9.362  16.089  69.665  1.00  0.00    -0.210 OA 
HETATM   12  O   UNL     1     -10.209  18.007  68.804  1.00  0.00    -0.377 OA 
HETATM   13  C   UNL     1     -10.365  16.851  69.170  1.00  0.00    -0.319 C  
ENDBRANCH   5  10
ENDBRANCH   4   5
ENDBRANCH   2   4
BRANCH   2  14
HETATM   14  C   UNL     1     -11.664  13.540  66.891  1.00  0.00    -0.384 C  
BRANCH  14  15
HETATM   15  N   UNL     1     -10.802  13.380  65.666  1.00  0.00    -0.280 NA 
BRANCH  15  16
HETATM   16  C   UNL     1     -11.081  12.016  65.075  1.00  0.00    -0.316 C  
HETATM   17  C   UNL     1      -9.832  11.148  64.972  1.00  0.00    -0.266 C  
HETATM   18  O   UNL     1      -8.920  11.425  65.940  1.00  0.00    -0.207 OA 
HETATM   19  O   UNL     1      -9.683  10.254  64.156  1.00  0.00    -0.303 OA 
ENDBRANCH  15  16
BRANCH  15  20
HETATM   20  C   UNL     1     -11.260  14.398  64.633  1.00  0.00    -0.360 C  
HETATM   21  C   UNL     1     -10.703  15.800  64.877  1.00  0.00    -0.361 C  
HETATM   22  O   UNL     1      -9.502  15.797  65.505  1.00  0.00    -0.323 OA 
HETATM   23  O   UNL     1     -11.249  16.822  64.501  1.00  0.00    -0.997 OA 
ENDBRANCH  15  20
ENDBRANCH  14  15
ENDBRANCH   2  14
TORSDOF 8
ENDMDL
MODEL       36
REMARK 921   NORMALIZED FREE ENERGY PREDICTED BY IDOCK:   -5.16 KCAL/MOL
REMARK 922        TOTAL FREE ENERGY PREDICTED BY IDOCK:   -8.91 KCAL/MOL
REMARK 923 INTER-LIGAND FREE ENERGY PREDICTED BY IDOCK:   -8.37 KCAL/MOL
REMARK 924 INTRA-LIGAND FREE ENERGY PREDICTED BY IDOCK:   -0.54 KCAL/MOL
REMARK 927      BINDING AFFINITY PREDICTED BY RF-SCORE:    0.00 PKD
ROOT
HETATM    1  O   UNL     1      -9.778  13.601  68.982  1.00  0.00    -0.415 OA 
HETATM    2  C   UNL     1     -10.547  13.918  67.817  1.00  0.00    -0.246 C  
HETATM    3  H   UNL     1      -8.971  14.103  68.976  1.00  0.00     0.000 HD 
ENDROOT
BRANCH   2   4
HETATM    4  C   UNL     1     -10.817  15.444  67.820  1.00  0.00    -0.302 C  
BRANCH   4   5
HETATM    5  N   UNL     1     -10.158  16.247  66.724  1.00  0.00    -0.269 NA 
BRANCH   5   6
HETATM    6  C   UNL     1     -10.430  15.549  65.413  1.00  0.00    -0.405 C  
HETATM    7  O   UNL     1     -11.234  17.696  64.675  1.00  0.00    -0.857 OA 
HETATM    8  C   UNL     1     -11.350  16.358  64.502  1.00  0.00    -0.114 C  
HETATM    9  O   UNL     1     -12.100  15.859  63.678  1.00  0.00    -0.682 OA 
ENDBRANCH   5   6
BRANCH   5  10
HETATM   10  C   UNL     1      -8.670  16.236  66.951  1.00  0.00    -0.208 C  
HETATM   11  O   UNL     1      -8.727  18.484  66.107  1.00  0.00    -0.462 OA 
HETATM   12  O   UNL     1      -6.799  17.323  65.833  1.00  0.00    -0.182 OA 
HETATM   13  C   UNL     1      -7.957  17.377  66.224  1.00  0.00    -0.279 C  
ENDBRANCH   5  10
ENDBRANCH   4   5
ENDBRANCH   2   4
BRANCH   2  14
HETATM   14  C   UNL     1     -11.871  13.095  67.826  1.00  0.00    -0.348 C  
BRANCH  14  15
HETATM   15  N   UNL     1     -11.882  11.783  67.085  1.00  0.00    -0.620 NA 
BRANCH  15  16
HETATM   16  C   UNL     1     -11.157  11.983  65.774  1.00  0.00    -0.324 C  
HETATM   17  C   UNL     1     -12.101  12.285  64.614  1.00  0.00    -0.374 C  
HETATM   18  O   UNL     1     -13.225  12.935  65.011  1.00  0.00    -0.765 OA 
HETATM   19  O   UNL     1     -11.856  12.033  63.446  1.00  0.00    -0.462 OA 
ENDBRANCH  15  16
BRANCH  15  20
HETATM   20  C   UNL     1     -11.058  10.786  67.884  1.00  0.00    -0.308 C  
HETATM   21  C   UNL     1     -11.556  10.597  69.317  1.00  0.00    -0.275 C  
HETATM   22  O   UNL     1     -12.888  10.808  69.452  1.00  0.00    -0.182 OA 
HETATM   23  O   UNL     1     -10.847  10.241  70.241  1.00  0.00    -0.288 OA 
ENDBRANCH  15  20
ENDBRANCH  14  15
ENDBRANCH   2  14
TORSDOF 8
ENDMDL
MODEL       37
REMARK 921   NORMALIZED FREE ENERGY PREDICTED BY IDOCK:   -5.15 KCAL/MOL
REMARK 922        TOTAL FREE ENERGY PREDICTED BY IDOCK:   -8.89 KCAL/MOL
REMARK 923 INTER-LIGAND FREE ENERGY PREDICTED BY IDOCK:   -7.65 KCAL/MOL
REMARK 924 INTRA-LIGAND FREE ENERGY PREDICTED BY IDOCK:   -1.24 KCAL/MOL
REMARK 927      BINDING AFFINITY PREDICTED BY RF-SCORE:    0.00 PKD
ROOT
HETATM    1  O   UNL     1     -11.216  16.428  64.200  1.00  0.00    -1.273 OA 
HETATM    2  C   UNL     1     -10.447  15.996  65.328  1.00  0.00    -0.358 C  
HETATM    3  H   UNL     1     -10.656  16.482  63.435  1.00  0.00     0.000 HD 
ENDROOT
BRANCH   2   4
HETATM    4  C   UNL     1      -9.811  14.627  64.980  1.00  0.00    -0.030 C  
BRANCH   4   5
HETATM    5  N   UNL     1     -10.573  13.399  65.419  1.00  0.00    -0.294 NA 
BRANCH   5   6
HETATM    6  C   UNL     1      -9.676  12.602  66.335  1.00  0.00    -0.258 C  
HETATM    7  O   UNL     1     -11.729  11.767  67.277  1.00  0.00    -0.546 OA 
HETATM    8  C   UNL     1     -10.428  12.034  67.537  1.00  0.00    -0.212 C  
HETATM    9  O   UNL     1      -9.909  11.815  68.620  1.00  0.00    -0.198 OA 
ENDBRANCH   5   6
BRANCH   5  10
HETATM   10  C   UNL     1     -10.859  12.554  64.206  1.00  0.00    -0.364 C  
HETATM   11  O   UNL     1     -12.863  13.864  64.014  1.00  0.00    -0.546 OA 
HETATM   12  O   UNL     1     -12.914  11.763  63.166  1.00  0.00    -0.576 OA 
HETATM   13  C   UNL     1     -12.316  12.655  63.751  1.00  0.00    -0.478 C  
ENDBRANCH   5  10
ENDBRANCH   4   5
ENDBRANCH   2   4
BRANCH   2  14
HETATM   14  C   UNL     1     -11.367  15.907  66.584  1.00  0.00     0.186 C  
BRANCH  14  15
HETATM   15  N   UNL     1     -10.811  16.405  67.893  1.00  0.00    -0.340 NA 
BRANCH  15  16
HETATM   16  C   UNL     1     -10.724  17.913  67.817  1.00  0.00    -0.326 C  
HETATM   17  C   UNL     1      -9.459  18.467  68.464  1.00  0.00    -0.334 C  
HETATM   18  O   UNL     1      -8.413  17.604  68.392  1.00  0.00    -0.271 OA 
HETATM   19  O   UNL     1      -9.366  19.586  68.940  1.00  0.00    -0.380 OA 
ENDBRANCH  15  16
BRANCH  15  20
HETATM   20  C   UNL     1     -11.820  16.086  68.984  1.00  0.00    -0.252 C  
HETATM   21  C   UNL     1     -11.247  15.220  70.105  1.00  0.00    -0.291 C  
HETATM   22  O   UNL     1      -9.916  15.393  70.288  1.00  0.00    -0.217 OA 
HETATM   23  O   UNL     1     -11.920  14.485  70.806  1.00  0.00    -0.292 OA 
ENDBRANCH  15  20
ENDBRANCH  14  15
ENDBRANCH   2  14
TORSDOF 8
ENDMDL
MODEL       38
REMARK 921   NORMALIZED FREE ENERGY PREDICTED BY IDOCK:   -5.14 KCAL/MOL
REMARK 922        TOTAL FREE ENERGY PREDICTED BY IDOCK:   -8.88 KCAL/MOL
REMARK 923 INTER-LIGAND FREE ENERGY PREDICTED BY IDOCK:   -7.48 KCAL/MOL
REMARK 924 INTRA-LIGAND FREE ENERGY PREDICTED BY IDOCK:   -1.40 KCAL/MOL
REMARK 927      BINDING AFFINITY PREDICTED BY RF-SCORE:    0.00 PKD
ROOT
HETATM    1  O   UNL     1      -8.762  14.082  66.118  1.00  0.00    -0.392 OA 
HETATM    2  C   UNL     1      -9.283  15.416  66.157  1.00  0.00    -0.327 C  
HETATM    3  H   UNL     1      -7.814  14.113  66.058  1.00  0.00     0.000 HD 
ENDROOT
BRANCH   2   4
HETATM    4  C   UNL     1      -8.650  16.143  67.371  1.00  0.00    -0.180 C  
BRANCH   4   5
HETATM    5  N   UNL     1      -8.457  17.634  67.237  1.00  0.00    -0.213 NA 
BRANCH   5   6
HETATM    6  C   UNL     1      -6.986  17.892  67.013  1.00  0.00    -0.182 C  
HETATM    7  O   UNL     1      -7.727  19.468  65.350  1.00  0.00    -0.378 OA 
HETATM    8  C   UNL     1      -6.717  18.642  65.711  1.00  0.00    -0.276 C  
HETATM    9  O   UNL     1      -5.686  18.534  65.066  1.00  0.00    -0.217 OA 
ENDBRANCH   5   6
BRANCH   5  10
HETATM   10  C   UNL     1      -8.846  18.286  68.536  1.00  0.00    -0.304 C  
HETATM   11  O   UNL     1     -10.892  18.848  67.411  1.00  0.00    -0.458 OA 
HETATM   12  O   UNL     1     -10.227  20.213  69.094  1.00  0.00    -0.321 OA 
HETATM   13  C   UNL     1     -10.035  19.236  68.384  1.00  0.00    -0.419 C  
ENDBRANCH   5  10
ENDBRANCH   4   5
ENDBRANCH   2   4
BRANCH   2  14
HETATM   14  C   UNL     1     -10.838  15.365  66.257  1.00  0.00    -0.301 C  
BRANCH  14  15
HETATM   15  N   UNL     1     -11.476  14.027  66.524  1.00  0.00    -0.342 NA 
BRANCH  15  16
HETATM   16  C   UNL     1     -12.141  14.091  67.880  1.00  0.00    -0.279 C  
HETATM   17  C   UNL     1     -11.502  13.153  68.899  1.00  0.00    -0.298 C  
HETATM   18  O   UNL     1     -10.178  12.955  68.670  1.00  0.00    -0.229 OA 
HETATM   19  O   UNL     1     -12.089  12.678  69.858  1.00  0.00    -0.304 OA 
ENDBRANCH  15  16
BRANCH  15  20
HETATM   20  C   UNL     1     -12.590  13.826  65.508  1.00  0.00    -0.512 C  
HETATM   21  C   UNL     1     -12.078  13.493  64.106  1.00  0.00    -0.435 C  
HETATM   22  O   UNL     1     -10.887  12.847  64.111  1.00  0.00    -0.370 OA 
HETATM   23  O   UNL     1     -12.696  13.733  63.084  1.00  0.00    -0.743 OA 
ENDBRANCH  15  20
ENDBRANCH  14  15
ENDBRANCH   2  14
TORSDOF 8
ENDMDL
MODEL       39
REMARK 921   NORMALIZED FREE ENERGY PREDICTED BY IDOCK:   -5.14 KCAL/MOL
REMARK 922        TOTAL FREE ENERGY PREDICTED BY IDOCK:   -8.88 KCAL/MOL
REMARK 923 INTER-LIGAND FREE ENERGY PREDICTED BY IDOCK:   -7.77 KCAL/MOL
REMARK 924 INTRA-LIGAND FREE ENERGY PREDICTED BY IDOCK:   -1.12 KCAL/MOL
REMARK 927      BINDING AFFINITY PREDICTED BY RF-SCORE:    0.00 PKD
ROOT
HETATM    1  O   UNL     1      -8.886  14.518  66.153  1.00  0.00    -0.480 OA 
HETATM    2  C   UNL     1      -9.791  15.581  66.468  1.00  0.00    -0.264 C  
HETATM    3  H   UNL     1      -7.997  14.854  66.129  1.00  0.00     0.000 HD 
ENDROOT
BRANCH   2   4
HETATM    4  C   UNL     1      -9.365  16.188  67.828  1.00  0.00    -0.211 C  
BRANCH   4   5
HETATM    5  N   UNL     1      -8.829  17.599  67.798  1.00  0.00    -0.237 NA 
BRANCH   5   6
HETATM    6  C   UNL     1      -9.076  18.158  66.417  1.00  0.00    -0.241 C  
HETATM    7  O   UNL     1     -10.541  19.709  67.534  1.00  0.00    -0.442 OA 
HETATM    8  C   UNL     1     -10.303  19.065  66.367  1.00  0.00    -0.448 C  
HETATM    9  O   UNL     1     -10.991  19.221  65.371  1.00  0.00    -0.452 OA 
ENDBRANCH   5   6
BRANCH   5  10
HETATM   10  C   UNL     1      -7.339  17.549  68.014  1.00  0.00    -0.208 C  
HETATM   11  O   UNL     1      -7.633  19.657  69.129  1.00  0.00    -0.350 OA 
HETATM   12  O   UNL     1      -5.615  19.261  68.176  1.00  0.00    -0.196 OA 
HETATM   13  C   UNL     1      -6.760  18.906  68.418  1.00  0.00    -0.248 C  
ENDBRANCH   5  10
ENDBRANCH   4   5
ENDBRANCH   2   4
BRANCH   2  14
HETATM   14  C   UNL     1     -11.250  15.030  66.508  1.00  0.00    -0.312 C  
BRANCH  14  15
HETATM   15  N   UNL     1     -11.431  13.535  66.474  1.00  0.00    -0.326 NA 
BRANCH  15  16
HETATM   16  C   UNL     1     -12.004  13.105  67.805  1.00  0.00    -0.307 C  
HETATM   17  C   UNL     1     -11.707  11.646  68.135  1.00  0.00    -0.295 C  
HETATM   18  O   UNL     1     -10.539  11.214  67.594  1.00  0.00    -0.190 OA 
HETATM   19  O   UNL     1     -12.402  10.951  68.858  1.00  0.00    -0.486 OA 
ENDBRANCH  15  16
BRANCH  15  20
HETATM   20  C   UNL     1     -12.486  13.213  65.427  1.00  0.00    -0.481 C  
HETATM   21  C   UNL     1     -11.951  13.254  63.996  1.00  0.00    -0.465 C  
HETATM   22  O   UNL     1     -10.634  12.951  63.908  1.00  0.00    -0.410 OA 
HETATM   23  O   UNL     1     -12.643  13.483  63.019  1.00  0.00    -0.716 OA 
ENDBRANCH  15  20
ENDBRANCH  14  15
ENDBRANCH   2  14
TORSDOF 8
ENDMDL
MODEL       40
REMARK 921   NORMALIZED FREE ENERGY PREDICTED BY IDOCK:   -5.14 KCAL/MOL
REMARK 922        TOTAL FREE ENERGY PREDICTED BY IDOCK:   -8.88 KCAL/MOL
REMARK 923 INTER-LIGAND FREE ENERGY PREDICTED BY IDOCK:   -7.90 KCAL/MOL
REMARK 924 INTRA-LIGAND FREE ENERGY PREDICTED BY IDOCK:   -0.98 KCAL/MOL
REMARK 927      BINDING AFFINITY PREDICTED BY RF-SCORE:    0.00 PKD
ROOT
HETATM    1  O   UNL     1      -8.600  14.322  69.220  1.00  0.00    -0.362 OA 
HETATM    2  C   UNL     1      -9.046  14.250  67.861  1.00  0.00    -0.190 C  
HETATM    3  H   UNL     1      -8.194  15.167  69.376  1.00  0.00     0.000 HD 
ENDROOT
BRANCH   2   4
HETATM    4  C   UNL     1     -10.033  15.419  67.616  1.00  0.00    -0.225 C  
BRANCH   4   5
HETATM    5  N   UNL     1      -9.639  16.424  66.561  1.00  0.00    -0.253 NA 
BRANCH   5   6
HETATM    6  C   UNL     1     -10.056  15.873  65.218  1.00  0.00    -0.171 C  
HETATM    7  O   UNL     1     -11.131  18.005  64.909  1.00  0.00    -0.738 OA 
HETATM    8  C   UNL     1     -11.167  16.695  64.571  1.00  0.00     0.081 C  
HETATM    9  O   UNL     1     -11.994  16.231  63.802  1.00  0.00    -0.973 OA 
ENDBRANCH   5   6
BRANCH   5  10
HETATM   10  C   UNL     1      -8.139  16.553  66.559  1.00  0.00    -0.306 C  
HETATM   11  O   UNL     1      -8.539  18.867  66.055  1.00  0.00    -0.467 OA 
HETATM   12  O   UNL     1      -6.583  17.973  65.337  1.00  0.00    -0.353 OA 
HETATM   13  C   UNL     1      -7.662  17.848  65.900  1.00  0.00    -0.106 C  
ENDBRANCH   5  10
ENDBRANCH   4   5
ENDBRANCH   2   4
BRANCH   2  14
HETATM   14  C   UNL     1      -9.712  12.864  67.603  1.00  0.00    -0.212 C  
BRANCH  14  15
HETATM   15  N   UNL     1     -11.194  12.841  67.337  1.00  0.00    -0.278 NA 
BRANCH  15  16
HETATM   16  C   UNL     1     -11.409  12.282  65.949  1.00  0.00    -0.360 C  
HETATM   17  C   UNL     1     -12.659  12.835  65.273  1.00  0.00    -0.393 C  
HETATM   18  O   UNL     1     -12.958  14.097  65.679  1.00  0.00    -0.586 OA 
HETATM   19  O   UNL     1     -13.293  12.246  64.413  1.00  0.00    -0.786 OA 
ENDBRANCH  15  16
BRANCH  15  20
HETATM   20  C   UNL     1     -11.830  11.854  68.302  1.00  0.00    -0.277 C  
HETATM   21  C   UNL     1     -11.980  12.404  69.721  1.00  0.00    -0.289 C  
HETATM   22  O   UNL     1     -12.124  13.750  69.760  1.00  0.00    -0.315 OA 
HETATM   23  O   UNL     1     -12.020  11.706  70.719  1.00  0.00    -0.334 OA 
ENDBRANCH  15  20
ENDBRANCH  14  15
ENDBRANCH   2  14
TORSDOF 8
ENDMDL
MODEL       41
REMARK 921   NORMALIZED FREE ENERGY PREDICTED BY IDOCK:   -5.12 KCAL/MOL
REMARK 922        TOTAL FREE ENERGY PREDICTED BY IDOCK:   -8.85 KCAL/MOL
REMARK 923 INTER-LIGAND FREE ENERGY PREDICTED BY IDOCK:   -7.35 KCAL/MOL
REMARK 924 INTRA-LIGAND FREE ENERGY PREDICTED BY IDOCK:   -1.50 KCAL/MOL
REMARK 927      BINDING AFFINITY PREDICTED BY RF-SCORE:    0.00 PKD
ROOT
HETATM    1  O   UNL     1      -9.486  16.283  68.047  1.00  0.00    -0.219 OA 
HETATM    2  C   UNL     1      -8.915  15.937  66.780  1.00  0.00    -0.251 C  
HETATM    3  H   UNL     1      -8.792  16.501  68.659  1.00  0.00     0.000 HD 
ENDROOT
BRANCH   2   4
HETATM    4  C   UNL     1      -8.070  17.140  66.290  1.00  0.00    -0.290 C  
BRANCH   4   5
HETATM    5  N   UNL     1      -8.166  18.407  67.105  1.00  0.00    -0.240 NA 
BRANCH   5   6
HETATM    6  C   UNL     1      -8.763  19.480  66.225  1.00  0.00    -0.359 C  
HETATM    7  O   UNL     1     -10.834  18.942  67.331  1.00  0.00    -0.458 OA 
HETATM    8  C   UNL     1     -10.288  19.420  66.188  1.00  0.00    -0.504 C  
HETATM    9  O   UNL     1     -10.959  19.789  65.237  1.00  0.00    -0.410 OA 
ENDBRANCH   5   6
BRANCH   5  10
HETATM   10  C   UNL     1      -6.774  18.842  67.480  1.00  0.00    -0.200 C  
HETATM   11  O   UNL     1      -7.086  17.471  69.427  1.00  0.00    -0.185 OA 
HETATM   12  O   UNL     1      -5.656  19.220  69.610  1.00  0.00    -0.203 OA 
HETATM   13  C   UNL     1      -6.447  18.563  68.948  1.00  0.00    -0.242 C  
ENDBRANCH   5  10
ENDBRANCH   4   5
ENDBRANCH   2   4
BRANCH   2  14
HETATM   14  C   UNL     1     -10.053  15.578  65.776  1.00  0.00    -0.360 C  
BRANCH  14  15
HETATM   15  N   UNL     1     -10.704  14.227  65.914  1.00  0.00    -0.296 NA 
BRANCH  15  16
HETATM   16  C   UNL     1     -11.017  13.717  64.527  1.00  0.00    -0.396 C  
HETATM   17  C   UNL     1     -12.447  13.202  64.392  1.00  0.00    -0.310 C  
HETATM   18  O   UNL     1     -13.313  13.841  65.220  1.00  0.00    -0.710 OA 
HETATM   19  O   UNL     1     -12.799  12.356  63.587  1.00  0.00    -0.743 OA 
ENDBRANCH  15  16
BRANCH  15  20
HETATM   20  C   UNL     1      -9.680  13.270  66.504  1.00  0.00    -0.273 C  
HETATM   21  C   UNL     1     -10.201  12.495  67.715  1.00  0.00    -0.217 C  
HETATM   22  O   UNL     1     -11.541  12.299  67.688  1.00  0.00    -0.319 OA 
HETATM   23  O   UNL     1      -9.485  12.049  68.594  1.00  0.00    -0.163 OA 
ENDBRANCH  15  20
ENDBRANCH  14  15
ENDBRANCH   2  14
TORSDOF 8
ENDMDL
MODEL       42
REMARK 921   NORMALIZED FREE ENERGY PREDICTED BY IDOCK:   -5.12 KCAL/MOL
REMARK 922        TOTAL FREE ENERGY PREDICTED BY IDOCK:   -8.84 KCAL/MOL
REMARK 923 INTER-LIGAND FREE ENERGY PREDICTED BY IDOCK:   -7.28 KCAL/MOL
REMARK 924 INTRA-LIGAND FREE ENERGY PREDICTED BY IDOCK:   -1.56 KCAL/MOL
REMARK 927      BINDING AFFINITY PREDICTED BY RF-SCORE:    0.00 PKD
ROOT
HETATM    1  O   UNL     1      -8.516  12.422  68.749  1.00  0.00    -0.348 OA 
HETATM    2  C   UNL     1      -9.396  13.440  68.258  1.00  0.00    -0.205 C  
HETATM    3  H   UNL     1      -8.560  12.395  69.697  1.00  0.00     0.000 HD 
ENDROOT
BRANCH   2   4
HETATM    4  C   UNL     1     -10.827  13.122  68.762  1.00  0.00    -0.246 C  
BRANCH   4   5
HETATM    5  N   UNL     1     -11.101  11.689  69.149  1.00  0.00    -0.241 NA 
BRANCH   5   6
HETATM    6  C   UNL     1     -11.609  10.968  67.922  1.00  0.00    -0.226 C  
HETATM    7  O   UNL     1      -9.631   9.613  68.155  1.00  0.00    -0.142 OA 
HETATM    8  C   UNL     1     -10.536  10.098  67.272  1.00  0.00    -0.256 C  
HETATM    9  O   UNL     1     -10.503   9.839  66.080  1.00  0.00    -0.157 OA 
ENDBRANCH   5   6
BRANCH   5  10
HETATM   10  C   UNL     1     -12.199  11.672  70.179  1.00  0.00    -0.288 C  
HETATM   11  O   UNL     1     -10.882   9.980  71.262  1.00  0.00    -0.205 OA 
HETATM   12  O   UNL     1     -13.122   9.933  71.612  1.00  0.00    -0.374 OA 
HETATM   13  C   UNL     1     -12.143  10.434  71.076  1.00  0.00    -0.385 C  
ENDBRANCH   5  10
ENDBRANCH   4   5
ENDBRANCH   2   4
BRANCH   2  14
HETATM   14  C   UNL     1      -9.325  13.486  66.701  1.00  0.00    -0.245 C  
BRANCH  14  15
HETATM   15  N   UNL     1     -10.475  14.127  65.969  1.00  0.00    -0.295 NA 
BRANCH  15  16
HETATM   16  C   UNL     1      -9.959  15.378  65.296  1.00  0.00    -0.270 C  
HETATM   17  C   UNL     1     -10.526  16.656  65.905  1.00  0.00    -0.313 C  
HETATM   18  O   UNL     1     -10.816  16.524  67.225  1.00  0.00    -0.280 OA 
HETATM   19  O   UNL     1     -10.650  17.708  65.299  1.00  0.00    -0.663 OA 
ENDBRANCH  15  16
BRANCH  15  20
HETATM   20  C   UNL     1     -10.906  13.186  64.855  1.00  0.00    -0.332 C  
HETATM   21  C   UNL     1     -12.420  12.985  64.784  1.00  0.00    -0.427 C  
HETATM   22  O   UNL     1     -13.123  14.053  65.231  1.00  0.00    -0.782 OA 
HETATM   23  O   UNL     1     -12.951  11.990  64.323  1.00  0.00    -0.600 OA 
ENDBRANCH  15  20
ENDBRANCH  14  15
ENDBRANCH   2  14
TORSDOF 8
ENDMDL
MODEL       43
REMARK 921   NORMALIZED FREE ENERGY PREDICTED BY IDOCK:   -5.11 KCAL/MOL
REMARK 922        TOTAL FREE ENERGY PREDICTED BY IDOCK:   -8.83 KCAL/MOL
REMARK 923 INTER-LIGAND FREE ENERGY PREDICTED BY IDOCK:   -7.18 KCAL/MOL
REMARK 924 INTRA-LIGAND FREE ENERGY PREDICTED BY IDOCK:   -1.65 KCAL/MOL
REMARK 927      BINDING AFFINITY PREDICTED BY RF-SCORE:    0.00 PKD
ROOT
HETATM    1  O   UNL     1     -12.390  14.612  68.334  1.00  0.00    -0.603 OA 
HETATM    2  C   UNL     1     -11.268  13.749  68.553  1.00  0.00    -0.275 C  
HETATM    3  H   UNL     1     -12.093  15.513  68.284  1.00  0.00     0.000 HD 
ENDROOT
BRANCH   2   4
HETATM    4  C   UNL     1     -10.264  13.964  67.392  1.00  0.00    -0.252 C  
BRANCH   4   5
HETATM    5  N   UNL     1     -10.727  14.841  66.254  1.00  0.00    -0.305 NA 
BRANCH   5   6
HETATM    6  C   UNL     1     -10.882  13.969  65.031  1.00  0.00    -0.392 C  
HETATM    7  O   UNL     1     -13.236  14.033  65.539  1.00  0.00    -0.710 OA 
HETATM    8  C   UNL     1     -12.254  13.302  64.961  1.00  0.00    -0.432 C  
HETATM    9  O   UNL     1     -12.459  12.228  64.418  1.00  0.00    -0.439 OA 
ENDBRANCH   5   6
BRANCH   5  10
HETATM   10  C   UNL     1      -9.653  15.855  65.963  1.00  0.00    -0.350 C  
HETATM   11  O   UNL     1     -10.830  17.253  67.522  1.00  0.00    -0.314 OA 
HETATM   12  O   UNL     1      -9.621  18.290  65.909  1.00  0.00    -0.510 OA 
HETATM   13  C   UNL     1     -10.032  17.262  66.429  1.00  0.00    -0.311 C  
ENDBRANCH   5  10
ENDBRANCH   4   5
ENDBRANCH   2   4
BRANCH   2  14
HETATM   14  C   UNL     1     -11.755  12.270  68.634  1.00  0.00    -0.328 C  
BRANCH  14  15
HETATM   15  N   UNL     1     -10.703  11.193  68.707  1.00  0.00    -0.188 NA 
BRANCH  15  16
HETATM   16  C   UNL     1     -11.038  10.294  69.875  1.00  0.00    -0.304 C  
HETATM   17  C   UNL     1      -9.861   9.430  70.315  1.00  0.00    -0.243 C  
HETATM   18  O   UNL     1      -8.662  10.023  70.085  1.00  0.00    -0.159 OA 
HETATM   19  O   UNL     1      -9.973   8.351  70.873  1.00  0.00    -0.182 OA 
ENDBRANCH  15  16
BRANCH  15  20
HETATM   20  C   UNL     1     -10.821  10.336  67.457  1.00  0.00    -0.298 C  
HETATM   21  C   UNL     1      -9.721  10.607  66.431  1.00  0.00    -0.196 C  
HETATM   22  O   UNL     1      -8.563  11.034  66.989  1.00  0.00    -0.134 OA 
HETATM   23  O   UNL     1      -9.845  10.411  65.235  1.00  0.00    -0.253 OA 
ENDBRANCH  15  20
ENDBRANCH  14  15
ENDBRANCH   2  14
TORSDOF 8
ENDMDL
MODEL       44
REMARK 921   NORMALIZED FREE ENERGY PREDICTED BY IDOCK:   -5.10 KCAL/MOL
REMARK 922        TOTAL FREE ENERGY PREDICTED BY IDOCK:   -8.82 KCAL/MOL
REMARK 923 INTER-LIGAND FREE ENERGY PREDICTED BY IDOCK:   -7.87 KCAL/MOL
REMARK 924 INTRA-LIGAND FREE ENERGY PREDICTED BY IDOCK:   -0.95 KCAL/MOL
REMARK 927      BINDING AFFINITY PREDICTED BY RF-SCORE:    0.00 PKD
ROOT
HETATM    1  O   UNL     1     -10.614  15.328  64.906  1.00  0.00    -0.433 OA 
HETATM    2  C   UNL     1     -10.581  14.728  66.205  1.00  0.00    -0.305 C  
HETATM    3  H   UNL     1     -10.927  16.222  64.976  1.00  0.00     0.000 HD 
ENDROOT
BRANCH   2   4
HETATM    4  C   UNL     1      -9.664  15.591  67.109  1.00  0.00    -0.222 C  
BRANCH   4   5
HETATM    5  N   UNL     1     -10.339  16.336  68.236  1.00  0.00    -0.261 NA 
BRANCH   5   6
HETATM    6  C   UNL     1     -11.674  15.678  68.492  1.00  0.00    -0.327 C  
HETATM    7  O   UNL     1     -11.361  16.402  70.767  1.00  0.00    -0.373 OA 
HETATM    8  C   UNL     1     -11.944  15.468  69.979  1.00  0.00    -0.364 C  
HETATM    9  O   UNL     1     -12.638  14.566  70.423  1.00  0.00    -0.339 OA 
ENDBRANCH   5   6
BRANCH   5  10
HETATM   10  C   UNL     1     -10.602  17.749  67.787  1.00  0.00    -0.386 C  
HETATM   11  O   UNL     1      -8.520  18.267  68.867  1.00  0.00    -0.257 OA 
HETATM   12  O   UNL     1     -10.053  19.930  68.719  1.00  0.00    -0.442 OA 
HETATM   13  C   UNL     1      -9.726  18.769  68.517  1.00  0.00    -0.380 C  
ENDBRANCH   5  10
ENDBRANCH   4   5
ENDBRANCH   2   4
BRANCH   2  14
HETATM   14  C   UNL     1     -10.066  13.261  66.089  1.00  0.00    -0.293 C  
BRANCH  14  15
HETATM   15  N   UNL     1     -11.096  12.168  65.967  1.00  0.00    -0.300 NA 
BRANCH  15  16
HETATM   16  C   UNL     1     -11.267  11.851  64.499  1.00  0.00    -0.319 C  
HETATM   17  C   UNL     1     -12.615  12.303  63.947  1.00  0.00    -0.440 C  
HETATM   18  O   UNL     1     -13.103  13.397  64.587  1.00  0.00    -0.626 OA 
HETATM   19  O   UNL     1     -13.174  11.788  62.993  1.00  0.00    -0.474 OA 
ENDBRANCH  15  16
BRANCH  15  20
HETATM   20  C   UNL     1     -10.531  10.914  66.615  1.00  0.00    -0.254 C  
HETATM   21  C   UNL     1     -10.987  10.721  68.061  1.00  0.00    -0.283 C  
HETATM   22  O   UNL     1     -12.203  11.262  68.315  1.00  0.00    -0.611 OA 
HETATM   23  O   UNL     1     -10.353  10.100  68.895  1.00  0.00    -0.185 OA 
ENDBRANCH  15  20
ENDBRANCH  14  15
ENDBRANCH   2  14
TORSDOF 8
ENDMDL
MODEL       45
REMARK 921   NORMALIZED FREE ENERGY PREDICTED BY IDOCK:   -5.08 KCAL/MOL
REMARK 922        TOTAL FREE ENERGY PREDICTED BY IDOCK:   -8.78 KCAL/MOL
REMARK 923 INTER-LIGAND FREE ENERGY PREDICTED BY IDOCK:   -7.36 KCAL/MOL
REMARK 924 INTRA-LIGAND FREE ENERGY PREDICTED BY IDOCK:   -1.42 KCAL/MOL
REMARK 927      BINDING AFFINITY PREDICTED BY RF-SCORE:    0.00 PKD
ROOT
HETATM    1  O   UNL     1     -11.020  17.033  65.158  1.00  0.00    -0.528 OA 
HETATM    2  C   UNL     1     -10.358  15.870  65.669  1.00  0.00    -0.390 C  
HETATM    3  H   UNL     1     -11.600  16.782  64.449  1.00  0.00     0.000 HD 
ENDROOT
BRANCH   2   4
HETATM    4  C   UNL     1     -11.443  14.868  66.138  1.00  0.00    -0.272 C  
BRANCH   4   5
HETATM    5  N   UNL     1     -11.079  13.404  66.078  1.00  0.00    -0.282 NA 
BRANCH   5   6
HETATM    6  C   UNL     1     -12.251  12.659  65.485  1.00  0.00    -0.440 C  
HETATM    7  O   UNL     1     -10.658  11.860  63.866  1.00  0.00    -0.317 OA 
HETATM    8  C   UNL     1     -11.964  12.148  64.076  1.00  0.00    -0.440 C  
HETATM    9  O   UNL     1     -12.823  11.987  63.224  1.00  0.00    -0.732 OA 
ENDBRANCH   5   6
BRANCH   5  10
HETATM   10  C   UNL     1     -10.879  12.903  67.484  1.00  0.00    -0.235 C  
HETATM   11  O   UNL     1      -8.562  12.723  66.876  1.00  0.00    -0.197 OA 
HETATM   12  O   UNL     1      -9.321  11.325  68.492  1.00  0.00    -0.176 OA 
HETATM   13  C   UNL     1      -9.528  12.211  67.674  1.00  0.00    -0.187 C  
ENDBRANCH   5  10
ENDBRANCH   4   5
ENDBRANCH   2   4
BRANCH   2  14
HETATM   14  C   UNL     1      -9.405  16.281  66.833  1.00  0.00    -0.224 C  
BRANCH  14  15
HETATM   15  N   UNL     1     -10.019  16.954  68.032  1.00  0.00    -0.269 NA 
BRANCH  15  16
HETATM   16  C   UNL     1      -9.814  16.052  69.228  1.00  0.00    -0.255 C  
HETATM   17  C   UNL     1     -11.092  15.829  70.029  1.00  0.00    -0.344 C  
HETATM   18  O   UNL     1     -12.210  15.889  69.260  1.00  0.00    -0.273 OA 
HETATM   19  O   UNL     1     -11.118  15.560  71.219  1.00  0.00    -0.355 OA 
ENDBRANCH  15  16
BRANCH  15  20
HETATM   20  C   UNL     1      -9.233  18.225  68.312  1.00  0.00    -0.309 C  
HETATM   21  C   UNL     1      -9.662  19.407  67.442  1.00  0.00    -0.328 C  
HETATM   22  O   UNL     1     -10.963  19.349  67.066  1.00  0.00    -0.467 OA 
HETATM   23  O   UNL     1      -8.932  20.338  67.155  1.00  0.00    -0.343 OA 
ENDBRANCH  15  20
ENDBRANCH  14  15
ENDBRANCH   2  14
TORSDOF 8
ENDMDL
MODEL       46
REMARK 921   NORMALIZED FREE ENERGY PREDICTED BY IDOCK:   -5.07 KCAL/MOL
REMARK 922        TOTAL FREE ENERGY PREDICTED BY IDOCK:   -8.78 KCAL/MOL
REMARK 923 INTER-LIGAND FREE ENERGY PREDICTED BY IDOCK:   -7.72 KCAL/MOL
REMARK 924 INTRA-LIGAND FREE ENERGY PREDICTED BY IDOCK:   -1.06 KCAL/MOL
REMARK 927      BINDING AFFINITY PREDICTED BY RF-SCORE:    0.00 PKD
ROOT
HETATM    1  O   UNL     1      -8.407  14.079  68.915  1.00  0.00    -0.311 OA 
HETATM    2  C   UNL     1      -9.005  13.838  67.636  1.00  0.00    -0.194 C  
HETATM    3  H   UNL     1      -8.643  13.380  69.513  1.00  0.00     0.000 HD 
ENDROOT
BRANCH   2   4
HETATM    4  C   UNL     1      -8.518  12.457  67.131  1.00  0.00    -0.185 C  
BRANCH   4   5
HETATM    5  N   UNL     1      -9.504  11.649  66.322  1.00  0.00    -0.213 NA 
BRANCH   5   6
HETATM    6  C   UNL     1     -10.333  10.833  67.285  1.00  0.00    -0.220 C  
HETATM    7  O   UNL     1     -12.197  12.089  66.420  1.00  0.00    -0.551 OA 
HETATM    8  C   UNL     1     -11.725  11.422  67.500  1.00  0.00    -0.140 C  
HETATM    9  O   UNL     1     -12.367  11.289  68.530  1.00  0.00    -0.543 OA 
ENDBRANCH   5   6
BRANCH   5  10
HETATM   10  C   UNL     1      -8.737  10.691  65.449  1.00  0.00    -0.185 C  
HETATM   11  O   UNL     1      -9.792  11.831  63.617  1.00  0.00    -0.327 OA 
HETATM   12  O   UNL     1      -9.190   9.670  63.286  1.00  0.00    -0.244 OA 
HETATM   13  C   UNL     1      -9.270  10.648  64.016  1.00  0.00    -0.239 C  
ENDBRANCH   5  10
ENDBRANCH   4   5
ENDBRANCH   2   4
BRANCH   2  14
HETATM   14  C   UNL     1      -8.618  14.986  66.654  1.00  0.00    -0.211 C  
BRANCH  14  15
HETATM   15  N   UNL     1      -9.736  15.814  66.075  1.00  0.00    -0.318 NA 
BRANCH  15  16
HETATM   16  C   UNL     1     -10.565  14.918  65.184  1.00  0.00    -0.428 C  
HETATM   17  C   UNL     1     -11.628  15.682  64.400  1.00  0.00    -0.249 C  
HETATM   18  O   UNL     1     -11.257  16.958  64.122  1.00  0.00    -1.176 OA 
HETATM   19  O   UNL     1     -12.672  15.191  64.003  1.00  0.00    -0.746 OA 
ENDBRANCH  15  16
BRANCH  15  20
HETATM   20  C   UNL     1     -10.642  16.244  67.217  1.00  0.00    -0.298 C  
HETATM   21  C   UNL     1     -10.216  17.561  67.867  1.00  0.00    -0.350 C  
HETATM   22  O   UNL     1      -9.571  18.394  67.014  1.00  0.00    -0.282 OA 
HETATM   23  O   UNL     1     -10.472  17.864  69.018  1.00  0.00    -0.306 OA 
ENDBRANCH  15  20
ENDBRANCH  14  15
ENDBRANCH   2  14
TORSDOF 8
ENDMDL
MODEL       47
REMARK 921   NORMALIZED FREE ENERGY PREDICTED BY IDOCK:   -5.06 KCAL/MOL
REMARK 922        TOTAL FREE ENERGY PREDICTED BY IDOCK:   -8.76 KCAL/MOL
REMARK 923 INTER-LIGAND FREE ENERGY PREDICTED BY IDOCK:   -7.61 KCAL/MOL
REMARK 924 INTRA-LIGAND FREE ENERGY PREDICTED BY IDOCK:   -1.14 KCAL/MOL
REMARK 927      BINDING AFFINITY PREDICTED BY RF-SCORE:    0.00 PKD
ROOT
HETATM    1  O   UNL     1     -11.820  10.389  67.658  1.00  0.00    -0.549 OA 
HETATM    2  C   UNL     1     -11.440  11.540  68.420  1.00  0.00    -0.298 C  
HETATM    3  H   UNL     1     -11.462   9.607  68.063  1.00  0.00     0.000 HD 
ENDROOT
BRANCH   2   4
HETATM    4  C   UNL     1     -11.960  11.350  69.868  1.00  0.00    -0.359 C  
BRANCH   4   5
HETATM    5  N   UNL     1     -11.792   9.975  70.468  1.00  0.00    -0.294 NA 
BRANCH   5   6
HETATM    6  C   UNL     1     -12.421   9.990  71.841  1.00  0.00    -0.319 C  
HETATM    7  O   UNL     1     -13.122   7.746  71.316  1.00  0.00    -0.291 OA 
HETATM    8  C   UNL     1     -13.422   8.853  72.035  1.00  0.00    -0.433 C  
HETATM    9  O   UNL     1     -14.385   8.918  72.782  1.00  0.00    -0.600 OA 
ENDBRANCH   5   6
BRANCH   5  10
HETATM   10  C   UNL     1     -10.321   9.704  70.640  1.00  0.00    -0.297 C  
HETATM   11  O   UNL     1     -10.658   7.960  69.023  1.00  0.00    -0.219 OA 
HETATM   12  O   UNL     1      -8.965   7.685  70.505  1.00  0.00    -0.148 OA 
HETATM   13  C   UNL     1      -9.906   8.342  70.081  1.00  0.00    -0.184 C  
ENDBRANCH   5  10
ENDBRANCH   4   5
ENDBRANCH   2   4
BRANCH   2  14
HETATM   14  C   UNL     1     -12.028  12.823  67.756  1.00  0.00    -0.260 C  
BRANCH  14  15
HETATM   15  N   UNL     1     -11.417  13.276  66.456  1.00  0.00    -0.323 NA 
BRANCH  15  16
HETATM   16  C   UNL     1     -12.487  13.205  65.390  1.00  0.00    -0.481 C  
HETATM   17  C   UNL     1     -11.916  13.217  63.975  1.00  0.00    -0.465 C  
HETATM   18  O   UNL     1     -10.681  12.656  63.904  1.00  0.00    -0.391 OA 
HETATM   19  O   UNL     1     -12.519  13.624  62.996  1.00  0.00    -0.719 OA 
ENDBRANCH  15  16
BRANCH  15  20
HETATM   20  C   UNL     1     -11.048  14.744  66.597  1.00  0.00    -0.333 C  
HETATM   21  C   UNL     1      -9.637  14.965  67.142  1.00  0.00    -0.225 C  
HETATM   22  O   UNL     1      -8.781  13.962  66.832  1.00  0.00    -0.219 OA 
HETATM   23  O   UNL     1      -9.293  15.963  67.750  1.00  0.00    -0.205 OA 
ENDBRANCH  15  20
ENDBRANCH  14  15
ENDBRANCH   2  14
TORSDOF 8
ENDMDL
MODEL       48
REMARK 921   NORMALIZED FREE ENERGY PREDICTED BY IDOCK:   -5.06 KCAL/MOL
REMARK 922        TOTAL FREE ENERGY PREDICTED BY IDOCK:   -8.75 KCAL/MOL
REMARK 923 INTER-LIGAND FREE ENERGY PREDICTED BY IDOCK:   -7.84 KCAL/MOL
REMARK 924 INTRA-LIGAND FREE ENERGY PREDICTED BY IDOCK:   -0.92 KCAL/MOL
REMARK 927      BINDING AFFINITY PREDICTED BY RF-SCORE:    0.00 PKD
ROOT
HETATM    1  O   UNL     1     -12.395  10.769  68.356  1.00  0.00    -0.813 OA 
HETATM    2  C   UNL     1     -10.977  10.916  68.499  1.00  0.00    -0.230 C  
HETATM    3  H   UNL     1     -12.782  11.612  68.150  1.00  0.00     0.000 HD 
ENDROOT
BRANCH   2   4
HETATM    4  C   UNL     1     -10.420  11.500  67.176  1.00  0.00    -0.224 C  
BRANCH   4   5
HETATM    5  N   UNL     1     -11.162  12.679  66.595  1.00  0.00    -0.285 NA 
BRANCH   5   6
HETATM    6  C   UNL     1     -11.001  12.633  65.094  1.00  0.00    -0.291 C  
HETATM    7  O   UNL     1     -13.170  13.679  65.038  1.00  0.00    -0.729 OA 
HETATM    8  C   UNL     1     -12.318  12.875  64.360  1.00  0.00    -0.398 C  
HETATM    9  O   UNL     1     -12.575  12.415  63.259  1.00  0.00    -0.661 OA 
ENDBRANCH   5   6
BRANCH   5  10
HETATM   10  C   UNL     1     -10.513  13.945  67.088  1.00  0.00    -0.269 C  
HETATM   11  O   UNL     1     -12.350  14.049  68.631  1.00  0.00    -0.271 OA 
HETATM   12  O   UNL     1     -11.383  16.012  68.038  1.00  0.00    -0.340 OA 
HETATM   13  C   UNL     1     -11.456  14.795  67.942  1.00  0.00    -0.342 C  
ENDBRANCH   5  10
ENDBRANCH   4   5
ENDBRANCH   2   4
BRANCH   2  14
HETATM   14  C   UNL     1     -10.341   9.533  68.836  1.00  0.00    -0.208 C  
BRANCH  14  15
HETATM   15  N   UNL     1     -10.933   8.754  69.983  1.00  0.00    -0.236 NA 
BRANCH  15  16
HETATM   16  C   UNL     1      -9.904   7.747  70.442  1.00  0.00    -0.183 C  
HETATM   17  C   UNL     1     -10.488   6.354  70.649  1.00  0.00    -0.219 C  
HETATM   18  O   UNL     1     -11.539   6.100  69.827  1.00  0.00    -0.405 OA 
HETATM   19  O   UNL     1     -10.030   5.525  71.418  1.00  0.00    -0.173 OA 
ENDBRANCH  15  16
BRANCH  15  20
HETATM   20  C   UNL     1     -11.144   9.714  71.143  1.00  0.00    -0.374 C  
HETATM   21  C   UNL     1     -12.593   9.770  71.628  1.00  0.00    -0.416 C  
HETATM   22  O   UNL     1     -13.268   8.613  71.427  1.00  0.00    -0.310 OA 
HETATM   23  O   UNL     1     -13.085  10.733  72.188  1.00  0.00    -0.460 OA 
ENDBRANCH  15  20
ENDBRANCH  14  15
ENDBRANCH   2  14
TORSDOF 8
ENDMDL
MODEL       49
REMARK 921   NORMALIZED FREE ENERGY PREDICTED BY IDOCK:   -5.05 KCAL/MOL
REMARK 922        TOTAL FREE ENERGY PREDICTED BY IDOCK:   -8.75 KCAL/MOL
REMARK 923 INTER-LIGAND FREE ENERGY PREDICTED BY IDOCK:   -7.12 KCAL/MOL
REMARK 924 INTRA-LIGAND FREE ENERGY PREDICTED BY IDOCK:   -1.63 KCAL/MOL
REMARK 927      BINDING AFFINITY PREDICTED BY RF-SCORE:    0.00 PKD
ROOT
HETATM    1  O   UNL     1     -12.203  10.637  67.977  1.00  0.00    -0.590 OA 
HETATM    2  C   UNL     1     -11.750  11.569  68.965  1.00  0.00    -0.335 C  
HETATM    3  H   UNL     1     -12.942  11.006  67.507  1.00  0.00     0.000 HD 
ENDROOT
BRANCH   2   4
HETATM    4  C   UNL     1     -11.374  12.888  68.243  1.00  0.00    -0.291 C  
BRANCH   4   5
HETATM    5  N   UNL     1     -11.243  12.819  66.740  1.00  0.00    -0.281 NA 
BRANCH   5   6
HETATM    6  C   UNL     1      -9.773  12.722  66.408  1.00  0.00    -0.261 C  
HETATM    7  O   UNL     1     -10.412  10.813  65.085  1.00  0.00    -0.285 OA 
HETATM    8  C   UNL     1      -9.403  11.374  65.793  1.00  0.00    -0.228 C  
HETATM    9  O   UNL     1      -8.302  10.858  65.902  1.00  0.00    -0.163 OA 
ENDBRANCH   5   6
BRANCH   5  10
HETATM   10  C   UNL     1     -11.763  14.106  66.155  1.00  0.00    -0.393 C  
HETATM   11  O   UNL     1     -13.171  12.694  64.816  1.00  0.00    -0.846 OA 
HETATM   12  O   UNL     1     -12.619  14.719  63.960  1.00  0.00    -0.822 OA 
HETATM   13  C   UNL     1     -12.536  13.888  64.854  1.00  0.00    -0.391 C  
ENDBRANCH   5  10
ENDBRANCH   4   5
ENDBRANCH   2   4
BRANCH   2  14
HETATM   14  C   UNL     1     -10.538  10.963  69.737  1.00  0.00    -0.074 C  
BRANCH  14  15
HETATM   15  N   UNL     1     -10.374   9.466  69.712  1.00  0.00    -0.209 NA 
BRANCH  15  16
HETATM   16  C   UNL     1      -9.130   9.148  68.914  1.00  0.00    -0.139 C  
HETATM   17  C   UNL     1      -9.400   8.211  67.741  1.00  0.00    -0.134 C  
HETATM   18  O   UNL     1     -10.654   8.350  67.239  1.00  0.00    -0.302 OA 
HETATM   19  O   UNL     1      -8.569   7.461  67.256  1.00  0.00    -0.117 OA 
ENDBRANCH  15  16
BRANCH  15  20
HETATM   20  C   UNL     1     -10.105   8.999  71.133  1.00  0.00    -0.295 C  
HETATM   21  C   UNL     1     -11.166   8.036  71.666  1.00  0.00    -0.255 C  
HETATM   22  O   UNL     1     -11.761   7.304  70.694  1.00  0.00    -0.303 OA 
HETATM   23  O   UNL     1     -11.423   7.896  72.849  1.00  0.00    -0.403 OA 
ENDBRANCH  15  20
ENDBRANCH  14  15
ENDBRANCH   2  14
TORSDOF 8
ENDMDL
MODEL       50
REMARK 921   NORMALIZED FREE ENERGY PREDICTED BY IDOCK:   -5.04 KCAL/MOL
REMARK 922        TOTAL FREE ENERGY PREDICTED BY IDOCK:   -8.73 KCAL/MOL
REMARK 923 INTER-LIGAND FREE ENERGY PREDICTED BY IDOCK:   -7.67 KCAL/MOL
REMARK 924 INTRA-LIGAND FREE ENERGY PREDICTED BY IDOCK:   -1.06 KCAL/MOL
REMARK 927      BINDING AFFINITY PREDICTED BY RF-SCORE:    0.00 PKD
ROOT
HETATM    1  O   UNL     1      -9.539  14.260  68.738  1.00  0.00    -0.261 OA 
HETATM    2  C   UNL     1     -10.024  13.609  67.559  1.00  0.00    -0.230 C  
HETATM    3  H   UNL     1      -9.658  13.689  69.488  1.00  0.00     0.000 HD 
ENDROOT
BRANCH   2   4
HETATM    4  C   UNL     1      -9.253  12.275  67.396  1.00  0.00    -0.182 C  
BRANCH   4   5
HETATM    5  N   UNL     1      -9.927  11.204  66.573  1.00  0.00    -0.207 NA 
BRANCH   5   6
HETATM    6  C   UNL     1     -10.077   9.979  67.443  1.00  0.00    -0.208 C  
HETATM    7  O   UNL     1     -12.119  11.015  68.190  1.00  0.00    -0.610 OA 
HETATM    8  C   UNL     1     -11.123  10.168  68.539  1.00  0.00    -0.214 C  
HETATM    9  O   UNL     1     -11.086   9.596  69.618  1.00  0.00    -0.236 OA 
ENDBRANCH   5   6
BRANCH   5  10
HETATM   10  C   UNL     1      -9.024  10.844  65.423  1.00  0.00    -0.193 C  
HETATM   11  O   UNL     1     -10.973  11.161  64.055  1.00  0.00    -0.364 OA 
HETATM   12  O   UNL     1      -9.394   9.723  63.293  1.00  0.00    -0.259 OA 
HETATM   13  C   UNL     1      -9.802  10.489  64.155  1.00  0.00    -0.337 C  
ENDBRANCH   5  10
ENDBRANCH   4   5
ENDBRANCH   2   4
BRANCH   2  14
HETATM   14  C   UNL     1      -9.829  14.547  66.328  1.00  0.00    -0.304 C  
BRANCH  14  15
HETATM   15  N   UNL     1     -10.849  15.634  66.111  1.00  0.00    -0.298 NA 
BRANCH  15  16
HETATM   16  C   UNL     1     -10.161  16.965  66.311  1.00  0.00    -0.329 C  
HETATM   17  C   UNL     1     -10.636  17.696  67.562  1.00  0.00    -0.343 C  
HETATM   18  O   UNL     1     -11.030  16.848  68.547  1.00  0.00    -0.350 OA 
HETATM   19  O   UNL     1     -10.609  18.908  67.701  1.00  0.00    -0.420 OA 
ENDBRANCH  15  16
BRANCH  15  20
HETATM   20  C   UNL     1     -11.282  15.588  64.654  1.00  0.00    -0.371 C  
HETATM   21  C   UNL     1     -12.311  14.496  64.362  1.00  0.00    -0.413 C  
HETATM   22  O   UNL     1     -13.093  14.199  65.428  1.00  0.00    -0.743 OA 
HETATM   23  O   UNL     1     -12.457  13.976  63.270  1.00  0.00    -0.795 OA 
ENDBRANCH  15  20
ENDBRANCH  14  15
ENDBRANCH   2  14
TORSDOF 8
ENDMDL
MODEL       51
REMARK 921   NORMALIZED FREE ENERGY PREDICTED BY IDOCK:   -5.03 KCAL/MOL
REMARK 922        TOTAL FREE ENERGY PREDICTED BY IDOCK:   -8.72 KCAL/MOL
REMARK 923 INTER-LIGAND FREE ENERGY PREDICTED BY IDOCK:   -7.40 KCAL/MOL
REMARK 924 INTRA-LIGAND FREE ENERGY PREDICTED BY IDOCK:   -1.32 KCAL/MOL
REMARK 927      BINDING AFFINITY PREDICTED BY RF-SCORE:    0.00 PKD
ROOT
HETATM    1  O   UNL     1     -11.795  16.792  69.189  1.00  0.00    -0.009 OA 
HETATM    2  C   UNL     1     -10.539  16.250  69.613  1.00  0.00    -0.320 C  
HETATM    3  H   UNL     1     -11.652  17.624  68.754  1.00  0.00     0.000 HD 
ENDROOT
BRANCH   2   4
HETATM    4  C   UNL     1      -9.635  16.100  68.363  1.00  0.00    -0.209 C  
BRANCH   4   5
HETATM    5  N   UNL     1      -8.942  17.350  67.878  1.00  0.00    -0.246 NA 
BRANCH   5   6
HETATM    6  C   UNL     1      -9.099  17.414  66.378  1.00  0.00    -0.248 C  
HETATM    7  O   UNL     1     -10.876  18.973  66.838  1.00  0.00    -0.419 OA 
HETATM    8  C   UNL     1     -10.421  18.052  65.957  1.00  0.00    -0.313 C  
HETATM    9  O   UNL     1     -11.004  17.784  64.919  1.00  0.00    -0.866 OA 
ENDBRANCH   5   6
BRANCH   5  10
HETATM   10  C   UNL     1      -7.472  17.232  68.182  1.00  0.00    -0.208 C  
HETATM   11  O   UNL     1      -7.623  19.541  68.825  1.00  0.00    -0.344 OA 
HETATM   12  O   UNL     1      -5.612  18.800  68.086  1.00  0.00    -0.182 OA 
HETATM   13  C   UNL     1      -6.792  18.593  68.332  1.00  0.00    -0.249 C  
ENDBRANCH   5  10
ENDBRANCH   4   5
ENDBRANCH   2   4
BRANCH   2  14
HETATM   14  C   UNL     1     -10.774  14.885  70.328  1.00  0.00    -0.048 C  
BRANCH  14  15
HETATM   15  N   UNL     1     -11.916  14.031  69.842  1.00  0.00    -0.317 NA 
BRANCH  15  16
HETATM   16  C   UNL     1     -11.332  12.834  69.127  1.00  0.00    -0.281 C  
HETATM   17  C   UNL     1     -11.874  12.665  67.712  1.00  0.00    -0.323 C  
HETATM   18  O   UNL     1     -12.216  13.848  67.138  1.00  0.00    -0.406 OA 
HETATM   19  O   UNL     1     -11.939  11.598  67.125  1.00  0.00    -0.614 OA 
ENDBRANCH  15  16
BRANCH  15  20
HETATM   20  C   UNL     1     -12.649  13.490  71.059  1.00  0.00    -0.359 C  
HETATM   21  C   UNL     1     -13.496  14.542  71.774  1.00  0.00    -0.375 C  
HETATM   22  O   UNL     1     -13.950  15.515  70.948  1.00  0.00    -0.489 OA 
HETATM   23  O   UNL     1     -13.785  14.492  72.957  1.00  0.00    -0.573 OA 
ENDBRANCH  15  20
ENDBRANCH  14  15
ENDBRANCH   2  14
TORSDOF 8
ENDMDL
MODEL       52
REMARK 921   NORMALIZED FREE ENERGY PREDICTED BY IDOCK:   -5.03 KCAL/MOL
REMARK 922        TOTAL FREE ENERGY PREDICTED BY IDOCK:   -8.72 KCAL/MOL
REMARK 923 INTER-LIGAND FREE ENERGY PREDICTED BY IDOCK:   -8.04 KCAL/MOL
REMARK 924 INTRA-LIGAND FREE ENERGY PREDICTED BY IDOCK:   -0.68 KCAL/MOL
REMARK 927      BINDING AFFINITY PREDICTED BY RF-SCORE:    0.00 PKD
ROOT
HETATM    1  O   UNL     1      -9.980  16.811  69.430  1.00  0.00    -0.228 OA 
HETATM    2  C   UNL     1     -10.601  16.139  68.328  1.00  0.00    -0.288 C  
HETATM    3  H   UNL     1      -9.109  17.094  69.180  1.00  0.00     0.000 HD 
ENDROOT
BRANCH   2   4
HETATM    4  C   UNL     1     -10.635  17.117  67.127  1.00  0.00    -0.244 C  
BRANCH   4   5
HETATM    5  N   UNL     1      -9.759  16.767  65.948  1.00  0.00    -0.514 NA 
BRANCH   5   6
HETATM    6  C   UNL     1     -10.192  15.414  65.437  1.00  0.00    -0.377 C  
HETATM    7  O   UNL     1     -11.549  16.664  63.889  1.00  0.00    -1.204 OA 
HETATM    8  C   UNL     1     -11.441  15.494  64.562  1.00  0.00    -0.308 C  
HETATM    9  O   UNL     1     -12.252  14.589  64.452  1.00  0.00    -0.480 OA 
ENDBRANCH   5   6
BRANCH   5  10
HETATM   10  C   UNL     1      -8.337  16.643  66.428  1.00  0.00    -0.318 C  
HETATM   11  O   UNL     1      -8.149  18.965  65.840  1.00  0.00    -0.468 OA 
HETATM   12  O   UNL     1      -6.253  17.723  65.779  1.00  0.00    -0.216 OA 
HETATM   13  C   UNL     1      -7.459  17.808  65.966  1.00  0.00    -0.249 C  
ENDBRANCH   5  10
ENDBRANCH   4   5
ENDBRANCH   2   4
BRANCH   2  14
HETATM   14  C   UNL     1     -12.032  15.675  68.740  1.00  0.00    -0.229 C  
BRANCH  14  15
HETATM   15  N   UNL     1     -12.160  14.342  69.431  1.00  0.00    -0.311 NA 
BRANCH  15  16
HETATM   16  C   UNL     1     -11.005  13.474  68.988  1.00  0.00    -0.225 C  
HETATM   17  C   UNL     1     -11.395  12.475  67.903  1.00  0.00    -0.291 C  
HETATM   18  O   UNL     1     -12.401  12.929  67.111  1.00  0.00    -0.339 OA 
HETATM   19  O   UNL     1     -10.831  11.410  67.716  1.00  0.00    -0.204 OA 
ENDBRANCH  15  16
BRANCH  15  20
HETATM   20  C   UNL     1     -11.981  14.568  70.924  1.00  0.00    -0.325 C  
HETATM   21  C   UNL     1     -13.178  15.255  71.581  1.00  0.00    -0.446 C  
HETATM   22  O   UNL     1     -14.352  14.995  70.957  1.00  0.00    -0.323 OA 
HETATM   23  O   UNL     1     -13.103  15.927  72.595  1.00  0.00    -0.457 OA 
ENDBRANCH  15  20
ENDBRANCH  14  15
ENDBRANCH   2  14
TORSDOF 8
ENDMDL
MODEL       53
REMARK 921   NORMALIZED FREE ENERGY PREDICTED BY IDOCK:   -5.02 KCAL/MOL
REMARK 922        TOTAL FREE ENERGY PREDICTED BY IDOCK:   -8.70 KCAL/MOL
REMARK 923 INTER-LIGAND FREE ENERGY PREDICTED BY IDOCK:   -7.60 KCAL/MOL
REMARK 924 INTRA-LIGAND FREE ENERGY PREDICTED BY IDOCK:   -1.10 KCAL/MOL
REMARK 927      BINDING AFFINITY PREDICTED BY RF-SCORE:    0.00 PKD
ROOT
HETATM    1  O   UNL     1     -10.103  13.877  64.354  1.00  0.00    -0.711 OA 
HETATM    2  C   UNL     1     -10.435  14.617  65.535  1.00  0.00    -0.356 C  
HETATM    3  H   UNL     1      -9.986  12.961  64.576  1.00  0.00     0.000 HD 
ENDROOT
BRANCH   2   4
HETATM    4  C   UNL     1     -11.721  14.001  66.141  1.00  0.00    -0.384 C  
BRANCH   4   5
HETATM    5  N   UNL     1     -11.565  13.273  67.454  1.00  0.00    -0.331 NA 
BRANCH   5   6
HETATM    6  C   UNL     1     -10.708  14.127  68.358  1.00  0.00    -0.256 C  
HETATM    7  O   UNL     1     -12.629  14.152  69.810  1.00  0.00    -0.294 OA 
HETATM    8  C   UNL     1     -11.525  14.839  69.433  1.00  0.00    -0.301 C  
HETATM    9  O   UNL     1     -11.209  15.909  69.928  1.00  0.00    -0.294 OA 
ENDBRANCH   5   6
BRANCH   5  10
HETATM   10  C   UNL     1     -10.827  11.985  67.203  1.00  0.00    -0.253 C  
HETATM   11  O   UNL     1     -12.461  10.997  68.660  1.00  0.00    -0.462 OA 
HETATM   12  O   UNL     1     -10.432   9.993  68.547  1.00  0.00    -0.184 OA 
HETATM   13  C   UNL     1     -11.188  10.895  68.213  1.00  0.00    -0.286 C  
ENDBRANCH   5  10
ENDBRANCH   4   5
ENDBRANCH   2   4
BRANCH   2  14
HETATM   14  C   UNL     1     -10.625  16.121  65.171  1.00  0.00    -0.343 C  
BRANCH  14  15
HETATM   15  N   UNL     1      -9.730  17.122  65.854  1.00  0.00    -0.529 NA 
BRANCH  15  16
HETATM   16  C   UNL     1     -10.498  17.722  67.010  1.00  0.00    -0.322 C  
HETATM   17  C   UNL     1     -10.524  19.246  66.977  1.00  0.00    -0.456 C  
HETATM   18  O   UNL     1     -10.467  19.744  65.715  1.00  0.00    -0.511 OA 
HETATM   19  O   UNL     1     -10.647  19.951  67.965  1.00  0.00    -0.397 OA 
ENDBRANCH  15  16
BRANCH  15  20
HETATM   20  C   UNL     1      -8.558  16.367  66.461  1.00  0.00    -0.294 C  
HETATM   21  C   UNL     1      -7.228  17.110  66.335  1.00  0.00    -0.290 C  
HETATM   22  O   UNL     1      -7.368  18.457  66.305  1.00  0.00    -0.229 OA 
HETATM   23  O   UNL     1      -6.142  16.558  66.317  1.00  0.00    -0.124 OA 
ENDBRANCH  15  20
ENDBRANCH  14  15
ENDBRANCH   2  14
TORSDOF 8
ENDMDL
MODEL       54
REMARK 921   NORMALIZED FREE ENERGY PREDICTED BY IDOCK:   -5.01 KCAL/MOL
REMARK 922        TOTAL FREE ENERGY PREDICTED BY IDOCK:   -8.68 KCAL/MOL
REMARK 923 INTER-LIGAND FREE ENERGY PREDICTED BY IDOCK:   -7.54 KCAL/MOL
REMARK 924 INTRA-LIGAND FREE ENERGY PREDICTED BY IDOCK:   -1.14 KCAL/MOL
REMARK 927      BINDING AFFINITY PREDICTED BY RF-SCORE:    0.00 PKD
ROOT
HETATM    1  O   UNL     1     -11.533   9.851  67.596  1.00  0.00    -0.520 OA 
HETATM    2  C   UNL     1     -11.542  11.073  68.342  1.00  0.00    -0.302 C  
HETATM    3  H   UNL     1     -11.760  10.029  66.691  1.00  0.00     0.000 HD 
ENDROOT
BRANCH   2   4
HETATM    4  C   UNL     1     -10.538  12.049  67.676  1.00  0.00    -0.210 C  
BRANCH   4   5
HETATM    5  N   UNL     1     -11.114  13.324  67.109  1.00  0.00    -0.279 NA 
BRANCH   5   6
HETATM    6  C   UNL     1     -12.007  13.936  68.161  1.00  0.00    -0.350 C  
HETATM    7  O   UNL     1     -10.904  16.002  67.598  1.00  0.00    -0.319 OA 
HETATM    8  C   UNL     1     -11.540  15.327  68.584  1.00  0.00    -0.354 C  
HETATM    9  O   UNL     1     -11.737  15.802  69.691  1.00  0.00    -0.334 OA 
ENDBRANCH   5   6
BRANCH   5  10
HETATM   10  C   UNL     1     -11.973  12.975  65.923  1.00  0.00    -0.435 C  
HETATM   11  O   UNL     1     -10.571  14.504  64.711  1.00  0.00    -0.425 OA 
HETATM   12  O   UNL     1     -12.688  14.215  63.952  1.00  0.00    -0.715 OA 
HETATM   13  C   UNL     1     -11.812  13.967  64.770  1.00  0.00    -0.403 C  
ENDBRANCH   5  10
ENDBRANCH   4   5
ENDBRANCH   2   4
BRANCH   2  14
HETATM   14  C   UNL     1     -11.170  10.781  69.827  1.00  0.00    -0.297 C  
BRANCH  14  15
HETATM   15  N   UNL     1     -11.518   9.423  70.379  1.00  0.00    -0.248 NA 
BRANCH  15  16
HETATM   16  C   UNL     1     -10.231   8.657  70.578  1.00  0.00    -0.197 C  
HETATM   17  C   UNL     1     -10.184   7.358  69.779  1.00  0.00    -0.209 C  
HETATM   18  O   UNL     1     -10.901   7.426  68.628  1.00  0.00    -0.150 OA 
HETATM   19  O   UNL     1      -9.526   6.381  70.096  1.00  0.00    -0.159 OA 
ENDBRANCH  15  16
BRANCH  15  20
HETATM   20  C   UNL     1     -12.121   9.619  71.762  1.00  0.00    -0.369 C  
HETATM   21  C   UNL     1     -13.406   8.820  71.981  1.00  0.00    -0.413 C  
HETATM   22  O   UNL     1     -13.458   7.680  71.251  1.00  0.00    -0.304 OA 
HETATM   23  O   UNL     1     -14.277   9.140  72.770  1.00  0.00    -0.552 OA 
ENDBRANCH  15  20
ENDBRANCH  14  15
ENDBRANCH   2  14
TORSDOF 8
ENDMDL
MODEL       55
REMARK 921   NORMALIZED FREE ENERGY PREDICTED BY IDOCK:   -4.99 KCAL/MOL
REMARK 922        TOTAL FREE ENERGY PREDICTED BY IDOCK:   -8.66 KCAL/MOL
REMARK 923 INTER-LIGAND FREE ENERGY PREDICTED BY IDOCK:   -7.46 KCAL/MOL
REMARK 924 INTRA-LIGAND FREE ENERGY PREDICTED BY IDOCK:   -1.21 KCAL/MOL
REMARK 927      BINDING AFFINITY PREDICTED BY RF-SCORE:    0.00 PKD
ROOT
HETATM    1  O   UNL     1     -10.307  11.356  69.562  1.00  0.00    -0.441 OA 
HETATM    2  C   UNL     1     -11.462  10.979  68.804  1.00  0.00    -0.305 C  
HETATM    3  H   UNL     1      -9.614  11.627  68.971  1.00  0.00     0.000 HD 
ENDROOT
BRANCH   2   4
HETATM    4  C   UNL     1     -11.884  12.191  67.937  1.00  0.00    -0.269 C  
BRANCH   4   5
HETATM    5  N   UNL     1     -11.520  12.132  66.473  1.00  0.00    -0.380 NA 
BRANCH   5   6
HETATM    6  C   UNL     1     -10.015  12.187  66.368  1.00  0.00    -0.225 C  
HETATM    7  O   UNL     1     -10.252  10.275  64.924  1.00  0.00    -0.327 OA 
HETATM    8  C   UNL     1      -9.423  10.904  65.789  1.00  0.00    -0.211 C  
HETATM    9  O   UNL     1      -8.305  10.493  66.055  1.00  0.00    -0.146 OA 
ENDBRANCH   5   6
BRANCH   5  10
HETATM   10  C   UNL     1     -12.074  13.355  65.792  1.00  0.00    -0.436 C  
HETATM   11  O   UNL     1     -13.046  11.803  64.238  1.00  0.00    -0.449 OA 
HETATM   12  O   UNL     1     -12.592  13.887  63.472  1.00  0.00    -0.842 OA 
HETATM   13  C   UNL     1     -12.572  13.062  64.375  1.00  0.00    -0.285 C  
ENDBRANCH   5  10
ENDBRANCH   4   5
ENDBRANCH   2   4
BRANCH   2  14
HETATM   14  C   UNL     1     -12.599  10.534  69.774  1.00  0.00     0.029 C  
BRANCH  14  15
HETATM   15  N   UNL     1     -12.369  10.721  71.251  1.00  0.00    -0.370 NA 
BRANCH  15  16
HETATM   16  C   UNL     1     -13.521  11.528  71.804  1.00  0.00    -0.103 C  
HETATM   17  C   UNL     1     -13.179  13.004  71.983  1.00  0.00    -0.444 C  
HETATM   18  O   UNL     1     -12.258  13.441  71.085  1.00  0.00    -0.315 OA 
HETATM   19  O   UNL     1     -13.714  13.738  72.797  1.00  0.00    -0.699 OA 
ENDBRANCH  15  16
BRANCH  15  20
HETATM   20  C   UNL     1     -12.443   9.355  71.915  1.00  0.00    -0.390 C  
HETATM   21  C   UNL     1     -11.153   8.545  71.782  1.00  0.00    -0.307 C  
HETATM   22  O   UNL     1     -10.044   9.318  71.688  1.00  0.00    -0.311 OA 
HETATM   23  O   UNL     1     -11.110   7.328  71.810  1.00  0.00    -0.230 OA 
ENDBRANCH  15  20
ENDBRANCH  14  15
ENDBRANCH   2  14
TORSDOF 8
ENDMDL
MODEL       56
REMARK 921   NORMALIZED FREE ENERGY PREDICTED BY IDOCK:   -4.99 KCAL/MOL
REMARK 922        TOTAL FREE ENERGY PREDICTED BY IDOCK:   -8.66 KCAL/MOL
REMARK 923 INTER-LIGAND FREE ENERGY PREDICTED BY IDOCK:   -7.54 KCAL/MOL
REMARK 924 INTRA-LIGAND FREE ENERGY PREDICTED BY IDOCK:   -1.12 KCAL/MOL
REMARK 927      BINDING AFFINITY PREDICTED BY RF-SCORE:    0.00 PKD
ROOT
HETATM    1  O   UNL     1     -11.642  16.282  63.770  1.00  0.00    -1.539 OA 
HETATM    2  C   UNL     1     -11.244  16.377  65.142  1.00  0.00    -0.067 C  
HETATM    3  H   UNL     1     -12.325  16.918  63.592  1.00  0.00     0.000 HD 
ENDROOT
BRANCH   2   4
HETATM    4  C   UNL     1     -10.764  17.827  65.403  1.00  0.00     0.086 C  
BRANCH   4   5
HETATM    5  N   UNL     1      -9.791  18.020  66.542  1.00  0.00    -0.336 NA 
BRANCH   5   6
HETATM    6  C   UNL     1     -10.586  18.073  67.825  1.00  0.00    -0.394 C  
HETATM    7  O   UNL     1      -8.675  16.987  68.809  1.00  0.00    -0.263 OA 
HETATM    8  C   UNL     1     -10.016  17.153  68.902  1.00  0.00    -0.304 C  
HETATM    9  O   UNL     1     -10.689  16.635  69.778  1.00  0.00    -0.328 OA 
ENDBRANCH   5   6
BRANCH   5  10
HETATM   10  C   UNL     1      -9.109  19.350  66.368  1.00  0.00    -0.360 C  
HETATM   11  O   UNL     1      -7.300  18.075  65.436  1.00  0.00    -0.495 OA 
HETATM   12  O   UNL     1      -6.777  20.053  66.413  1.00  0.00    -0.200 OA 
HETATM   13  C   UNL     1      -7.609  19.210  66.104  1.00  0.00    -0.280 C  
ENDBRANCH   5  10
ENDBRANCH   4   5
ENDBRANCH   2   4
BRANCH   2  14
HETATM   14  C   UNL     1     -10.124  15.332  65.435  1.00  0.00    -0.362 C  
BRANCH  14  15
HETATM   15  N   UNL     1     -10.540  14.012  66.029  1.00  0.00    -0.291 NA 
BRANCH  15  16
HETATM   16  C   UNL     1     -11.413  14.296  67.229  1.00  0.00    -0.352 C  
HETATM   17  C   UNL     1     -11.111  13.382  68.412  1.00  0.00    -0.273 C  
HETATM   18  O   UNL     1      -9.813  12.984  68.448  1.00  0.00    -0.228 OA 
HETATM   19  O   UNL     1     -11.921  13.086  69.276  1.00  0.00    -0.307 OA 
ENDBRANCH  15  16
BRANCH  15  20
HETATM   20  C   UNL     1     -11.421  13.298  65.016  1.00  0.00    -0.305 C  
HETATM   21  C   UNL     1     -10.878  11.931  64.599  1.00  0.00    -0.311 C  
HETATM   22  O   UNL     1     -10.139  11.332  65.563  1.00  0.00    -0.234 OA 
HETATM   23  O   UNL     1     -11.124  11.400  63.530  1.00  0.00    -0.399 OA 
ENDBRANCH  15  20
ENDBRANCH  14  15
ENDBRANCH   2  14
TORSDOF 8
ENDMDL
MODEL       57
REMARK 921   NORMALIZED FREE ENERGY PREDICTED BY IDOCK:   -4.98 KCAL/MOL
REMARK 922        TOTAL FREE ENERGY PREDICTED BY IDOCK:   -8.65 KCAL/MOL
REMARK 923 INTER-LIGAND FREE ENERGY PREDICTED BY IDOCK:   -7.51 KCAL/MOL
REMARK 924 INTRA-LIGAND FREE ENERGY PREDICTED BY IDOCK:   -1.14 KCAL/MOL
REMARK 927      BINDING AFFINITY PREDICTED BY RF-SCORE:    0.00 PKD
ROOT
HETATM    1  O   UNL     1      -9.929  14.003  64.938  1.00  0.00    -0.590 OA 
HETATM    2  C   UNL     1     -10.239  14.915  65.998  1.00  0.00    -0.301 C  
HETATM    3  H   UNL     1      -9.756  13.142  65.300  1.00  0.00     0.000 HD 
ENDROOT
BRANCH   2   4
HETATM    4  C   UNL     1     -11.461  14.356  66.770  1.00  0.00    -0.370 C  
BRANCH   4   5
HETATM    5  N   UNL     1     -11.266  14.099  68.244  1.00  0.00    -0.260 NA 
BRANCH   5   6
HETATM    6  C   UNL     1     -12.016  12.837  68.597  1.00  0.00    -0.233 C  
HETATM    7  O   UNL     1      -9.858  11.773  68.491  1.00  0.00    -0.203 OA 
HETATM    8  C   UNL     1     -11.190  11.578  68.344  1.00  0.00    -0.255 C  
HETATM    9  O   UNL     1     -11.675  10.494  68.062  1.00  0.00    -0.450 OA 
ENDBRANCH   5   6
BRANCH   5  10
HETATM   10  C   UNL     1     -11.888  15.234  69.014  1.00  0.00    -0.318 C  
HETATM   11  O   UNL     1      -9.695  15.537  69.947  1.00  0.00    -0.290 OA 
HETATM   12  O   UNL     1     -11.458  16.201  71.208  1.00  0.00    -0.418 OA 
HETATM   13  C   UNL     1     -11.017  15.695  70.185  1.00  0.00    -0.339 C  
ENDBRANCH   5  10
ENDBRANCH   4   5
ENDBRANCH   2   4
BRANCH   2  14
HETATM   14  C   UNL     1     -10.524  16.328  65.403  1.00  0.00    -0.343 C  
BRANCH  14  15
HETATM   15  N   UNL     1      -9.773  17.495  65.990  1.00  0.00    -0.516 NA 
BRANCH  15  16
HETATM   16  C   UNL     1     -10.732  18.279  66.855  1.00  0.00    -0.242 C  
HETATM   17  C   UNL     1     -10.223  19.678  67.189  1.00  0.00    -0.435 C  
HETATM   18  O   UNL     1      -9.426  20.191  66.217  1.00  0.00    -0.381 OA 
HETATM   19  O   UNL     1     -10.541  20.303  68.187  1.00  0.00    -0.253 OA 
ENDBRANCH  15  16
BRANCH  15  20
HETATM   20  C   UNL     1      -8.704  16.946  66.921  1.00  0.00    -0.223 C  
HETATM   21  C   UNL     1      -7.293  17.027  66.339  1.00  0.00    -0.293 C  
HETATM   22  O   UNL     1      -7.131  18.054  65.470  1.00  0.00    -0.515 OA 
HETATM   23  O   UNL     1      -6.383  16.281  66.657  1.00  0.00    -0.281 OA 
ENDBRANCH  15  20
ENDBRANCH  14  15
ENDBRANCH   2  14
TORSDOF 8
ENDMDL
MODEL       58
REMARK 921   NORMALIZED FREE ENERGY PREDICTED BY IDOCK:   -4.98 KCAL/MOL
REMARK 922        TOTAL FREE ENERGY PREDICTED BY IDOCK:   -8.64 KCAL/MOL
REMARK 923 INTER-LIGAND FREE ENERGY PREDICTED BY IDOCK:   -7.46 KCAL/MOL
REMARK 924 INTRA-LIGAND FREE ENERGY PREDICTED BY IDOCK:   -1.18 KCAL/MOL
REMARK 927      BINDING AFFINITY PREDICTED BY RF-SCORE:    0.00 PKD
ROOT
HETATM    1  O   UNL     1     -11.837  10.187  67.835  1.00  0.00    -0.567 OA 
HETATM    2  C   UNL     1     -11.849  11.108  68.932  1.00  0.00    -0.337 C  
HETATM    3  H   UNL     1     -12.476  10.458  67.186  1.00  0.00     0.000 HD 
ENDROOT
BRANCH   2   4
HETATM    4  C   UNL     1     -11.542  12.521  68.375  1.00  0.00    -0.322 C  
BRANCH   4   5
HETATM    5  N   UNL     1     -11.305  12.622  66.887  1.00  0.00    -0.301 NA 
BRANCH   5   6
HETATM    6  C   UNL     1      -9.823  12.810  66.666  1.00  0.00    -0.250 C  
HETATM    7  O   UNL     1      -9.986  10.829  65.306  1.00  0.00    -0.246 OA 
HETATM    8  C   UNL     1      -9.158  11.564  66.086  1.00  0.00    -0.209 C  
HETATM    9  O   UNL     1      -7.990  11.266  66.278  1.00  0.00    -0.155 OA 
ENDBRANCH   5   6
BRANCH   5  10
HETATM   10  C   UNL     1     -12.006  13.851  66.373  1.00  0.00    -0.438 C  
HETATM   11  O   UNL     1     -12.934  12.382  64.714  1.00  0.00    -0.786 OA 
HETATM   12  O   UNL     1     -12.714  14.568  64.156  1.00  0.00    -0.711 OA 
HETATM   13  C   UNL     1     -12.565  13.660  64.961  1.00  0.00    -0.390 C  
ENDBRANCH   5  10
ENDBRANCH   4   5
ENDBRANCH   2   4
BRANCH   2  14
HETATM   14  C   UNL     1     -10.801  10.664  69.998  1.00  0.00    -0.217 C  
BRANCH  14  15
HETATM   15  N   UNL     1     -11.053   9.369  70.725  1.00  0.00    -0.274 NA 
BRANCH  15  16
HETATM   16  C   UNL     1      -9.817   9.039  71.530  1.00  0.00    -0.310 C  
HETATM   17  C   UNL     1      -9.206   7.693  71.155  1.00  0.00    -0.147 C  
HETATM   18  O   UNL     1      -9.420   7.365  69.855  1.00  0.00    -0.155 OA 
HETATM   19  O   UNL     1      -8.540   7.007  71.913  1.00  0.00    -0.120 OA 
ENDBRANCH  15  16
BRANCH  15  20
HETATM   20  C   UNL     1     -12.170   9.604  71.729  1.00  0.00    -0.384 C  
HETATM   21  C   UNL     1     -13.247   8.519  71.703  1.00  0.00    -0.343 C  
HETATM   22  O   UNL     1     -12.777   7.309  71.313  1.00  0.00    -0.362 OA 
HETATM   23  O   UNL     1     -14.401   8.699  72.047  1.00  0.00    -0.434 OA 
ENDBRANCH  15  20
ENDBRANCH  14  15
ENDBRANCH   2  14
TORSDOF 8
ENDMDL
MODEL       59
REMARK 921   NORMALIZED FREE ENERGY PREDICTED BY IDOCK:   -4.96 KCAL/MOL
REMARK 922        TOTAL FREE ENERGY PREDICTED BY IDOCK:   -8.62 KCAL/MOL
REMARK 923 INTER-LIGAND FREE ENERGY PREDICTED BY IDOCK:   -7.39 KCAL/MOL
REMARK 924 INTRA-LIGAND FREE ENERGY PREDICTED BY IDOCK:   -1.23 KCAL/MOL
REMARK 927      BINDING AFFINITY PREDICTED BY RF-SCORE:    0.00 PKD
ROOT
HETATM    1  O   UNL     1      -8.734  13.862  66.402  1.00  0.00    -0.451 OA 
HETATM    2  C   UNL     1      -9.757  14.295  67.306  1.00  0.00    -0.234 C  
HETATM    3  H   UNL     1      -8.502  12.961  66.593  1.00  0.00     0.000 HD 
ENDROOT
BRANCH   2   4
HETATM    4  C   UNL     1     -10.968  13.341  67.153  1.00  0.00    -0.272 C  
BRANCH   4   5
HETATM    5  N   UNL     1     -10.921  12.372  65.995  1.00  0.00    -0.278 NA 
BRANCH   5   6
HETATM    6  C   UNL     1     -12.203  12.525  65.212  1.00  0.00    -0.433 C  
HETATM    7  O   UNL     1     -10.781  12.451  63.270  1.00  0.00    -0.416 OA 
HETATM    8  C   UNL     1     -11.954  12.918  63.758  1.00  0.00    -0.512 C  
HETATM    9  O   UNL     1     -12.740  13.567  63.087  1.00  0.00    -0.718 OA 
ENDBRANCH   5   6
BRANCH   5  10
HETATM   10  C   UNL     1     -10.881  10.971  66.545  1.00  0.00    -0.209 C  
HETATM   11  O   UNL     1      -8.648  10.903  65.663  1.00  0.00    -0.178 OA 
HETATM   12  O   UNL     1      -9.751   8.931  65.844  1.00  0.00    -0.255 OA 
HETATM   13  C   UNL     1      -9.728  10.148  65.969  1.00  0.00    -0.226 C  
ENDBRANCH   5  10
ENDBRANCH   4   5
ENDBRANCH   2   4
BRANCH   2  14
HETATM   14  C   UNL     1     -10.138  15.774  66.992  1.00  0.00    -0.261 C  
BRANCH  14  15
HETATM   15  N   UNL     1     -10.280  16.719  68.157  1.00  0.00    -0.286 NA 
BRANCH  15  16
HETATM   16  C   UNL     1      -9.914  15.966  69.415  1.00  0.00    -0.274 C  
HETATM   17  C   UNL     1     -11.113  15.705  70.320  1.00  0.00    -0.347 C  
HETATM   18  O   UNL     1     -12.275  15.582  69.627  1.00  0.00    -0.343 OA 
HETATM   19  O   UNL     1     -11.042  15.556  71.529  1.00  0.00    -0.359 OA 
ENDBRANCH  15  16
BRANCH  15  20
HETATM   20  C   UNL     1      -9.242  17.820  67.997  1.00  0.00    -0.273 C  
HETATM   21  C   UNL     1      -9.753  19.024  67.205  1.00  0.00    -0.314 C  
HETATM   22  O   UNL     1     -11.090  19.210  67.318  1.00  0.00    -0.417 OA 
HETATM   23  O   UNL     1      -9.032  19.778  66.576  1.00  0.00    -0.337 OA 
ENDBRANCH  15  20
ENDBRANCH  14  15
ENDBRANCH   2  14
TORSDOF 8
ENDMDL
MODEL       60
REMARK 921   NORMALIZED FREE ENERGY PREDICTED BY IDOCK:   -4.96 KCAL/MOL
REMARK 922        TOTAL FREE ENERGY PREDICTED BY IDOCK:   -8.62 KCAL/MOL
REMARK 923 INTER-LIGAND FREE ENERGY PREDICTED BY IDOCK:   -7.02 KCAL/MOL
REMARK 924 INTRA-LIGAND FREE ENERGY PREDICTED BY IDOCK:   -1.59 KCAL/MOL
REMARK 927      BINDING AFFINITY PREDICTED BY RF-SCORE:    0.00 PKD
ROOT
HETATM    1  O   UNL     1     -10.283  15.341  69.209  1.00  0.00    -0.226 OA 
HETATM    2  C   UNL     1     -11.297  15.664  68.251  1.00  0.00    -0.356 C  
HETATM    3  H   UNL     1     -10.686  14.971  69.986  1.00  0.00     0.000 HD 
ENDROOT
BRANCH   2   4
HETATM    4  C   UNL     1     -12.087  14.370  67.932  1.00  0.00    -0.245 C  
BRANCH   4   5
HETATM    5  N   UNL     1     -11.469  13.436  66.919  1.00  0.00    -0.327 NA 
BRANCH   5   6
HETATM    6  C   UNL     1     -12.471  13.230  65.808  1.00  0.00    -0.417 C  
HETATM    7  O   UNL     1     -10.590  13.536  64.336  1.00  0.00    -0.419 OA 
HETATM    8  C   UNL     1     -11.933  13.669  64.449  1.00  0.00    -0.437 C  
HETATM    9  O   UNL     1     -12.638  14.076  63.539  1.00  0.00    -0.842 OA 
ENDBRANCH   5   6
BRANCH   5  10
HETATM   10  C   UNL     1     -11.232  12.104  67.578  1.00  0.00    -0.297 C  
HETATM   11  O   UNL     1      -8.995  12.904  67.935  1.00  0.00    -0.176 OA 
HETATM   12  O   UNL     1      -9.281  10.660  67.779  1.00  0.00    -0.144 OA 
HETATM   13  C   UNL     1      -9.744  11.792  67.753  1.00  0.00    -0.183 C  
ENDBRANCH   5  10
ENDBRANCH   4   5
ENDBRANCH   2   4
BRANCH   2  14
HETATM   14  C   UNL     1     -10.636  16.271  66.976  1.00  0.00    -0.284 C  
BRANCH  14  15
HETATM   15  N   UNL     1      -9.438  17.164  67.169  1.00  0.00    -0.243 NA 
BRANCH  15  16
HETATM   16  C   UNL     1      -8.283  16.568  66.398  1.00  0.00    -0.329 C  
HETATM   17  C   UNL     1      -7.094  16.217  67.287  1.00  0.00    -0.190 C  
HETATM   18  O   UNL     1      -7.466  15.883  68.550  1.00  0.00    -0.129 OA 
HETATM   19  O   UNL     1      -5.938  16.174  66.901  1.00  0.00    -0.330 OA 
ENDBRANCH  15  16
BRANCH  15  20
HETATM   20  C   UNL     1      -9.743  18.505  66.520  1.00  0.00    -0.343 C  
HETATM   21  C   UNL     1      -9.269  19.701  67.347  1.00  0.00    -0.325 C  
HETATM   22  O   UNL     1      -8.190  19.424  68.117  1.00  0.00    -0.303 OA 
HETATM   23  O   UNL     1      -9.771  20.809  67.286  1.00  0.00    -0.479 OA 
ENDBRANCH  15  20
ENDBRANCH  14  15
ENDBRANCH   2  14
TORSDOF 8
ENDMDL
MODEL       61
REMARK 921   NORMALIZED FREE ENERGY PREDICTED BY IDOCK:   -4.96 KCAL/MOL
REMARK 922        TOTAL FREE ENERGY PREDICTED BY IDOCK:   -8.62 KCAL/MOL
REMARK 923 INTER-LIGAND FREE ENERGY PREDICTED BY IDOCK:   -7.60 KCAL/MOL
REMARK 924 INTRA-LIGAND FREE ENERGY PREDICTED BY IDOCK:   -1.01 KCAL/MOL
REMARK 927      BINDING AFFINITY PREDICTED BY RF-SCORE:    0.00 PKD
ROOT
HETATM    1  O   UNL     1      -9.865  14.309  69.182  1.00  0.00    -0.399 OA 
HETATM    2  C   UNL     1     -10.194  13.339  68.181  1.00  0.00    -0.243 C  
HETATM    3  H   UNL     1     -10.177  14.010  70.028  1.00  0.00     0.000 HD 
ENDROOT
BRANCH   2   4
HETATM    4  C   UNL     1      -9.550  11.990  68.589  1.00  0.00    -0.080 C  
BRANCH   4   5
HETATM    5  N   UNL     1     -10.495  10.835  68.817  1.00  0.00    -0.187 NA 
BRANCH   5   6
HETATM    6  C   UNL     1     -10.880  10.279  67.467  1.00  0.00    -0.298 C  
HETATM    7  O   UNL     1     -10.336   8.138  68.424  1.00  0.00    -0.205 OA 
HETATM    8  C   UNL     1     -10.403   8.842  67.270  1.00  0.00    -0.280 C  
HETATM    9  O   UNL     1     -10.132   8.360  66.182  1.00  0.00    -0.182 OA 
ENDBRANCH   5   6
BRANCH   5  10
HETATM   10  C   UNL     1     -11.744  11.360  69.472  1.00  0.00    -0.348 C  
HETATM   11  O   UNL     1     -11.212   9.836  71.251  1.00  0.00    -0.361 OA 
HETATM   12  O   UNL     1     -13.397  10.368  70.960  1.00  0.00    -0.342 OA 
HETATM   13  C   UNL     1     -12.227  10.467  70.616  1.00  0.00    -0.347 C  
ENDBRANCH   5  10
ENDBRANCH   4   5
ENDBRANCH   2   4
BRANCH   2  14
HETATM   14  C   UNL     1      -9.683  13.831  66.792  1.00  0.00    -0.275 C  
BRANCH  14  15
HETATM   15  N   UNL     1     -10.693  14.436  65.852  1.00  0.00    -0.297 NA 
BRANCH  15  16
HETATM   16  C   UNL     1     -11.974  13.642  65.971  1.00  0.00    -0.413 C  
HETATM   17  C   UNL     1     -12.196  12.695  64.796  1.00  0.00    -0.465 C  
HETATM   18  O   UNL     1     -11.033  12.252  64.254  1.00  0.00    -0.298 OA 
HETATM   19  O   UNL     1     -13.293  12.317  64.418  1.00  0.00    -0.786 OA 
ENDBRANCH  15  16
BRANCH  15  20
HETATM   20  C   UNL     1     -11.009  15.840  66.342  1.00  0.00    -0.159 C  
HETATM   21  C   UNL     1     -10.986  16.890  65.232  1.00  0.00    -0.044 C  
HETATM   22  O   UNL     1     -11.306  16.388  64.014  1.00  0.00    -0.964 OA 
HETATM   23  O   UNL     1     -10.756  18.071  65.419  1.00  0.00    -0.632 OA 
ENDBRANCH  15  20
ENDBRANCH  14  15
ENDBRANCH   2  14
TORSDOF 8
ENDMDL
MODEL       62
REMARK 921   NORMALIZED FREE ENERGY PREDICTED BY IDOCK:   -4.93 KCAL/MOL
REMARK 922        TOTAL FREE ENERGY PREDICTED BY IDOCK:   -8.57 KCAL/MOL
REMARK 923 INTER-LIGAND FREE ENERGY PREDICTED BY IDOCK:   -7.33 KCAL/MOL
REMARK 924 INTRA-LIGAND FREE ENERGY PREDICTED BY IDOCK:   -1.24 KCAL/MOL
REMARK 927      BINDING AFFINITY PREDICTED BY RF-SCORE:    0.00 PKD
ROOT
HETATM    1  O   UNL     1     -12.642  10.810  68.874  1.00  0.00    -0.735 OA 
HETATM    2  C   UNL     1     -11.242  10.540  68.742  1.00  0.00    -0.262 C  
HETATM    3  H   UNL     1     -12.816  11.711  68.630  1.00  0.00     0.000 HD 
ENDROOT
BRANCH   2   4
HETATM    4  C   UNL     1     -10.832  10.831  67.276  1.00  0.00    -0.288 C  
BRANCH   4   5
HETATM    5  N   UNL     1     -11.310  12.138  66.691  1.00  0.00    -0.331 NA 
BRANCH   5   6
HETATM    6  C   UNL     1     -11.167  12.051  65.190  1.00  0.00    -0.315 C  
HETATM    7  O   UNL     1     -13.146  13.422  65.131  1.00  0.00    -0.724 OA 
HETATM    8  C   UNL     1     -12.434  12.488  64.458  1.00  0.00    -0.459 C  
HETATM    9  O   UNL     1     -12.766  12.062  63.363  1.00  0.00    -0.706 OA 
ENDBRANCH   5   6
BRANCH   5  10
HETATM   10  C   UNL     1     -10.406  13.239  67.176  1.00  0.00    -0.248 C  
HETATM   11  O   UNL     1     -12.251  13.861  68.582  1.00  0.00    -0.345 OA 
HETATM   12  O   UNL     1     -10.808  15.503  67.979  1.00  0.00    -0.280 OA 
HETATM   13  C   UNL     1     -11.165  14.334  67.927  1.00  0.00    -0.285 C  
ENDBRANCH   5  10
ENDBRANCH   4   5
ENDBRANCH   2   4
BRANCH   2  14
HETATM   14  C   UNL     1     -10.956   9.060  69.143  1.00  0.00    -0.001 C  
BRANCH  14  15
HETATM   15  N   UNL     1     -10.947   8.724  70.611  1.00  0.00    -0.231 NA 
BRANCH  15  16
HETATM   16  C   UNL     1     -12.330   8.243  70.987  1.00  0.00    -0.133 C  
HETATM   17  C   UNL     1     -13.049   9.193  71.940  1.00  0.00    -0.411 C  
HETATM   18  O   UNL     1     -12.674  10.487  71.771  1.00  0.00    -0.420 OA 
HETATM   19  O   UNL     1     -13.916   8.849  72.727  1.00  0.00    -0.422 OA 
ENDBRANCH  15  16
BRANCH  15  20
HETATM   20  C   UNL     1     -10.011   7.544  70.818  1.00  0.00    -0.182 C  
HETATM   21  C   UNL     1      -8.570   7.958  71.116  1.00  0.00    -0.128 C  
HETATM   22  O   UNL     1      -8.477   9.158  71.738  1.00  0.00    -0.340 OA 
HETATM   23  O   UNL     1      -7.599   7.264  70.872  1.00  0.00    -0.082 OA 
ENDBRANCH  15  20
ENDBRANCH  14  15
ENDBRANCH   2  14
TORSDOF 8
ENDMDL
MODEL       63
REMARK 921   NORMALIZED FREE ENERGY PREDICTED BY IDOCK:   -4.92 KCAL/MOL
REMARK 922        TOTAL FREE ENERGY PREDICTED BY IDOCK:   -8.56 KCAL/MOL
REMARK 923 INTER-LIGAND FREE ENERGY PREDICTED BY IDOCK:   -7.92 KCAL/MOL
REMARK 924 INTRA-LIGAND FREE ENERGY PREDICTED BY IDOCK:   -0.64 KCAL/MOL
REMARK 927      BINDING AFFINITY PREDICTED BY RF-SCORE:    0.00 PKD
ROOT
HETATM    1  O   UNL     1      -9.655  11.326  68.947  1.00  0.00    -0.306 OA 
HETATM    2  C   UNL     1     -11.037  11.692  68.858  1.00  0.00    -0.232 C  
HETATM    3  H   UNL     1      -9.398  11.276  69.860  1.00  0.00     0.000 HD 
ENDROOT
BRANCH   2   4
HETATM    4  C   UNL     1     -11.864  10.635  69.633  1.00  0.00    -0.286 C  
BRANCH   4   5
HETATM    5  N   UNL     1     -11.849  10.739  71.139  1.00  0.00    -0.262 NA 
BRANCH   5   6
HETATM    6  C   UNL     1     -11.668   9.348  71.697  1.00  0.00    -0.398 C  
HETATM    7  O   UNL     1      -9.345   9.649  71.134  1.00  0.00    -0.169 OA 
HETATM    8  C   UNL     1     -10.327   8.732  71.304  1.00  0.00    -0.261 C  
HETATM    9  O   UNL     1     -10.143   7.532  71.177  1.00  0.00    -0.189 OA 
ENDBRANCH   5   6
BRANCH   5  10
HETATM   10  C   UNL     1     -13.190  11.248  71.597  1.00  0.00    -0.327 C  
HETATM   11  O   UNL     1     -12.327  13.422  71.051  1.00  0.00    -0.363 OA 
HETATM   12  O   UNL     1     -13.922  13.313  72.659  1.00  0.00    -0.741 OA 
HETATM   13  C   UNL     1     -13.189  12.756  71.854  1.00  0.00    -0.412 C  
ENDBRANCH   5  10
ENDBRANCH   4   5
ENDBRANCH   2   4
BRANCH   2  14
HETATM   14  C   UNL     1     -11.459  11.775  67.359  1.00  0.00    -0.305 C  
BRANCH  14  15
HETATM   15  N   UNL     1     -11.463  13.135  66.710  1.00  0.00    -0.327 NA 
BRANCH  15  16
HETATM   16  C   UNL     1     -12.434  13.096  65.553  1.00  0.00    -0.458 C  
HETATM   17  C   UNL     1     -11.818  13.580  64.245  1.00  0.00    -0.428 C  
HETATM   18  O   UNL     1     -10.483  13.338  64.173  1.00  0.00    -0.414 OA 
HETATM   19  O   UNL     1     -12.454  14.074  63.328  1.00  0.00    -0.795 OA 
ENDBRANCH  15  16
BRANCH  15  20
HETATM   20  C   UNL     1     -12.026  14.131  67.711  1.00  0.00    -0.354 C  
HETATM   21  C   UNL     1     -11.124  15.346  67.930  1.00  0.00    -0.323 C  
HETATM   22  O   UNL     1     -10.371  15.655  66.847  1.00  0.00    -0.279 OA 
HETATM   23  O   UNL     1     -11.114  16.009  68.952  1.00  0.00    -0.287 OA 
ENDBRANCH  15  20
ENDBRANCH  14  15
ENDBRANCH   2  14
TORSDOF 8
ENDMDL
MODEL       64
REMARK 921   NORMALIZED FREE ENERGY PREDICTED BY IDOCK:   -4.92 KCAL/MOL
REMARK 922        TOTAL FREE ENERGY PREDICTED BY IDOCK:   -8.55 KCAL/MOL
REMARK 923 INTER-LIGAND FREE ENERGY PREDICTED BY IDOCK:   -7.33 KCAL/MOL
REMARK 924 INTRA-LIGAND FREE ENERGY PREDICTED BY IDOCK:   -1.22 KCAL/MOL
REMARK 927      BINDING AFFINITY PREDICTED BY RF-SCORE:    0.00 PKD
ROOT
HETATM    1  O   UNL     1     -12.474  10.866  68.642  1.00  0.00    -0.772 OA 
HETATM    2  C   UNL     1     -11.193  10.264  68.428  1.00  0.00    -0.224 C  
HETATM    3  H   UNL     1     -12.863  10.512  69.434  1.00  0.00     0.000 HD 
ENDROOT
BRANCH   2   4
HETATM    4  C   UNL     1     -10.317  10.544  69.676  1.00  0.00    -0.193 C  
BRANCH   4   5
HETATM    5  N   UNL     1     -10.118   9.391  70.631  1.00  0.00    -0.271 NA 
BRANCH   5   6
HETATM    6  C   UNL     1      -8.693   8.913  70.489  1.00  0.00    -0.186 C  
HETATM    7  O   UNL     1      -8.777   8.607  72.876  1.00  0.00    -0.384 OA 
HETATM    8  C   UNL     1      -7.960   8.861  71.827  1.00  0.00     0.033 C  
HETATM    9  O   UNL     1      -6.754   9.007  71.946  1.00  0.00    -0.229 OA 
ENDBRANCH   5   6
BRANCH   5  10
HETATM   10  C   UNL     1     -11.025   8.263  70.215  1.00  0.00    -0.232 C  
HETATM   11  O   UNL     1     -12.425   8.988  72.028  1.00  0.00    -0.347 OA 
HETATM   12  O   UNL     1     -12.545   6.803  71.435  1.00  0.00    -0.355 OA 
HETATM   13  C   UNL     1     -12.058   7.916  71.288  1.00  0.00    -0.296 C  
ENDBRANCH   5  10
ENDBRANCH   4   5
ENDBRANCH   2   4
BRANCH   2  14
HETATM   14  C   UNL     1     -10.555  10.844  67.129  1.00  0.00    -0.255 C  
BRANCH  14  15
HETATM   15  N   UNL     1     -11.179  12.082  66.538  1.00  0.00    -0.318 NA 
BRANCH  15  16
HETATM   16  C   UNL     1     -10.340  13.269  66.951  1.00  0.00    -0.255 C  
HETATM   17  C   UNL     1     -11.139  14.327  67.704  1.00  0.00    -0.292 C  
HETATM   18  O   UNL     1     -12.174  13.799  68.408  1.00  0.00    -0.340 OA 
HETATM   19  O   UNL     1     -10.853  15.513  67.731  1.00  0.00    -0.292 OA 
ENDBRANCH  15  16
BRANCH  15  20
HETATM   20  C   UNL     1     -11.072  11.985  65.024  1.00  0.00    -0.316 C  
HETATM   21  C   UNL     1     -12.346  12.416  64.298  1.00  0.00    -0.455 C  
HETATM   22  O   UNL     1     -13.065  13.339  64.981  1.00  0.00    -0.737 OA 
HETATM   23  O   UNL     1     -12.665  12.016  63.192  1.00  0.00    -0.616 OA 
ENDBRANCH  15  20
ENDBRANCH  14  15
ENDBRANCH   2  14
TORSDOF 8
ENDMDL
MODEL       65
REMARK 921   NORMALIZED FREE ENERGY PREDICTED BY IDOCK:   -4.91 KCAL/MOL
REMARK 922        TOTAL FREE ENERGY PREDICTED BY IDOCK:   -8.54 KCAL/MOL
REMARK 923 INTER-LIGAND FREE ENERGY PREDICTED BY IDOCK:   -7.36 KCAL/MOL
REMARK 924 INTRA-LIGAND FREE ENERGY PREDICTED BY IDOCK:   -1.19 KCAL/MOL
REMARK 927      BINDING AFFINITY PREDICTED BY RF-SCORE:    0.00 PKD
ROOT
HETATM    1  O   UNL     1      -7.238  12.274  66.475  1.00  0.00    -0.353 OA 
HETATM    2  C   UNL     1      -8.473  12.436  67.181  1.00  0.00    -0.185 C  
HETATM    3  H   UNL     1      -6.514  12.312  67.089  1.00  0.00     0.000 HD 
ENDROOT
BRANCH   2   4
HETATM    4  C   UNL     1      -8.564  11.319  68.252  1.00  0.00    -0.153 C  
BRANCH   4   5
HETATM    5  N   UNL     1      -9.757  10.398  68.165  1.00  0.00    -0.149 NA 
BRANCH   5   6
HETATM    6  C   UNL     1     -10.490  10.465  69.484  1.00  0.00    -0.247 C  
HETATM    7  O   UNL     1     -12.229  11.557  68.225  1.00  0.00    -0.561 OA 
HETATM    8  C   UNL     1     -11.663  11.441  69.450  1.00  0.00    -0.338 C  
HETATM    9  O   UNL     1     -12.073  12.043  70.429  1.00  0.00    -0.351 OA 
ENDBRANCH   5   6
BRANCH   5  10
HETATM   10  C   UNL     1      -9.262   8.988  67.984  1.00  0.00    -0.135 C  
HETATM   11  O   UNL     1      -9.993   9.235  65.710  1.00  0.00    -0.299 OA 
HETATM   12  O   UNL     1      -9.964   7.137  66.566  1.00  0.00    -0.182 OA 
HETATM   13  C   UNL     1      -9.790   8.340  66.704  1.00  0.00    -0.267 C  
ENDBRANCH   5  10
ENDBRANCH   4   5
ENDBRANCH   2   4
BRANCH   2  14
HETATM   14  C   UNL     1      -9.662  12.374  66.174  1.00  0.00    -0.246 C  
BRANCH  14  15
HETATM   15  N   UNL     1     -10.619  13.537  66.152  1.00  0.00    -0.286 NA 
BRANCH  15  16
HETATM   16  C   UNL     1      -9.947  14.706  66.835  1.00  0.00    -0.253 C  
HETATM   17  C   UNL     1     -10.916  15.551  67.655  1.00  0.00    -0.315 C  
HETATM   18  O   UNL     1     -11.951  14.826  68.153  1.00  0.00    -0.310 OA 
HETATM   19  O   UNL     1     -10.755  16.736  67.900  1.00  0.00    -0.344 OA 
ENDBRANCH  15  16
BRANCH  15  20
HETATM   20  C   UNL     1     -10.827  13.947  64.703  1.00  0.00    -0.408 C  
HETATM   21  C   UNL     1     -12.281  13.833  64.244  1.00  0.00    -0.400 C  
HETATM   22  O   UNL     1     -13.174  14.003  65.249  1.00  0.00    -0.782 OA 
HETATM   23  O   UNL     1     -12.615  13.660  63.085  1.00  0.00    -0.792 OA 
ENDBRANCH  15  20
ENDBRANCH  14  15
ENDBRANCH   2  14
TORSDOF 8
ENDMDL
MODEL       66
REMARK 921   NORMALIZED FREE ENERGY PREDICTED BY IDOCK:   -4.90 KCAL/MOL
REMARK 922        TOTAL FREE ENERGY PREDICTED BY IDOCK:   -8.52 KCAL/MOL
REMARK 923 INTER-LIGAND FREE ENERGY PREDICTED BY IDOCK:   -7.42 KCAL/MOL
REMARK 924 INTRA-LIGAND FREE ENERGY PREDICTED BY IDOCK:   -1.11 KCAL/MOL
REMARK 927      BINDING AFFINITY PREDICTED BY RF-SCORE:    0.00 PKD
ROOT
HETATM    1  O   UNL     1     -12.005  11.976  67.199  1.00  0.00    -0.601 OA 
HETATM    2  C   UNL     1     -10.583  11.809  67.169  1.00  0.00    -0.231 C  
HETATM    3  H   UNL     1     -12.405  11.224  67.620  1.00  0.00     0.000 HD 
ENDROOT
BRANCH   2   4
HETATM    4  C   UNL     1     -10.090  11.633  68.627  1.00  0.00    -0.198 C  
BRANCH   4   5
HETATM    5  N   UNL     1     -10.110  10.228  69.180  1.00  0.00    -0.206 NA 
BRANCH   5   6
HETATM    6  C   UNL     1     -10.536   9.300  68.068  1.00  0.00    -0.223 C  
HETATM    7  O   UNL     1      -8.491   8.122  68.548  1.00  0.00    -0.125 OA 
HETATM    8  C   UNL     1      -9.394   8.410  67.582  1.00  0.00    -0.137 C  
HETATM    9  O   UNL     1      -9.309   7.975  66.444  1.00  0.00    -0.185 OA 
ENDBRANCH   5   6
BRANCH   5  10
HETATM   10  C   UNL     1     -11.152  10.155  70.264  1.00  0.00    -0.317 C  
HETATM   11  O   UNL     1      -9.395   9.225  71.612  1.00  0.00    -0.301 OA 
HETATM   12  O   UNL     1     -11.522   8.634  72.129  1.00  0.00    -0.346 OA 
HETATM   13  C   UNL     1     -10.734   9.243  71.419  1.00  0.00    -0.362 C  
ENDBRANCH   5  10
ENDBRANCH   4   5
ENDBRANCH   2   4
BRANCH   2  14
HETATM   14  C   UNL     1      -9.927  13.044  66.478  1.00  0.00    -0.262 C  
BRANCH  14  15
HETATM   15  N   UNL     1     -10.753  14.298  66.363  1.00  0.00    -0.294 NA 
BRANCH  15  16
HETATM   16  C   UNL     1      -9.928  15.449  66.891  1.00  0.00    -0.243 C  
HETATM   17  C   UNL     1     -10.733  16.405  67.765  1.00  0.00    -0.328 C  
HETATM   18  O   UNL     1     -11.747  15.785  68.422  1.00  0.00    -0.366 OA 
HETATM   19  O   UNL     1     -10.466  17.586  67.917  1.00  0.00    -0.355 OA 
ENDBRANCH  15  16
BRANCH  15  20
HETATM   20  C   UNL     1     -10.982  14.576  64.886  1.00  0.00    -0.410 C  
HETATM   21  C   UNL     1     -12.304  14.013  64.361  1.00  0.00    -0.367 C  
HETATM   22  O   UNL     1     -13.268  13.941  65.310  1.00  0.00    -0.774 OA 
HETATM   23  O   UNL     1     -12.498  13.707  63.198  1.00  0.00    -0.786 OA 
ENDBRANCH  15  20
ENDBRANCH  14  15
ENDBRANCH   2  14
TORSDOF 8
ENDMDL
MODEL       67
REMARK 921   NORMALIZED FREE ENERGY PREDICTED BY IDOCK:   -4.87 KCAL/MOL
REMARK 922        TOTAL FREE ENERGY PREDICTED BY IDOCK:   -8.48 KCAL/MOL
REMARK 923 INTER-LIGAND FREE ENERGY PREDICTED BY IDOCK:   -7.32 KCAL/MOL
REMARK 924 INTRA-LIGAND FREE ENERGY PREDICTED BY IDOCK:   -1.17 KCAL/MOL
REMARK 927      BINDING AFFINITY PREDICTED BY RF-SCORE:    0.00 PKD
ROOT
HETATM    1  O   UNL     1     -12.179  10.586  68.652  1.00  0.00    -0.794 OA 
HETATM    2  C   UNL     1     -11.390  10.954  67.515  1.00  0.00    -0.232 C  
HETATM    3  H   UNL     1     -12.534   9.714  68.523  1.00  0.00     0.000 HD 
ENDROOT
BRANCH   2   4
HETATM    4  C   UNL     1     -10.272   9.894  67.343  1.00  0.00    -0.222 C  
BRANCH   4   5
HETATM    5  N   UNL     1     -10.415   8.627  68.151  1.00  0.00    -0.211 NA 
BRANCH   5   6
HETATM    6  C   UNL     1      -9.165   8.466  68.983  1.00  0.00    -0.147 C  
HETATM    7  O   UNL     1     -10.565   9.110  70.834  1.00  0.00    -0.228 OA 
HETATM    8  C   UNL     1      -9.296   9.109  70.361  1.00  0.00    -0.232 C  
HETATM    9  O   UNL     1      -8.353   9.557  70.993  1.00  0.00    -0.294 OA 
ENDBRANCH   5   6
BRANCH   5  10
HETATM   10  C   UNL     1     -10.491   7.460  67.203  1.00  0.00    -0.333 C  
HETATM   11  O   UNL     1     -11.511   6.293  69.037  1.00  0.00    -0.363 OA 
HETATM   12  O   UNL     1     -10.393   5.047  67.509  1.00  0.00    -0.160 OA 
HETATM   13  C   UNL     1     -10.763   6.137  67.920  1.00  0.00    -0.296 C  
ENDBRANCH   5  10
ENDBRANCH   4   5
ENDBRANCH   2   4
BRANCH   2  14
HETATM   14  C   UNL     1     -10.806  12.385  67.726  1.00  0.00    -0.225 C  
BRANCH  14  15
HETATM   15  N   UNL     1     -11.066  13.409  66.652  1.00  0.00    -0.291 NA 
BRANCH  15  16
HETATM   16  C   UNL     1     -12.130  12.859  65.731  1.00  0.00    -0.457 C  
HETATM   17  C   UNL     1     -11.743  12.944  64.258  1.00  0.00    -0.386 C  
HETATM   18  O   UNL     1     -10.402  12.861  64.064  1.00  0.00    -0.422 OA 
HETATM   19  O   UNL     1     -12.545  13.014  63.341  1.00  0.00    -0.722 OA 
ENDBRANCH  15  16
BRANCH  15  20
HETATM   20  C   UNL     1     -11.662  14.642  67.312  1.00  0.00    -0.385 C  
HETATM   21  C   UNL     1     -10.888  15.925  67.013  1.00  0.00    -0.252 C  
HETATM   22  O   UNL     1     -10.253  15.899  65.816  1.00  0.00    -0.318 OA 
HETATM   23  O   UNL     1     -10.878  16.899  67.745  1.00  0.00    -0.345 OA 
ENDBRANCH  15  20
ENDBRANCH  14  15
ENDBRANCH   2  14
TORSDOF 8
ENDMDL
MODEL       68
REMARK 921   NORMALIZED FREE ENERGY PREDICTED BY IDOCK:   -4.87 KCAL/MOL
REMARK 922        TOTAL FREE ENERGY PREDICTED BY IDOCK:   -8.48 KCAL/MOL
REMARK 923 INTER-LIGAND FREE ENERGY PREDICTED BY IDOCK:   -7.35 KCAL/MOL
REMARK 924 INTRA-LIGAND FREE ENERGY PREDICTED BY IDOCK:   -1.13 KCAL/MOL
REMARK 927      BINDING AFFINITY PREDICTED BY RF-SCORE:    0.00 PKD
ROOT
HETATM    1  O   UNL     1      -8.843  14.535  68.356  1.00  0.00    -0.169 OA 
HETATM    2  C   UNL     1      -9.730  13.960  67.391  1.00  0.00    -0.234 C  
HETATM    3  H   UNL     1      -8.839  14.001  69.142  1.00  0.00     0.000 HD 
ENDROOT
BRANCH   2   4
HETATM    4  C   UNL     1      -9.254  12.514  67.103  1.00  0.00    -0.205 C  
BRANCH   4   5
HETATM    5  N   UNL     1     -10.322  11.447  67.071  1.00  0.00    -0.215 NA 
BRANCH   5   6
HETATM    6  C   UNL     1     -10.848  11.361  65.658  1.00  0.00    -0.218 C  
HETATM    7  O   UNL     1      -9.480   9.387  65.490  1.00  0.00    -0.245 OA 
HETATM    8  C   UNL     1     -10.034  10.405  64.790  1.00  0.00    -0.339 C  
HETATM    9  O   UNL     1      -9.910  10.524  63.582  1.00  0.00    -0.312 OA 
ENDBRANCH   5   6
BRANCH   5  10
HETATM   10  C   UNL     1     -11.458  11.879  67.960  1.00  0.00    -0.323 C  
HETATM   11  O   UNL     1     -10.348  10.601  69.663  1.00  0.00    -0.216 OA 
HETATM   12  O   UNL     1     -12.594  10.842  69.847  1.00  0.00    -0.294 OA 
HETATM   13  C   UNL     1     -11.553  11.046  69.238  1.00  0.00    -0.314 C  
ENDBRANCH   5  10
ENDBRANCH   4   5
ENDBRANCH   2   4
BRANCH   2  14
HETATM   14  C   UNL     1      -9.738  14.837  66.101  1.00  0.00    -0.312 C  
BRANCH  14  15
HETATM   15  N   UNL     1     -10.880  15.802  65.921  1.00  0.00    -0.303 NA 
BRANCH  15  16
HETATM   16  C   UNL     1     -10.327  17.204  66.036  1.00  0.00    -0.309 C  
HETATM   17  C   UNL     1     -10.703  17.884  67.349  1.00  0.00    -0.295 C  
HETATM   18  O   UNL     1     -10.856  17.002  68.370  1.00  0.00    -0.367 OA 
HETATM   19  O   UNL     1     -10.794  19.092  67.494  1.00  0.00    -0.473 OA 
ENDBRANCH  15  16
BRANCH  15  20
HETATM   20  C   UNL     1     -11.397  15.659  64.499  1.00  0.00    -0.320 C  
HETATM   21  C   UNL     1     -12.348  14.476  64.315  1.00  0.00    -0.369 C  
HETATM   22  O   UNL     1     -13.035  14.163  65.440  1.00  0.00    -0.706 OA 
HETATM   23  O   UNL     1     -12.517  13.900  63.255  1.00  0.00    -0.817 OA 
ENDBRANCH  15  20
ENDBRANCH  14  15
ENDBRANCH   2  14
TORSDOF 8
ENDMDL
MODEL       69
REMARK 921   NORMALIZED FREE ENERGY PREDICTED BY IDOCK:   -4.87 KCAL/MOL
REMARK 922        TOTAL FREE ENERGY PREDICTED BY IDOCK:   -8.47 KCAL/MOL
REMARK 923 INTER-LIGAND FREE ENERGY PREDICTED BY IDOCK:   -7.38 KCAL/MOL
REMARK 924 INTRA-LIGAND FREE ENERGY PREDICTED BY IDOCK:   -1.09 KCAL/MOL
REMARK 927      BINDING AFFINITY PREDICTED BY RF-SCORE:    0.00 PKD
ROOT
HETATM    1  O   UNL     1     -12.553  11.032  68.803  1.00  0.00    -0.637 OA 
HETATM    2  C   UNL     1     -11.170  10.664  68.747  1.00  0.00    -0.279 C  
HETATM    3  H   UNL     1     -12.638  11.968  68.667  1.00  0.00     0.000 HD 
ENDROOT
BRANCH   2   4
HETATM    4  C   UNL     1     -10.613  11.099  67.368  1.00  0.00    -0.234 C  
BRANCH   4   5
HETATM    5  N   UNL     1     -11.153  12.390  66.801  1.00  0.00    -0.270 NA 
BRANCH   5   6
HETATM    6  C   UNL     1     -11.074  12.302  65.295  1.00  0.00    -0.316 C  
HETATM    7  O   UNL     1     -13.095  13.611  65.320  1.00  0.00    -0.735 OA 
HETATM    8  C   UNL     1     -12.384  12.696  64.619  1.00  0.00    -0.476 C  
HETATM    9  O   UNL     1     -12.750  12.256  63.540  1.00  0.00    -0.729 OA 
ENDBRANCH   5   6
BRANCH   5  10
HETATM   10  C   UNL     1     -10.261  13.518  67.243  1.00  0.00    -0.242 C  
HETATM   11  O   UNL     1     -12.048  14.075  68.749  1.00  0.00    -0.349 OA 
HETATM   12  O   UNL     1     -10.694  15.765  68.078  1.00  0.00    -0.276 OA 
HETATM   13  C   UNL     1     -11.015  14.585  68.039  1.00  0.00    -0.260 C  
ENDBRANCH   5  10
ENDBRANCH   4   5
ENDBRANCH   2   4
BRANCH   2  14
HETATM   14  C   UNL     1     -11.030   9.127  68.971  1.00  0.00    -0.008 C  
BRANCH  14  15
HETATM   15  N   UNL     1     -10.560   8.659  70.324  1.00  0.00    -0.217 NA 
BRANCH  15  16
HETATM   16  C   UNL     1      -9.141   9.144  70.516  1.00  0.00    -0.241 C  
HETATM   17  C   UNL     1      -8.407   8.404  71.630  1.00  0.00    -0.156 C  
HETATM   18  O   UNL     1      -8.840   7.125  71.783  1.00  0.00    -0.125 OA 
HETATM   19  O   UNL     1      -7.486   8.875  72.277  1.00  0.00    -0.338 OA 
ENDBRANCH  15  16
BRANCH  15  20
HETATM   20  C   UNL     1     -11.400   9.358  71.381  1.00  0.00    -0.381 C  
HETATM   21  C   UNL     1     -12.739   8.668  71.645  1.00  0.00    -0.341 C  
HETATM   22  O   UNL     1     -12.705   7.332  71.418  1.00  0.00    -0.362 OA 
HETATM   23  O   UNL     1     -13.727   9.242  72.068  1.00  0.00    -0.411 OA 
ENDBRANCH  15  20
ENDBRANCH  14  15
ENDBRANCH   2  14
TORSDOF 8
ENDMDL
MODEL       70
REMARK 921   NORMALIZED FREE ENERGY PREDICTED BY IDOCK:   -4.85 KCAL/MOL
REMARK 922        TOTAL FREE ENERGY PREDICTED BY IDOCK:   -8.45 KCAL/MOL
REMARK 923 INTER-LIGAND FREE ENERGY PREDICTED BY IDOCK:   -6.99 KCAL/MOL
REMARK 924 INTRA-LIGAND FREE ENERGY PREDICTED BY IDOCK:   -1.46 KCAL/MOL
REMARK 927      BINDING AFFINITY PREDICTED BY RF-SCORE:    0.00 PKD
ROOT
HETATM    1  O   UNL     1     -10.769  15.927  64.492  1.00  0.00    -0.794 OA 
HETATM    2  C   UNL     1     -11.316  15.080  65.509  1.00  0.00    -0.312 C  
HETATM    3  H   UNL     1     -11.093  16.812  64.608  1.00  0.00     0.000 HD 
ENDROOT
BRANCH   2   4
HETATM    4  C   UNL     1     -10.916  15.665  66.887  1.00  0.00    -0.243 C  
BRANCH   4   5
HETATM    5  N   UNL     1      -9.770  16.648  66.895  1.00  0.00    -0.245 NA 
BRANCH   5   6
HETATM    6  C   UNL     1      -8.643  16.038  67.693  1.00  0.00    -0.166 C  
HETATM    7  O   UNL     1      -7.203  17.300  66.232  1.00  0.00    -0.268 OA 
HETATM    8  C   UNL     1      -7.291  16.188  67.000  1.00  0.00    -0.231 C  
HETATM    9  O   UNL     1      -6.366  15.404  67.139  1.00  0.00    -0.305 OA 
ENDBRANCH   5   6
BRANCH   5  10
HETATM   10  C   UNL     1     -10.215  17.897  67.608  1.00  0.00    -0.365 C  
HETATM   11  O   UNL     1     -10.731  18.726  65.414  1.00  0.00    -0.556 OA 
HETATM   12  O   UNL     1     -10.219  20.257  67.006  1.00  0.00    -0.435 OA 
HETATM   13  C   UNL     1     -10.363  19.091  66.664  1.00  0.00    -0.428 C  
ENDBRANCH   5  10
ENDBRANCH   4   5
ENDBRANCH   2   4
BRANCH   2  14
HETATM   14  C   UNL     1     -10.784  13.626  65.319  1.00  0.00    -0.336 C  
BRANCH  14  15
HETATM   15  N   UNL     1     -10.425  12.848  66.558  1.00  0.00    -0.262 NA 
BRANCH  15  16
HETATM   16  C   UNL     1     -11.613  11.990  66.929  1.00  0.00    -0.318 C  
HETATM   17  C   UNL     1     -11.840  11.910  68.435  1.00  0.00    -0.289 C  
HETATM   18  O   UNL     1     -11.431  13.030  69.086  1.00  0.00    -0.268 OA 
HETATM   19  O   UNL     1     -12.387  10.976  68.998  1.00  0.00    -0.481 OA 
ENDBRANCH  15  16
BRANCH  15  20
HETATM   20  C   UNL     1      -9.299  11.891  66.202  1.00  0.00    -0.219 C  
HETATM   21  C   UNL     1      -8.066  12.048  67.092  1.00  0.00    -0.177 C  
HETATM   22  O   UNL     1      -8.359  12.493  68.338  1.00  0.00    -0.167 OA 
HETATM   23  O   UNL     1      -6.936  11.754  66.745  1.00  0.00    -0.126 OA 
ENDBRANCH  15  20
ENDBRANCH  14  15
ENDBRANCH   2  14
TORSDOF 8
ENDMDL
MODEL       71
REMARK 921   NORMALIZED FREE ENERGY PREDICTED BY IDOCK:   -4.85 KCAL/MOL
REMARK 922        TOTAL FREE ENERGY PREDICTED BY IDOCK:   -8.45 KCAL/MOL
REMARK 923 INTER-LIGAND FREE ENERGY PREDICTED BY IDOCK:   -7.23 KCAL/MOL
REMARK 924 INTRA-LIGAND FREE ENERGY PREDICTED BY IDOCK:   -1.21 KCAL/MOL
REMARK 927      BINDING AFFINITY PREDICTED BY RF-SCORE:    0.00 PKD
ROOT
HETATM    1  O   UNL     1      -8.063  11.528  66.050  1.00  0.00    -0.368 OA 
HETATM    2  C   UNL     1      -9.184  11.911  66.855  1.00  0.00    -0.193 C  
HETATM    3  H   UNL     1      -8.179  11.858  65.167  1.00  0.00     0.000 HD 
ENDROOT
BRANCH   2   4
HETATM    4  C   UNL     1      -9.292  13.457  66.824  1.00  0.00    -0.256 C  
BRANCH   4   5
HETATM    5  N   UNL     1     -10.474  14.035  66.084  1.00  0.00    -0.290 NA 
BRANCH   5   6
HETATM    6  C   UNL     1     -10.948  15.249  66.846  1.00  0.00    -0.315 C  
HETATM    7  O   UNL     1     -10.592  16.430  64.778  1.00  0.00    -0.676 OA 
HETATM    8  C   UNL     1     -10.620  16.554  66.126  1.00  0.00    -0.236 C  
HETATM    9  O   UNL     1     -10.427  17.615  66.698  1.00  0.00    -0.335 OA 
ENDBRANCH   5   6
BRANCH   5  10
HETATM   10  C   UNL     1     -11.587  13.021  66.094  1.00  0.00    -0.366 C  
HETATM   11  O   UNL     1     -11.256  12.930  63.717  1.00  0.00    -0.408 OA 
HETATM   12  O   UNL     1     -13.325  12.429  64.494  1.00  0.00    -0.800 OA 
HETATM   13  C   UNL     1     -12.171  12.777  64.701  1.00  0.00    -0.447 C  
ENDBRANCH   5  10
ENDBRANCH   4   5
ENDBRANCH   2   4
BRANCH   2  14
HETATM   14  C   UNL     1      -8.994  11.371  68.305  1.00  0.00    -0.175 C  
BRANCH  14  15
HETATM   15  N   UNL     1     -10.041  10.431  68.842  1.00  0.00    -0.191 NA 
BRANCH  15  16
HETATM   16  C   UNL     1     -11.197  11.262  69.350  1.00  0.00    -0.280 C  
HETATM   17  C   UNL     1     -11.936  10.605  70.511  1.00  0.00    -0.352 C  
HETATM   18  O   UNL     1     -11.128   9.818  71.267  1.00  0.00    -0.355 OA 
HETATM   19  O   UNL     1     -13.109  10.806  70.780  1.00  0.00    -0.308 OA 
ENDBRANCH  15  16
BRANCH  15  20
HETATM   20  C   UNL     1     -10.579   9.612  67.679  1.00  0.00    -0.275 C  
HETATM   21  C   UNL     1     -10.154   8.145  67.723  1.00  0.00    -0.204 C  
HETATM   22  O   UNL     1      -9.944   7.686  68.981  1.00  0.00    -0.172 OA 
HETATM   23  O   UNL     1     -10.061   7.435  66.737  1.00  0.00    -0.234 OA 
ENDBRANCH  15  20
ENDBRANCH  14  15
ENDBRANCH   2  14
TORSDOF 8
ENDMDL
MODEL       72
REMARK 921   NORMALIZED FREE ENERGY PREDICTED BY IDOCK:   -4.83 KCAL/MOL
REMARK 922        TOTAL FREE ENERGY PREDICTED BY IDOCK:   -8.43 KCAL/MOL
REMARK 923 INTER-LIGAND FREE ENERGY PREDICTED BY IDOCK:   -7.25 KCAL/MOL
REMARK 924 INTRA-LIGAND FREE ENERGY PREDICTED BY IDOCK:   -1.18 KCAL/MOL
REMARK 927      BINDING AFFINITY PREDICTED BY RF-SCORE:    0.00 PKD
ROOT
HETATM    1  O   UNL     1     -12.098  10.655  68.215  1.00  0.00    -0.817 OA 
HETATM    2  C   UNL     1     -10.869  11.368  68.391  1.00  0.00    -0.207 C  
HETATM    3  H   UNL     1     -12.689  11.169  67.677  1.00  0.00     0.000 HD 
ENDROOT
BRANCH   2   4
HETATM    4  C   UNL     1     -10.274  11.653  66.988  1.00  0.00    -0.212 C  
BRANCH   4   5
HETATM    5  N   UNL     1     -10.844  12.835  66.242  1.00  0.00    -0.271 NA 
BRANCH   5   6
HETATM    6  C   UNL     1     -11.038  12.422  64.802  1.00  0.00    -0.304 C  
HETATM    7  O   UNL     1     -13.087  13.681  64.936  1.00  0.00    -0.713 OA 
HETATM    8  C   UNL     1     -12.470  12.645  64.321  1.00  0.00    -0.411 C  
HETATM    9  O   UNL     1     -13.005  11.976  63.451  1.00  0.00    -0.772 OA 
ENDBRANCH   5   6
BRANCH   5  10
HETATM   10  C   UNL     1      -9.833  13.950  66.268  1.00  0.00    -0.306 C  
HETATM   11  O   UNL     1     -11.494  15.157  67.513  1.00  0.00    -0.337 OA 
HETATM   12  O   UNL     1     -10.021  16.378  66.298  1.00  0.00    -0.286 OA 
HETATM   13  C   UNL     1     -10.450  15.293  66.664  1.00  0.00    -0.290 C  
ENDBRANCH   5  10
ENDBRANCH   4   5
ENDBRANCH   2   4
BRANCH   2  14
HETATM   14  C   UNL     1      -9.899  10.525  69.274  1.00  0.00    -0.205 C  
BRANCH  14  15
HETATM   15  N   UNL     1     -10.236   9.072  69.488  1.00  0.00    -0.197 NA 
BRANCH  15  16
HETATM   16  C   UNL     1      -9.177   8.242  68.799  1.00  0.00    -0.143 C  
HETATM   17  C   UNL     1      -9.727   7.429  67.632  1.00  0.00    -0.144 C  
HETATM   18  O   UNL     1     -10.785   8.029  67.029  1.00  0.00    -0.328 OA 
HETATM   19  O   UNL     1      -9.238   6.385  67.232  1.00  0.00    -0.119 OA 
ENDBRANCH  15  16
BRANCH  15  20
HETATM   20  C   UNL     1     -10.115   8.777  70.974  1.00  0.00    -0.237 C  
HETATM   21  C   UNL     1     -11.321   8.028  71.543  1.00  0.00    -0.259 C  
HETATM   22  O   UNL     1     -11.942   7.243  70.630  1.00  0.00    -0.291 OA 
HETATM   23  O   UNL     1     -11.664   8.082  72.711  1.00  0.00    -0.396 OA 
ENDBRANCH  15  20
ENDBRANCH  14  15
ENDBRANCH   2  14
TORSDOF 8
ENDMDL
MODEL       73
REMARK 921   NORMALIZED FREE ENERGY PREDICTED BY IDOCK:   -4.83 KCAL/MOL
REMARK 922        TOTAL FREE ENERGY PREDICTED BY IDOCK:   -8.43 KCAL/MOL
REMARK 923 INTER-LIGAND FREE ENERGY PREDICTED BY IDOCK:   -7.07 KCAL/MOL
REMARK 924 INTRA-LIGAND FREE ENERGY PREDICTED BY IDOCK:   -1.36 KCAL/MOL
REMARK 927      BINDING AFFINITY PREDICTED BY RF-SCORE:    0.00 PKD
ROOT
HETATM    1  O   UNL     1     -11.244  11.465  62.899  1.00  0.00    -0.807 OA 
HETATM    2  C   UNL     1     -11.132  11.275  64.314  1.00  0.00    -0.222 C  
HETATM    3  H   UNL     1     -12.135  11.284  62.624  1.00  0.00     0.000 HD 
ENDROOT
BRANCH   2   4
HETATM    4  C   UNL     1     -12.152  12.215  65.006  1.00  0.00    -0.243 C  
BRANCH   4   5
HETATM    5  N   UNL     1     -11.645  13.579  65.408  1.00  0.00    -0.310 NA 
BRANCH   5   6
HETATM    6  C   UNL     1     -12.351  13.977  66.683  1.00  0.00    -0.371 C  
HETATM    7  O   UNL     1     -10.211  13.626  67.731  1.00  0.00    -0.234 OA 
HETATM    8  C   UNL     1     -11.550  13.611  67.930  1.00  0.00    -0.341 C  
HETATM    9  O   UNL     1     -12.056  13.354  69.011  1.00  0.00    -0.325 OA 
ENDBRANCH   5   6
BRANCH   5  10
HETATM   10  C   UNL     1     -12.032  14.567  64.341  1.00  0.00    -0.449 C  
HETATM   11  O   UNL     1      -9.934  15.624  64.840  1.00  0.00    -0.331 OA 
HETATM   12  O   UNL     1     -11.586  16.939  64.016  1.00  0.00    -1.123 OA 
HETATM   13  C   UNL     1     -11.191  15.844  64.390  1.00  0.00    -0.229 C  
ENDBRANCH   5  10
ENDBRANCH   4   5
ENDBRANCH   2   4
BRANCH   2  14
HETATM   14  C   UNL     1      -9.670  11.571  64.766  1.00  0.00    -0.219 C  
BRANCH  14  15
HETATM   15  N   UNL     1      -9.118  10.766  65.914  1.00  0.00    -0.181 NA 
BRANCH  15  16
HETATM   16  C   UNL     1      -9.757   9.397  65.871  1.00  0.00    -0.285 C  
HETATM   17  C   UNL     1     -10.522   9.059  67.147  1.00  0.00    -0.263 C  
HETATM   18  O   UNL     1     -11.035  10.159  67.756  1.00  0.00    -0.280 OA 
HETATM   19  O   UNL     1     -10.714   7.924  67.551  1.00  0.00    -0.247 OA 
ENDBRANCH  15  16
BRANCH  15  20
HETATM   20  C   UNL     1      -7.632  10.555  65.668  1.00  0.00    -0.134 C  
HETATM   21  C   UNL     1      -6.742  11.375  66.601  1.00  0.00    -0.112 C  
HETATM   22  O   UNL     1      -7.315  11.630  67.802  1.00  0.00    -0.094 OA 
HETATM   23  O   UNL     1      -5.608  11.725  66.323  1.00  0.00    -0.269 OA 
ENDBRANCH  15  20
ENDBRANCH  14  15
ENDBRANCH   2  14
TORSDOF 8
ENDMDL
MODEL       74
REMARK 921   NORMALIZED FREE ENERGY PREDICTED BY IDOCK:   -4.83 KCAL/MOL
REMARK 922        TOTAL FREE ENERGY PREDICTED BY IDOCK:   -8.42 KCAL/MOL
REMARK 923 INTER-LIGAND FREE ENERGY PREDICTED BY IDOCK:   -7.17 KCAL/MOL
REMARK 924 INTRA-LIGAND FREE ENERGY PREDICTED BY IDOCK:   -1.26 KCAL/MOL
REMARK 927      BINDING AFFINITY PREDICTED BY RF-SCORE:    0.00 PKD
ROOT
HETATM    1  O   UNL     1      -8.610  13.869  66.698  1.00  0.00    -0.430 OA 
HETATM    2  C   UNL     1      -9.349  15.063  66.979  1.00  0.00    -0.224 C  
HETATM    3  H   UNL     1      -9.010  13.134  67.148  1.00  0.00     0.000 HD 
ENDROOT
BRANCH   2   4
HETATM    4  C   UNL     1     -10.814  14.838  66.526  1.00  0.00    -0.319 C  
BRANCH   4   5
HETATM    5  N   UNL     1     -11.336  13.424  66.613  1.00  0.00    -0.313 NA 
BRANCH   5   6
HETATM    6  C   UNL     1     -12.515  13.308  65.676  1.00  0.00    -0.451 C  
HETATM    7  O   UNL     1     -11.244  11.550  64.630  1.00  0.00    -0.287 OA 
HETATM    8  C   UNL     1     -12.185  12.501  64.423  1.00  0.00    -0.449 C  
HETATM    9  O   UNL     1     -12.728  12.672  63.343  1.00  0.00    -0.705 OA 
ENDBRANCH   5   6
BRANCH   5  10
HETATM   10  C   UNL     1     -11.836  13.184  68.013  1.00  0.00    -0.358 C  
HETATM   11  O   UNL     1     -10.029  11.610  68.173  1.00  0.00    -0.182 OA 
HETATM   12  O   UNL     1     -11.848  11.235  69.473  1.00  0.00    -0.297 OA 
HETATM   13  C   UNL     1     -11.270  11.902  68.626  1.00  0.00    -0.257 C  
ENDBRANCH   5  10
ENDBRANCH   4   5
ENDBRANCH   2   4
BRANCH   2  14
HETATM   14  C   UNL     1      -8.691  16.269  66.241  1.00  0.00    -0.335 C  
BRANCH  14  15
HETATM   15  N   UNL     1      -8.383  17.500  67.054  1.00  0.00    -0.212 NA 
BRANCH  15  16
HETATM   16  C   UNL     1      -9.618  18.372  67.065  1.00  0.00    -0.298 C  
HETATM   17  C   UNL     1      -9.331  19.812  66.654  1.00  0.00    -0.387 C  
HETATM   18  O   UNL     1      -8.294  19.911  65.783  1.00  0.00    -0.346 OA 
HETATM   19  O   UNL     1      -9.994  20.773  67.010  1.00  0.00    -0.401 OA 
ENDBRANCH  15  16
BRANCH  15  20
HETATM   20  C   UNL     1      -8.150  17.066  68.493  1.00  0.00    -0.251 C  
HETATM   21  C   UNL     1      -6.835  17.583  69.076  1.00  0.00    -0.242 C  
HETATM   22  O   UNL     1      -6.431  18.755  68.529  1.00  0.00    -0.213 OA 
HETATM   23  O   UNL     1      -6.229  17.032  69.978  1.00  0.00    -0.208 OA 
ENDBRANCH  15  20
ENDBRANCH  14  15
ENDBRANCH   2  14
TORSDOF 8
ENDMDL
MODEL       75
REMARK 921   NORMALIZED FREE ENERGY PREDICTED BY IDOCK:   -4.83 KCAL/MOL
REMARK 922        TOTAL FREE ENERGY PREDICTED BY IDOCK:   -8.42 KCAL/MOL
REMARK 923 INTER-LIGAND FREE ENERGY PREDICTED BY IDOCK:   -6.73 KCAL/MOL
REMARK 924 INTRA-LIGAND FREE ENERGY PREDICTED BY IDOCK:   -1.69 KCAL/MOL
REMARK 927      BINDING AFFINITY PREDICTED BY RF-SCORE:    0.00 PKD
ROOT
HETATM    1  O   UNL     1     -10.051  12.778  68.776  1.00  0.00    -0.390 OA 
HETATM    2  C   UNL     1     -11.400  12.782  68.297  1.00  0.00    -0.296 C  
HETATM    3  H   UNL     1      -9.860  11.940  69.181  1.00  0.00     0.000 HD 
ENDROOT
BRANCH   2   4
HETATM    4  C   UNL     1     -11.558  11.609  67.298  1.00  0.00    -0.238 C  
BRANCH   4   5
HETATM    5  N   UNL     1     -10.641  11.617  66.099  1.00  0.00    -0.253 NA 
BRANCH   5   6
HETATM    6  C   UNL     1     -11.501  11.605  64.858  1.00  0.00    -0.136 C  
HETATM    7  O   UNL     1     -10.300  13.605  64.258  1.00  0.00    -0.376 OA 
HETATM    8  C   UNL     1     -11.470  12.939  64.115  1.00  0.00    -0.396 C  
HETATM    9  O   UNL     1     -12.393  13.358  63.435  1.00  0.00    -0.728 OA 
ENDBRANCH   5   6
BRANCH   5  10
HETATM   10  C   UNL     1      -9.829  10.349  66.108  1.00  0.00    -0.222 C  
HETATM   11  O   UNL     1      -8.039  11.737  66.907  1.00  0.00    -0.163 OA 
HETATM   12  O   UNL     1      -7.468   9.871  65.753  1.00  0.00    -0.101 OA 
HETATM   13  C   UNL     1      -8.326  10.615  66.208  1.00  0.00    -0.155 C  
ENDBRANCH   5  10
ENDBRANCH   4   5
ENDBRANCH   2   4
BRANCH   2  14
HETATM   14  C   UNL     1     -11.713  14.158  67.633  1.00  0.00    -0.387 C  
BRANCH  14  15
HETATM   15  N   UNL     1     -10.887  15.343  68.061  1.00  0.00    -0.282 NA 
BRANCH  15  16
HETATM   16  C   UNL     1     -10.599  16.177  66.833  1.00  0.00    -0.283 C  
HETATM   17  C   UNL     1      -9.142  16.097  66.391  1.00  0.00    -0.304 C  
HETATM   18  O   UNL     1      -8.566  14.906  66.697  1.00  0.00    -0.244 OA 
HETATM   19  O   UNL     1      -8.564  16.975  65.770  1.00  0.00    -0.517 OA 
ENDBRANCH  15  16
BRANCH  15  20
HETATM   20  C   UNL     1     -11.741  16.206  68.976  1.00  0.00    -0.254 C  
HETATM   21  C   UNL     1     -11.737  15.735  70.431  1.00  0.00    -0.370 C  
HETATM   22  O   UNL     1     -10.592  15.102  70.784  1.00  0.00    -0.179 OA 
HETATM   23  O   UNL     1     -12.643  15.949  71.217  1.00  0.00    -0.454 OA 
ENDBRANCH  15  20
ENDBRANCH  14  15
ENDBRANCH   2  14
TORSDOF 8
ENDMDL
MODEL       76
REMARK 921   NORMALIZED FREE ENERGY PREDICTED BY IDOCK:   -4.83 KCAL/MOL
REMARK 922        TOTAL FREE ENERGY PREDICTED BY IDOCK:   -8.42 KCAL/MOL
REMARK 923 INTER-LIGAND FREE ENERGY PREDICTED BY IDOCK:   -7.04 KCAL/MOL
REMARK 924 INTRA-LIGAND FREE ENERGY PREDICTED BY IDOCK:   -1.38 KCAL/MOL
REMARK 927      BINDING AFFINITY PREDICTED BY RF-SCORE:    0.00 PKD
ROOT
HETATM    1  O   UNL     1      -8.668  14.657  66.454  1.00  0.00    -0.452 OA 
HETATM    2  C   UNL     1      -9.362  15.819  65.985  1.00  0.00    -0.349 C  
HETATM    3  H   UNL     1      -7.737  14.838  66.494  1.00  0.00     0.000 HD 
ENDROOT
BRANCH   2   4
HETATM    4  C   UNL     1      -9.042  16.989  66.949  1.00  0.00    -0.236 C  
BRANCH   4   5
HETATM    5  N   UNL     1      -7.677  17.620  66.813  1.00  0.00    -0.211 NA 
BRANCH   5   6
HETATM    6  C   UNL     1      -6.980  17.503  68.148  1.00  0.00    -0.200 C  
HETATM    7  O   UNL     1      -5.955  15.538  67.206  1.00  0.00    -0.326 OA 
HETATM    8  C   UNL     1      -6.351  16.128  68.358  1.00  0.00    -0.112 C  
HETATM    9  O   UNL     1      -6.193  15.614  69.454  1.00  0.00    -0.121 OA 
ENDBRANCH   5   6
BRANCH   5  10
HETATM   10  C   UNL     1      -7.854  19.085  66.513  1.00  0.00    -0.268 C  
HETATM   11  O   UNL     1      -6.195  18.731  64.813  1.00  0.00    -0.430 OA 
HETATM   12  O   UNL     1      -6.353  20.816  65.688  1.00  0.00    -0.239 OA 
HETATM   13  C   UNL     1      -6.719  19.649  65.657  1.00  0.00    -0.276 C  
ENDBRANCH   5  10
ENDBRANCH   4   5
ENDBRANCH   2   4
BRANCH   2  14
HETATM   14  C   UNL     1     -10.891  15.522  65.918  1.00  0.00    -0.313 C  
BRANCH  14  15
HETATM   15  N   UNL     1     -11.347  14.128  66.264  1.00  0.00    -0.329 NA 
BRANCH  15  16
HETATM   16  C   UNL     1     -11.910  14.157  67.666  1.00  0.00    -0.392 C  
HETATM   17  C   UNL     1     -11.303  13.091  68.572  1.00  0.00    -0.288 C  
HETATM   18  O   UNL     1     -10.024  12.783  68.234  1.00  0.00    -0.223 OA 
HETATM   19  O   UNL     1     -11.870  12.606  69.537  1.00  0.00    -0.306 OA 
ENDBRANCH  15  16
BRANCH  15  20
HETATM   20  C   UNL     1     -12.502  13.769  65.343  1.00  0.00    -0.500 C  
HETATM   21  C   UNL     1     -12.194  12.594  64.414  1.00  0.00    -0.443 C  
HETATM   22  O   UNL     1     -11.299  11.721  64.935  1.00  0.00    -0.301 OA 
HETATM   23  O   UNL     1     -12.733  12.423  63.335  1.00  0.00    -0.722 OA 
ENDBRANCH  15  20
ENDBRANCH  14  15
ENDBRANCH   2  14
TORSDOF 8
ENDMDL
MODEL       77
REMARK 921   NORMALIZED FREE ENERGY PREDICTED BY IDOCK:   -4.82 KCAL/MOL
REMARK 922        TOTAL FREE ENERGY PREDICTED BY IDOCK:   -8.41 KCAL/MOL
REMARK 923 INTER-LIGAND FREE ENERGY PREDICTED BY IDOCK:   -7.21 KCAL/MOL
REMARK 924 INTRA-LIGAND FREE ENERGY PREDICTED BY IDOCK:   -1.20 KCAL/MOL
REMARK 927      BINDING AFFINITY PREDICTED BY RF-SCORE:    0.00 PKD
ROOT
HETATM    1  O   UNL     1     -12.187  14.438  68.251  1.00  0.00    -0.570 OA 
HETATM    2  C   UNL     1     -11.180  13.422  68.176  1.00  0.00    -0.273 C  
HETATM    3  H   UNL     1     -11.783  15.293  68.160  1.00  0.00     0.000 HD 
ENDROOT
BRANCH   2   4
HETATM    4  C   UNL     1     -10.448  13.573  66.818  1.00  0.00    -0.273 C  
BRANCH   4   5
HETATM    5  N   UNL     1     -11.003  14.602  65.864  1.00  0.00    -0.324 NA 
BRANCH   5   6
HETATM    6  C   UNL     1     -11.399  13.888  64.593  1.00  0.00    -0.375 C  
HETATM    7  O   UNL     1     -13.610  13.855  65.547  1.00  0.00    -0.579 OA 
HETATM    8  C   UNL     1     -12.765  13.216  64.704  1.00  0.00    -0.261 C  
HETATM    9  O   UNL     1     -13.082  12.216  64.079  1.00  0.00    -0.723 OA 
ENDBRANCH   5   6
BRANCH   5  10
HETATM   10  C   UNL     1      -9.909  15.578  65.522  1.00  0.00    -0.313 C  
HETATM   11  O   UNL     1     -10.858  16.943  67.255  1.00  0.00    -0.257 OA 
HETATM   12  O   UNL     1      -9.753  18.007  65.586  1.00  0.00    -0.467 OA 
HETATM   13  C   UNL     1     -10.167  16.973  66.092  1.00  0.00    -0.337 C  
ENDBRANCH   5  10
ENDBRANCH   4   5
ENDBRANCH   2   4
BRANCH   2  14
HETATM   14  C   UNL     1     -11.843  12.019  68.326  1.00  0.00    -0.287 C  
BRANCH  14  15
HETATM   15  N   UNL     1     -11.350  11.130  69.438  1.00  0.00    -0.257 NA 
BRANCH  15  16
HETATM   16  C   UNL     1     -12.534  10.773  70.308  1.00  0.00    -0.317 C  
HETATM   17  C   UNL     1     -12.811  11.813  71.388  1.00  0.00    -0.335 C  
HETATM   18  O   UNL     1     -12.448  13.067  71.013  1.00  0.00    -0.368 OA 
HETATM   19  O   UNL     1     -13.359  11.570  72.451  1.00  0.00    -0.289 OA 
ENDBRANCH  15  16
BRANCH  15  20
HETATM   20  C   UNL     1     -10.863   9.830  68.820  1.00  0.00    -0.188 C  
HETATM   21  C   UNL     1      -9.426   9.905  68.304  1.00  0.00    -0.139 C  
HETATM   22  O   UNL     1      -8.659  10.792  68.984  1.00  0.00    -0.163 OA 
HETATM   23  O   UNL     1      -8.988   9.205  67.408  1.00  0.00    -0.118 OA 
ENDBRANCH  15  20
ENDBRANCH  14  15
ENDBRANCH   2  14
TORSDOF 8
ENDMDL
MODEL       78
REMARK 921   NORMALIZED FREE ENERGY PREDICTED BY IDOCK:   -4.80 KCAL/MOL
REMARK 922        TOTAL FREE ENERGY PREDICTED BY IDOCK:   -8.38 KCAL/MOL
REMARK 923 INTER-LIGAND FREE ENERGY PREDICTED BY IDOCK:   -7.37 KCAL/MOL
REMARK 924 INTRA-LIGAND FREE ENERGY PREDICTED BY IDOCK:   -1.01 KCAL/MOL
REMARK 927      BINDING AFFINITY PREDICTED BY RF-SCORE:    0.00 PKD
ROOT
HETATM    1  O   UNL     1      -8.022  14.755  66.788  1.00  0.00    -0.347 OA 
HETATM    2  C   UNL     1      -9.272  14.620  67.472  1.00  0.00    -0.192 C  
HETATM    3  H   UNL     1      -7.911  15.654  66.503  1.00  0.00     0.000 HD 
ENDROOT
BRANCH   2   4
HETATM    4  C   UNL     1      -9.275  15.609  68.666  1.00  0.00    -0.205 C  
BRANCH   4   5
HETATM    5  N   UNL     1     -10.397  16.618  68.701  1.00  0.00    -0.284 NA 
BRANCH   5   6
HETATM    6  C   UNL     1     -11.698  15.860  68.811  1.00  0.00    -0.349 C  
HETATM    7  O   UNL     1     -11.538  16.338  71.166  1.00  0.00    -0.427 OA 
HETATM    8  C   UNL     1     -12.024  15.468  70.250  1.00  0.00    -0.374 C  
HETATM    9  O   UNL     1     -12.680  14.483  70.553  1.00  0.00    -0.344 OA 
ENDBRANCH   5   6
BRANCH   5  10
HETATM   10  C   UNL     1     -10.410  17.366  67.395  1.00  0.00    -0.343 C  
HETATM   11  O   UNL     1     -10.080  19.326  68.743  1.00  0.00    -0.418 OA 
HETATM   12  O   UNL     1     -11.131  19.602  66.754  1.00  0.00    -0.377 OA 
HETATM   13  C   UNL     1     -10.605  18.872  67.582  1.00  0.00    -0.428 C  
ENDBRANCH   5  10
ENDBRANCH   4   5
ENDBRANCH   2   4
BRANCH   2  14
HETATM   14  C   UNL     1      -9.454  13.144  67.940  1.00  0.00    -0.218 C  
BRANCH  14  15
HETATM   15  N   UNL     1     -10.319  12.246  67.094  1.00  0.00    -0.217 NA 
BRANCH  15  16
HETATM   16  C   UNL     1     -10.416  10.906  67.787  1.00  0.00    -0.203 C  
HETATM   17  C   UNL     1     -10.190   9.731  66.841  1.00  0.00    -0.245 C  
HETATM   18  O   UNL     1      -9.354  10.039  65.815  1.00  0.00    -0.163 OA 
HETATM   19  O   UNL     1     -10.650   8.614  67.011  1.00  0.00    -0.294 OA 
ENDBRANCH  15  16
BRANCH  15  20
HETATM   20  C   UNL     1     -11.725  12.825  67.079  1.00  0.00    -0.374 C  
HETATM   21  C   UNL     1     -12.250  13.103  65.671  1.00  0.00    -0.466 C  
HETATM   22  O   UNL     1     -11.726  12.279  64.732  1.00  0.00    -0.350 OA 
HETATM   23  O   UNL     1     -13.095  13.943  65.415  1.00  0.00    -0.752 OA 
ENDBRANCH  15  20
ENDBRANCH  14  15
ENDBRANCH   2  14
TORSDOF 8
ENDMDL
MODEL       79
REMARK 921   NORMALIZED FREE ENERGY PREDICTED BY IDOCK:   -4.80 KCAL/MOL
REMARK 922        TOTAL FREE ENERGY PREDICTED BY IDOCK:   -8.38 KCAL/MOL
REMARK 923 INTER-LIGAND FREE ENERGY PREDICTED BY IDOCK:   -7.23 KCAL/MOL
REMARK 924 INTRA-LIGAND FREE ENERGY PREDICTED BY IDOCK:   -1.15 KCAL/MOL
REMARK 927      BINDING AFFINITY PREDICTED BY RF-SCORE:    0.00 PKD
ROOT
HETATM    1  O   UNL     1     -12.194  10.813  68.120  1.00  0.00    -0.765 OA 
HETATM    2  C   UNL     1     -10.797  10.558  67.939  1.00  0.00    -0.282 C  
HETATM    3  H   UNL     1     -12.579  10.118  68.642  1.00  0.00     0.000 HD 
ENDROOT
BRANCH   2   4
HETATM    4  C   UNL     1     -10.142  10.458  69.340  1.00  0.00    -0.229 C  
BRANCH   4   5
HETATM    5  N   UNL     1      -9.970   9.068  69.905  1.00  0.00    -0.184 NA 
BRANCH   5   6
HETATM    6  C   UNL     1     -10.375   9.108  71.359  1.00  0.00    -0.338 C  
HETATM    7  O   UNL     1     -11.935   7.374  70.758  1.00  0.00    -0.292 OA 
HETATM    8  C   UNL     1     -11.701   8.396  71.615  1.00  0.00    -0.298 C  
HETATM    9  O   UNL     1     -12.469   8.694  72.516  1.00  0.00    -0.391 OA 
ENDBRANCH   5   6
BRANCH   5  10
HETATM   10  C   UNL     1      -8.511   8.702  69.843  1.00  0.00    -0.129 C  
HETATM   11  O   UNL     1      -9.153   7.271  68.024  1.00  0.00    -0.134 OA 
HETATM   12  O   UNL     1      -7.321   6.673  69.216  1.00  0.00    -0.087 OA 
HETATM   13  C   UNL     1      -8.258   7.435  69.026  1.00  0.00    -0.128 C  
ENDBRANCH   5  10
ENDBRANCH   4   5
ENDBRANCH   2   4
BRANCH   2  14
HETATM   14  C   UNL     1     -10.166  11.698  67.082  1.00  0.00    -0.213 C  
BRANCH  14  15
HETATM   15  N   UNL     1     -11.058  12.843  66.680  1.00  0.00    -0.276 NA 
BRANCH  15  16
HETATM   16  C   UNL     1     -10.536  14.097  67.343  1.00  0.00    -0.271 C  
HETATM   17  C   UNL     1     -11.509  14.676  68.365  1.00  0.00    -0.311 C  
HETATM   18  O   UNL     1     -12.278  13.725  68.954  1.00  0.00    -0.344 OA 
HETATM   19  O   UNL     1     -11.556  15.855  68.676  1.00  0.00    -0.382 OA 
ENDBRANCH  15  16
BRANCH  15  20
HETATM   20  C   UNL     1     -10.905  13.054  65.182  1.00  0.00    -0.300 C  
HETATM   21  C   UNL     1     -12.233  13.294  64.464  1.00  0.00    -0.400 C  
HETATM   22  O   UNL     1     -13.168  13.878  65.252  1.00  0.00    -0.774 OA 
HETATM   23  O   UNL     1     -12.425  13.040  63.288  1.00  0.00    -0.699 OA 
ENDBRANCH  15  20
ENDBRANCH  14  15
ENDBRANCH   2  14
TORSDOF 8
ENDMDL
MODEL       80
REMARK 921   NORMALIZED FREE ENERGY PREDICTED BY IDOCK:   -4.79 KCAL/MOL
REMARK 922        TOTAL FREE ENERGY PREDICTED BY IDOCK:   -8.37 KCAL/MOL
REMARK 923 INTER-LIGAND FREE ENERGY PREDICTED BY IDOCK:   -7.43 KCAL/MOL
REMARK 924 INTRA-LIGAND FREE ENERGY PREDICTED BY IDOCK:   -0.94 KCAL/MOL
REMARK 927      BINDING AFFINITY PREDICTED BY RF-SCORE:    0.00 PKD
ROOT
HETATM    1  O   UNL     1      -7.789  13.649  68.673  1.00  0.00    -0.150 OA 
HETATM    2  C   UNL     1      -8.981  14.239  68.143  1.00  0.00    -0.189 C  
HETATM    3  H   UNL     1      -7.820  12.707  68.553  1.00  0.00     0.000 HD 
ENDROOT
BRANCH   2   4
HETATM    4  C   UNL     1      -9.083  13.851  66.646  1.00  0.00    -0.190 C  
BRANCH   4   5
HETATM    5  N   UNL     1     -10.441  13.410  66.155  1.00  0.00    -0.290 NA 
BRANCH   5   6
HETATM    6  C   UNL     1     -10.302  12.010  65.607  1.00  0.00    -0.253 C  
HETATM    7  O   UNL     1     -11.750  11.378  67.425  1.00  0.00    -0.574 OA 
HETATM    8  C   UNL     1     -10.767  10.947  66.599  1.00  0.00    -0.230 C  
HETATM    9  O   UNL     1     -10.322   9.811  66.636  1.00  0.00    -0.235 OA 
ENDBRANCH   5   6
BRANCH   5  10
HETATM   10  C   UNL     1     -10.855  14.309  65.021  1.00  0.00    -0.403 C  
HETATM   11  O   UNL     1     -13.076  14.062  65.901  1.00  0.00    -0.411 OA 
HETATM   12  O   UNL     1     -12.883  14.488  63.683  1.00  0.00    -0.632 OA 
HETATM   13  C   UNL     1     -12.364  14.282  64.772  1.00  0.00    -0.426 C  
ENDBRANCH   5  10
ENDBRANCH   4   5
ENDBRANCH   2   4
BRANCH   2  14
HETATM   14  C   UNL     1      -8.931  15.785  68.341  1.00  0.00    -0.187 C  
BRANCH  14  15
HETATM   15  N   UNL     1     -10.244  16.518  68.438  1.00  0.00    -0.253 NA 
BRANCH  15  16
HETATM   16  C   UNL     1     -10.710  16.450  69.874  1.00  0.00    -0.300 C  
HETATM   17  C   UNL     1     -12.002  15.657  70.041  1.00  0.00    -0.368 C  
HETATM   18  O   UNL     1     -12.139  14.676  69.112  1.00  0.00    -0.299 OA 
HETATM   19  O   UNL     1     -12.803  15.833  70.945  1.00  0.00    -0.468 OA 
ENDBRANCH  15  16
BRANCH  15  20
HETATM   20  C   UNL     1      -9.985  17.986  68.139  1.00  0.00    -0.353 C  
HETATM   21  C   UNL     1      -9.694  18.262  66.664  1.00  0.00    -0.339 C  
HETATM   22  O   UNL     1     -10.290  17.379  65.827  1.00  0.00    -0.543 OA 
HETATM   23  O   UNL     1      -9.037  19.209  66.267  1.00  0.00    -0.337 OA 
ENDBRANCH  15  20
ENDBRANCH  14  15
ENDBRANCH   2  14
TORSDOF 8
ENDMDL
MODEL       81
REMARK 921   NORMALIZED FREE ENERGY PREDICTED BY IDOCK:   -4.79 KCAL/MOL
REMARK 922        TOTAL FREE ENERGY PREDICTED BY IDOCK:   -8.36 KCAL/MOL
REMARK 923 INTER-LIGAND FREE ENERGY PREDICTED BY IDOCK:   -7.39 KCAL/MOL
REMARK 924 INTRA-LIGAND FREE ENERGY PREDICTED BY IDOCK:   -0.97 KCAL/MOL
REMARK 927      BINDING AFFINITY PREDICTED BY RF-SCORE:    0.00 PKD
ROOT
HETATM    1  O   UNL     1      -8.498  11.952  66.117  1.00  0.00    -0.381 OA 
HETATM    2  C   UNL     1      -9.473  12.525  66.995  1.00  0.00    -0.217 C  
HETATM    3  H   UNL     1      -8.611  12.307  65.243  1.00  0.00     0.000 HD 
ENDROOT
BRANCH   2   4
HETATM    4  C   UNL     1      -9.297  14.064  66.970  1.00  0.00    -0.250 C  
BRANCH   4   5
HETATM    5  N   UNL     1     -10.477  14.869  66.480  1.00  0.00    -0.289 NA 
BRANCH   5   6
HETATM    6  C   UNL     1     -11.555  14.798  67.535  1.00  0.00    -0.361 C  
HETATM    7  O   UNL     1     -10.905  17.058  68.055  1.00  0.00    -0.371 OA 
HETATM    8  C   UNL     1     -11.440  15.922  68.562  1.00  0.00    -0.377 C  
HETATM    9  O   UNL     1     -11.815  15.825  69.720  1.00  0.00    -0.343 OA 
ENDBRANCH   5   6
BRANCH   5  10
HETATM   10  C   UNL     1     -11.013  14.222  65.231  1.00  0.00    -0.343 C  
HETATM   11  O   UNL     1     -11.300  16.469  64.431  1.00  0.00    -0.921 OA 
HETATM   12  O   UNL     1     -12.685  14.884  63.589  1.00  0.00    -0.689 OA 
HETATM   13  C   UNL     1     -11.776  15.205  64.342  1.00  0.00    -0.295 C  
ENDBRANCH   5  10
ENDBRANCH   4   5
ENDBRANCH   2   4
BRANCH   2  14
HETATM   14  C   UNL     1      -9.289  11.943  68.430  1.00  0.00    -0.184 C  
BRANCH  14  15
HETATM   15  N   UNL     1     -10.164  10.783  68.830  1.00  0.00    -0.195 NA 
BRANCH  15  16
HETATM   16  C   UNL     1     -11.374  11.339  69.546  1.00  0.00    -0.294 C  
HETATM   17  C   UNL     1     -11.984  10.351  70.535  1.00  0.00    -0.334 C  
HETATM   18  O   UNL     1     -11.062   9.506  71.066  1.00  0.00    -0.303 OA 
HETATM   19  O   UNL     1     -13.157  10.351  70.870  1.00  0.00    -0.384 OA 
ENDBRANCH  15  16
BRANCH  15  20
HETATM   20  C   UNL     1     -10.679  10.124  67.561  1.00  0.00    -0.290 C  
HETATM   21  C   UNL     1     -10.072   8.745  67.305  1.00  0.00    -0.236 C  
HETATM   22  O   UNL     1      -9.714   8.099  68.441  1.00  0.00    -0.155 OA 
HETATM   23  O   UNL     1      -9.965   8.245  66.199  1.00  0.00    -0.178 OA 
ENDBRANCH  15  20
ENDBRANCH  14  15
ENDBRANCH   2  14
TORSDOF 8
ENDMDL
MODEL       82
REMARK 921   NORMALIZED FREE ENERGY PREDICTED BY IDOCK:   -4.78 KCAL/MOL
REMARK 922        TOTAL FREE ENERGY PREDICTED BY IDOCK:   -8.36 KCAL/MOL
REMARK 923 INTER-LIGAND FREE ENERGY PREDICTED BY IDOCK:   -7.24 KCAL/MOL
REMARK 924 INTRA-LIGAND FREE ENERGY PREDICTED BY IDOCK:   -1.12 KCAL/MOL
REMARK 927      BINDING AFFINITY PREDICTED BY RF-SCORE:    0.00 PKD
ROOT
HETATM    1  O   UNL     1     -10.584  14.841  70.466  1.00  0.00    -0.494 OA 
HETATM    2  C   UNL     1     -10.554  15.177  69.074  1.00  0.00    -0.245 C  
HETATM    3  H   UNL     1      -9.846  15.248  70.907  1.00  0.00     0.000 HD 
ENDROOT
BRANCH   2   4
HETATM    4  C   UNL     1     -10.589  16.722  68.953  1.00  0.00    -0.350 C  
BRANCH   4   5
HETATM    5  N   UNL     1      -9.379  17.375  68.329  1.00  0.00    -0.270 NA 
BRANCH   5   6
HETATM    6  C   UNL     1      -9.868  18.360  67.293  1.00  0.00    -0.317 C  
HETATM    7  O   UNL     1      -8.213  19.842  68.223  1.00  0.00    -0.318 OA 
HETATM    8  C   UNL     1      -9.403  19.785  67.579  1.00  0.00    -0.340 C  
HETATM    9  O   UNL     1     -10.023  20.782  67.242  1.00  0.00    -0.433 OA 
ENDBRANCH   5   6
BRANCH   5  10
HETATM   10  C   UNL     1      -8.578  16.318  67.616  1.00  0.00    -0.173 C  
HETATM   11  O   UNL     1      -6.817  16.912  69.138  1.00  0.00    -0.219 OA 
HETATM   12  O   UNL     1      -6.206  16.064  67.126  1.00  0.00    -0.272 OA 
HETATM   13  C   UNL     1      -7.080  16.425  67.903  1.00  0.00    -0.135 C  
ENDBRANCH   5  10
ENDBRANCH   4   5
ENDBRANCH   2   4
BRANCH   2  14
HETATM   14  C   UNL     1     -11.765  14.510  68.352  1.00  0.00    -0.333 C  
BRANCH  14  15
HETATM   15  N   UNL     1     -11.472  13.654  67.147  1.00  0.00    -0.325 NA 
BRANCH  15  16
HETATM   16  C   UNL     1     -11.651  12.208  67.549  1.00  0.00    -0.343 C  
HETATM   17  C   UNL     1     -10.387  11.377  67.353  1.00  0.00    -0.202 C  
HETATM   18  O   UNL     1      -9.252  12.108  67.496  1.00  0.00    -0.173 OA 
HETATM   19  O   UNL     1     -10.381  10.173  67.153  1.00  0.00    -0.212 OA 
ENDBRANCH  15  16
BRANCH  15  20
HETATM   20  C   UNL     1     -12.532  13.943  66.096  1.00  0.00    -0.436 C  
HETATM   21  C   UNL     1     -11.952  14.428  64.767  1.00  0.00    -0.447 C  
HETATM   22  O   UNL     1     -10.706  13.954  64.523  1.00  0.00    -0.412 OA 
HETATM   23  O   UNL     1     -12.559  15.127  63.976  1.00  0.00    -0.791 OA 
ENDBRANCH  15  20
ENDBRANCH  14  15
ENDBRANCH   2  14
TORSDOF 8
ENDMDL
MODEL       83
REMARK 921   NORMALIZED FREE ENERGY PREDICTED BY IDOCK:   -4.78 KCAL/MOL
REMARK 922        TOTAL FREE ENERGY PREDICTED BY IDOCK:   -8.35 KCAL/MOL
REMARK 923 INTER-LIGAND FREE ENERGY PREDICTED BY IDOCK:   -7.62 KCAL/MOL
REMARK 924 INTRA-LIGAND FREE ENERGY PREDICTED BY IDOCK:   -0.73 KCAL/MOL
REMARK 927      BINDING AFFINITY PREDICTED BY RF-SCORE:    0.00 PKD
ROOT
HETATM    1  O   UNL     1     -10.570  15.134  70.232  1.00  0.00    -0.431 OA 
HETATM    2  C   UNL     1     -11.002  14.252  69.190  1.00  0.00    -0.261 C  
HETATM    3  H   UNL     1      -9.864  15.684  69.911  1.00  0.00     0.000 HD 
ENDROOT
BRANCH   2   4
HETATM    4  C   UNL     1     -11.448  15.117  67.984  1.00  0.00    -0.342 C  
BRANCH   4   5
HETATM    5  N   UNL     1     -11.015  14.641  66.618  1.00  0.00    -0.316 NA 
BRANCH   5   6
HETATM    6  C   UNL     1     -10.620  15.854  65.810  1.00  0.00    -0.355 C  
HETATM    7  O   UNL     1      -8.391  15.393  66.595  1.00  0.00    -0.258 OA 
HETATM    8  C   UNL     1      -9.230  16.369  66.173  1.00  0.00    -0.330 C  
HETATM    9  O   UNL     1      -8.890  17.537  66.072  1.00  0.00    -0.499 OA 
ENDBRANCH   5   6
BRANCH   5  10
HETATM   10  C   UNL     1     -12.196  14.000  65.938  1.00  0.00    -0.456 C  
HETATM   11  O   UNL     1     -10.555  12.728  64.731  1.00  0.00    -0.297 OA 
HETATM   12  O   UNL     1     -12.548  13.082  63.710  1.00  0.00    -0.673 OA 
HETATM   13  C   UNL     1     -11.803  13.247  64.666  1.00  0.00    -0.378 C  
ENDBRANCH   5  10
ENDBRANCH   4   5
ENDBRANCH   2   4
BRANCH   2  14
HETATM   14  C   UNL     1     -12.159  13.350  69.718  1.00  0.00    -0.310 C  
BRANCH  14  15
HETATM   15  N   UNL     1     -11.801  11.970  70.205  1.00  0.00    -0.330 NA 
BRANCH  15  16
HETATM   16  C   UNL     1     -12.840  11.550  71.219  1.00  0.00    -0.360 C  
HETATM   17  C   UNL     1     -12.590  10.154  71.781  1.00  0.00    -0.403 C  
HETATM   18  O   UNL     1     -11.271   9.829  71.810  1.00  0.00    -0.260 OA 
HETATM   19  O   UNL     1     -13.464   9.424  72.220  1.00  0.00    -0.434 OA 
ENDBRANCH  15  16
BRANCH  15  20
HETATM   20  C   UNL     1     -11.930  11.009  69.033  1.00  0.00    -0.293 C  
HETATM   21  C   UNL     1     -10.622  10.805  68.269  1.00  0.00    -0.200 C  
HETATM   22  O   UNL     1      -9.521  10.962  69.043  1.00  0.00    -0.197 OA 
HETATM   23  O   UNL     1     -10.564  10.481  67.097  1.00  0.00    -0.237 OA 
ENDBRANCH  15  20
ENDBRANCH  14  15
ENDBRANCH   2  14
TORSDOF 8
ENDMDL
MODEL       84
REMARK 921   NORMALIZED FREE ENERGY PREDICTED BY IDOCK:   -4.77 KCAL/MOL
REMARK 922        TOTAL FREE ENERGY PREDICTED BY IDOCK:   -8.33 KCAL/MOL
REMARK 923 INTER-LIGAND FREE ENERGY PREDICTED BY IDOCK:   -7.57 KCAL/MOL
REMARK 924 INTRA-LIGAND FREE ENERGY PREDICTED BY IDOCK:   -0.76 KCAL/MOL
REMARK 927      BINDING AFFINITY PREDICTED BY RF-SCORE:    0.00 PKD
ROOT
HETATM    1  O   UNL     1     -10.605  16.064  68.250  1.00  0.00    -0.261 OA 
HETATM    2  C   UNL     1     -11.538  15.019  68.546  1.00  0.00    -0.326 C  
HETATM    3  H   UNL     1     -10.444  16.578  69.033  1.00  0.00     0.000 HD 
ENDROOT
BRANCH   2   4
HETATM    4  C   UNL     1     -10.948  14.158  69.691  1.00  0.00    -0.081 C  
BRANCH   4   5
HETATM    5  N   UNL     1     -11.933  13.593  70.685  1.00  0.00    -0.297 NA 
BRANCH   5   6
HETATM    6  C   UNL     1     -12.369  12.236  70.185  1.00  0.00    -0.138 C  
HETATM    7  O   UNL     1     -13.349  11.976  72.369  1.00  0.00    -0.403 OA 
HETATM    8  C   UNL     1     -12.815  11.314  71.317  1.00  0.00    -0.389 C  
HETATM    9  O   UNL     1     -12.726  10.097  71.275  1.00  0.00    -0.340 OA 
ENDBRANCH   5   6
BRANCH   5  10
HETATM   10  C   UNL     1     -13.147  14.484  70.716  1.00  0.00    -0.306 C  
HETATM   11  O   UNL     1     -12.033  15.601  72.527  1.00  0.00    -0.380 OA 
HETATM   12  O   UNL     1     -14.298  15.681  72.496  1.00  0.00    -0.537 OA 
HETATM   13  C   UNL     1     -13.245  15.297  72.007  1.00  0.00    -0.407 C  
ENDBRANCH   5  10
ENDBRANCH   4   5
ENDBRANCH   2   4
BRANCH   2  14
HETATM   14  C   UNL     1     -11.801  14.176  67.261  1.00  0.00    -0.419 C  
BRANCH  14  15
HETATM   15  N   UNL     1     -10.660  14.008  66.291  1.00  0.00    -0.279 NA 
BRANCH  15  16
HETATM   16  C   UNL     1     -10.253  12.553  66.299  1.00  0.00    -0.248 C  
HETATM   17  C   UNL     1      -8.841  12.335  66.833  1.00  0.00    -0.207 C  
HETATM   18  O   UNL     1      -8.478  13.269  67.750  1.00  0.00    -0.155 OA 
HETATM   19  O   UNL     1      -8.129  11.393  66.527  1.00  0.00    -0.165 OA 
ENDBRANCH  15  16
BRANCH  15  20
HETATM   20  C   UNL     1     -11.184  14.301  64.894  1.00  0.00    -0.379 C  
HETATM   21  C   UNL     1     -11.375  15.792  64.618  1.00  0.00    -0.337 C  
HETATM   22  O   UNL     1     -10.528  16.579  65.324  1.00  0.00    -0.590 OA 
HETATM   23  O   UNL     1     -12.168  16.237  63.807  1.00  0.00    -0.923 OA 
ENDBRANCH  15  20
ENDBRANCH  14  15
ENDBRANCH   2  14
TORSDOF 8
ENDMDL
MODEL       85
REMARK 921   NORMALIZED FREE ENERGY PREDICTED BY IDOCK:   -4.76 KCAL/MOL
REMARK 922        TOTAL FREE ENERGY PREDICTED BY IDOCK:   -8.32 KCAL/MOL
REMARK 923 INTER-LIGAND FREE ENERGY PREDICTED BY IDOCK:   -7.11 KCAL/MOL
REMARK 924 INTRA-LIGAND FREE ENERGY PREDICTED BY IDOCK:   -1.22 KCAL/MOL
REMARK 927      BINDING AFFINITY PREDICTED BY RF-SCORE:    0.00 PKD
ROOT
HETATM    1  O   UNL     1      -9.287  10.821  69.343  1.00  0.00    -0.388 OA 
HETATM    2  C   UNL     1     -10.693  11.094  69.311  1.00  0.00    -0.199 C  
HETATM    3  H   UNL     1      -8.971  10.891  70.237  1.00  0.00     0.000 HD 
ENDROOT
BRANCH   2   4
HETATM    4  C   UNL     1     -11.399  10.087  70.255  1.00  0.00    -0.308 C  
BRANCH   4   5
HETATM    5  N   UNL     1     -10.598   8.875  70.667  1.00  0.00    -0.216 NA 
BRANCH   5   6
HETATM    6  C   UNL     1     -11.105   7.695  69.872  1.00  0.00    -0.150 C  
HETATM    7  O   UNL     1      -9.089   7.961  68.583  1.00  0.00    -0.137 OA 
HETATM    8  C   UNL     1     -10.370   7.527  68.545  1.00  0.00    -0.199 C  
HETATM    9  O   UNL     1     -10.872   7.029  67.550  1.00  0.00    -0.263 OA 
ENDBRANCH   5   6
BRANCH   5  10
HETATM   10  C   UNL     1     -10.864   8.598  72.122  1.00  0.00    -0.354 C  
HETATM   11  O   UNL     1      -8.474   8.645  72.360  1.00  0.00    -0.342 OA 
HETATM   12  O   UNL     1      -9.639   7.389  73.846  1.00  0.00    -0.270 OA 
HETATM   13  C   UNL     1      -9.615   8.122  72.866  1.00  0.00    -0.275 C  
ENDBRANCH   5  10
ENDBRANCH   4   5
ENDBRANCH   2   4
BRANCH   2  14
HETATM   14  C   UNL     1     -11.213  10.978  67.845  1.00  0.00    -0.310 C  
BRANCH  14  15
HETATM   15  N   UNL     1     -11.542  12.257  67.120  1.00  0.00    -0.414 NA 
BRANCH  15  16
HETATM   16  C   UNL     1     -10.528  13.300  67.531  1.00  0.00    -0.235 C  
HETATM   17  C   UNL     1     -11.164  14.517  68.195  1.00  0.00    -0.284 C  
HETATM   18  O   UNL     1     -12.307  14.212  68.861  1.00  0.00    -0.284 OA 
HETATM   19  O   UNL     1     -10.675  15.635  68.190  1.00  0.00    -0.267 OA 
ENDBRANCH  15  16
BRANCH  15  20
HETATM   20  C   UNL     1     -11.337  12.020  65.632  1.00  0.00    -0.329 C  
HETATM   21  C   UNL     1     -12.473  12.568  64.769  1.00  0.00    -0.457 C  
HETATM   22  O   UNL     1     -13.094  13.639  65.319  1.00  0.00    -0.735 OA 
HETATM   23  O   UNL     1     -12.765  12.128  63.671  1.00  0.00    -0.692 OA 
ENDBRANCH  15  20
ENDBRANCH  14  15
ENDBRANCH   2  14
TORSDOF 8
ENDMDL
MODEL       86
REMARK 921   NORMALIZED FREE ENERGY PREDICTED BY IDOCK:   -4.76 KCAL/MOL
REMARK 922        TOTAL FREE ENERGY PREDICTED BY IDOCK:   -8.32 KCAL/MOL
REMARK 923 INTER-LIGAND FREE ENERGY PREDICTED BY IDOCK:   -6.93 KCAL/MOL
REMARK 924 INTRA-LIGAND FREE ENERGY PREDICTED BY IDOCK:   -1.38 KCAL/MOL
REMARK 927      BINDING AFFINITY PREDICTED BY RF-SCORE:    0.00 PKD
ROOT
HETATM    1  O   UNL     1     -10.712  15.617  65.946  1.00  0.00    -0.322 OA 
HETATM    2  C   UNL     1     -11.117  15.405  67.303  1.00  0.00    -0.302 C  
HETATM    3  H   UNL     1     -10.322  16.480  65.862  1.00  0.00     0.000 HD 
ENDROOT
BRANCH   2   4
HETATM    4  C   UNL     1      -9.869  15.563  68.207  1.00  0.00    -0.213 C  
BRANCH   4   5
HETATM    5  N   UNL     1      -8.843  16.580  67.767  1.00  0.00    -0.196 NA 
BRANCH   5   6
HETATM    6  C   UNL     1      -7.523  16.208  68.399  1.00  0.00    -0.153 C  
HETATM    7  O   UNL     1      -6.548  17.064  66.370  1.00  0.00    -0.225 OA 
HETATM    8  C   UNL     1      -6.379  16.188  67.388  1.00  0.00    -0.176 C  
HETATM    9  O   UNL     1      -5.393  15.476  67.493  1.00  0.00    -0.286 OA 
ENDBRANCH   5   6
BRANCH   5  10
HETATM   10  C   UNL     1      -9.246  17.929  68.302  1.00  0.00    -0.282 C  
HETATM   11  O   UNL     1      -9.837  18.431  66.029  1.00  0.00    -0.489 OA 
HETATM   12  O   UNL     1      -9.245  20.172  67.355  1.00  0.00    -0.342 OA 
HETATM   13  C   UNL     1      -9.417  18.971  67.196  1.00  0.00    -0.307 C  
ENDBRANCH   5  10
ENDBRANCH   4   5
ENDBRANCH   2   4
BRANCH   2  14
HETATM   14  C   UNL     1     -11.758  13.989  67.439  1.00  0.00    -0.388 C  
BRANCH  14  15
HETATM   15  N   UNL     1     -11.247  12.902  66.531  1.00  0.00    -0.291 NA 
BRANCH  15  16
HETATM   16  C   UNL     1     -11.168  11.623  67.334  1.00  0.00    -0.298 C  
HETATM   17  C   UNL     1     -10.111  10.657  66.809  1.00  0.00    -0.224 C  
HETATM   18  O   UNL     1      -9.065  11.294  66.222  1.00  0.00    -0.187 OA 
HETATM   19  O   UNL     1     -10.156   9.447  66.953  1.00  0.00    -0.211 OA 
ENDBRANCH  15  16
BRANCH  15  20
HETATM   20  C   UNL     1     -12.287  12.666  65.448  1.00  0.00    -0.436 C  
HETATM   21  C   UNL     1     -11.838  13.136  64.064  1.00  0.00    -0.453 C  
HETATM   22  O   UNL     1     -10.495  13.087  63.892  1.00  0.00    -0.392 OA 
HETATM   23  O   UNL     1     -12.605  13.471  63.179  1.00  0.00    -0.762 OA 
ENDBRANCH  15  20
ENDBRANCH  14  15
ENDBRANCH   2  14
TORSDOF 8
ENDMDL
MODEL       87
REMARK 921   NORMALIZED FREE ENERGY PREDICTED BY IDOCK:   -4.76 KCAL/MOL
REMARK 922        TOTAL FREE ENERGY PREDICTED BY IDOCK:   -8.32 KCAL/MOL
REMARK 923 INTER-LIGAND FREE ENERGY PREDICTED BY IDOCK:   -7.35 KCAL/MOL
REMARK 924 INTRA-LIGAND FREE ENERGY PREDICTED BY IDOCK:   -0.96 KCAL/MOL
REMARK 927      BINDING AFFINITY PREDICTED BY RF-SCORE:    0.00 PKD
ROOT
HETATM    1  O   UNL     1      -9.257  11.791  68.773  1.00  0.00    -0.359 OA 
HETATM    2  C   UNL     1     -10.522  11.145  68.584  1.00  0.00    -0.197 C  
HETATM    3  H   UNL     1      -8.924  11.589  69.639  1.00  0.00     0.000 HD 
ENDROOT
BRANCH   2   4
HETATM    4  C   UNL     1     -10.317   9.622  68.783  1.00  0.00    -0.213 C  
BRANCH   4   5
HETATM    5  N   UNL     1     -11.033   8.994  69.954  1.00  0.00    -0.223 NA 
BRANCH   5   6
HETATM    6  C   UNL     1     -11.214  10.058  71.011  1.00  0.00    -0.314 C  
HETATM    7  O   UNL     1     -13.363   9.034  71.377  1.00  0.00    -0.332 OA 
HETATM    8  C   UNL     1     -12.667  10.193  71.458  1.00  0.00    -0.436 C  
HETATM    9  O   UNL     1     -13.156  11.231  71.874  1.00  0.00    -0.493 OA 
ENDBRANCH   5   6
BRANCH   5  10
HETATM   10  C   UNL     1     -10.153   7.917  70.532  1.00  0.00    -0.192 C  
HETATM   11  O   UNL     1     -11.643   6.388  69.431  1.00  0.00    -0.382 OA 
HETATM   12  O   UNL     1     -10.571   5.638  71.282  1.00  0.00    -0.242 OA 
HETATM   13  C   UNL     1     -10.809   6.536  70.486  1.00  0.00    -0.271 C  
ENDBRANCH   5  10
ENDBRANCH   4   5
ENDBRANCH   2   4
BRANCH   2  14
HETATM   14  C   UNL     1     -11.070  11.477  67.163  1.00  0.00    -0.297 C  
BRANCH  14  15
HETATM   15  N   UNL     1     -11.342  12.924  66.841  1.00  0.00    -0.296 NA 
BRANCH  15  16
HETATM   16  C   UNL     1     -12.187  12.971  65.589  1.00  0.00    -0.466 C  
HETATM   17  C   UNL     1     -11.841  14.148  64.683  1.00  0.00    -0.431 C  
HETATM   18  O   UNL     1     -10.537  14.516  64.778  1.00  0.00    -0.425 OA 
HETATM   19  O   UNL     1     -12.624  14.669  63.906  1.00  0.00    -0.834 OA 
ENDBRANCH  15  16
BRANCH  15  20
HETATM   20  C   UNL     1     -12.195  13.501  67.958  1.00  0.00    -0.123 C  
HETATM   21  C   UNL     1     -11.523  14.658  68.698  1.00  0.00    -0.300 C  
HETATM   22  O   UNL     1     -10.657  15.356  67.925  1.00  0.00    -0.255 OA 
HETATM   23  O   UNL     1     -11.773  14.963  69.851  1.00  0.00    -0.269 OA 
ENDBRANCH  15  20
ENDBRANCH  14  15
ENDBRANCH   2  14
TORSDOF 8
ENDMDL
MODEL       88
REMARK 921   NORMALIZED FREE ENERGY PREDICTED BY IDOCK:   -4.74 KCAL/MOL
REMARK 922        TOTAL FREE ENERGY PREDICTED BY IDOCK:   -8.29 KCAL/MOL
REMARK 923 INTER-LIGAND FREE ENERGY PREDICTED BY IDOCK:   -7.09 KCAL/MOL
REMARK 924 INTRA-LIGAND FREE ENERGY PREDICTED BY IDOCK:   -1.20 KCAL/MOL
REMARK 927      BINDING AFFINITY PREDICTED BY RF-SCORE:    0.00 PKD
ROOT
HETATM    1  O   UNL     1     -10.595  10.949  65.489  1.00  0.00    -0.243 OA 
HETATM    2  C   UNL     1     -10.181  11.733  66.614  1.00  0.00    -0.210 C  
HETATM    3  H   UNL     1     -10.820  10.072  65.779  1.00  0.00     0.000 HD 
ENDROOT
BRANCH   2   4
HETATM    4  C   UNL     1     -11.338  11.744  67.644  1.00  0.00    -0.302 C  
BRANCH   4   5
HETATM    5  N   UNL     1     -11.277  10.704  68.737  1.00  0.00    -0.262 NA 
BRANCH   5   6
HETATM    6  C   UNL     1     -11.539  11.399  70.052  1.00  0.00    -0.299 C  
HETATM    7  O   UNL     1     -12.355   9.255  70.785  1.00  0.00    -0.219 OA 
HETATM    8  C   UNL     1     -12.461  10.593  70.963  1.00  0.00    -0.413 C  
HETATM    9  O   UNL     1     -13.205  11.094  71.791  1.00  0.00    -0.442 OA 
ENDBRANCH   5   6
BRANCH   5  10
HETATM   10  C   UNL     1      -9.881  10.142  68.785  1.00  0.00    -0.175 C  
HETATM   11  O   UNL     1     -10.765   8.366  67.431  1.00  0.00    -0.269 OA 
HETATM   12  O   UNL     1      -8.988   7.876  68.750  1.00  0.00    -0.141 OA 
HETATM   13  C   UNL     1      -9.824   8.676  68.352  1.00  0.00    -0.172 C  
ENDBRANCH   5  10
ENDBRANCH   4   5
ENDBRANCH   2   4
BRANCH   2  14
HETATM   14  C   UNL     1      -9.812  13.172  66.139  1.00  0.00    -0.280 C  
BRANCH  14  15
HETATM   15  N   UNL     1     -10.827  14.262  66.364  1.00  0.00    -0.303 NA 
BRANCH  15  16
HETATM   16  C   UNL     1     -10.141  15.393  67.096  1.00  0.00    -0.245 C  
HETATM   17  C   UNL     1     -10.933  15.885  68.303  1.00  0.00    -0.329 C  
HETATM   18  O   UNL     1     -11.682  14.906  68.873  1.00  0.00    -0.294 OA 
HETATM   19  O   UNL     1     -10.861  17.016  68.756  1.00  0.00    -0.322 OA 
ENDBRANCH  15  16
BRANCH  15  20
HETATM   20  C   UNL     1     -11.234  14.812  65.007  1.00  0.00    -0.395 C  
HETATM   21  C   UNL     1     -12.358  14.017  64.342  1.00  0.00    -0.367 C  
HETATM   22  O   UNL     1     -13.185  13.416  65.231  1.00  0.00    -0.644 OA 
HETATM   23  O   UNL     1     -12.533  13.965  63.138  1.00  0.00    -0.766 OA 
ENDBRANCH  15  20
ENDBRANCH  14  15
ENDBRANCH   2  14
TORSDOF 8
ENDMDL
MODEL       89
REMARK 921   NORMALIZED FREE ENERGY PREDICTED BY IDOCK:   -4.73 KCAL/MOL
REMARK 922        TOTAL FREE ENERGY PREDICTED BY IDOCK:   -8.28 KCAL/MOL
REMARK 923 INTER-LIGAND FREE ENERGY PREDICTED BY IDOCK:   -7.04 KCAL/MOL
REMARK 924 INTRA-LIGAND FREE ENERGY PREDICTED BY IDOCK:   -1.24 KCAL/MOL
REMARK 927      BINDING AFFINITY PREDICTED BY RF-SCORE:    0.00 PKD
ROOT
HETATM    1  O   UNL     1     -12.498  13.815  68.215  1.00  0.00    -0.378 OA 
HETATM    2  C   UNL     1     -11.338  13.040  67.891  1.00  0.00    -0.288 C  
HETATM    3  H   UNL     1     -12.231  14.675  68.519  1.00  0.00     0.000 HD 
ENDROOT
BRANCH   2   4
HETATM    4  C   UNL     1     -10.532  13.810  66.814  1.00  0.00    -0.270 C  
BRANCH   4   5
HETATM    5  N   UNL     1     -11.076  15.155  66.399  1.00  0.00    -0.335 NA 
BRANCH   5   6
HETATM    6  C   UNL     1     -11.295  15.125  64.905  1.00  0.00    -0.399 C  
HETATM    7  O   UNL     1     -13.407  14.102  65.444  1.00  0.00    -0.705 OA 
HETATM    8  C   UNL     1     -12.439  14.198  64.502  1.00  0.00    -0.322 C  
HETATM    9  O   UNL     1     -12.498  13.618  63.430  1.00  0.00    -0.784 OA 
ENDBRANCH   5   6
BRANCH   5  10
HETATM   10  C   UNL     1     -10.035  16.203  66.690  1.00  0.00    -0.260 C  
HETATM   11  O   UNL     1     -11.373  16.709  68.620  1.00  0.00    -0.304 OA 
HETATM   12  O   UNL     1     -10.116  18.389  67.762  1.00  0.00    -0.322 OA 
HETATM   13  C   UNL     1     -10.510  17.231  67.719  1.00  0.00    -0.371 C  
ENDBRANCH   5  10
ENDBRANCH   4   5
ENDBRANCH   2   4
BRANCH   2  14
HETATM   14  C   UNL     1     -11.777  11.630  67.390  1.00  0.00    -0.201 C  
BRANCH  14  15
HETATM   15  N   UNL     1     -11.088  10.432  67.991  1.00  0.00    -0.298 NA 
BRANCH  15  16
HETATM   16  C   UNL     1      -9.777  10.237  67.266  1.00  0.00    -0.166 C  
HETATM   17  C   UNL     1      -9.475   8.771  66.970  1.00  0.00    -0.169 C  
HETATM   18  O   UNL     1     -10.600   8.030  66.795  1.00  0.00    -0.320 OA 
HETATM   19  O   UNL     1      -8.351   8.315  66.837  1.00  0.00    -0.112 OA 
ENDBRANCH  15  16
BRANCH  15  20
HETATM   20  C   UNL     1     -10.738  10.765  69.432  1.00  0.00    -0.233 C  
HETATM   21  C   UNL     1     -11.115   9.660  70.419  1.00  0.00    -0.290 C  
HETATM   22  O   UNL     1     -11.097   8.423  69.868  1.00  0.00    -0.216 OA 
HETATM   23  O   UNL     1     -11.357   9.856  71.597  1.00  0.00    -0.300 OA 
ENDBRANCH  15  20
ENDBRANCH  14  15
ENDBRANCH   2  14
TORSDOF 8
ENDMDL
MODEL       90
REMARK 921   NORMALIZED FREE ENERGY PREDICTED BY IDOCK:   -4.73 KCAL/MOL
REMARK 922        TOTAL FREE ENERGY PREDICTED BY IDOCK:   -8.28 KCAL/MOL
REMARK 923 INTER-LIGAND FREE ENERGY PREDICTED BY IDOCK:   -6.77 KCAL/MOL
REMARK 924 INTRA-LIGAND FREE ENERGY PREDICTED BY IDOCK:   -1.51 KCAL/MOL
REMARK 927      BINDING AFFINITY PREDICTED BY RF-SCORE:    0.00 PKD
ROOT
HETATM    1  O   UNL     1     -10.561  13.995  66.199  1.00  0.00    -0.283 OA 
HETATM    2  C   UNL     1      -9.216  13.936  66.687  1.00  0.00    -0.236 C  
HETATM    3  H   UNL     1     -10.665  13.383  65.480  1.00  0.00     0.000 HD 
ENDROOT
BRANCH   2   4
HETATM    4  C   UNL     1      -8.928  12.478  67.125  1.00  0.00    -0.200 C  
BRANCH   4   5
HETATM    5  N   UNL     1      -9.757  11.401  66.468  1.00  0.00    -0.196 NA 
BRANCH   5   6
HETATM    6  C   UNL     1     -10.038  10.337  67.502  1.00  0.00    -0.198 C  
HETATM    7  O   UNL     1     -12.144  11.469  67.791  1.00  0.00    -0.626 OA 
HETATM    8  C   UNL     1     -11.214  10.699  68.405  1.00  0.00    -0.288 C  
HETATM    9  O   UNL     1     -11.328  10.316  69.559  1.00  0.00    -0.243 OA 
ENDBRANCH   5   6
BRANCH   5  10
HETATM   10  C   UNL     1      -8.941  10.771  65.370  1.00  0.00    -0.194 C  
HETATM   11  O   UNL     1     -10.296  12.085  63.884  1.00  0.00    -0.333 OA 
HETATM   12  O   UNL     1      -9.430  10.157  63.065  1.00  0.00    -0.298 OA 
HETATM   13  C   UNL     1      -9.583  10.940  63.992  1.00  0.00    -0.278 C  
ENDBRANCH   5  10
ENDBRANCH   4   5
ENDBRANCH   2   4
BRANCH   2  14
HETATM   14  C   UNL     1      -9.045  14.942  67.867  1.00  0.00    -0.182 C  
BRANCH  14  15
HETATM   15  N   UNL     1     -10.109  15.993  68.047  1.00  0.00    -0.236 NA 
BRANCH  15  16
HETATM   16  C   UNL     1     -10.555  15.961  69.491  1.00  0.00    -0.282 C  
HETATM   17  C   UNL     1     -11.897  15.263  69.682  1.00  0.00    -0.339 C  
HETATM   18  O   UNL     1     -12.119  14.293  68.758  1.00  0.00    -0.324 OA 
HETATM   19  O   UNL     1     -12.668  15.497  70.599  1.00  0.00    -0.439 OA 
ENDBRANCH  15  16
BRANCH  15  20
HETATM   20  C   UNL     1      -9.467  17.353  67.825  1.00  0.00    -0.261 C  
HETATM   21  C   UNL     1      -9.274  17.698  66.348  1.00  0.00    -0.244 C  
HETATM   22  O   UNL     1     -10.190  17.116  65.539  1.00  0.00    -0.592 OA 
HETATM   23  O   UNL     1      -8.418  18.461  65.936  1.00  0.00    -0.497 OA 
ENDBRANCH  15  20
ENDBRANCH  14  15
ENDBRANCH   2  14
TORSDOF 8
ENDMDL
MODEL       91
REMARK 921   NORMALIZED FREE ENERGY PREDICTED BY IDOCK:   -4.71 KCAL/MOL
REMARK 922        TOTAL FREE ENERGY PREDICTED BY IDOCK:   -8.25 KCAL/MOL
REMARK 923 INTER-LIGAND FREE ENERGY PREDICTED BY IDOCK:   -7.26 KCAL/MOL
REMARK 924 INTRA-LIGAND FREE ENERGY PREDICTED BY IDOCK:   -0.99 KCAL/MOL
REMARK 927      BINDING AFFINITY PREDICTED BY RF-SCORE:    0.00 PKD
ROOT
HETATM    1  O   UNL     1     -10.887  18.577  65.206  1.00  0.00    -0.606 OA 
HETATM    2  C   UNL     1     -10.583  17.813  66.379  1.00  0.00    -0.218 C  
HETATM    3  H   UNL     1     -11.321  19.384  65.456  1.00  0.00     0.000 HD 
ENDROOT
BRANCH   2   4
HETATM    4  C   UNL     1      -9.694  18.684  67.302  1.00  0.00    -0.302 C  
BRANCH   4   5
HETATM    5  N   UNL     1      -8.224  18.739  66.964  1.00  0.00    -0.258 NA 
BRANCH   5   6
HETATM    6  C   UNL     1      -7.456  18.854  68.259  1.00  0.00    -0.286 C  
HETATM    7  O   UNL     1      -6.442  16.771  67.602  1.00  0.00    -0.131 OA 
HETATM    8  C   UNL     1      -6.789  17.540  68.660  1.00  0.00    -0.227 C  
HETATM    9  O   UNL     1      -6.565  17.219  69.816  1.00  0.00    -0.184 OA 
ENDBRANCH   5   6
BRANCH   5  10
HETATM   10  C   UNL     1      -7.963  19.986  66.162  1.00  0.00    -0.290 C  
HETATM   11  O   UNL     1      -6.518  18.594  64.842  1.00  0.00    -0.494 OA 
HETATM   12  O   UNL     1      -6.032  20.806  64.925  1.00  0.00    -0.238 OA 
HETATM   13  C   UNL     1      -6.729  19.861  65.267  1.00  0.00    -0.296 C  
ENDBRANCH   5  10
ENDBRANCH   4   5
ENDBRANCH   2   4
BRANCH   2  14
HETATM   14  C   UNL     1      -9.872  16.488  65.969  1.00  0.00    -0.322 C  
BRANCH  14  15
HETATM   15  N   UNL     1     -10.710  15.238  65.902  1.00  0.00    -0.322 NA 
BRANCH  15  16
HETATM   16  C   UNL     1     -11.181  15.068  64.476  1.00  0.00    -0.265 C  
HETATM   17  C   UNL     1     -12.298  14.039  64.339  1.00  0.00    -0.367 C  
HETATM   18  O   UNL     1     -13.075  13.958  65.449  1.00  0.00    -0.752 OA 
HETATM   19  O   UNL     1     -12.520  13.398  63.324  1.00  0.00    -0.739 OA 
ENDBRANCH  15  16
BRANCH  15  20
HETATM   20  C   UNL     1      -9.808  14.051  66.201  1.00  0.00    -0.303 C  
HETATM   21  C   UNL     1      -9.818  13.637  67.673  1.00  0.00    -0.228 C  
HETATM   22  O   UNL     1     -10.986  13.919  68.299  1.00  0.00    -0.241 OA 
HETATM   23  O   UNL     1      -8.895  13.063  68.223  1.00  0.00    -0.189 OA 
ENDBRANCH  15  20
ENDBRANCH  14  15
ENDBRANCH   2  14
TORSDOF 8
ENDMDL
MODEL       92
REMARK 921   NORMALIZED FREE ENERGY PREDICTED BY IDOCK:   -4.70 KCAL/MOL
REMARK 922        TOTAL FREE ENERGY PREDICTED BY IDOCK:   -8.24 KCAL/MOL
REMARK 923 INTER-LIGAND FREE ENERGY PREDICTED BY IDOCK:   -7.48 KCAL/MOL
REMARK 924 INTRA-LIGAND FREE ENERGY PREDICTED BY IDOCK:   -0.76 KCAL/MOL
REMARK 927      BINDING AFFINITY PREDICTED BY RF-SCORE:    0.00 PKD
ROOT
HETATM    1  O   UNL     1      -7.946  12.544  66.495  1.00  0.00    -0.393 OA 
HETATM    2  C   UNL     1      -9.113  13.274  66.890  1.00  0.00    -0.232 C  
HETATM    3  H   UNL     1      -7.444  13.059  65.874  1.00  0.00     0.000 HD 
ENDROOT
BRANCH   2   4
HETATM    4  C   UNL     1      -8.654  14.623  67.497  1.00  0.00    -0.187 C  
BRANCH   4   5
HETATM    5  N   UNL     1      -9.602  15.787  67.347  1.00  0.00    -0.216 NA 
BRANCH   5   6
HETATM    6  C   UNL     1     -10.757  15.569  68.295  1.00  0.00    -0.271 C  
HETATM    7  O   UNL     1     -10.241  17.778  69.104  1.00  0.00    -0.346 OA 
HETATM    8  C   UNL     1     -10.769  16.578  69.441  1.00  0.00    -0.330 C  
HETATM    9  O   UNL     1     -11.231  16.344  70.546  1.00  0.00    -0.369 OA 
ENDBRANCH   5   6
BRANCH   5  10
HETATM   10  C   UNL     1     -10.151  15.780  65.945  1.00  0.00    -0.356 C  
HETATM   11  O   UNL     1      -9.431  18.070  65.865  1.00  0.00    -0.520 OA 
HETATM   12  O   UNL     1     -11.174  17.485  64.540  1.00  0.00    -0.926 OA 
HETATM   13  C   UNL     1     -10.336  17.189  65.379  1.00  0.00    -0.018 C  
ENDBRANCH   5  10
ENDBRANCH   4   5
ENDBRANCH   2   4
BRANCH   2  14
HETATM   14  C   UNL     1      -9.937  12.428  67.909  1.00  0.00    -0.204 C  
BRANCH  14  15
HETATM   15  N   UNL     1     -11.351  12.068  67.535  1.00  0.00    -0.296 NA 
BRANCH  15  16
HETATM   16  C   UNL     1     -11.396  11.849  66.040  1.00  0.00    -0.316 C  
HETATM   17  C   UNL     1     -12.484  12.666  65.353  1.00  0.00    -0.355 C  
HETATM   18  O   UNL     1     -12.745  13.835  65.994  1.00  0.00    -0.444 OA 
HETATM   19  O   UNL     1     -13.023  12.348  64.305  1.00  0.00    -0.737 OA 
ENDBRANCH  15  16
BRANCH  15  20
HETATM   20  C   UNL     1     -11.681  10.730  68.177  1.00  0.00    -0.092 C  
HETATM   21  C   UNL     1     -11.813  10.803  69.698  1.00  0.00    -0.320 C  
HETATM   22  O   UNL     1     -12.227  12.015  70.141  1.00  0.00    -0.287 OA 
HETATM   23  O   UNL     1     -11.619   9.858  70.442  1.00  0.00    -0.262 OA 
ENDBRANCH  15  20
ENDBRANCH  14  15
ENDBRANCH   2  14
TORSDOF 8
ENDMDL
MODEL       93
REMARK 921   NORMALIZED FREE ENERGY PREDICTED BY IDOCK:   -4.70 KCAL/MOL
REMARK 922        TOTAL FREE ENERGY PREDICTED BY IDOCK:   -8.23 KCAL/MOL
REMARK 923 INTER-LIGAND FREE ENERGY PREDICTED BY IDOCK:   -6.99 KCAL/MOL
REMARK 924 INTRA-LIGAND FREE ENERGY PREDICTED BY IDOCK:   -1.25 KCAL/MOL
REMARK 927      BINDING AFFINITY PREDICTED BY RF-SCORE:    0.00 PKD
ROOT
HETATM    1  O   UNL     1     -11.094   8.159  67.554  1.00  0.00    -0.483 OA 
HETATM    2  C   UNL     1     -10.352   9.319  67.945  1.00  0.00    -0.227 C  
HETATM    3  H   UNL     1     -10.557   7.384  67.673  1.00  0.00     0.000 HD 
ENDROOT
BRANCH   2   4
HETATM    4  C   UNL     1      -9.919   9.138  69.422  1.00  0.00    -0.191 C  
BRANCH   4   5
HETATM    5  N   UNL     1     -10.909   8.455  70.335  1.00  0.00    -0.233 NA 
BRANCH   5   6
HETATM    6  C   UNL     1     -11.270   9.425  71.434  1.00  0.00    -0.381 C  
HETATM    7  O   UNL     1     -13.541   8.753  70.998  1.00  0.00    -0.095 OA 
HETATM    8  C   UNL     1     -12.758   9.762  71.449  1.00  0.00    -0.387 C  
HETATM    9  O   UNL     1     -13.210  10.823  71.849  1.00  0.00    -0.469 OA 
ENDBRANCH   5   6
BRANCH   5  10
HETATM   10  C   UNL     1     -10.234   7.268  70.971  1.00  0.00    -0.192 C  
HETATM   11  O   UNL     1     -11.277   5.992  69.223  1.00  0.00    -0.384 OA 
HETATM   12  O   UNL     1     -10.824   4.914  71.165  1.00  0.00    -0.013 OA 
HETATM   13  C   UNL     1     -10.817   5.937  70.495  1.00  0.00    -0.296 C  
ENDBRANCH   5  10
ENDBRANCH   4   5
ENDBRANCH   2   4
BRANCH   2  14
HETATM   14  C   UNL     1     -11.232  10.591  67.750  1.00  0.00    -0.273 C  
BRANCH  14  15
HETATM   15  N   UNL     1     -11.154  11.296  66.421  1.00  0.00    -0.244 NA 
BRANCH  15  16
HETATM   16  C   UNL     1     -11.739  12.679  66.592  1.00  0.00    -0.398 C  
HETATM   17  C   UNL     1     -12.535  13.142  65.376  1.00  0.00    -0.481 C  
HETATM   18  O   UNL     1     -13.111  12.111  64.705  1.00  0.00    -0.673 OA 
HETATM   19  O   UNL     1     -12.699  14.311  65.067  1.00  0.00    -0.625 OA 
ENDBRANCH  15  16
BRANCH  15  20
HETATM   20  C   UNL     1      -9.686  11.489  66.077  1.00  0.00    -0.226 C  
HETATM   21  C   UNL     1      -9.272  10.800  64.777  1.00  0.00    -0.214 C  
HETATM   22  O   UNL     1     -10.284  10.692  63.883  1.00  0.00    -0.337 OA 
HETATM   23  O   UNL     1      -8.136  10.429  64.536  1.00  0.00    -0.164 OA 
ENDBRANCH  15  20
ENDBRANCH  14  15
ENDBRANCH   2  14
TORSDOF 8
ENDMDL
MODEL       94
REMARK 921   NORMALIZED FREE ENERGY PREDICTED BY IDOCK:   -4.68 KCAL/MOL
REMARK 922        TOTAL FREE ENERGY PREDICTED BY IDOCK:   -8.21 KCAL/MOL
REMARK 923 INTER-LIGAND FREE ENERGY PREDICTED BY IDOCK:   -7.14 KCAL/MOL
REMARK 924 INTRA-LIGAND FREE ENERGY PREDICTED BY IDOCK:   -1.07 KCAL/MOL
REMARK 927      BINDING AFFINITY PREDICTED BY RF-SCORE:    0.00 PKD
ROOT
HETATM    1  O   UNL     1      -8.670  12.982  68.911  1.00  0.00    -0.372 OA 
HETATM    2  C   UNL     1      -9.650  12.382  68.056  1.00  0.00    -0.211 C  
HETATM    3  H   UNL     1      -8.639  12.514  69.737  1.00  0.00     0.000 HD 
ENDROOT
BRANCH   2   4
HETATM    4  C   UNL     1      -9.268  10.892  67.861  1.00  0.00    -0.152 C  
BRANCH   4   5
HETATM    5  N   UNL     1     -10.188   9.874  68.490  1.00  0.00    -0.170 NA 
BRANCH   5   6
HETATM    6  C   UNL     1     -10.758   9.020  67.382  1.00  0.00    -0.161 C  
HETATM    7  O   UNL     1     -10.312   7.171  68.859  1.00  0.00    -0.185 OA 
HETATM    8  C   UNL     1     -10.434   7.539  67.562  1.00  0.00    -0.271 C  
HETATM    9  O   UNL     1     -10.320   6.752  66.636  1.00  0.00    -0.211 OA 
ENDBRANCH   5   6
BRANCH   5  10
HETATM   10  C   UNL     1     -11.332  10.601  69.145  1.00  0.00    -0.273 C  
HETATM   11  O   UNL     1     -10.681   9.421  71.133  1.00  0.00    -0.298 OA 
HETATM   12  O   UNL     1     -12.856  10.034  70.958  1.00  0.00    -0.347 OA 
HETATM   13  C   UNL     1     -11.728   9.984  70.487  1.00  0.00    -0.318 C  
ENDBRANCH   5  10
ENDBRANCH   4   5
ENDBRANCH   2   4
BRANCH   2  14
HETATM   14  C   UNL     1      -9.701  13.151  66.701  1.00  0.00    -0.261 C  
BRANCH  14  15
HETATM   15  N   UNL     1     -10.668  14.300  66.587  1.00  0.00    -0.288 NA 
BRANCH  15  16
HETATM   16  C   UNL     1     -11.243  14.288  65.190  1.00  0.00    -0.345 C  
HETATM   17  C   UNL     1     -11.396  15.686  64.599  1.00  0.00    -0.349 C  
HETATM   18  O   UNL     1     -10.468  16.558  65.070  1.00  0.00    -0.652 OA 
HETATM   19  O   UNL     1     -12.216  15.985  63.747  1.00  0.00    -0.895 OA 
ENDBRANCH  15  16
BRANCH  15  20
HETATM   20  C   UNL     1     -11.828  14.033  67.533  1.00  0.00    -0.407 C  
HETATM   21  C   UNL     1     -11.888  15.007  68.709  1.00  0.00    -0.301 C  
HETATM   22  O   UNL     1     -11.367  16.225  68.422  1.00  0.00    -0.367 OA 
HETATM   23  O   UNL     1     -12.398  14.744  69.784  1.00  0.00    -0.302 OA 
ENDBRANCH  15  20
ENDBRANCH  14  15
ENDBRANCH   2  14
TORSDOF 8
ENDMDL
MODEL       95
REMARK 921   NORMALIZED FREE ENERGY PREDICTED BY IDOCK:   -4.67 KCAL/MOL
REMARK 922        TOTAL FREE ENERGY PREDICTED BY IDOCK:   -8.19 KCAL/MOL
REMARK 923 INTER-LIGAND FREE ENERGY PREDICTED BY IDOCK:   -6.99 KCAL/MOL
REMARK 924 INTRA-LIGAND FREE ENERGY PREDICTED BY IDOCK:   -1.20 KCAL/MOL
REMARK 927      BINDING AFFINITY PREDICTED BY RF-SCORE:    0.00 PKD
ROOT
HETATM    1  O   UNL     1     -10.940  15.328  68.223  1.00  0.00    -0.255 OA 
HETATM    2  C   UNL     1      -9.670  14.770  67.870  1.00  0.00    -0.211 C  
HETATM    3  H   UNL     1     -10.818  16.208  68.559  1.00  0.00     0.000 HD 
ENDROOT
BRANCH   2   4
HETATM    4  C   UNL     1      -9.011  15.701  66.821  1.00  0.00    -0.261 C  
BRANCH   4   5
HETATM    5  N   UNL     1      -8.484  17.021  67.330  1.00  0.00    -0.191 NA 
BRANCH   5   6
HETATM    6  C   UNL     1      -9.099  18.118  66.493  1.00  0.00    -0.276 C  
HETATM    7  O   UNL     1      -9.940  18.959  68.588  1.00  0.00    -0.381 OA 
HETATM    8  C   UNL     1     -10.165  18.902  67.254  1.00  0.00    -0.390 C  
HETATM    9  O   UNL     1     -11.117  19.449  66.719  1.00  0.00    -0.349 OA 
ENDBRANCH   5   6
BRANCH   5  10
HETATM   10  C   UNL     1      -6.995  17.058  67.113  1.00  0.00    -0.179 C  
HETATM   11  O   UNL     1      -6.843  16.822  69.498  1.00  0.00    -0.231 OA 
HETATM   12  O   UNL     1      -5.129  17.871  68.450  1.00  0.00    -0.148 OA 
HETATM   13  C   UNL     1      -6.219  17.319  68.405  1.00  0.00    -0.153 C  
ENDBRANCH   5  10
ENDBRANCH   4   5
ENDBRANCH   2   4
BRANCH   2  14
HETATM   14  C   UNL     1      -9.870  13.325  67.319  1.00  0.00    -0.233 C  
BRANCH  14  15
HETATM   15  N   UNL     1     -11.282  12.869  67.055  1.00  0.00    -0.276 NA 
BRANCH  15  16
HETATM   16  C   UNL     1     -11.346  12.351  65.637  1.00  0.00    -0.347 C  
HETATM   17  C   UNL     1     -12.638  12.736  64.923  1.00  0.00    -0.470 C  
HETATM   18  O   UNL     1     -13.149  13.914  65.365  1.00  0.00    -0.752 OA 
HETATM   19  O   UNL     1     -13.133  12.098  64.008  1.00  0.00    -0.723 OA 
ENDBRANCH  15  16
BRANCH  15  20
HETATM   20  C   UNL     1     -11.568  11.681  67.960  1.00  0.00    -0.313 C  
HETATM   21  C   UNL     1     -11.819  12.075  69.416  1.00  0.00    -0.324 C  
HETATM   22  O   UNL     1     -12.347  13.315  69.551  1.00  0.00    -0.216 OA 
HETATM   23  O   UNL     1     -11.619  11.335  70.363  1.00  0.00    -0.311 OA 
ENDBRANCH  15  20
ENDBRANCH  14  15
ENDBRANCH   2  14
TORSDOF 8
ENDMDL
MODEL       96
REMARK 921   NORMALIZED FREE ENERGY PREDICTED BY IDOCK:   -4.66 KCAL/MOL
REMARK 922        TOTAL FREE ENERGY PREDICTED BY IDOCK:   -8.17 KCAL/MOL
REMARK 923 INTER-LIGAND FREE ENERGY PREDICTED BY IDOCK:   -7.63 KCAL/MOL
REMARK 924 INTRA-LIGAND FREE ENERGY PREDICTED BY IDOCK:   -0.55 KCAL/MOL
REMARK 927      BINDING AFFINITY PREDICTED BY RF-SCORE:    0.00 PKD
ROOT
HETATM    1  O   UNL     1     -11.128  13.500  70.033  1.00  0.00    -0.471 OA 
HETATM    2  C   UNL     1     -11.223  12.841  68.765  1.00  0.00    -0.283 C  
HETATM    3  H   UNL     1     -10.784  14.377  69.910  1.00  0.00     0.000 HD 
ENDROOT
BRANCH   2   4
HETATM    4  C   UNL     1     -12.132  13.696  67.847  1.00  0.00    -0.283 C  
BRANCH   4   5
HETATM    5  N   UNL     1     -11.556  14.094  66.510  1.00  0.00    -0.359 NA 
BRANCH   5   6
HETATM    6  C   UNL     1     -11.541  12.867  65.628  1.00  0.00    -0.361 C  
HETATM    7  O   UNL     1     -12.427  14.330  63.933  1.00  0.00    -0.773 OA 
HETATM    8  C   UNL     1     -12.378  13.048  64.365  1.00  0.00    -0.376 C  
HETATM    9  O   UNL     1     -12.932  12.130  63.780  1.00  0.00    -0.753 OA 
ENDBRANCH   5   6
BRANCH   5  10
HETATM   10  C   UNL     1     -10.129  14.530  66.714  1.00  0.00    -0.264 C  
HETATM   11  O   UNL     1     -10.958  16.746  66.297  1.00  0.00    -0.057 OA 
HETATM   12  O   UNL     1      -8.785  16.340  65.793  1.00  0.00    -0.390 OA 
HETATM   13  C   UNL     1      -9.870  15.947  66.200  1.00  0.00    -0.317 C  
ENDBRANCH   5  10
ENDBRANCH   4   5
ENDBRANCH   2   4
BRANCH   2  14
HETATM   14  C   UNL     1     -11.788  11.402  68.966  1.00  0.00    -0.348 C  
BRANCH  14  15
HETATM   15  N   UNL     1     -11.176  10.558  70.054  1.00  0.00    -0.295 NA 
BRANCH  15  16
HETATM   16  C   UNL     1     -12.248   9.636  70.587  1.00  0.00    -0.161 C  
HETATM   17  C   UNL     1     -13.011  10.231  71.766  1.00  0.00    -0.469 C  
HETATM   18  O   UNL     1     -13.080  11.586  71.715  1.00  0.00    -0.472 OA 
HETATM   19  O   UNL     1     -13.559   9.570  72.633  1.00  0.00    -0.381 OA 
ENDBRANCH  15  16
BRANCH  15  20
HETATM   20  C   UNL     1     -10.119   9.668  69.421  1.00  0.00    -0.203 C  
HETATM   21  C   UNL     1      -8.986   9.297  70.378  1.00  0.00    -0.239 C  
HETATM   22  O   UNL     1      -9.372   9.262  71.676  1.00  0.00    -0.301 OA 
HETATM   23  O   UNL     1      -7.859   9.008  70.016  1.00  0.00    -0.072 OA 
ENDBRANCH  15  20
ENDBRANCH  14  15
ENDBRANCH   2  14
TORSDOF 8
ENDMDL
MODEL       97
REMARK 921   NORMALIZED FREE ENERGY PREDICTED BY IDOCK:   -4.66 KCAL/MOL
REMARK 922        TOTAL FREE ENERGY PREDICTED BY IDOCK:   -8.17 KCAL/MOL
REMARK 923 INTER-LIGAND FREE ENERGY PREDICTED BY IDOCK:   -7.39 KCAL/MOL
REMARK 924 INTRA-LIGAND FREE ENERGY PREDICTED BY IDOCK:   -0.78 KCAL/MOL
REMARK 927      BINDING AFFINITY PREDICTED BY RF-SCORE:    0.00 PKD
ROOT
HETATM    1  O   UNL     1     -10.220  13.207  68.184  1.00  0.00    -0.227 OA 
HETATM    2  C   UNL     1     -11.633  12.998  68.082  1.00  0.00    -0.341 C  
HETATM    3  H   UNL     1      -9.922  12.945  69.048  1.00  0.00     0.000 HD 
ENDROOT
BRANCH   2   4
HETATM    4  C   UNL     1     -11.919  11.501  68.361  1.00  0.00    -0.198 C  
BRANCH   4   5
HETATM    5  N   UNL     1     -11.901  11.071  69.808  1.00  0.00    -0.316 NA 
BRANCH   5   6
HETATM    6  C   UNL     1     -12.066  12.307  70.660  1.00  0.00    -0.237 C  
HETATM    7  O   UNL     1     -13.222  10.848  72.188  1.00  0.00    -0.474 OA 
HETATM    8  C   UNL     1     -13.115  12.126  71.754  1.00  0.00    -0.352 C  
HETATM    9  O   UNL     1     -13.780  13.040  72.215  1.00  0.00    -0.552 OA 
ENDBRANCH   5   6
BRANCH   5  10
HETATM   10  C   UNL     1     -10.552  10.477  70.115  1.00  0.00    -0.105 C  
HETATM   11  O   UNL     1     -11.790   8.561  70.868  1.00  0.00    -0.281 OA 
HETATM   12  O   UNL     1      -9.757   8.916  71.807  1.00  0.00    -0.288 OA 
HETATM   13  C   UNL     1     -10.643   9.259  71.036  1.00  0.00    -0.316 C  
ENDBRANCH   5  10
ENDBRANCH   4   5
ENDBRANCH   2   4
BRANCH   2  14
HETATM   14  C   UNL     1     -12.122  13.428  66.665  1.00  0.00    -0.373 C  
BRANCH  14  15
HETATM   15  N   UNL     1     -11.123  13.382  65.538  1.00  0.00    -0.281 NA 
BRANCH  15  16
HETATM   16  C   UNL     1     -11.207  12.017  64.896  1.00  0.00    -0.320 C  
HETATM   17  C   UNL     1      -9.849  11.333  64.774  1.00  0.00    -0.266 C  
HETATM   18  O   UNL     1      -8.990  11.698  65.761  1.00  0.00    -0.170 OA 
HETATM   19  O   UNL     1      -9.574  10.499  63.927  1.00  0.00    -0.261 OA 
ENDBRANCH  15  16
BRANCH  15  20
HETATM   20  C   UNL     1     -11.560  14.383  64.481  1.00  0.00    -0.384 C  
HETATM   21  C   UNL     1     -10.883  15.747  64.620  1.00  0.00    -0.227 C  
HETATM   22  O   UNL     1      -9.651  15.677  65.179  1.00  0.00    -0.255 OA 
HETATM   23  O   UNL     1     -11.370  16.790  64.222  1.00  0.00    -1.170 OA 
ENDBRANCH  15  20
ENDBRANCH  14  15
ENDBRANCH   2  14
TORSDOF 8
ENDMDL
MODEL       98
REMARK 921   NORMALIZED FREE ENERGY PREDICTED BY IDOCK:   -4.65 KCAL/MOL
REMARK 922        TOTAL FREE ENERGY PREDICTED BY IDOCK:   -8.16 KCAL/MOL
REMARK 923 INTER-LIGAND FREE ENERGY PREDICTED BY IDOCK:   -6.96 KCAL/MOL
REMARK 924 INTRA-LIGAND FREE ENERGY PREDICTED BY IDOCK:   -1.20 KCAL/MOL
REMARK 927      BINDING AFFINITY PREDICTED BY RF-SCORE:    0.00 PKD
ROOT
HETATM    1  O   UNL     1     -11.499  15.353  64.141  1.00  0.00    -0.698 OA 
HETATM    2  C   UNL     1     -11.175  15.478  65.531  1.00  0.00    -0.188 C  
HETATM    3  H   UNL     1     -11.253  16.149  63.685  1.00  0.00     0.000 HD 
ENDROOT
BRANCH   2   4
HETATM    4  C   UNL     1      -9.656  15.764  65.645  1.00  0.00    -0.264 C  
BRANCH   4   5
HETATM    5  N   UNL     1      -9.264  17.143  66.117  1.00  0.00    -0.459 NA 
BRANCH   5   6
HETATM    6  C   UNL     1      -7.979  17.016  66.900  1.00  0.00    -0.222 C  
HETATM    7  O   UNL     1      -7.054  18.468  65.215  1.00  0.00    -0.521 OA 
HETATM    8  C   UNL     1      -6.764  17.490  66.105  1.00  0.00    -0.263 C  
HETATM    9  O   UNL     1      -5.636  17.054  66.267  1.00  0.00    -0.334 OA 
ENDBRANCH   5   6
BRANCH   5  10
HETATM   10  C   UNL     1     -10.327  17.648  67.057  1.00  0.00    -0.330 C  
HETATM   11  O   UNL     1     -10.074  19.738  65.900  1.00  0.00    -0.442 OA 
HETATM   12  O   UNL     1     -10.785  19.823  68.051  1.00  0.00    -0.368 OA 
HETATM   13  C   UNL     1     -10.409  19.175  67.085  1.00  0.00    -0.420 C  
ENDBRANCH   5  10
ENDBRANCH   4   5
ENDBRANCH   2   4
BRANCH   2  14
HETATM   14  C   UNL     1     -11.579  14.171  66.280  1.00  0.00    -0.370 C  
BRANCH  14  15
HETATM   15  N   UNL     1     -11.079  13.993  67.690  1.00  0.00    -0.275 NA 
BRANCH  15  16
HETATM   16  C   UNL     1     -12.102  14.595  68.625  1.00  0.00    -0.202 C  
HETATM   17  C   UNL     1     -11.496  15.067  69.943  1.00  0.00    -0.289 C  
HETATM   18  O   UNL     1     -10.205  15.465  69.813  1.00  0.00    -0.259 OA 
HETATM   19  O   UNL     1     -12.113  15.144  70.993  1.00  0.00    -0.284 OA 
ENDBRANCH  15  16
BRANCH  15  20
HETATM   20  C   UNL     1     -11.045  12.503  67.992  1.00  0.00    -0.245 C  
HETATM   21  C   UNL     1      -9.812  11.798  67.424  1.00  0.00    -0.178 C  
HETATM   22  O   UNL     1      -8.732  12.609  67.324  1.00  0.00    -0.182 OA 
HETATM   23  O   UNL     1      -9.779  10.615  67.138  1.00  0.00    -0.166 OA 
ENDBRANCH  15  20
ENDBRANCH  14  15
ENDBRANCH   2  14
TORSDOF 8
ENDMDL
MODEL       99
REMARK 921   NORMALIZED FREE ENERGY PREDICTED BY IDOCK:   -4.65 KCAL/MOL
REMARK 922        TOTAL FREE ENERGY PREDICTED BY IDOCK:   -8.16 KCAL/MOL
REMARK 923 INTER-LIGAND FREE ENERGY PREDICTED BY IDOCK:   -6.86 KCAL/MOL
REMARK 924 INTRA-LIGAND FREE ENERGY PREDICTED BY IDOCK:   -1.30 KCAL/MOL
REMARK 927      BINDING AFFINITY PREDICTED BY RF-SCORE:    0.00 PKD
ROOT
HETATM    1  O   UNL     1     -11.987  12.142  67.367  1.00  0.00    -0.563 OA 
HETATM    2  C   UNL     1     -10.605  11.823  67.171  1.00  0.00    -0.231 C  
HETATM    3  H   UNL     1     -12.060  12.908  67.925  1.00  0.00     0.000 HD 
ENDROOT
BRANCH   2   4
HETATM    4  C   UNL     1      -9.910  13.060  66.548  1.00  0.00    -0.263 C  
BRANCH   4   5
HETATM    5  N   UNL     1     -10.766  14.291  66.363  1.00  0.00    -0.294 NA 
BRANCH   5   6
HETATM    6  C   UNL     1     -10.939  14.515  64.879  1.00  0.00    -0.410 C  
HETATM    7  O   UNL     1     -13.261  14.023  65.288  1.00  0.00    -0.782 OA 
HETATM    8  C   UNL     1     -12.274  13.984  64.363  1.00  0.00    -0.426 C  
HETATM    9  O   UNL     1     -12.450  13.585  63.222  1.00  0.00    -0.763 OA 
ENDBRANCH   5   6
BRANCH   5  10
HETATM   10  C   UNL     1     -10.026  15.476  66.923  1.00  0.00    -0.247 C  
HETATM   11  O   UNL     1     -11.847  15.621  68.483  1.00  0.00    -0.355 OA 
HETATM   12  O   UNL     1     -10.744  17.541  67.997  1.00  0.00    -0.387 OA 
HETATM   13  C   UNL     1     -10.904  16.340  67.831  1.00  0.00    -0.330 C  
ENDBRANCH   5  10
ENDBRANCH   4   5
ENDBRANCH   2   4
BRANCH   2  14
HETATM   14  C   UNL     1     -10.485  10.567  66.255  1.00  0.00    -0.183 C  
BRANCH  14  15
HETATM   15  N   UNL     1      -9.548   9.471  66.694  1.00  0.00    -0.174 NA 
BRANCH  15  16
HETATM   16  C   UNL     1     -10.380   8.259  67.044  1.00  0.00    -0.323 C  
HETATM   17  C   UNL     1     -10.295   7.888  68.521  1.00  0.00    -0.200 C  
HETATM   18  O   UNL     1     -10.080   8.965  69.320  1.00  0.00    -0.191 OA 
HETATM   19  O   UNL     1     -10.464   6.761  68.956  1.00  0.00    -0.184 OA 
ENDBRANCH  15  16
BRANCH  15  20
HETATM   20  C   UNL     1      -8.695   9.076  65.499  1.00  0.00    -0.181 C  
HETATM   21  C   UNL     1      -7.490   9.993  65.284  1.00  0.00    -0.137 C  
HETATM   22  O   UNL     1      -7.033  10.553  66.430  1.00  0.00    -0.108 OA 
HETATM   23  O   UNL     1      -6.955  10.169  64.204  1.00  0.00    -0.127 OA 
ENDBRANCH  15  20
ENDBRANCH  14  15
ENDBRANCH   2  14
TORSDOF 8
ENDMDL
MODEL      100
REMARK 921   NORMALIZED FREE ENERGY PREDICTED BY IDOCK:   -4.64 KCAL/MOL
REMARK 922        TOTAL FREE ENERGY PREDICTED BY IDOCK:   -8.15 KCAL/MOL
REMARK 923 INTER-LIGAND FREE ENERGY PREDICTED BY IDOCK:   -6.94 KCAL/MOL
REMARK 924 INTRA-LIGAND FREE ENERGY PREDICTED BY IDOCK:   -1.21 KCAL/MOL
REMARK 927      BINDING AFFINITY PREDICTED BY RF-SCORE:    0.00 PKD
ROOT
HETATM    1  O   UNL     1     -12.175  11.292  67.940  1.00  0.00    -0.570 OA 
HETATM    2  C   UNL     1     -10.957  10.753  67.414  1.00  0.00    -0.300 C  
HETATM    3  H   UNL     1     -12.530  10.699  68.591  1.00  0.00     0.000 HD 
ENDROOT
BRANCH   2   4
HETATM    4  C   UNL     1      -9.977  10.540  68.596  1.00  0.00    -0.181 C  
BRANCH   4   5
HETATM    5  N   UNL     1      -9.876   9.137  69.143  1.00  0.00    -0.167 NA 
BRANCH   5   6
HETATM    6  C   UNL     1      -8.426   8.871  69.469  1.00  0.00    -0.128 C  
HETATM    7  O   UNL     1      -9.138   8.983  71.767  1.00  0.00    -0.340 OA 
HETATM    8  C   UNL     1      -8.092   9.172  70.928  1.00  0.00    -0.162 C  
HETATM    9  O   UNL     1      -6.988   9.524  71.313  1.00  0.00    -0.300 OA 
ENDBRANCH   5   6
BRANCH   5  10
HETATM   10  C   UNL     1     -10.290   8.172  68.064  1.00  0.00    -0.211 C  
HETATM   11  O   UNL     1     -11.209   6.869  69.861  1.00  0.00    -0.284 OA 
HETATM   12  O   UNL     1     -10.560   5.752  67.998  1.00  0.00    -0.225 OA 
HETATM   13  C   UNL     1     -10.673   6.799  68.620  1.00  0.00    -0.234 C  
ENDBRANCH   5  10
ENDBRANCH   4   5
ENDBRANCH   2   4
BRANCH   2  14
HETATM   14  C   UNL     1     -10.374  11.727  66.344  1.00  0.00    -0.222 C  
BRANCH  14  15
HETATM   15  N   UNL     1     -10.934  13.124  66.295  1.00  0.00    -0.278 NA 
BRANCH  15  16
HETATM   16  C   UNL     1      -9.998  14.029  67.063  1.00  0.00    -0.257 C  
HETATM   17  C   UNL     1     -10.727  14.941  68.044  1.00  0.00    -0.253 C  
HETATM   18  O   UNL     1     -11.871  14.388  68.523  1.00  0.00    -0.326 OA 
HETATM   19  O   UNL     1     -10.306  16.024  68.417  1.00  0.00    -0.238 OA 
ENDBRANCH  15  16
BRANCH  15  20
HETATM   20  C   UNL     1     -10.897  13.595  64.850  1.00  0.00    -0.375 C  
HETATM   21  C   UNL     1     -12.283  13.720  64.217  1.00  0.00    -0.400 C  
HETATM   22  O   UNL     1     -13.257  14.004  65.115  1.00  0.00    -0.768 OA 
HETATM   23  O   UNL     1     -12.494  13.628  63.021  1.00  0.00    -0.719 OA 
ENDBRANCH  15  20
ENDBRANCH  14  15
ENDBRANCH   2  14
TORSDOF 8
ENDMDL
MODEL      101
REMARK 921   NORMALIZED FREE ENERGY PREDICTED BY IDOCK:   -4.63 KCAL/MOL
REMARK 922        TOTAL FREE ENERGY PREDICTED BY IDOCK:   -8.13 KCAL/MOL
REMARK 923 INTER-LIGAND FREE ENERGY PREDICTED BY IDOCK:   -6.88 KCAL/MOL
REMARK 924 INTRA-LIGAND FREE ENERGY PREDICTED BY IDOCK:   -1.25 KCAL/MOL
REMARK 927      BINDING AFFINITY PREDICTED BY RF-SCORE:    0.00 PKD
ROOT
HETATM    1  O   UNL     1     -10.405  13.058  69.301  1.00  0.00    -0.418 OA 
HETATM    2  C   UNL     1     -11.123  12.515  68.187  1.00  0.00    -0.243 C  
HETATM    3  H   UNL     1     -10.818  12.779  70.110  1.00  0.00     0.000 HD 
ENDROOT
BRANCH   2   4
HETATM    4  C   UNL     1     -11.133  10.972  68.328  1.00  0.00    -0.257 C  
BRANCH   4   5
HETATM    5  N   UNL     1     -10.755  10.417  69.680  1.00  0.00    -0.249 NA 
BRANCH   5   6
HETATM    6  C   UNL     1      -9.699   9.359  69.467  1.00  0.00    -0.183 C  
HETATM    7  O   UNL     1      -8.191  11.216  69.188  1.00  0.00    -0.109 OA 
HETATM    8  C   UNL     1      -8.423   9.926  68.850  1.00  0.00    -0.127 C  
HETATM    9  O   UNL     1      -7.667   9.280  68.141  1.00  0.00    -0.087 OA 
ENDBRANCH   5   6
BRANCH   5  10
HETATM   10  C   UNL     1     -11.964   9.747  70.278  1.00  0.00    -0.090 C  
HETATM   11  O   UNL     1     -12.532  11.937  71.083  1.00  0.00    -0.348 OA 
HETATM   12  O   UNL     1     -13.293  10.165  72.275  1.00  0.00    -0.415 OA 
HETATM   13  C   UNL     1     -12.654  10.613  71.333  1.00  0.00    -0.421 C  
ENDBRANCH   5  10
ENDBRANCH   4   5
ENDBRANCH   2   4
BRANCH   2  14
HETATM   14  C   UNL     1     -10.446  12.972  66.858  1.00  0.00    -0.254 C  
BRANCH  14  15
HETATM   15  N   UNL     1     -10.820  14.327  66.315  1.00  0.00    -0.305 NA 
BRANCH  15  16
HETATM   16  C   UNL     1      -9.693  15.283  66.630  1.00  0.00    -0.252 C  
HETATM   17  C   UNL     1     -10.107  16.392  67.591  1.00  0.00    -0.263 C  
HETATM   18  O   UNL     1     -11.085  16.003  68.450  1.00  0.00    -0.318 OA 
HETATM   19  O   UNL     1      -9.581  17.492  67.638  1.00  0.00    -0.259 OA 
ENDBRANCH  15  16
BRANCH  15  20
HETATM   20  C   UNL     1     -10.886  14.223  64.800  1.00  0.00    -0.405 C  
HETATM   21  C   UNL     1     -12.232  13.713  64.285  1.00  0.00    -0.396 C  
HETATM   22  O   UNL     1     -13.269  14.021  65.101  1.00  0.00    -0.768 OA 
HETATM   23  O   UNL     1     -12.377  13.133  63.223  1.00  0.00    -0.712 OA 
ENDBRANCH  15  20
ENDBRANCH  14  15
ENDBRANCH   2  14
TORSDOF 8
ENDMDL
MODEL      102
REMARK 921   NORMALIZED FREE ENERGY PREDICTED BY IDOCK:   -4.62 KCAL/MOL
REMARK 922        TOTAL FREE ENERGY PREDICTED BY IDOCK:   -8.12 KCAL/MOL
REMARK 923 INTER-LIGAND FREE ENERGY PREDICTED BY IDOCK:   -7.25 KCAL/MOL
REMARK 924 INTRA-LIGAND FREE ENERGY PREDICTED BY IDOCK:   -0.87 KCAL/MOL
REMARK 927      BINDING AFFINITY PREDICTED BY RF-SCORE:    0.00 PKD
ROOT
HETATM    1  O   UNL     1     -12.134  13.818  68.917  1.00  0.00    -0.349 OA 
HETATM    2  C   UNL     1     -11.512  13.089  67.853  1.00  0.00    -0.311 C  
HETATM    3  H   UNL     1     -12.178  14.739  68.688  1.00  0.00     0.000 HD 
ENDROOT
BRANCH   2   4
HETATM    4  C   UNL     1     -12.337  13.325  66.562  1.00  0.00    -0.248 C  
BRANCH   4   5
HETATM    5  N   UNL     1     -11.744  14.271  65.547  1.00  0.00    -0.344 NA 
BRANCH   5   6
HETATM    6  C   UNL     1     -10.678  13.521  64.784  1.00  0.00    -0.401 C  
HETATM    7  O   UNL     1     -12.460  12.949  63.267  1.00  0.00    -0.685 OA 
HETATM    8  C   UNL     1     -11.267  12.548  63.766  1.00  0.00    -0.462 C  
HETATM    9  O   UNL     1     -10.712  11.520  63.411  1.00  0.00    -0.385 OA 
ENDBRANCH   5   6
BRANCH   5  10
HETATM   10  C   UNL     1     -11.074  15.402  66.281  1.00  0.00    -0.226 C  
HETATM   11  O   UNL     1     -11.529  16.688  64.304  1.00  0.00    -1.075 OA 
HETATM   12  O   UNL     1      -9.747  17.312  65.558  1.00  0.00    -0.521 OA 
HETATM   13  C   UNL     1     -10.685  16.555  65.353  1.00  0.00    -0.259 C  
ENDBRANCH   5  10
ENDBRANCH   4   5
ENDBRANCH   2   4
BRANCH   2  14
HETATM   14  C   UNL     1     -11.440  11.577  68.229  1.00  0.00    -0.299 C  
BRANCH  14  15
HETATM   15  N   UNL     1     -10.246  10.795  67.746  1.00  0.00    -0.176 NA 
BRANCH  15  16
HETATM   16  C   UNL     1      -9.006  11.431  68.331  1.00  0.00    -0.172 C  
HETATM   17  C   UNL     1      -7.798  11.335  67.405  1.00  0.00    -0.128 C  
HETATM   18  O   UNL     1      -8.144  11.324  66.092  1.00  0.00    -0.149 OA 
HETATM   19  O   UNL     1      -6.639  11.334  67.787  1.00  0.00    -0.064 OA 
ENDBRANCH  15  16
BRANCH  15  20
HETATM   20  C   UNL     1     -10.331   9.396  68.337  1.00  0.00    -0.205 C  
HETATM   21  C   UNL     1     -10.498   8.302  67.282  1.00  0.00    -0.303 C  
HETATM   22  O   UNL     1      -9.945   8.623  66.087  1.00  0.00    -0.260 OA 
HETATM   23  O   UNL     1     -11.026   7.226  67.498  1.00  0.00    -0.226 OA 
ENDBRANCH  15  20
ENDBRANCH  14  15
ENDBRANCH   2  14
TORSDOF 8
ENDMDL
MODEL      103
REMARK 921   NORMALIZED FREE ENERGY PREDICTED BY IDOCK:   -4.62 KCAL/MOL
REMARK 922        TOTAL FREE ENERGY PREDICTED BY IDOCK:   -8.11 KCAL/MOL
REMARK 923 INTER-LIGAND FREE ENERGY PREDICTED BY IDOCK:   -6.70 KCAL/MOL
REMARK 924 INTRA-LIGAND FREE ENERGY PREDICTED BY IDOCK:   -1.41 KCAL/MOL
REMARK 927      BINDING AFFINITY PREDICTED BY RF-SCORE:    0.00 PKD
ROOT
HETATM    1  O   UNL     1      -9.977  11.219  66.772  1.00  0.00    -0.199 OA 
HETATM    2  C   UNL     1     -11.276  11.170  67.372  1.00  0.00    -0.294 C  
HETATM    3  H   UNL     1     -10.013  11.739  65.978  1.00  0.00     0.000 HD 
ENDROOT
BRANCH   2   4
HETATM    4  C   UNL     1     -11.731  12.624  67.654  1.00  0.00    -0.361 C  
BRANCH   4   5
HETATM    5  N   UNL     1     -11.461  13.636  66.566  1.00  0.00    -0.323 NA 
BRANCH   5   6
HETATM    6  C   UNL     1     -11.509  15.010  67.192  1.00  0.00    -0.297 C  
HETATM    7  O   UNL     1      -9.753  15.552  65.635  1.00  0.00    -0.336 OA 
HETATM    8  C   UNL     1     -10.283  15.851  66.844  1.00  0.00    -0.277 C  
HETATM    9  O   UNL     1      -9.834  16.727  67.567  1.00  0.00    -0.246 OA 
ENDBRANCH   5   6
BRANCH   5  10
HETATM   10  C   UNL     1     -12.568  13.554  65.550  1.00  0.00    -0.481 C  
HETATM   11  O   UNL     1     -10.897  12.620  64.100  1.00  0.00    -0.341 OA 
HETATM   12  O   UNL     1     -12.625  13.714  63.121  1.00  0.00    -0.792 OA 
HETATM   13  C   UNL     1     -12.046  13.334  64.129  1.00  0.00    -0.432 C  
ENDBRANCH   5  10
ENDBRANCH   4   5
ENDBRANCH   2   4
BRANCH   2  14
HETATM   14  C   UNL     1     -11.216  10.317  68.677  1.00  0.00    -0.208 C  
BRANCH  14  15
HETATM   15  N   UNL     1      -9.994   9.464  68.897  1.00  0.00    -0.174 NA 
BRANCH  15  16
HETATM   16  C   UNL     1      -9.540   9.661  70.325  1.00  0.00    -0.254 C  
HETATM   17  C   UNL     1      -8.062   9.343  70.526  1.00  0.00    -0.184 C  
HETATM   18  O   UNL     1      -7.319   9.581  69.415  1.00  0.00    -0.075 OA 
HETATM   19  O   UNL     1      -7.576   8.978  71.584  1.00  0.00    -0.302 OA 
ENDBRANCH  15  16
BRANCH  15  20
HETATM   20  C   UNL     1     -10.410   8.007  68.774  1.00  0.00    -0.206 C  
HETATM   21  C   UNL     1     -10.475   7.515  67.328  1.00  0.00    -0.321 C  
HETATM   22  O   UNL     1      -9.618   8.163  66.503  1.00  0.00    -0.207 OA 
HETATM   23  O   UNL     1     -11.184   6.597  66.955  1.00  0.00    -0.391 OA 
ENDBRANCH  15  20
ENDBRANCH  14  15
ENDBRANCH   2  14
TORSDOF 8
ENDMDL
MODEL      104
REMARK 921   NORMALIZED FREE ENERGY PREDICTED BY IDOCK:   -4.62 KCAL/MOL
REMARK 922        TOTAL FREE ENERGY PREDICTED BY IDOCK:   -8.11 KCAL/MOL
REMARK 923 INTER-LIGAND FREE ENERGY PREDICTED BY IDOCK:   -7.25 KCAL/MOL
REMARK 924 INTRA-LIGAND FREE ENERGY PREDICTED BY IDOCK:   -0.86 KCAL/MOL
REMARK 927      BINDING AFFINITY PREDICTED BY RF-SCORE:    0.00 PKD
ROOT
HETATM    1  O   UNL     1     -11.820  10.113  67.590  1.00  0.00    -0.365 OA 
HETATM    2  C   UNL     1     -11.184  11.233  68.217  1.00  0.00    -0.267 C  
HETATM    3  H   UNL     1     -11.498   9.307  67.977  1.00  0.00     0.000 HD 
ENDROOT
BRANCH   2   4
HETATM    4  C   UNL     1     -11.480  11.164  69.736  1.00  0.00    -0.312 C  
BRANCH   4   5
HETATM    5  N   UNL     1     -11.585   9.784  70.340  1.00  0.00    -0.264 NA 
BRANCH   5   6
HETATM    6  C   UNL     1     -12.301   9.911  71.664  1.00  0.00    -0.406 C  
HETATM    7  O   UNL     1     -13.061   7.668  71.232  1.00  0.00    -0.307 OA 
HETATM    8  C   UNL     1     -13.360   8.830  71.859  1.00  0.00    -0.389 C  
HETATM    9  O   UNL     1     -14.366   8.979  72.534  1.00  0.00    -0.570 OA 
ENDBRANCH   5   6
BRANCH   5  10
HETATM   10  C   UNL     1     -10.195   9.275  70.616  1.00  0.00    -0.272 C  
HETATM   11  O   UNL     1     -10.691   7.611  68.957  1.00  0.00    -0.202 OA 
HETATM   12  O   UNL     1      -9.181   7.062  70.556  1.00  0.00    -0.158 OA 
HETATM   13  C   UNL     1      -9.968   7.864  70.072  1.00  0.00    -0.191 C  
ENDBRANCH   5  10
ENDBRANCH   4   5
ENDBRANCH   2   4
BRANCH   2  14
HETATM   14  C   UNL     1     -11.712  12.556  67.581  1.00  0.00    -0.361 C  
BRANCH  14  15
HETATM   15  N   UNL     1     -11.238  12.900  66.193  1.00  0.00    -0.283 NA 
BRANCH  15  16
HETATM   16  C   UNL     1     -11.472  14.377  65.974  1.00  0.00    -0.349 C  
HETATM   17  C   UNL     1     -12.098  14.684  64.618  1.00  0.00    -0.454 C  
HETATM   18  O   UNL     1     -12.890  13.676  64.167  1.00  0.00    -0.611 OA 
HETATM   19  O   UNL     1     -11.963  15.740  64.023  1.00  0.00    -0.554 OA 
ENDBRANCH  15  16
BRANCH  15  20
HETATM   20  C   UNL     1      -9.733  12.690  66.145  1.00  0.00    -0.251 C  
HETATM   21  C   UNL     1      -9.328  11.324  65.591  1.00  0.00    -0.224 C  
HETATM   22  O   UNL     1     -10.225  10.817  64.710  1.00  0.00    -0.306 OA 
HETATM   23  O   UNL     1      -8.283  10.763  65.866  1.00  0.00    -0.157 OA 
ENDBRANCH  15  20
ENDBRANCH  14  15
ENDBRANCH   2  14
TORSDOF 8
ENDMDL
MODEL      105
REMARK 921   NORMALIZED FREE ENERGY PREDICTED BY IDOCK:   -4.61 KCAL/MOL
REMARK 922        TOTAL FREE ENERGY PREDICTED BY IDOCK:   -8.11 KCAL/MOL
REMARK 923 INTER-LIGAND FREE ENERGY PREDICTED BY IDOCK:   -6.66 KCAL/MOL
REMARK 924 INTRA-LIGAND FREE ENERGY PREDICTED BY IDOCK:   -1.44 KCAL/MOL
REMARK 927      BINDING AFFINITY PREDICTED BY RF-SCORE:    0.00 PKD
ROOT
HETATM    1  O   UNL     1     -11.602  16.245  68.344  1.00  0.00    -0.327 OA 
HETATM    2  C   UNL     1     -10.584  16.349  69.346  1.00  0.00    -0.317 C  
HETATM    3  H   UNL     1     -11.517  16.964  67.729  1.00  0.00     0.000 HD 
ENDROOT
BRANCH   2   4
HETATM    4  C   UNL     1      -9.207  16.341  68.634  1.00  0.00    -0.227 C  
BRANCH   4   5
HETATM    5  N   UNL     1      -8.828  17.597  67.888  1.00  0.00    -0.241 NA 
BRANCH   5   6
HETATM    6  C   UNL     1      -7.320  17.677  67.854  1.00  0.00    -0.202 C  
HETATM    7  O   UNL     1      -7.627  18.635  65.666  1.00  0.00    -0.505 OA 
HETATM    8  C   UNL     1      -6.781  17.923  66.447  1.00  0.00    -0.237 C  
HETATM    9  O   UNL     1      -5.686  17.542  66.064  1.00  0.00    -0.193 OA 
ENDBRANCH   5   6
BRANCH   5  10
HETATM   10  C   UNL     1      -9.334  18.785  68.661  1.00  0.00    -0.351 C  
HETATM   11  O   UNL     1     -10.936  19.005  66.885  1.00  0.00    -0.364 OA 
HETATM   12  O   UNL     1     -10.367  20.891  68.006  1.00  0.00     0.031 OA 
HETATM   13  C   UNL     1     -10.240  19.688  67.822  1.00  0.00    -0.436 C  
ENDBRANCH   5  10
ENDBRANCH   4   5
ENDBRANCH   2   4
BRANCH   2  14
HETATM   14  C   UNL     1     -10.723  15.168  70.355  1.00  0.00    -0.180 C  
BRANCH  14  15
HETATM   15  N   UNL     1     -11.933  14.280  70.227  1.00  0.00    -0.308 NA 
BRANCH  15  16
HETATM   16  C   UNL     1     -11.452  12.880  69.919  1.00  0.00    -0.077 C  
HETATM   17  C   UNL     1     -11.945  12.367  68.570  1.00  0.00    -0.223 C  
HETATM   18  O   UNL     1     -12.128  13.363  67.665  1.00  0.00    -0.342 OA 
HETATM   19  O   UNL     1     -12.100  11.187  68.300  1.00  0.00    -0.620 OA 
ENDBRANCH  15  16
BRANCH  15  20
HETATM   20  C   UNL     1     -12.613  14.212  71.585  1.00  0.00    -0.337 C  
HETATM   21  C   UNL     1     -13.734  15.237  71.753  1.00  0.00    -0.504 C  
HETATM   22  O   UNL     1     -14.335  15.569  70.585  1.00  0.00    -0.157 OA 
HETATM   23  O   UNL     1     -14.095  15.678  72.830  1.00  0.00    -0.544 OA 
ENDBRANCH  15  20
ENDBRANCH  14  15
ENDBRANCH   2  14
TORSDOF 8
ENDMDL
MODEL      106
REMARK 921   NORMALIZED FREE ENERGY PREDICTED BY IDOCK:   -4.61 KCAL/MOL
REMARK 922        TOTAL FREE ENERGY PREDICTED BY IDOCK:   -8.10 KCAL/MOL
REMARK 923 INTER-LIGAND FREE ENERGY PREDICTED BY IDOCK:   -7.03 KCAL/MOL
REMARK 924 INTRA-LIGAND FREE ENERGY PREDICTED BY IDOCK:   -1.07 KCAL/MOL
REMARK 927      BINDING AFFINITY PREDICTED BY RF-SCORE:    0.00 PKD
ROOT
HETATM    1  O   UNL     1      -7.634  13.945  67.302  1.00  0.00    -0.289 OA 
HETATM    2  C   UNL     1      -9.029  14.042  66.991  1.00  0.00    -0.235 C  
HETATM    3  H   UNL     1      -7.482  13.179  67.842  1.00  0.00     0.000 HD 
ENDROOT
BRANCH   2   4
HETATM    4  C   UNL     1      -9.452  12.735  66.273  1.00  0.00    -0.196 C  
BRANCH   4   5
HETATM    5  N   UNL     1     -10.936  12.485  66.151  1.00  0.00    -0.275 NA 
BRANCH   5   6
HETATM    6  C   UNL     1     -11.298  11.376  67.111  1.00  0.00    -0.255 C  
HETATM    7  O   UNL     1     -12.104  13.148  68.529  1.00  0.00    -0.317 OA 
HETATM    8  C   UNL     1     -11.592  11.895  68.516  1.00  0.00    -0.318 C  
HETATM    9  O   UNL     1     -11.412  11.242  69.532  1.00  0.00    -0.254 OA 
ENDBRANCH   5   6
BRANCH   5  10
HETATM   10  C   UNL     1     -11.227  11.999  64.756  1.00  0.00    -0.318 C  
HETATM   11  O   UNL     1     -12.104  14.204  64.387  1.00  0.00    -0.439 OA 
HETATM   12  O   UNL     1     -12.961  12.523  63.130  1.00  0.00    -0.561 OA 
HETATM   13  C   UNL     1     -12.204  12.908  64.010  1.00  0.00    -0.426 C  
ENDBRANCH   5  10
ENDBRANCH   4   5
ENDBRANCH   2   4
BRANCH   2  14
HETATM   14  C   UNL     1      -9.279  15.300  66.103  1.00  0.00    -0.310 C  
BRANCH  14  15
HETATM   15  N   UNL     1      -9.773  16.548  66.787  1.00  0.00    -0.247 NA 
BRANCH  15  16
HETATM   16  C   UNL     1     -10.422  17.425  65.741  1.00  0.00    -0.215 C  
HETATM   17  C   UNL     1     -10.164  18.911  65.970  1.00  0.00    -0.387 C  
HETATM   18  O   UNL     1      -8.974  19.147  66.581  1.00  0.00    -0.302 OA 
HETATM   19  O   UNL     1     -10.905  19.803  65.591  1.00  0.00    -0.462 OA 
ENDBRANCH  15  16
BRANCH  15  20
HETATM   20  C   UNL     1     -10.874  16.148  67.757  1.00  0.00    -0.318 C  
HETATM   21  C   UNL     1     -10.643  16.657  69.180  1.00  0.00    -0.340 C  
HETATM   22  O   UNL     1      -9.929  17.808  69.226  1.00  0.00    -0.235 OA 
HETATM   23  O   UNL     1     -11.095  16.120  70.175  1.00  0.00    -0.336 OA 
ENDBRANCH  15  20
ENDBRANCH  14  15
ENDBRANCH   2  14
TORSDOF 8
ENDMDL
MODEL      107
REMARK 921   NORMALIZED FREE ENERGY PREDICTED BY IDOCK:   -4.59 KCAL/MOL
REMARK 922        TOTAL FREE ENERGY PREDICTED BY IDOCK:   -8.07 KCAL/MOL
REMARK 923 INTER-LIGAND FREE ENERGY PREDICTED BY IDOCK:   -7.10 KCAL/MOL
REMARK 924 INTRA-LIGAND FREE ENERGY PREDICTED BY IDOCK:   -0.97 KCAL/MOL
REMARK 927      BINDING AFFINITY PREDICTED BY RF-SCORE:    0.00 PKD
ROOT
HETATM    1  O   UNL     1      -9.013  14.355  66.072  1.00  0.00    -0.484 OA 
HETATM    2  C   UNL     1      -9.945  15.419  66.295  1.00  0.00    -0.288 C  
HETATM    3  H   UNL     1      -8.138  14.714  65.980  1.00  0.00     0.000 HD 
ENDROOT
BRANCH   2   4
HETATM    4  C   UNL     1      -9.500  16.188  67.565  1.00  0.00    -0.223 C  
BRANCH   4   5
HETATM    5  N   UNL     1      -8.641  17.410  67.345  1.00  0.00    -0.212 NA 
BRANCH   5   6
HETATM    6  C   UNL     1      -9.543  18.621  67.381  1.00  0.00    -0.296 C  
HETATM    7  O   UNL     1      -8.216  19.295  69.275  1.00  0.00    -0.221 OA 
HETATM    8  C   UNL     1      -9.437  19.388  68.697  1.00  0.00    -0.405 C  
HETATM    9  O   UNL     1     -10.349  20.043  69.176  1.00  0.00    -0.350 OA 
ENDBRANCH   5   6
BRANCH   5  10
HETATM   10  C   UNL     1      -8.035  17.328  65.970  1.00  0.00    -0.161 C  
HETATM   11  O   UNL     1      -6.028  18.118  67.026  1.00  0.00    -0.141 OA 
HETATM   12  O   UNL     1      -6.300  18.600  64.828  1.00  0.00    -0.471 OA 
HETATM   13  C   UNL     1      -6.717  18.098  65.863  1.00  0.00    -0.292 C  
ENDBRANCH   5  10
ENDBRANCH   4   5
ENDBRANCH   2   4
BRANCH   2  14
HETATM   14  C   UNL     1     -11.382  14.831  66.446  1.00  0.00    -0.339 C  
BRANCH  14  15
HETATM   15  N   UNL     1     -11.533  13.334  66.373  1.00  0.00    -0.316 NA 
BRANCH  15  16
HETATM   16  C   UNL     1     -12.128  12.862  67.680  1.00  0.00    -0.183 C  
HETATM   17  C   UNL     1     -11.462  11.597  68.212  1.00  0.00    -0.303 C  
HETATM   18  O   UNL     1     -10.157  11.500  67.849  1.00  0.00    -0.181 OA 
HETATM   19  O   UNL     1     -12.012  10.785  68.938  1.00  0.00    -0.373 OA 
ENDBRANCH  15  16
BRANCH  15  20
HETATM   20  C   UNL     1     -12.558  13.018  65.295  1.00  0.00    -0.457 C  
HETATM   21  C   UNL     1     -11.990  13.091  63.878  1.00  0.00    -0.485 C  
HETATM   22  O   UNL     1     -10.667  12.806  63.817  1.00  0.00    -0.413 OA 
HETATM   23  O   UNL     1     -12.661  13.328  62.889  1.00  0.00    -0.509 OA 
ENDBRANCH  15  20
ENDBRANCH  14  15
ENDBRANCH   2  14
TORSDOF 8
ENDMDL
MODEL      108
REMARK 921   NORMALIZED FREE ENERGY PREDICTED BY IDOCK:   -4.58 KCAL/MOL
REMARK 922        TOTAL FREE ENERGY PREDICTED BY IDOCK:   -8.06 KCAL/MOL
REMARK 923 INTER-LIGAND FREE ENERGY PREDICTED BY IDOCK:   -6.62 KCAL/MOL
REMARK 924 INTRA-LIGAND FREE ENERGY PREDICTED BY IDOCK:   -1.44 KCAL/MOL
REMARK 927      BINDING AFFINITY PREDICTED BY RF-SCORE:    0.00 PKD
ROOT
HETATM    1  O   UNL     1     -11.881  10.525  67.962  1.00  0.00    -0.765 OA 
HETATM    2  C   UNL     1     -11.435  11.855  68.248  1.00  0.00    -0.311 C  
HETATM    3  H   UNL     1     -12.830  10.502  67.957  1.00  0.00     0.000 HD 
ENDROOT
BRANCH   2   4
HETATM    4  C   UNL     1     -12.028  12.801  67.174  1.00  0.00    -0.284 C  
BRANCH   4   5
HETATM    5  N   UNL     1     -11.322  14.121  66.974  1.00  0.00    -0.318 NA 
BRANCH   5   6
HETATM    6  C   UNL     1     -11.823  15.078  68.029  1.00  0.00    -0.241 C  
HETATM    7  O   UNL     1      -9.511  15.244  68.681  1.00  0.00    -0.189 OA 
HETATM    8  C   UNL     1     -10.788  15.336  69.121  1.00  0.00    -0.250 C  
HETATM    9  O   UNL     1     -11.073  15.623  70.273  1.00  0.00    -0.287 OA 
ENDBRANCH   5   6
BRANCH   5  10
HETATM   10  C   UNL     1     -11.711  14.673  65.629  1.00  0.00    -0.304 C  
HETATM   11  O   UNL     1      -9.468  15.530  65.556  1.00  0.00    -0.279 OA 
HETATM   12  O   UNL     1     -11.046  16.654  64.378  1.00  0.00    -0.985 OA 
HETATM   13  C   UNL     1     -10.735  15.739  65.128  1.00  0.00    -0.435 C  
ENDBRANCH   5  10
ENDBRANCH   4   5
ENDBRANCH   2   4
BRANCH   2  14
HETATM   14  C   UNL     1      -9.876  11.892  68.258  1.00  0.00    -0.199 C  
BRANCH  14  15
HETATM   15  N   UNL     1      -9.146  10.681  67.738  1.00  0.00    -0.142 NA 
BRANCH  15  16
HETATM   16  C   UNL     1      -8.342  11.104  66.530  1.00  0.00    -0.166 C  
HETATM   17  C   UNL     1      -8.863  10.501  65.229  1.00  0.00    -0.188 C  
HETATM   18  O   UNL     1     -10.202  10.276  65.256  1.00  0.00    -0.307 OA 
HETATM   19  O   UNL     1      -8.174  10.298  64.243  1.00  0.00    -0.163 OA 
ENDBRANCH  15  16
BRANCH  15  20
HETATM   20  C   UNL     1      -8.142  10.248  68.794  1.00  0.00    -0.120 C  
HETATM   21  C   UNL     1      -8.782   9.530  69.982  1.00  0.00    -0.221 C  
HETATM   22  O   UNL     1      -9.920   8.870  69.657  1.00  0.00    -0.182 OA 
HETATM   23  O   UNL     1      -8.298   9.503  71.099  1.00  0.00    -0.285 OA 
ENDBRANCH  15  20
ENDBRANCH  14  15
ENDBRANCH   2  14
TORSDOF 8
ENDMDL
MODEL      109
REMARK 921   NORMALIZED FREE ENERGY PREDICTED BY IDOCK:   -4.58 KCAL/MOL
REMARK 922        TOTAL FREE ENERGY PREDICTED BY IDOCK:   -8.05 KCAL/MOL
REMARK 923 INTER-LIGAND FREE ENERGY PREDICTED BY IDOCK:   -6.50 KCAL/MOL
REMARK 924 INTRA-LIGAND FREE ENERGY PREDICTED BY IDOCK:   -1.55 KCAL/MOL
REMARK 927      BINDING AFFINITY PREDICTED BY RF-SCORE:    0.00 PKD
ROOT
HETATM    1  O   UNL     1      -8.565  14.227  67.902  1.00  0.00    -0.153 OA 
HETATM    2  C   UNL     1      -9.236  14.811  66.779  1.00  0.00    -0.260 C  
HETATM    3  H   UNL     1      -7.681  13.985  67.652  1.00  0.00     0.000 HD 
ENDROOT
BRANCH   2   4
HETATM    4  C   UNL     1      -8.411  16.037  66.311  1.00  0.00    -0.302 C  
BRANCH   4   5
HETATM    5  N   UNL     1      -8.414  17.239  67.224  1.00  0.00    -0.195 NA 
BRANCH   5   6
HETATM    6  C   UNL     1      -8.893  18.427  66.424  1.00  0.00    -0.248 C  
HETATM    7  O   UNL     1     -10.002  19.087  68.457  1.00  0.00    -0.379 OA 
HETATM    8  C   UNL     1     -10.043  19.163  67.106  1.00  0.00    -0.373 C  
HETATM    9  O   UNL     1     -10.904  19.785  66.503  1.00  0.00    -0.451 OA 
ENDBRANCH   5   6
BRANCH   5  10
HETATM   10  C   UNL     1      -6.998  17.516  67.655  1.00  0.00    -0.167 C  
HETATM   11  O   UNL     1      -7.550  16.220  69.601  1.00  0.00    -0.106 OA 
HETATM   12  O   UNL     1      -5.936  17.796  69.829  1.00  0.00    -0.236 OA 
HETATM   13  C   UNL     1      -6.769  17.224  69.139  1.00  0.00    -0.243 C  
ENDBRANCH   5  10
ENDBRANCH   4   5
ENDBRANCH   2   4
BRANCH   2  14
HETATM   14  C   UNL     1     -10.687  15.210  67.189  1.00  0.00    -0.310 C  
BRANCH  14  15
HETATM   15  N   UNL     1     -11.251  14.597  68.444  1.00  0.00    -0.262 NA 
BRANCH  15  16
HETATM   16  C   UNL     1     -12.141  15.624  69.105  1.00  0.00    -0.227 C  
HETATM   17  C   UNL     1     -12.534  15.241  70.528  1.00  0.00    -0.405 C  
HETATM   18  O   UNL     1     -11.587  14.491  71.149  1.00  0.00    -0.272 OA 
HETATM   19  O   UNL     1     -13.554  15.615  71.083  1.00  0.00    -0.582 OA 
ENDBRANCH  15  16
BRANCH  15  20
HETATM   20  C   UNL     1     -12.153  13.442  68.039  1.00  0.00    -0.248 C  
HETATM   21  C   UNL     1     -11.422  12.102  67.956  1.00  0.00    -0.319 C  
HETATM   22  O   UNL     1     -10.361  12.018  68.796  1.00  0.00    -0.218 OA 
HETATM   23  O   UNL     1     -11.779  11.176  67.250  1.00  0.00    -0.540 OA 
ENDBRANCH  15  20
ENDBRANCH  14  15
ENDBRANCH   2  14
TORSDOF 8
ENDMDL
MODEL      110
REMARK 921   NORMALIZED FREE ENERGY PREDICTED BY IDOCK:   -4.56 KCAL/MOL
REMARK 922        TOTAL FREE ENERGY PREDICTED BY IDOCK:   -8.03 KCAL/MOL
REMARK 923 INTER-LIGAND FREE ENERGY PREDICTED BY IDOCK:   -7.00 KCAL/MOL
REMARK 924 INTRA-LIGAND FREE ENERGY PREDICTED BY IDOCK:   -1.02 KCAL/MOL
REMARK 927      BINDING AFFINITY PREDICTED BY RF-SCORE:    0.00 PKD
ROOT
HETATM    1  O   UNL     1      -7.076  14.616  66.915  1.00  0.00    -0.324 OA 
HETATM    2  C   UNL     1      -7.992  15.717  66.949  1.00  0.00    -0.243 C  
HETATM    3  H   UNL     1      -7.515  13.828  67.214  1.00  0.00     0.000 HD 
ENDROOT
BRANCH   2   4
HETATM    4  C   UNL     1      -9.206  15.358  66.055  1.00  0.00    -0.298 C  
BRANCH   4   5
HETATM    5  N   UNL     1     -10.431  14.832  66.763  1.00  0.00    -0.278 NA 
BRANCH   5   6
HETATM    6  C   UNL     1     -10.058  14.574  68.204  1.00  0.00    -0.227 C  
HETATM    7  O   UNL     1     -12.219  15.508  68.714  1.00  0.00    -0.218 OA 
HETATM    8  C   UNL     1     -10.962  15.320  69.182  1.00  0.00    -0.251 C  
HETATM    9  O   UNL     1     -10.605  15.690  70.289  1.00  0.00    -0.316 OA 
ENDBRANCH   5   6
BRANCH   5  10
HETATM   10  C   UNL     1     -10.813  13.513  66.145  1.00  0.00    -0.281 C  
HETATM   11  O   UNL     1     -12.392  14.797  64.869  1.00  0.00    -0.357 OA 
HETATM   12  O   UNL     1     -12.899  12.622  65.260  1.00  0.00    -0.656 OA 
HETATM   13  C   UNL     1     -12.149  13.578  65.404  1.00  0.00    -0.415 C  
ENDBRANCH   5  10
ENDBRANCH   4   5
ENDBRANCH   2   4
BRANCH   2  14
HETATM   14  C   UNL     1      -7.272  17.010  66.459  1.00  0.00    -0.276 C  
BRANCH  14  15
HETATM   15  N   UNL     1      -7.681  18.317  67.087  1.00  0.00    -0.217 NA 
BRANCH  15  16
HETATM   16  C   UNL     1      -6.441  19.168  67.240  1.00  0.00    -0.188 C  
HETATM   17  C   UNL     1      -6.567  20.204  68.353  1.00  0.00    -0.302 C  
HETATM   18  O   UNL     1      -7.381  19.795  69.359  1.00  0.00    -0.318 OA 
HETATM   19  O   UNL     1      -5.956  21.260  68.379  1.00  0.00    -0.305 OA 
ENDBRANCH  15  16
BRANCH  15  20
HETATM   20  C   UNL     1      -8.586  19.046  66.108  1.00  0.00    -0.198 C  
HETATM   21  C   UNL     1     -10.070  18.742  66.312  1.00  0.00    -0.409 C  
HETATM   22  O   UNL     1     -10.381  18.432  67.593  1.00  0.00    -0.366 OA 
HETATM   23  O   UNL     1     -10.907  18.820  65.429  1.00  0.00    -0.563 OA 
ENDBRANCH  15  20
ENDBRANCH  14  15
ENDBRANCH   2  14
TORSDOF 8
ENDMDL
MODEL      111
REMARK 921   NORMALIZED FREE ENERGY PREDICTED BY IDOCK:   -4.55 KCAL/MOL
REMARK 922        TOTAL FREE ENERGY PREDICTED BY IDOCK:   -8.02 KCAL/MOL
REMARK 923 INTER-LIGAND FREE ENERGY PREDICTED BY IDOCK:   -7.24 KCAL/MOL
REMARK 924 INTRA-LIGAND FREE ENERGY PREDICTED BY IDOCK:   -0.77 KCAL/MOL
REMARK 927      BINDING AFFINITY PREDICTED BY RF-SCORE:    0.00 PKD
ROOT
HETATM    1  O   UNL     1      -7.522  14.414  68.480  1.00  0.00    -0.108 OA 
HETATM    2  C   UNL     1      -8.432  13.851  67.528  1.00  0.00    -0.196 C  
HETATM    3  H   UNL     1      -7.382  15.333  68.281  1.00  0.00     0.000 HD 
ENDROOT
BRANCH   2   4
HETATM    4  C   UNL     1      -9.750  14.663  67.585  1.00  0.00    -0.214 C  
BRANCH   4   5
HETATM    5  N   UNL     1     -10.019  15.594  66.428  1.00  0.00    -0.265 NA 
BRANCH   5   6
HETATM    6  C   UNL     1     -10.554  14.767  65.283  1.00  0.00    -0.395 C  
HETATM    7  O   UNL     1     -11.386  16.861  64.432  1.00  0.00    -1.133 OA 
HETATM    8  C   UNL     1     -11.588  15.522  64.452  1.00  0.00    -0.258 C  
HETATM    9  O   UNL     1     -12.496  14.979  63.842  1.00  0.00    -0.790 OA 
ENDBRANCH   5   6
BRANCH   5  10
HETATM   10  C   UNL     1      -8.713  16.199  65.987  1.00  0.00    -0.246 C  
HETATM   11  O   UNL     1      -9.135  17.849  67.681  1.00  0.00    -0.247 OA 
HETATM   12  O   UNL     1      -7.867  18.482  65.912  1.00  0.00    -0.474 OA 
HETATM   13  C   UNL     1      -8.530  17.632  66.490  1.00  0.00    -0.264 C  
ENDBRANCH   5  10
ENDBRANCH   4   5
ENDBRANCH   2   4
BRANCH   2  14
HETATM   14  C   UNL     1      -8.662  12.344  67.855  1.00  0.00    -0.175 C  
BRANCH  14  15
HETATM   15  N   UNL     1      -9.587  11.569  66.953  1.00  0.00    -0.185 NA 
BRANCH  15  16
HETATM   16  C   UNL     1      -8.740  10.691  66.061  1.00  0.00    -0.177 C  
HETATM   17  C   UNL     1      -9.316  10.539  64.658  1.00  0.00    -0.248 C  
HETATM   18  O   UNL     1     -10.025  11.628  64.262  1.00  0.00    -0.252 OA 
HETATM   19  O   UNL     1      -9.116   9.577  63.934  1.00  0.00    -0.230 OA 
ENDBRANCH  15  16
BRANCH  15  20
HETATM   20  C   UNL     1     -10.413  10.632  67.821  1.00  0.00    -0.221 C  
HETATM   21  C   UNL     1     -11.783  11.198  68.191  1.00  0.00    -0.232 C  
HETATM   22  O   UNL     1     -12.276  12.056  67.265  1.00  0.00    -0.496 OA 
HETATM   23  O   UNL     1     -12.403  10.878  69.190  1.00  0.00    -0.435 OA 
ENDBRANCH  15  20
ENDBRANCH  14  15
ENDBRANCH   2  14
TORSDOF 8
ENDMDL
MODEL      112
REMARK 921   NORMALIZED FREE ENERGY PREDICTED BY IDOCK:   -4.55 KCAL/MOL
REMARK 922        TOTAL FREE ENERGY PREDICTED BY IDOCK:   -8.01 KCAL/MOL
REMARK 923 INTER-LIGAND FREE ENERGY PREDICTED BY IDOCK:   -7.00 KCAL/MOL
REMARK 924 INTRA-LIGAND FREE ENERGY PREDICTED BY IDOCK:   -1.01 KCAL/MOL
REMARK 927      BINDING AFFINITY PREDICTED BY RF-SCORE:    0.00 PKD
ROOT
HETATM    1  O   UNL     1     -11.123  13.432  69.113  1.00  0.00    -0.284 OA 
HETATM    2  C   UNL     1     -11.047  12.961  67.762  1.00  0.00    -0.259 C  
HETATM    3  H   UNL     1     -10.995  14.373  69.128  1.00  0.00     0.000 HD 
ENDROOT
BRANCH   2   4
HETATM    4  C   UNL     1     -12.125  13.704  66.933  1.00  0.00    -0.386 C  
BRANCH   4   5
HETATM    5  N   UNL     1     -11.623  14.617  65.841  1.00  0.00    -0.349 NA 
BRANCH   5   6
HETATM    6  C   UNL     1     -10.707  13.812  64.950  1.00  0.00    -0.399 C  
HETATM    7  O   UNL     1     -12.549  13.819  63.399  1.00  0.00    -0.842 OA 
HETATM    8  C   UNL     1     -11.455  13.133  63.806  1.00  0.00    -0.373 C  
HETATM    9  O   UNL     1     -11.096  12.088  63.285  1.00  0.00    -0.384 OA 
ENDBRANCH   5   6
BRANCH   5  10
HETATM   10  C   UNL     1     -10.806  15.713  66.470  1.00  0.00    -0.260 C  
HETATM   11  O   UNL     1     -11.249  16.931  64.448  1.00  0.00    -1.159 OA 
HETATM   12  O   UNL     1      -9.345  17.440  65.568  1.00  0.00    -0.344 OA 
HETATM   13  C   UNL     1     -10.362  16.770  65.457  1.00  0.00    -0.215 C  
ENDBRANCH   5  10
ENDBRANCH   4   5
ENDBRANCH   2   4
BRANCH   2  14
HETATM   14  C   UNL     1     -11.257  11.416  67.737  1.00  0.00    -0.283 C  
BRANCH  14  15
HETATM   15  N   UNL     1     -10.027  10.546  67.692  1.00  0.00    -0.169 NA 
BRANCH  15  16
HETATM   16  C   UNL     1     -10.177   9.587  66.533  1.00  0.00    -0.237 C  
HETATM   17  C   UNL     1      -9.680   8.182  66.858  1.00  0.00    -0.226 C  
HETATM   18  O   UNL     1      -9.815   7.870  68.173  1.00  0.00    -0.159 OA 
HETATM   19  O   UNL     1      -9.266   7.392  66.026  1.00  0.00    -0.140 OA 
ENDBRANCH  15  16
BRANCH  15  20
HETATM   20  C   UNL     1      -8.836  11.432  67.365  1.00  0.00    -0.150 C  
HETATM   21  C   UNL     1      -7.848  11.571  68.523  1.00  0.00    -0.140 C  
HETATM   22  O   UNL     1      -7.828  10.491  69.341  1.00  0.00    -0.145 OA 
HETATM   23  O   UNL     1      -7.110  12.529  68.675  1.00  0.00    -0.091 OA 
ENDBRANCH  15  20
ENDBRANCH  14  15
ENDBRANCH   2  14
TORSDOF 8
ENDMDL
MODEL      113
REMARK 921   NORMALIZED FREE ENERGY PREDICTED BY IDOCK:   -4.54 KCAL/MOL
REMARK 922        TOTAL FREE ENERGY PREDICTED BY IDOCK:   -8.00 KCAL/MOL
REMARK 923 INTER-LIGAND FREE ENERGY PREDICTED BY IDOCK:   -7.33 KCAL/MOL
REMARK 924 INTRA-LIGAND FREE ENERGY PREDICTED BY IDOCK:   -0.67 KCAL/MOL
REMARK 927      BINDING AFFINITY PREDICTED BY RF-SCORE:    0.00 PKD
ROOT
HETATM    1  O   UNL     1      -9.809  12.446  68.912  1.00  0.00    -0.419 OA 
HETATM    2  C   UNL     1     -10.885  13.304  68.516  1.00  0.00    -0.265 C  
HETATM    3  H   UNL     1      -9.292  12.875  69.584  1.00  0.00     0.000 HD 
ENDROOT
BRANCH   2   4
HETATM    4  C   UNL     1     -11.728  13.629  69.775  1.00  0.00    -0.297 C  
BRANCH   4   5
HETATM    5  N   UNL     1     -11.613  15.032  70.319  1.00  0.00    -0.270 NA 
BRANCH   5   6
HETATM    6  C   UNL     1     -10.188  15.489  70.120  1.00  0.00    -0.214 C  
HETATM    7  O   UNL     1     -11.131  17.070  68.568  1.00  0.00    -0.300 OA 
HETATM    8  C   UNL     1     -10.022  16.356  68.875  1.00  0.00    -0.257 C  
HETATM    9  O   UNL     1      -8.989  16.425  68.228  1.00  0.00    -0.196 OA 
ENDBRANCH   5   6
BRANCH   5  10
HETATM   10  C   UNL     1     -11.882  14.995  71.800  1.00  0.00    -0.388 C  
HETATM   11  O   UNL     1     -14.194  15.198  71.182  1.00  0.00    -0.429 OA 
HETATM   12  O   UNL     1     -13.591  15.998  73.216  1.00  0.00    -0.590 OA 
HETATM   13  C   UNL     1     -13.292  15.472  72.153  1.00  0.00    -0.467 C  
ENDBRANCH   5  10
ENDBRANCH   4   5
ENDBRANCH   2   4
BRANCH   2  14
HETATM   14  C   UNL     1     -11.734  12.600  67.414  1.00  0.00    -0.369 C  
BRANCH  14  15
HETATM   15  N   UNL     1     -11.043  12.242  66.124  1.00  0.00    -0.297 NA 
BRANCH  15  16
HETATM   16  C   UNL     1     -10.813  10.748  66.119  1.00  0.00    -0.054 C  
HETATM   17  C   UNL     1      -9.345  10.374  65.941  1.00  0.00    -0.182 C  
HETATM   18  O   UNL     1      -8.501  11.308  66.451  1.00  0.00    -0.167 OA 
HETATM   19  O   UNL     1      -8.958   9.325  65.454  1.00  0.00    -0.182 OA 
ENDBRANCH  15  16
BRANCH  15  20
HETATM   20  C   UNL     1     -12.001  12.533  64.980  1.00  0.00    -0.427 C  
HETATM   21  C   UNL     1     -11.873  13.953  64.429  1.00  0.00    -0.429 C  
HETATM   22  O   UNL     1     -10.628  14.470  64.567  1.00  0.00    -0.350 OA 
HETATM   23  O   UNL     1     -12.777  14.549  63.871  1.00  0.00    -0.782 OA 
ENDBRANCH  15  20
ENDBRANCH  14  15
ENDBRANCH   2  14
TORSDOF 8
ENDMDL
MODEL      114
REMARK 921   NORMALIZED FREE ENERGY PREDICTED BY IDOCK:   -4.53 KCAL/MOL
REMARK 922        TOTAL FREE ENERGY PREDICTED BY IDOCK:   -7.98 KCAL/MOL
REMARK 923 INTER-LIGAND FREE ENERGY PREDICTED BY IDOCK:   -6.92 KCAL/MOL
REMARK 924 INTRA-LIGAND FREE ENERGY PREDICTED BY IDOCK:   -1.06 KCAL/MOL
REMARK 927      BINDING AFFINITY PREDICTED BY RF-SCORE:    0.00 PKD
ROOT
HETATM    1  O   UNL     1     -12.139  11.234  67.976  1.00  0.00    -0.638 OA 
HETATM    2  C   UNL     1     -10.750  10.906  67.853  1.00  0.00    -0.231 C  
HETATM    3  H   UNL     1     -12.228  12.122  68.302  1.00  0.00     0.000 HD 
ENDROOT
BRANCH   2   4
HETATM    4  C   UNL     1     -10.096  11.939  66.901  1.00  0.00    -0.207 C  
BRANCH   4   5
HETATM    5  N   UNL     1     -10.937  13.134  66.523  1.00  0.00    -0.283 NA 
BRANCH   5   6
HETATM    6  C   UNL     1     -10.798  13.346  65.035  1.00  0.00    -0.328 C  
HETATM    7  O   UNL     1     -13.133  13.928  65.109  1.00  0.00    -0.773 OA 
HETATM    8  C   UNL     1     -12.149  13.424  64.329  1.00  0.00    -0.424 C  
HETATM    9  O   UNL     1     -12.328  13.091  63.168  1.00  0.00    -0.650 OA 
ENDBRANCH   5   6
BRANCH   5  10
HETATM   10  C   UNL     1     -10.379  14.349  67.215  1.00  0.00    -0.260 C  
HETATM   11  O   UNL     1     -12.220  14.082  68.734  1.00  0.00    -0.337 OA 
HETATM   12  O   UNL     1     -11.394  16.176  68.465  1.00  0.00    -0.359 OA 
HETATM   13  C   UNL     1     -11.381  14.987  68.180  1.00  0.00    -0.330 C  
ENDBRANCH   5  10
ENDBRANCH   4   5
ENDBRANCH   2   4
BRANCH   2  14
HETATM   14  C   UNL     1     -10.603   9.448  67.319  1.00  0.00    -0.244 C  
BRANCH  14  15
HETATM   15  N   UNL     1     -10.114   8.399  68.283  1.00  0.00    -0.192 NA 
BRANCH  15  16
HETATM   16  C   UNL     1     -10.462   8.853  69.682  1.00  0.00    -0.216 C  
HETATM   17  C   UNL     1      -9.233   9.174  70.525  1.00  0.00    -0.241 C  
HETATM   18  O   UNL     1      -8.189   9.621  69.780  1.00  0.00    -0.126 OA 
HETATM   19  O   UNL     1      -9.198   9.104  71.743  1.00  0.00    -0.338 OA 
ENDBRANCH  15  16
BRANCH  15  20
HETATM   20  C   UNL     1     -10.906   7.126  68.034  1.00  0.00    -0.128 C  
HETATM   21  C   UNL     1     -10.189   6.136  67.115  1.00  0.00    -0.199 C  
HETATM   22  O   UNL     1      -8.839   6.225  67.183  1.00  0.00    -0.109 OA 
HETATM   23  O   UNL     1     -10.763   5.310  66.428  1.00  0.00    -0.307 OA 
ENDBRANCH  15  20
ENDBRANCH  14  15
ENDBRANCH   2  14
TORSDOF 8
ENDMDL
MODEL      115
REMARK 921   NORMALIZED FREE ENERGY PREDICTED BY IDOCK:   -4.50 KCAL/MOL
REMARK 922        TOTAL FREE ENERGY PREDICTED BY IDOCK:   -7.94 KCAL/MOL
REMARK 923 INTER-LIGAND FREE ENERGY PREDICTED BY IDOCK:   -6.93 KCAL/MOL
REMARK 924 INTRA-LIGAND FREE ENERGY PREDICTED BY IDOCK:   -1.01 KCAL/MOL
REMARK 927      BINDING AFFINITY PREDICTED BY RF-SCORE:    0.00 PKD
ROOT
HETATM    1  O   UNL     1      -9.186  12.443  68.702  1.00  0.00    -0.374 OA 
HETATM    2  C   UNL     1      -9.326  12.232  67.292  1.00  0.00    -0.185 C  
HETATM    3  H   UNL     1      -8.451  13.023  68.865  1.00  0.00     0.000 HD 
ENDROOT
BRANCH   2   4
HETATM    4  C   UNL     1      -9.519  13.614  66.617  1.00  0.00    -0.277 C  
BRANCH   4   5
HETATM    5  N   UNL     1     -10.888  14.238  66.740  1.00  0.00    -0.295 NA 
BRANCH   5   6
HETATM    6  C   UNL     1     -11.176  14.977  65.454  1.00  0.00    -0.356 C  
HETATM    7  O   UNL     1     -13.211  13.689  65.414  1.00  0.00    -0.678 OA 
HETATM    8  C   UNL     1     -12.295  14.325  64.646  1.00  0.00    -0.415 C  
HETATM    9  O   UNL     1     -12.378  14.386  63.430  1.00  0.00    -0.622 OA 
ENDBRANCH   5   6
BRANCH   5  10
HETATM   10  C   UNL     1     -10.854  15.250  67.854  1.00  0.00    -0.288 C  
HETATM   11  O   UNL     1     -11.974  13.564  69.148  1.00  0.00    -0.322 OA 
HETATM   12  O   UNL     1     -12.337  15.726  69.726  1.00  0.00    -0.319 OA 
HETATM   13  C   UNL     1     -11.812  14.899  68.994  1.00  0.00    -0.301 C  
ENDBRANCH   5  10
ENDBRANCH   4   5
ENDBRANCH   2   4
BRANCH   2  14
HETATM   14  C   UNL     1     -10.532  11.281  67.024  1.00  0.00    -0.234 C  
BRANCH  14  15
HETATM   15  N   UNL     1     -10.232   9.916  66.462  1.00  0.00    -0.234 NA 
BRANCH  15  16
HETATM   16  C   UNL     1      -9.222  10.083  65.350  1.00  0.00    -0.210 C  
HETATM   17  C   UNL     1      -9.867  10.412  64.007  1.00  0.00    -0.289 C  
HETATM   18  O   UNL     1     -11.027  11.106  64.140  1.00  0.00    -0.358 OA 
HETATM   19  O   UNL     1      -9.372  10.146  62.924  1.00  0.00    -0.279 OA 
ENDBRANCH  15  16
BRANCH  15  20
HETATM   20  C   UNL     1      -9.547   9.101  67.547  1.00  0.00    -0.150 C  
HETATM   21  C   UNL     1     -10.294   7.815  67.901  1.00  0.00    -0.217 C  
HETATM   22  O   UNL     1     -11.010   7.310  66.868  1.00  0.00    -0.343 OA 
HETATM   23  O   UNL     1     -10.218   7.262  68.984  1.00  0.00    -0.185 OA 
ENDBRANCH  15  20
ENDBRANCH  14  15
ENDBRANCH   2  14
TORSDOF 8
ENDMDL
MODEL      116
REMARK 921   NORMALIZED FREE ENERGY PREDICTED BY IDOCK:   -4.47 KCAL/MOL
REMARK 922        TOTAL FREE ENERGY PREDICTED BY IDOCK:   -7.90 KCAL/MOL
REMARK 923 INTER-LIGAND FREE ENERGY PREDICTED BY IDOCK:   -6.76 KCAL/MOL
REMARK 924 INTRA-LIGAND FREE ENERGY PREDICTED BY IDOCK:   -1.14 KCAL/MOL
REMARK 927      BINDING AFFINITY PREDICTED BY RF-SCORE:    0.00 PKD
ROOT
HETATM    1  O   UNL     1     -11.986  10.233  68.583  1.00  0.00    -0.692 OA 
HETATM    2  C   UNL     1     -10.970  10.971  69.270  1.00  0.00    -0.252 C  
HETATM    3  H   UNL     1     -12.564  10.836  68.129  1.00  0.00     0.000 HD 
ENDROOT
BRANCH   2   4
HETATM    4  C   UNL     1     -10.208  11.826  68.226  1.00  0.00    -0.205 C  
BRANCH   4   5
HETATM    5  N   UNL     1     -10.897  13.083  67.753  1.00  0.00    -0.235 NA 
BRANCH   5   6
HETATM    6  C   UNL     1     -11.808  13.555  68.861  1.00  0.00    -0.345 C  
HETATM    7  O   UNL     1     -10.344  15.464  68.970  1.00  0.00    -0.222 OA 
HETATM    8  C   UNL     1     -11.190  14.684  69.682  1.00  0.00    -0.272 C  
HETATM    9  O   UNL     1     -11.448  14.887  70.858  1.00  0.00    -0.286 OA 
ENDBRANCH   5   6
BRANCH   5  10
HETATM   10  C   UNL     1     -11.756  12.741  66.565  1.00  0.00    -0.400 C  
HETATM   11  O   UNL     1     -11.272  14.974  65.825  1.00  0.00    -0.340 OA 
HETATM   12  O   UNL     1     -13.221  14.051  65.127  1.00  0.00    -0.768 OA 
HETATM   13  C   UNL     1     -12.187  13.978  65.777  1.00  0.00    -0.453 C  
ENDBRANCH   5  10
ENDBRANCH   4   5
ENDBRANCH   2   4
BRANCH   2  14
HETATM   14  C   UNL     1     -10.021   9.982  70.015  1.00  0.00    -0.222 C  
BRANCH  14  15
HETATM   15  N   UNL     1     -10.161   8.515  69.705  1.00  0.00    -0.197 NA 
BRANCH  15  16
HETATM   16  C   UNL     1      -9.046   8.131  68.759  1.00  0.00    -0.144 C  
HETATM   17  C   UNL     1      -9.557   7.540  67.449  1.00  0.00    -0.149 C  
HETATM   18  O   UNL     1     -10.771   8.031  67.091  1.00  0.00    -0.322 OA 
HETATM   19  O   UNL     1      -8.924   6.759  66.756  1.00  0.00    -0.125 OA 
ENDBRANCH  15  16
BRANCH  15  20
HETATM   20  C   UNL     1      -9.922   7.738  70.990  1.00  0.00    -0.177 C  
HETATM   21  C   UNL     1     -11.161   7.640  71.879  1.00  0.00    -0.257 C  
HETATM   22  O   UNL     1     -12.323   7.675  71.182  1.00  0.00    -0.312 OA 
HETATM   23  O   UNL     1     -11.120   7.491  73.087  1.00  0.00    -0.383 OA 
ENDBRANCH  15  20
ENDBRANCH  14  15
ENDBRANCH   2  14
TORSDOF 8
ENDMDL
MODEL      117
REMARK 921   NORMALIZED FREE ENERGY PREDICTED BY IDOCK:   -4.46 KCAL/MOL
REMARK 922        TOTAL FREE ENERGY PREDICTED BY IDOCK:   -7.88 KCAL/MOL
REMARK 923 INTER-LIGAND FREE ENERGY PREDICTED BY IDOCK:   -6.56 KCAL/MOL
REMARK 924 INTRA-LIGAND FREE ENERGY PREDICTED BY IDOCK:   -1.32 KCAL/MOL
REMARK 927      BINDING AFFINITY PREDICTED BY RF-SCORE:    0.00 PKD
ROOT
HETATM    1  O   UNL     1      -9.653  11.184  66.915  1.00  0.00    -0.182 OA 
HETATM    2  C   UNL     1     -10.730  10.967  67.833  1.00  0.00    -0.231 C  
HETATM    3  H   UNL     1      -9.988  11.184  66.026  1.00  0.00     0.000 HD 
ENDROOT
BRANCH   2   4
HETATM    4  C   UNL     1     -11.782  12.082  67.611  1.00  0.00    -0.294 C  
BRANCH   4   5
HETATM    5  N   UNL     1     -11.422  13.160  66.617  1.00  0.00    -0.331 NA 
BRANCH   5   6
HETATM    6  C   UNL     1     -11.401  14.479  67.352  1.00  0.00    -0.356 C  
HETATM    7  O   UNL     1      -9.026  14.115  67.511  1.00  0.00    -0.180 OA 
HETATM    8  C   UNL     1     -10.091  14.707  68.101  1.00  0.00    -0.224 C  
HETATM    9  O   UNL     1      -9.998  15.377  69.117  1.00  0.00    -0.213 OA 
ENDBRANCH   5   6
BRANCH   5  10
HETATM   10  C   UNL     1     -12.506  13.231  65.575  1.00  0.00    -0.474 C  
HETATM   11  O   UNL     1     -10.725  12.943  63.990  1.00  0.00    -0.393 OA 
HETATM   12  O   UNL     1     -12.572  14.050  63.282  1.00  0.00    -0.801 OA 
HETATM   13  C   UNL     1     -11.954  13.478  64.170  1.00  0.00    -0.448 C  
ENDBRANCH   5  10
ENDBRANCH   4   5
ENDBRANCH   2   4
BRANCH   2  14
HETATM   14  C   UNL     1     -10.180  10.968  69.292  1.00  0.00    -0.127 C  
BRANCH  14  15
HETATM   15  N   UNL     1     -10.508   9.782  70.161  1.00  0.00    -0.266 NA 
BRANCH  15  16
HETATM   16  C   UNL     1     -11.871  10.013  70.771  1.00  0.00    -0.346 C  
HETATM   17  C   UNL     1     -12.214   9.003  71.860  1.00  0.00    -0.381 C  
HETATM   18  O   UNL     1     -11.115   8.549  72.517  1.00  0.00    -0.355 OA 
HETATM   19  O   UNL     1     -13.350   8.679  72.163  1.00  0.00    -0.361 OA 
ENDBRANCH  15  16
BRANCH  15  20
HETATM   20  C   UNL     1     -10.639   8.563  69.263  1.00  0.00    -0.181 C  
HETATM   21  C   UNL     1      -9.360   7.729  69.181  1.00  0.00    -0.151 C  
HETATM   22  O   UNL     1      -8.599   7.807  70.299  1.00  0.00    -0.135 OA 
HETATM   23  O   UNL     1      -9.071   7.020  68.234  1.00  0.00    -0.128 OA 
ENDBRANCH  15  20
ENDBRANCH  14  15
ENDBRANCH   2  14
TORSDOF 8
ENDMDL
MODEL      118
REMARK 921   NORMALIZED FREE ENERGY PREDICTED BY IDOCK:   -4.45 KCAL/MOL
REMARK 922        TOTAL FREE ENERGY PREDICTED BY IDOCK:   -7.86 KCAL/MOL
REMARK 923 INTER-LIGAND FREE ENERGY PREDICTED BY IDOCK:   -6.58 KCAL/MOL
REMARK 924 INTRA-LIGAND FREE ENERGY PREDICTED BY IDOCK:   -1.28 KCAL/MOL
REMARK 927      BINDING AFFINITY PREDICTED BY RF-SCORE:    0.00 PKD
ROOT
HETATM    1  O   UNL     1     -13.116  10.584  69.918  1.00  0.00    -0.496 OA 
HETATM    2  C   UNL     1     -11.815  10.922  69.425  1.00  0.00    -0.328 C  
HETATM    3  H   UNL     1     -13.744  11.236  69.631  1.00  0.00     0.000 HD 
ENDROOT
BRANCH   2   4
HETATM    4  C   UNL     1     -11.894  11.006  67.880  1.00  0.00    -0.002 C  
BRANCH   4   5
HETATM    5  N   UNL     1     -11.798  12.386  67.275  1.00  0.00    -0.519 NA 
BRANCH   5   6
HETATM    6  C   UNL     1     -11.537  12.225  65.796  1.00  0.00    -0.388 C  
HETATM    7  O   UNL     1     -13.192  13.953  65.527  1.00  0.00    -0.698 OA 
HETATM    8  C   UNL     1     -12.619  12.877  64.939  1.00  0.00    -0.458 C  
HETATM    9  O   UNL     1     -12.926  12.489  63.823  1.00  0.00    -0.733 OA 
ENDBRANCH   5   6
BRANCH   5  10
HETATM   10  C   UNL     1     -10.612  13.092  67.877  1.00  0.00    -0.229 C  
HETATM   11  O   UNL     1     -12.245  14.458  68.990  1.00  0.00    -0.290 OA 
HETATM   12  O   UNL     1     -10.216  15.387  68.589  1.00  0.00    -0.209 OA 
HETATM   13  C   UNL     1     -10.985  14.440  68.497  1.00  0.00    -0.251 C  
ENDBRANCH   5  10
ENDBRANCH   4   5
ENDBRANCH   2   4
BRANCH   2  14
HETATM   14  C   UNL     1     -10.784   9.852  69.897  1.00  0.00    -0.280 C  
BRANCH  14  15
HETATM   15  N   UNL     1      -9.767   9.373  68.894  1.00  0.00    -0.160 NA 
BRANCH  15  16
HETATM   16  C   UNL     1      -8.402   9.457  69.537  1.00  0.00    -0.127 C  
HETATM   17  C   UNL     1      -7.319   9.925  68.571  1.00  0.00    -0.078 C  
HETATM   18  O   UNL     1      -7.798  10.755  67.609  1.00  0.00    -0.107 OA 
HETATM   19  O   UNL     1      -6.136   9.644  68.678  1.00  0.00    -0.043 OA 
ENDBRANCH  15  16
BRANCH  15  20
HETATM   20  C   UNL     1     -10.028   7.899  68.628  1.00  0.00    -0.191 C  
HETATM   21  C   UNL     1     -10.484   7.612  67.197  1.00  0.00    -0.342 C  
HETATM   22  O   UNL     1     -10.009   8.504  66.296  1.00  0.00    -0.262 OA 
HETATM   23  O   UNL     1     -11.162   6.650  66.881  1.00  0.00    -0.391 OA 
ENDBRANCH  15  20
ENDBRANCH  14  15
ENDBRANCH   2  14
TORSDOF 8
ENDMDL
MODEL      119
REMARK 921   NORMALIZED FREE ENERGY PREDICTED BY IDOCK:   -4.45 KCAL/MOL
REMARK 922        TOTAL FREE ENERGY PREDICTED BY IDOCK:   -7.86 KCAL/MOL
REMARK 923 INTER-LIGAND FREE ENERGY PREDICTED BY IDOCK:   -6.90 KCAL/MOL
REMARK 924 INTRA-LIGAND FREE ENERGY PREDICTED BY IDOCK:   -0.96 KCAL/MOL
REMARK 927      BINDING AFFINITY PREDICTED BY RF-SCORE:    0.00 PKD
ROOT
HETATM    1  O   UNL     1      -8.233  13.704  68.409  1.00  0.00    -0.149 OA 
HETATM    2  C   UNL     1      -9.316  12.820  68.099  1.00  0.00    -0.214 C  
HETATM    3  H   UNL     1      -7.849  13.456  69.242  1.00  0.00     0.000 HD 
ENDROOT
BRANCH   2   4
HETATM    4  C   UNL     1      -8.763  11.373  68.073  1.00  0.00    -0.148 C  
BRANCH   4   5
HETATM    5  N   UNL     1      -9.777  10.262  68.203  1.00  0.00    -0.142 NA 
BRANCH   5   6
HETATM    6  C   UNL     1     -10.353  10.322  69.598  1.00  0.00    -0.248 C  
HETATM    7  O   UNL     1     -12.421  10.880  68.497  1.00  0.00    -0.375 OA 
HETATM    8  C   UNL     1     -11.708  11.023  69.639  1.00  0.00    -0.329 C  
HETATM    9  O   UNL     1     -12.128  11.632  70.611  1.00  0.00    -0.368 OA 
ENDBRANCH   5   6
BRANCH   5  10
HETATM   10  C   UNL     1      -9.065   8.944  68.056  1.00  0.00    -0.139 C  
HETATM   11  O   UNL     1      -9.853   9.000  65.788  1.00  0.00    -0.262 OA 
HETATM   12  O   UNL     1      -9.479   6.961  66.704  1.00  0.00    -0.160 OA 
HETATM   13  C   UNL     1      -9.498   8.180  66.804  1.00  0.00    -0.198 C  
ENDBRANCH   5  10
ENDBRANCH   4   5
ENDBRANCH   2   4
BRANCH   2  14
HETATM   14  C   UNL     1      -9.946  13.227  66.731  1.00  0.00    -0.263 C  
BRANCH  14  15
HETATM   15  N   UNL     1     -10.695  14.532  66.669  1.00  0.00    -0.300 NA 
BRANCH  15  16
HETATM   16  C   UNL     1     -11.285  14.665  65.284  1.00  0.00    -0.358 C  
HETATM   17  C   UNL     1     -11.083  16.053  64.684  1.00  0.00    -0.332 C  
HETATM   18  O   UNL     1      -9.950  16.656  65.129  1.00  0.00    -0.473 OA 
HETATM   19  O   UNL     1     -11.816  16.551  63.846  1.00  0.00    -1.059 OA 
ENDBRANCH  15  16
BRANCH  15  20
HETATM   20  C   UNL     1     -11.870  14.445  67.630  1.00  0.00    -0.378 C  
HETATM   21  C   UNL     1     -11.804  15.469  68.763  1.00  0.00    -0.317 C  
HETATM   22  O   UNL     1     -11.146  16.603  68.422  1.00  0.00    -0.359 OA 
HETATM   23  O   UNL     1     -12.332  15.314  69.850  1.00  0.00    -0.327 OA 
ENDBRANCH  15  20
ENDBRANCH  14  15
ENDBRANCH   2  14
TORSDOF 8
ENDMDL
MODEL      120
REMARK 921   NORMALIZED FREE ENERGY PREDICTED BY IDOCK:   -4.44 KCAL/MOL
REMARK 922        TOTAL FREE ENERGY PREDICTED BY IDOCK:   -7.85 KCAL/MOL
REMARK 923 INTER-LIGAND FREE ENERGY PREDICTED BY IDOCK:   -6.64 KCAL/MOL
REMARK 924 INTRA-LIGAND FREE ENERGY PREDICTED BY IDOCK:   -1.21 KCAL/MOL
REMARK 927      BINDING AFFINITY PREDICTED BY RF-SCORE:    0.00 PKD
ROOT
HETATM    1  O   UNL     1     -10.376  16.040  64.989  1.00  0.00    -0.543 OA 
HETATM    2  C   UNL     1     -10.812  15.212  66.073  1.00  0.00    -0.335 C  
HETATM    3  H   UNL     1     -11.025  16.713  64.822  1.00  0.00     0.000 HD 
ENDROOT
BRANCH   2   4
HETATM    4  C   UNL     1     -11.035  16.119  67.310  1.00  0.00    -0.175 C  
BRANCH   4   5
HETATM    5  N   UNL     1      -9.884  17.011  67.706  1.00  0.00    -0.264 NA 
BRANCH   5   6
HETATM    6  C   UNL     1      -9.339  16.507  69.021  1.00  0.00    -0.239 C  
HETATM    7  O   UNL     1      -7.183  16.710  67.968  1.00  0.00    -0.148 OA 
HETATM    8  C   UNL     1      -7.889  16.044  68.911  1.00  0.00    -0.202 C  
HETATM    9  O   UNL     1      -7.398  15.177  69.617  1.00  0.00    -0.195 OA 
ENDBRANCH   5   6
BRANCH   5  10
HETATM   10  C   UNL     1     -10.413  18.403  67.931  1.00  0.00    -0.391 C  
HETATM   11  O   UNL     1      -9.860  18.770  65.622  1.00  0.00    -0.397 OA 
HETATM   12  O   UNL     1      -9.852  20.578  66.990  1.00  0.00    -0.449 OA 
HETATM   13  C   UNL     1      -9.997  19.375  66.825  1.00  0.00    -0.378 C  
ENDBRANCH   5  10
ENDBRANCH   4   5
ENDBRANCH   2   4
BRANCH   2  14
HETATM   14  C   UNL     1      -9.747  14.107  66.347  1.00  0.00    -0.298 C  
BRANCH  14  15
HETATM   15  N   UNL     1     -10.235  12.785  66.880  1.00  0.00    -0.234 NA 
BRANCH  15  16
HETATM   16  C   UNL     1      -9.208  11.733  66.528  1.00  0.00    -0.201 C  
HETATM   17  C   UNL     1      -9.787  10.594  65.695  1.00  0.00    -0.251 C  
HETATM   18  O   UNL     1     -10.820  10.992  64.909  1.00  0.00    -0.250 OA 
HETATM   19  O   UNL     1      -9.338   9.459  65.679  1.00  0.00    -0.211 OA 
ENDBRANCH  15  16
BRANCH  15  20
HETATM   20  C   UNL     1     -10.260  12.870  68.397  1.00  0.00    -0.237 C  
HETATM   21  C   UNL     1     -11.564  12.360  69.012  1.00  0.00    -0.311 C  
HETATM   22  O   UNL     1     -12.169  11.405  68.264  1.00  0.00    -0.588 OA 
HETATM   23  O   UNL     1     -11.997  12.728  70.089  1.00  0.00    -0.342 OA 
ENDBRANCH  15  20
ENDBRANCH  14  15
ENDBRANCH   2  14
TORSDOF 8
ENDMDL
MODEL      121
REMARK 921   NORMALIZED FREE ENERGY PREDICTED BY IDOCK:   -4.43 KCAL/MOL
REMARK 922        TOTAL FREE ENERGY PREDICTED BY IDOCK:   -7.84 KCAL/MOL
REMARK 923 INTER-LIGAND FREE ENERGY PREDICTED BY IDOCK:   -6.62 KCAL/MOL
REMARK 924 INTRA-LIGAND FREE ENERGY PREDICTED BY IDOCK:   -1.22 KCAL/MOL
REMARK 927      BINDING AFFINITY PREDICTED BY RF-SCORE:    0.00 PKD
ROOT
HETATM    1  O   UNL     1     -10.207  10.473  65.646  1.00  0.00    -0.262 OA 
HETATM    2  C   UNL     1     -10.466  10.801  67.016  1.00  0.00    -0.247 C  
HETATM    3  H   UNL     1      -9.482   9.861  65.597  1.00  0.00     0.000 HD 
ENDROOT
BRANCH   2   4
HETATM    4  C   UNL     1     -10.771   9.484  67.774  1.00  0.00    -0.242 C  
BRANCH   4   5
HETATM    5  N   UNL     1     -10.189   9.356  69.161  1.00  0.00    -0.194 NA 
BRANCH   5   6
HETATM    6  C   UNL     1     -11.148  10.010  70.127  1.00  0.00    -0.310 C  
HETATM    7  O   UNL     1     -11.231   7.847  71.185  1.00  0.00    -0.252 OA 
HETATM    8  C   UNL     1     -11.921   8.990  70.960  1.00  0.00    -0.269 C  
HETATM    9  O   UNL     1     -13.041   9.186  71.406  1.00  0.00    -0.330 OA 
ENDBRANCH   5   6
BRANCH   5  10
HETATM   10  C   UNL     1      -8.894  10.122  69.210  1.00  0.00    -0.183 C  
HETATM   11  O   UNL     1      -8.002   8.156  70.263  1.00  0.00    -0.098 OA 
HETATM   12  O   UNL     1      -7.015  10.135  70.760  1.00  0.00    -0.329 OA 
HETATM   13  C   UNL     1      -7.880   9.500  70.172  1.00  0.00    -0.160 C  
ENDBRANCH   5  10
ENDBRANCH   4   5
ENDBRANCH   2   4
BRANCH   2  14
HETATM   14  C   UNL     1     -11.655  11.806  67.096  1.00  0.00    -0.266 C  
BRANCH  14  15
HETATM   15  N   UNL     1     -11.556  13.070  66.282  1.00  0.00    -0.342 NA 
BRANCH  15  16
HETATM   16  C   UNL     1     -12.614  13.015  65.205  1.00  0.00    -0.469 C  
HETATM   17  C   UNL     1     -12.039  13.161  63.800  1.00  0.00    -0.495 C  
HETATM   18  O   UNL     1     -10.774  12.677  63.699  1.00  0.00    -0.425 OA 
HETATM   19  O   UNL     1     -12.659  13.603  62.847  1.00  0.00    -0.621 OA 
ENDBRANCH  15  16
BRANCH  15  20
HETATM   20  C   UNL     1     -11.920  14.239  67.184  1.00  0.00    -0.417 C  
HETATM   21  C   UNL     1     -10.710  14.880  67.863  1.00  0.00    -0.265 C  
HETATM   22  O   UNL     1      -9.568  14.765  67.142  1.00  0.00    -0.218 OA 
HETATM   23  O   UNL     1     -10.765  15.483  68.920  1.00  0.00    -0.224 OA 
ENDBRANCH  15  20
ENDBRANCH  14  15
ENDBRANCH   2  14
TORSDOF 8
ENDMDL
MODEL      122
REMARK 921   NORMALIZED FREE ENERGY PREDICTED BY IDOCK:   -4.42 KCAL/MOL
REMARK 922        TOTAL FREE ENERGY PREDICTED BY IDOCK:   -7.82 KCAL/MOL
REMARK 923 INTER-LIGAND FREE ENERGY PREDICTED BY IDOCK:   -6.26 KCAL/MOL
REMARK 924 INTRA-LIGAND FREE ENERGY PREDICTED BY IDOCK:   -1.56 KCAL/MOL
REMARK 927      BINDING AFFINITY PREDICTED BY RF-SCORE:    0.00 PKD
ROOT
HETATM    1  O   UNL     1     -12.005  11.296  67.646  1.00  0.00    -0.634 OA 
HETATM    2  C   UNL     1     -10.622  11.167  67.297  1.00  0.00    -0.239 C  
HETATM    3  H   UNL     1     -12.108  11.987  68.290  1.00  0.00     0.000 HD 
ENDROOT
BRANCH   2   4
HETATM    4  C   UNL     1     -10.133  12.535  66.759  1.00  0.00    -0.223 C  
BRANCH   4   5
HETATM    5  N   UNL     1     -11.180  13.614  66.611  1.00  0.00    -0.306 NA 
BRANCH   5   6
HETATM    6  C   UNL     1     -11.202  14.041  65.162  1.00  0.00    -0.329 C  
HETATM    7  O   UNL     1     -13.093  12.562  64.971  1.00  0.00    -0.765 OA 
HETATM    8  C   UNL     1     -12.061  13.122  64.297  1.00  0.00    -0.414 C  
HETATM    9  O   UNL     1     -11.860  12.926  63.109  1.00  0.00    -0.506 OA 
ENDBRANCH   5   6
BRANCH   5  10
HETATM   10  C   UNL     1     -10.762  14.803  67.434  1.00  0.00    -0.281 C  
HETATM   11  O   UNL     1     -12.215  13.894  69.117  1.00  0.00    -0.356 OA 
HETATM   12  O   UNL     1     -11.884  16.137  69.135  1.00  0.00    -0.309 OA 
HETATM   13  C   UNL     1     -11.684  15.040  68.632  1.00  0.00    -0.337 C  
ENDBRANCH   5  10
ENDBRANCH   4   5
ENDBRANCH   2   4
BRANCH   2  14
HETATM   14  C   UNL     1     -10.455  10.033  66.240  1.00  0.00    -0.102 C  
BRANCH  14  15
HETATM   15  N   UNL     1      -9.773   8.764  66.681  1.00  0.00    -0.219 NA 
BRANCH  15  16
HETATM   16  C   UNL     1      -8.379   8.756  66.095  1.00  0.00    -0.123 C  
HETATM   17  C   UNL     1      -7.817   7.349  65.920  1.00  0.00    -0.104 C  
HETATM   18  O   UNL     1      -8.784   6.425  65.688  1.00  0.00    -0.149 OA 
HETATM   19  O   UNL     1      -6.627   7.081  65.921  1.00  0.00    -0.049 OA 
ENDBRANCH  15  16
BRANCH  15  20
HETATM   20  C   UNL     1      -9.604   8.822  68.191  1.00  0.00    -0.146 C  
HETATM   21  C   UNL     1     -10.521   7.855  68.941  1.00  0.00    -0.190 C  
HETATM   22  O   UNL     1     -10.833   6.749  68.223  1.00  0.00    -0.234 OA 
HETATM   23  O   UNL     1     -10.895   8.026  70.087  1.00  0.00    -0.243 OA 
ENDBRANCH  15  20
ENDBRANCH  14  15
ENDBRANCH   2  14
TORSDOF 8
ENDMDL
MODEL      123
REMARK 921   NORMALIZED FREE ENERGY PREDICTED BY IDOCK:   -4.42 KCAL/MOL
REMARK 922        TOTAL FREE ENERGY PREDICTED BY IDOCK:   -7.82 KCAL/MOL
REMARK 923 INTER-LIGAND FREE ENERGY PREDICTED BY IDOCK:   -6.53 KCAL/MOL
REMARK 924 INTRA-LIGAND FREE ENERGY PREDICTED BY IDOCK:   -1.29 KCAL/MOL
REMARK 927      BINDING AFFINITY PREDICTED BY RF-SCORE:    0.00 PKD
ROOT
HETATM    1  O   UNL     1      -9.822  12.031  68.222  1.00  0.00    -0.196 OA 
HETATM    2  C   UNL     1     -11.034  12.211  68.963  1.00  0.00    -0.205 C  
HETATM    3  H   UNL     1      -9.216  11.500  68.727  1.00  0.00     0.000 HD 
ENDROOT
BRANCH   2   4
HETATM    4  C   UNL     1     -11.617  10.811  69.278  1.00  0.00    -0.305 C  
BRANCH   4   5
HETATM    5  N   UNL     1     -10.699   9.842  69.983  1.00  0.00    -0.261 NA 
BRANCH   5   6
HETATM    6  C   UNL     1     -10.606   8.594  69.138  1.00  0.00    -0.178 C  
HETATM    7  O   UNL     1      -8.549   9.550  68.326  1.00  0.00    -0.119 OA 
HETATM    8  C   UNL     1      -9.579   8.727  68.016  1.00  0.00    -0.142 C  
HETATM    9  O   UNL     1      -9.656   8.134  66.952  1.00  0.00    -0.176 OA 
ENDBRANCH   5   6
BRANCH   5  10
HETATM   10  C   UNL     1     -11.326   9.460  71.298  1.00  0.00    -0.366 C  
HETATM   11  O   UNL     1      -9.087   8.912  71.976  1.00  0.00    -0.353 OA 
HETATM   12  O   UNL     1     -10.780   7.796  72.990  1.00  0.00    -0.354 OA 
HETATM   13  C   UNL     1     -10.394   8.616  72.169  1.00  0.00    -0.333 C  
ENDBRANCH   5  10
ENDBRANCH   4   5
ENDBRANCH   2   4
BRANCH   2  14
HETATM   14  C   UNL     1     -12.027  13.082  68.134  1.00  0.00    -0.280 C  
BRANCH  14  15
HETATM   15  N   UNL     1     -11.495  13.762  66.899  1.00  0.00    -0.331 NA 
BRANCH  15  16
HETATM   16  C   UNL     1     -12.533  13.625  65.809  1.00  0.00    -0.477 C  
HETATM   17  C   UNL     1     -11.919  13.463  64.422  1.00  0.00    -0.411 C  
HETATM   18  O   UNL     1     -10.711  12.843  64.454  1.00  0.00    -0.339 OA 
HETATM   19  O   UNL     1     -12.471  13.791  63.385  1.00  0.00    -0.817 OA 
ENDBRANCH  15  16
BRANCH  15  20
HETATM   20  C   UNL     1     -11.376  15.248  67.196  1.00  0.00    -0.247 C  
HETATM   21  C   UNL     1     -10.006  15.648  67.745  1.00  0.00    -0.223 C  
HETATM   22  O   UNL     1      -9.003  14.846  67.317  1.00  0.00    -0.180 OA 
HETATM   23  O   UNL     1      -9.817  16.621  68.455  1.00  0.00    -0.235 OA 
ENDBRANCH  15  20
ENDBRANCH  14  15
ENDBRANCH   2  14
TORSDOF 8
ENDMDL
MODEL      124
REMARK 921   NORMALIZED FREE ENERGY PREDICTED BY IDOCK:   -4.40 KCAL/MOL
REMARK 922        TOTAL FREE ENERGY PREDICTED BY IDOCK:   -7.79 KCAL/MOL
REMARK 923 INTER-LIGAND FREE ENERGY PREDICTED BY IDOCK:   -6.46 KCAL/MOL
REMARK 924 INTRA-LIGAND FREE ENERGY PREDICTED BY IDOCK:   -1.33 KCAL/MOL
REMARK 927      BINDING AFFINITY PREDICTED BY RF-SCORE:    0.00 PKD
ROOT
HETATM    1  O   UNL     1      -8.765  14.581  69.234  1.00  0.00    -0.374 OA 
HETATM    2  C   UNL     1      -9.374  15.405  68.234  1.00  0.00    -0.193 C  
HETATM    3  H   UNL     1      -7.892  14.905  69.424  1.00  0.00     0.000 HD 
ENDROOT
BRANCH   2   4
HETATM    4  C   UNL     1      -9.401  16.861  68.763  1.00  0.00    -0.260 C  
BRANCH   4   5
HETATM    5  N   UNL     1      -8.907  17.931  67.819  1.00  0.00    -0.247 NA 
BRANCH   5   6
HETATM    6  C   UNL     1      -7.867  18.748  68.550  1.00  0.00    -0.336 C  
HETATM    7  O   UNL     1      -6.287  17.192  67.611  1.00  0.00    -0.134 OA 
HETATM    8  C   UNL     1      -6.525  18.027  68.649  1.00  0.00    -0.223 C  
HETATM    9  O   UNL     1      -5.728  18.200  69.558  1.00  0.00    -0.209 OA 
ENDBRANCH   5   6
BRANCH   5  10
HETATM   10  C   UNL     1     -10.057  18.843  67.485  1.00  0.00    -0.364 C  
HETATM   11  O   UNL     1     -10.259  17.525  65.486  1.00  0.00    -0.608 OA 
HETATM   12  O   UNL     1     -10.978  19.673  65.389  1.00  0.00    -0.438 OA 
HETATM   13  C   UNL     1     -10.467  18.754  66.014  1.00  0.00    -0.432 C  
ENDBRANCH   5  10
ENDBRANCH   4   5
ENDBRANCH   2   4
BRANCH   2  14
HETATM   14  C   UNL     1     -10.806  14.873  67.922  1.00  0.00    -0.276 C  
BRANCH  14  15
HETATM   15  N   UNL     1     -11.515  14.102  69.004  1.00  0.00    -0.265 NA 
BRANCH  15  16
HETATM   16  C   UNL     1     -12.591  14.993  69.583  1.00  0.00    -0.064 C  
HETATM   17  C   UNL     1     -12.361  15.322  71.054  1.00  0.00    -0.367 C  
HETATM   18  O   UNL     1     -11.044  15.344  71.386  1.00  0.00    -0.364 OA 
HETATM   19  O   UNL     1     -13.250  15.600  71.842  1.00  0.00    -0.434 OA 
ENDBRANCH  15  16
BRANCH  15  20
HETATM   20  C   UNL     1     -12.232  12.930  68.354  1.00  0.00     0.045 C  
HETATM   21  C   UNL     1     -11.294  11.786  67.965  1.00  0.00    -0.288 C  
HETATM   22  O   UNL     1     -10.198  11.701  68.757  1.00  0.00    -0.212 OA 
HETATM   23  O   UNL     1     -11.525  10.993  67.070  1.00  0.00    -0.415 OA 
ENDBRANCH  15  20
ENDBRANCH  14  15
ENDBRANCH   2  14
TORSDOF 8
ENDMDL
MODEL      125
REMARK 921   NORMALIZED FREE ENERGY PREDICTED BY IDOCK:   -4.39 KCAL/MOL
REMARK 922        TOTAL FREE ENERGY PREDICTED BY IDOCK:   -7.78 KCAL/MOL
REMARK 923 INTER-LIGAND FREE ENERGY PREDICTED BY IDOCK:   -6.84 KCAL/MOL
REMARK 924 INTRA-LIGAND FREE ENERGY PREDICTED BY IDOCK:   -0.94 KCAL/MOL
REMARK 927      BINDING AFFINITY PREDICTED BY RF-SCORE:    0.00 PKD
ROOT
HETATM    1  O   UNL     1      -9.787  14.052  64.395  1.00  0.00    -0.656 OA 
HETATM    2  C   UNL     1      -9.960  14.775  65.619  1.00  0.00    -0.360 C  
HETATM    3  H   UNL     1      -9.478  13.174  64.586  1.00  0.00     0.000 HD 
ENDROOT
BRANCH   2   4
HETATM    4  C   UNL     1     -10.961  13.991  66.504  1.00  0.00    -0.306 C  
BRANCH   4   5
HETATM    5  N   UNL     1     -10.368  13.147  67.606  1.00  0.00    -0.220 NA 
BRANCH   5   6
HETATM    6  C   UNL     1     -11.455  12.882  68.621  1.00  0.00    -0.308 C  
HETATM    7  O   UNL     1     -10.381  10.746  68.906  1.00  0.00    -0.184 OA 
HETATM    8  C   UNL     1     -11.560  11.405  68.990  1.00  0.00    -0.317 C  
HETATM    9  O   UNL     1     -12.596  10.867  69.351  1.00  0.00    -0.335 OA 
ENDBRANCH   5   6
BRANCH   5  10
HETATM   10  C   UNL     1      -9.286  13.941  68.287  1.00  0.00    -0.207 C  
HETATM   11  O   UNL     1      -7.768  12.460  67.159  1.00  0.00    -0.162 OA 
HETATM   12  O   UNL     1      -7.063  13.377  69.109  1.00  0.00    -0.092 OA 
HETATM   13  C   UNL     1      -7.931  13.230  68.260  1.00  0.00    -0.144 C  
ENDBRANCH   5  10
ENDBRANCH   4   5
ENDBRANCH   2   4
BRANCH   2  14
HETATM   14  C   UNL     1     -10.466  16.217  65.306  1.00  0.00    -0.331 C  
BRANCH  14  15
HETATM   15  N   UNL     1      -9.687  17.370  65.883  1.00  0.00    -0.536 NA 
BRANCH  15  16
HETATM   16  C   UNL     1     -10.442  17.886  67.086  1.00  0.00    -0.353 C  
HETATM   17  C   UNL     1     -10.641  19.398  67.058  1.00  0.00    -0.478 C  
HETATM   18  O   UNL     1     -10.722  19.892  65.796  1.00  0.00    -0.479 OA 
HETATM   19  O   UNL     1     -10.780  20.091  68.053  1.00  0.00    -0.299 OA 
ENDBRANCH  15  16
BRANCH  15  20
HETATM   20  C   UNL     1      -8.365  16.831  66.403  1.00  0.00    -0.309 C  
HETATM   21  C   UNL     1      -7.182  17.761  66.133  1.00  0.00    -0.311 C  
HETATM   22  O   UNL     1      -7.533  19.068  66.075  1.00  0.00    -0.265 OA 
HETATM   23  O   UNL     1      -6.029  17.382  66.033  1.00  0.00    -0.189 OA 
ENDBRANCH  15  20
ENDBRANCH  14  15
ENDBRANCH   2  14
TORSDOF 8
ENDMDL
MODEL      126
REMARK 921   NORMALIZED FREE ENERGY PREDICTED BY IDOCK:   -4.39 KCAL/MOL
REMARK 922        TOTAL FREE ENERGY PREDICTED BY IDOCK:   -7.77 KCAL/MOL
REMARK 923 INTER-LIGAND FREE ENERGY PREDICTED BY IDOCK:   -6.25 KCAL/MOL
REMARK 924 INTRA-LIGAND FREE ENERGY PREDICTED BY IDOCK:   -1.53 KCAL/MOL
REMARK 927      BINDING AFFINITY PREDICTED BY RF-SCORE:    0.00 PKD
ROOT
HETATM    1  O   UNL     1      -8.888  12.127  68.781  1.00  0.00    -0.368 OA 
HETATM    2  C   UNL     1      -9.163  12.221  67.379  1.00  0.00    -0.182 C  
HETATM    3  H   UNL     1      -8.379  12.881  69.056  1.00  0.00     0.000 HD 
ENDROOT
BRANCH   2   4
HETATM    4  C   UNL     1      -9.918  13.550  67.126  1.00  0.00    -0.246 C  
BRANCH   4   5
HETATM    5  N   UNL     1     -11.373  13.585  67.526  1.00  0.00    -0.294 NA 
BRANCH   5   6
HETATM    6  C   UNL     1     -12.105  14.457  66.534  1.00  0.00    -0.372 C  
HETATM    7  O   UNL     1     -12.628  12.388  65.418  1.00  0.00    -0.637 OA 
HETATM    8  C   UNL     1     -12.435  13.716  65.241  1.00  0.00    -0.479 C  
HETATM    9  O   UNL     1     -12.542  14.262  64.154  1.00  0.00    -0.689 OA 
ENDBRANCH   5   6
BRANCH   5  10
HETATM   10  C   UNL     1     -11.482  14.237  68.879  1.00  0.00    -0.286 C  
HETATM   11  O   UNL     1     -11.845  12.010  69.701  1.00  0.00    -0.308 OA 
HETATM   12  O   UNL     1     -12.749  13.714  70.891  1.00  0.00    -0.335 OA 
HETATM   13  C   UNL     1     -12.113  13.317  69.925  1.00  0.00    -0.308 C  
ENDBRANCH   5  10
ENDBRANCH   4   5
ENDBRANCH   2   4
BRANCH   2  14
HETATM   14  C   UNL     1      -9.998  10.983  66.928  1.00  0.00    -0.196 C  
BRANCH  14  15
HETATM   15  N   UNL     1      -9.482   9.619  67.305  1.00  0.00    -0.141 NA 
BRANCH  15  16
HETATM   16  C   UNL     1     -10.481   8.987  68.247  1.00  0.00    -0.200 C  
HETATM   17  C   UNL     1      -9.902   8.717  69.632  1.00  0.00    -0.183 C  
HETATM   18  O   UNL     1      -8.933   9.604  69.976  1.00  0.00    -0.207 OA 
HETATM   19  O   UNL     1     -10.301   7.844  70.384  1.00  0.00    -0.206 OA 
ENDBRANCH  15  16
BRANCH  15  20
HETATM   20  C   UNL     1      -9.469   8.759  66.051  1.00  0.00    -0.233 C  
HETATM   21  C   UNL     1      -8.186   8.900  65.232  1.00  0.00    -0.137 C  
HETATM   22  O   UNL     1      -7.104   9.217  65.983  1.00  0.00    -0.088 OA 
HETATM   23  O   UNL     1      -8.121   8.699  64.032  1.00  0.00    -0.151 OA 
ENDBRANCH  15  20
ENDBRANCH  14  15
ENDBRANCH   2  14
TORSDOF 8
ENDMDL
MODEL      127
REMARK 921   NORMALIZED FREE ENERGY PREDICTED BY IDOCK:   -4.38 KCAL/MOL
REMARK 922        TOTAL FREE ENERGY PREDICTED BY IDOCK:   -7.77 KCAL/MOL
REMARK 923 INTER-LIGAND FREE ENERGY PREDICTED BY IDOCK:   -6.72 KCAL/MOL
REMARK 924 INTRA-LIGAND FREE ENERGY PREDICTED BY IDOCK:   -1.05 KCAL/MOL
REMARK 927      BINDING AFFINITY PREDICTED BY RF-SCORE:    0.00 PKD
ROOT
HETATM    1  O   UNL     1      -7.958  13.436  69.084  1.00  0.00    -0.335 OA 
HETATM    2  C   UNL     1      -8.993  12.683  68.443  1.00  0.00    -0.125 C  
HETATM    3  H   UNL     1      -8.044  13.356  70.027  1.00  0.00     0.000 HD 
ENDROOT
BRANCH   2   4
HETATM    4  C   UNL     1      -8.874  11.210  68.911  1.00  0.00    -0.079 C  
BRANCH   4   5
HETATM    5  N   UNL     1     -10.136  10.383  68.857  1.00  0.00    -0.191 NA 
BRANCH   5   6
HETATM    6  C   UNL     1     -10.749  10.385  70.237  1.00  0.00    -0.187 C  
HETATM    7  O   UNL     1     -12.692  11.299  69.146  1.00  0.00    -0.205 OA 
HETATM    8  C   UNL     1     -12.009  11.244  70.314  1.00  0.00    -0.379 C  
HETATM    9  O   UNL     1     -12.385  11.808  71.329  1.00  0.00    -0.276 OA 
ENDBRANCH   5   6
BRANCH   5  10
HETATM   10  C   UNL     1      -9.764   8.963  68.521  1.00  0.00    -0.161 C  
HETATM   11  O   UNL     1     -10.360   9.552  66.270  1.00  0.00    -0.244 OA 
HETATM   12  O   UNL     1     -10.564   7.372  66.860  1.00  0.00    -0.326 OA 
HETATM   13  C   UNL     1     -10.288   8.528  67.151  1.00  0.00    -0.307 C  
ENDBRANCH   5  10
ENDBRANCH   4   5
ENDBRANCH   2   4
BRANCH   2  14
HETATM   14  C   UNL     1      -8.852  12.814  66.896  1.00  0.00    -0.194 C  
BRANCH  14  15
HETATM   15  N   UNL     1      -9.877  13.648  66.171  1.00  0.00    -0.299 NA 
BRANCH  15  16
HETATM   16  C   UNL     1     -11.231  13.014  66.389  1.00  0.00    -0.300 C  
HETATM   17  C   UNL     1     -11.918  12.618  65.086  1.00  0.00    -0.428 C  
HETATM   18  O   UNL     1     -11.035  12.292  64.107  1.00  0.00    -0.308 OA 
HETATM   19  O   UNL     1     -13.127  12.535  64.945  1.00  0.00    -0.833 OA 
ENDBRANCH  15  16
BRANCH  15  20
HETATM   20  C   UNL     1      -9.928  15.014  66.837  1.00  0.00    -0.244 C  
HETATM   21  C   UNL     1     -10.078  16.167  65.845  1.00  0.00    -0.354 C  
HETATM   22  O   UNL     1     -10.734  15.816  64.713  1.00  0.00    -0.500 OA 
HETATM   23  O   UNL     1      -9.698  17.304  66.063  1.00  0.00    -0.446 OA 
ENDBRANCH  15  20
ENDBRANCH  14  15
ENDBRANCH   2  14
TORSDOF 8
ENDMDL
MODEL      128
REMARK 921   NORMALIZED FREE ENERGY PREDICTED BY IDOCK:   -4.38 KCAL/MOL
REMARK 922        TOTAL FREE ENERGY PREDICTED BY IDOCK:   -7.75 KCAL/MOL
REMARK 923 INTER-LIGAND FREE ENERGY PREDICTED BY IDOCK:   -7.64 KCAL/MOL
REMARK 924 INTRA-LIGAND FREE ENERGY PREDICTED BY IDOCK:   -0.11 KCAL/MOL
REMARK 927      BINDING AFFINITY PREDICTED BY RF-SCORE:    0.00 PKD
ROOT
HETATM    1  O   UNL     1     -11.758  16.051  64.011  1.00  0.00    -1.123 OA 
HETATM    2  C   UNL     1     -11.221  15.629  65.270  1.00  0.00    -0.234 C  
HETATM    3  H   UNL     1     -11.520  16.957  63.852  1.00  0.00     0.000 HD 
ENDROOT
BRANCH   2   4
HETATM    4  C   UNL     1      -9.684  15.824  65.225  1.00  0.00     0.030 C  
BRANCH   4   5
HETATM    5  N   UNL     1      -9.150  17.107  65.815  1.00  0.00    -0.512 NA 
BRANCH   5   6
HETATM    6  C   UNL     1      -7.837  16.794  66.491  1.00  0.00    -0.303 C  
HETATM    7  O   UNL     1      -7.064  18.834  65.470  1.00  0.00    -0.470 OA 
HETATM    8  C   UNL     1      -6.681  17.618  65.928  1.00  0.00    -0.215 C  
HETATM    9  O   UNL     1      -5.521  17.239  65.913  1.00  0.00    -0.289 OA 
ENDBRANCH   5   6
BRANCH   5  10
HETATM   10  C   UNL     1     -10.110  17.583  66.873  1.00  0.00    -0.324 C  
HETATM   11  O   UNL     1     -10.256  19.586  65.556  1.00  0.00    -0.413 OA 
HETATM   12  O   UNL     1     -10.645  19.778  67.781  1.00  0.00    -0.421 OA 
HETATM   13  C   UNL     1     -10.349  19.092  66.812  1.00  0.00    -0.421 C  
ENDBRANCH   5  10
ENDBRANCH   4   5
ENDBRANCH   2   4
BRANCH   2  14
HETATM   14  C   UNL     1     -11.611  14.142  65.531  1.00  0.00    -0.337 C  
BRANCH  14  15
HETATM   15  N   UNL     1     -11.446  13.614  66.933  1.00  0.00    -0.330 NA 
BRANCH  15  16
HETATM   16  C   UNL     1     -10.283  12.649  66.932  1.00  0.00    -0.234 C  
HETATM   17  C   UNL     1     -10.627  11.305  67.566  1.00  0.00    -0.218 C  
HETATM   18  O   UNL     1     -11.936  10.975  67.415  1.00  0.00    -0.450 OA 
HETATM   19  O   UNL     1      -9.813  10.567  68.095  1.00  0.00    -0.149 OA 
ENDBRANCH  15  16
BRANCH  15  20
HETATM   20  C   UNL     1     -11.041  14.775  67.827  1.00  0.00    -0.299 C  
HETATM   21  C   UNL     1     -11.623  14.685  69.238  1.00  0.00    -0.302 C  
HETATM   22  O   UNL     1     -11.840  13.412  69.647  1.00  0.00    -0.299 OA 
HETATM   23  O   UNL     1     -11.825  15.651  69.952  1.00  0.00    -0.327 OA 
ENDBRANCH  15  20
ENDBRANCH  14  15
ENDBRANCH   2  14
TORSDOF 8
ENDMDL
MODEL      129
REMARK 921   NORMALIZED FREE ENERGY PREDICTED BY IDOCK:   -4.37 KCAL/MOL
REMARK 922        TOTAL FREE ENERGY PREDICTED BY IDOCK:   -7.75 KCAL/MOL
REMARK 923 INTER-LIGAND FREE ENERGY PREDICTED BY IDOCK:   -6.73 KCAL/MOL
REMARK 924 INTRA-LIGAND FREE ENERGY PREDICTED BY IDOCK:   -1.02 KCAL/MOL
REMARK 927      BINDING AFFINITY PREDICTED BY RF-SCORE:    0.00 PKD
ROOT
HETATM    1  O   UNL     1     -10.141   9.467  65.636  1.00  0.00    -0.328 OA 
HETATM    2  C   UNL     1     -10.756  10.215  66.690  1.00  0.00    -0.086 C  
HETATM    3  H   UNL     1     -10.219   9.946  64.819  1.00  0.00     0.000 HD 
ENDROOT
BRANCH   2   4
HETATM    4  C   UNL     1     -10.063  11.600  66.764  1.00  0.00    -0.213 C  
BRANCH   4   5
HETATM    5  N   UNL     1     -10.817  12.762  66.163  1.00  0.00    -0.275 NA 
BRANCH   5   6
HETATM    6  C   UNL     1     -11.052  12.457  64.703  1.00  0.00    -0.307 C  
HETATM    7  O   UNL     1     -13.238  13.398  65.071  1.00  0.00    -0.715 OA 
HETATM    8  C   UNL     1     -12.529  12.518  64.325  1.00  0.00    -0.432 C  
HETATM    9  O   UNL     1     -13.027  11.861  63.424  1.00  0.00    -0.730 OA 
ENDBRANCH   5   6
BRANCH   5  10
HETATM   10  C   UNL     1      -9.948  13.989  66.243  1.00  0.00    -0.307 C  
HETATM   11  O   UNL     1     -11.779  14.962  67.456  1.00  0.00    -0.360 OA 
HETATM   12  O   UNL     1     -10.426  16.376  66.312  1.00  0.00    -0.309 OA 
HETATM   13  C   UNL     1     -10.733  15.239  66.643  1.00  0.00    -0.309 C  
ENDBRANCH   5  10
ENDBRANCH   4   5
ENDBRANCH   2   4
BRANCH   2  14
HETATM   14  C   UNL     1     -10.627   9.429  68.031  1.00  0.00    -0.226 C  
BRANCH  14  15
HETATM   15  N   UNL     1     -10.443  10.230  69.294  1.00  0.00    -0.213 NA 
BRANCH  15  16
HETATM   16  C   UNL     1     -11.764  10.253  70.027  1.00  0.00    -0.254 C  
HETATM   17  C   UNL     1     -12.176  11.655  70.465  1.00  0.00    -0.361 C  
HETATM   18  O   UNL     1     -11.711  12.621  69.631  1.00  0.00    -0.303 OA 
HETATM   19  O   UNL     1     -12.898  11.892  71.419  1.00  0.00    -0.389 OA 
ENDBRANCH  15  16
BRANCH  15  20
HETATM   20  C   UNL     1      -9.467   9.481  70.187  1.00  0.00    -0.246 C  
HETATM   21  C   UNL     1      -8.002   9.734  69.831  1.00  0.00    -0.175 C  
HETATM   22  O   UNL     1      -7.789  10.951  69.276  1.00  0.00    -0.144 OA 
HETATM   23  O   UNL     1      -7.101   8.949  70.067  1.00  0.00    -0.045 OA 
ENDBRANCH  15  20
ENDBRANCH  14  15
ENDBRANCH   2  14
TORSDOF 8
ENDMDL
MODEL      130
REMARK 921   NORMALIZED FREE ENERGY PREDICTED BY IDOCK:   -4.37 KCAL/MOL
REMARK 922        TOTAL FREE ENERGY PREDICTED BY IDOCK:   -7.75 KCAL/MOL
REMARK 923 INTER-LIGAND FREE ENERGY PREDICTED BY IDOCK:   -6.69 KCAL/MOL
REMARK 924 INTRA-LIGAND FREE ENERGY PREDICTED BY IDOCK:   -1.06 KCAL/MOL
REMARK 927      BINDING AFFINITY PREDICTED BY RF-SCORE:    0.00 PKD
ROOT
HETATM    1  O   UNL     1      -9.865   9.327  65.595  1.00  0.00    -0.392 OA 
HETATM    2  C   UNL     1     -10.232  10.322  66.557  1.00  0.00    -0.226 C  
HETATM    3  H   UNL     1      -9.317   8.671  66.010  1.00  0.00     0.000 HD 
ENDROOT
BRANCH   2   4
HETATM    4  C   UNL     1     -10.961   9.614  67.727  1.00  0.00    -0.139 C  
BRANCH   4   5
HETATM    5  N   UNL     1     -10.405   9.852  69.110  1.00  0.00    -0.197 NA 
BRANCH   5   6
HETATM    6  C   UNL     1     -11.270  10.892  69.783  1.00  0.00    -0.281 C  
HETATM    7  O   UNL     1     -11.213   9.409  71.681  1.00  0.00    -0.370 OA 
HETATM    8  C   UNL     1     -11.939  10.362  71.049  1.00  0.00    -0.382 C  
HETATM    9  O   UNL     1     -13.009  10.769  71.472  1.00  0.00    -0.407 OA 
ENDBRANCH   5   6
BRANCH   5  10
HETATM   10  C   UNL     1      -9.019  10.423  68.977  1.00  0.00    -0.179 C  
HETATM   11  O   UNL     1      -8.332   8.535  70.294  1.00  0.00    -0.115 OA 
HETATM   12  O   UNL     1      -7.057  10.405  70.420  1.00  0.00    -0.268 OA 
HETATM   13  C   UNL     1      -8.036   9.818  69.982  1.00  0.00    -0.189 C  
ENDBRANCH   5  10
ENDBRANCH   4   5
ENDBRANCH   2   4
BRANCH   2  14
HETATM   14  C   UNL     1     -11.132  11.398  65.877  1.00  0.00    -0.162 C  
BRANCH  14  15
HETATM   15  N   UNL     1     -10.860  12.844  66.205  1.00  0.00    -0.276 NA 
BRANCH  15  16
HETATM   16  C   UNL     1      -9.457  12.939  66.757  1.00  0.00    -0.245 C  
HETATM   17  C   UNL     1      -9.267  14.130  67.691  1.00  0.00    -0.193 C  
HETATM   18  O   UNL     1     -10.406  14.466  68.349  1.00  0.00    -0.231 OA 
HETATM   19  O   UNL     1      -8.199  14.687  67.884  1.00  0.00    -0.133 OA 
ENDBRANCH  15  16
BRANCH  15  20
HETATM   20  C   UNL     1     -10.866  13.629  64.903  1.00  0.00    -0.375 C  
HETATM   21  C   UNL     1     -12.270  13.982  64.413  1.00  0.00    -0.426 C  
HETATM   22  O   UNL     1     -13.169  14.113  65.418  1.00  0.00    -0.741 OA 
HETATM   23  O   UNL     1     -12.552  14.180  63.245  1.00  0.00    -0.766 OA 
ENDBRANCH  15  20
ENDBRANCH  14  15
ENDBRANCH   2  14
TORSDOF 8
ENDMDL
MODEL      131
REMARK 921   NORMALIZED FREE ENERGY PREDICTED BY IDOCK:   -4.37 KCAL/MOL
REMARK 922        TOTAL FREE ENERGY PREDICTED BY IDOCK:   -7.74 KCAL/MOL
REMARK 923 INTER-LIGAND FREE ENERGY PREDICTED BY IDOCK:   -6.48 KCAL/MOL
REMARK 924 INTRA-LIGAND FREE ENERGY PREDICTED BY IDOCK:   -1.27 KCAL/MOL
REMARK 927      BINDING AFFINITY PREDICTED BY RF-SCORE:    0.00 PKD
ROOT
HETATM    1  O   UNL     1     -11.285   7.653  67.347  1.00  0.00    -0.499 OA 
HETATM    2  C   UNL     1     -10.336   8.711  67.524  1.00  0.00    -0.269 C  
HETATM    3  H   UNL     1     -11.392   7.182  68.166  1.00  0.00     0.000 HD 
ENDROOT
BRANCH   2   4
HETATM    4  C   UNL     1     -10.850   9.633  68.658  1.00  0.00    -0.167 C  
BRANCH   4   5
HETATM    5  N   UNL     1     -11.171   8.967  69.975  1.00  0.00    -0.183 NA 
BRANCH   5   6
HETATM    6  C   UNL     1     -11.283  10.047  71.024  1.00  0.00    -0.314 C  
HETATM    7  O   UNL     1     -13.367   8.985  71.597  1.00  0.00    -0.348 OA 
HETATM    8  C   UNL     1     -12.694  10.160  71.596  1.00  0.00    -0.447 C  
HETATM    9  O   UNL     1     -13.168  11.196  72.035  1.00  0.00    -0.493 OA 
ENDBRANCH   5   6
BRANCH   5  10
HETATM   10  C   UNL     1     -10.018   8.076  70.353  1.00  0.00    -0.188 C  
HETATM   11  O   UNL     1     -11.540   6.266  69.933  1.00  0.00    -0.435 OA 
HETATM   12  O   UNL     1      -9.872   5.893  71.423  1.00  0.00    -0.164 OA 
HETATM   13  C   UNL     1     -10.459   6.642  70.654  1.00  0.00    -0.217 C  
ENDBRANCH   5  10
ENDBRANCH   4   5
ENDBRANCH   2   4
BRANCH   2  14
HETATM   14  C   UNL     1     -10.160   9.484  66.181  1.00  0.00    -0.256 C  
BRANCH  14  15
HETATM   15  N   UNL     1      -9.874  10.961  66.259  1.00  0.00    -0.209 NA 
BRANCH  15  16
HETATM   16  C   UNL     1      -8.402  11.166  65.985  1.00  0.00    -0.115 C  
HETATM   17  C   UNL     1      -7.691  11.927  67.099  1.00  0.00    -0.163 C  
HETATM   18  O   UNL     1      -8.252  11.716  68.317  1.00  0.00    -0.142 OA 
HETATM   19  O   UNL     1      -6.688  12.602  66.937  1.00  0.00    -0.047 OA 
ENDBRANCH  15  16
BRANCH  15  20
HETATM   20  C   UNL     1     -10.623  11.645  65.126  1.00  0.00    -0.290 C  
HETATM   21  C   UNL     1     -11.936  12.289  65.569  1.00  0.00    -0.321 C  
HETATM   22  O   UNL     1     -11.925  12.691  66.863  1.00  0.00    -0.457 OA 
HETATM   23  O   UNL     1     -12.885  12.477  64.827  1.00  0.00    -0.755 OA 
ENDBRANCH  15  20
ENDBRANCH  14  15
ENDBRANCH   2  14
TORSDOF 8
ENDMDL
MODEL      132
REMARK 921   NORMALIZED FREE ENERGY PREDICTED BY IDOCK:   -4.36 KCAL/MOL
REMARK 922        TOTAL FREE ENERGY PREDICTED BY IDOCK:   -7.73 KCAL/MOL
REMARK 923 INTER-LIGAND FREE ENERGY PREDICTED BY IDOCK:   -6.41 KCAL/MOL
REMARK 924 INTRA-LIGAND FREE ENERGY PREDICTED BY IDOCK:   -1.31 KCAL/MOL
REMARK 927      BINDING AFFINITY PREDICTED BY RF-SCORE:    0.00 PKD
ROOT
HETATM    1  O   UNL     1     -12.112  10.544  68.128  1.00  0.00    -0.756 OA 
HETATM    2  C   UNL     1     -11.501  11.266  69.203  1.00  0.00    -0.297 C  
HETATM    3  H   UNL     1     -12.685  11.124  67.640  1.00  0.00     0.000 HD 
ENDROOT
BRANCH   2   4
HETATM    4  C   UNL     1     -10.729  12.466  68.598  1.00  0.00    -0.232 C  
BRANCH   4   5
HETATM    5  N   UNL     1     -11.057  13.829  69.159  1.00  0.00    -0.254 NA 
BRANCH   5   6
HETATM    6  C   UNL     1     -12.404  13.739  69.835  1.00  0.00    -0.275 C  
HETATM    7  O   UNL     1     -11.398  15.091  71.556  1.00  0.00    -0.350 OA 
HETATM    8  C   UNL     1     -12.349  14.162  71.301  1.00  0.00    -0.369 C  
HETATM    9  O   UNL     1     -13.101  13.730  72.161  1.00  0.00    -0.376 OA 
ENDBRANCH   5   6
BRANCH   5  10
HETATM   10  C   UNL     1     -11.180  14.800  68.015  1.00  0.00    -0.299 C  
HETATM   11  O   UNL     1      -9.336  15.941  69.049  1.00  0.00    -0.213 OA 
HETATM   12  O   UNL     1     -10.755  17.188  67.796  1.00  0.00    -0.361 OA 
HETATM   13  C   UNL     1     -10.433  16.110  68.275  1.00  0.00    -0.276 C  
ENDBRANCH   5  10
ENDBRANCH   4   5
ENDBRANCH   2   4
BRANCH   2  14
HETATM   14  C   UNL     1     -10.561  10.314  70.003  1.00  0.00    -0.269 C  
BRANCH  14  15
HETATM   15  N   UNL     1     -10.391   8.908  69.489  1.00  0.00    -0.208 NA 
BRANCH  15  16
HETATM   16  C   UNL     1      -9.064   8.833  68.769  1.00  0.00    -0.138 C  
HETATM   17  C   UNL     1      -9.192   8.305  67.343  1.00  0.00    -0.141 C  
HETATM   18  O   UNL     1     -10.390   8.609  66.778  1.00  0.00    -0.286 OA 
HETATM   19  O   UNL     1      -8.301   7.729  66.742  1.00  0.00    -0.119 OA 
ENDBRANCH  15  16
BRANCH  15  20
HETATM   20  C   UNL     1     -10.283   7.979  70.688  1.00  0.00    -0.196 C  
HETATM   21  C   UNL     1     -11.258   6.804  70.634  1.00  0.00    -0.312 C  
HETATM   22  O   UNL     1     -11.575   6.429  69.371  1.00  0.00    -0.382 OA 
HETATM   23  O   UNL     1     -11.674   6.221  71.620  1.00  0.00    -0.305 OA 
ENDBRANCH  15  20
ENDBRANCH  14  15
ENDBRANCH   2  14
TORSDOF 8
ENDMDL
MODEL      133
REMARK 921   NORMALIZED FREE ENERGY PREDICTED BY IDOCK:   -4.35 KCAL/MOL
REMARK 922        TOTAL FREE ENERGY PREDICTED BY IDOCK:   -7.72 KCAL/MOL
REMARK 923 INTER-LIGAND FREE ENERGY PREDICTED BY IDOCK:   -6.83 KCAL/MOL
REMARK 924 INTRA-LIGAND FREE ENERGY PREDICTED BY IDOCK:   -0.90 KCAL/MOL
REMARK 927      BINDING AFFINITY PREDICTED BY RF-SCORE:    0.00 PKD
ROOT
HETATM    1  O   UNL     1     -12.366  10.822  68.637  1.00  0.00    -0.825 OA 
HETATM    2  C   UNL     1     -11.216  10.730  67.789  1.00  0.00    -0.316 C  
HETATM    3  H   UNL     1     -12.782   9.970  68.702  1.00  0.00     0.000 HD 
ENDROOT
BRANCH   2   4
HETATM    4  C   UNL     1     -10.262   9.666  68.386  1.00  0.00    -0.188 C  
BRANCH   4   5
HETATM    5  N   UNL     1      -9.657   8.682  67.414  1.00  0.00    -0.152 NA 
BRANCH   5   6
HETATM    6  C   UNL     1      -9.345   7.415  68.174  1.00  0.00    -0.135 C  
HETATM    7  O   UNL     1     -11.267   6.509  67.040  1.00  0.00    -0.397 OA 
HETATM    8  C   UNL     1     -10.506   6.424  68.157  1.00  0.00    -0.218 C  
HETATM    9  O   UNL     1     -10.721   5.616  69.046  1.00  0.00    -0.267 OA 
ENDBRANCH   5   6
BRANCH   5  10
HETATM   10  C   UNL     1      -8.357   9.247  66.908  1.00  0.00    -0.123 C  
HETATM   11  O   UNL     1      -9.557   9.645  64.865  1.00  0.00    -0.277 OA 
HETATM   12  O   UNL     1      -7.317   9.337  64.708  1.00  0.00    -0.099 OA 
HETATM   13  C   UNL     1      -8.333   9.392  65.385  1.00  0.00    -0.137 C  
ENDBRANCH   5  10
ENDBRANCH   4   5
ENDBRANCH   2   4
BRANCH   2  14
HETATM   14  C   UNL     1     -10.534  12.129  67.683  1.00  0.00    -0.206 C  
BRANCH  14  15
HETATM   15  N   UNL     1     -11.401  13.300  67.298  1.00  0.00    -0.299 NA 
BRANCH  15  16
HETATM   16  C   UNL     1     -10.969  14.490  68.124  1.00  0.00    -0.251 C  
HETATM   17  C   UNL     1     -11.779  14.647  69.406  1.00  0.00    -0.316 C  
HETATM   18  O   UNL     1     -12.226  13.461  69.892  1.00  0.00    -0.314 OA 
HETATM   19  O   UNL     1     -11.958  15.710  69.978  1.00  0.00    -0.346 OA 
ENDBRANCH  15  16
BRANCH  15  20
HETATM   20  C   UNL     1     -11.101  13.650  65.849  1.00  0.00    -0.284 C  
HETATM   21  C   UNL     1     -12.355  13.776  64.984  1.00  0.00    -0.428 C  
HETATM   22  O   UNL     1     -13.448  14.168  65.681  1.00  0.00    -0.576 OA 
HETATM   23  O   UNL     1     -12.370  13.595  63.779  1.00  0.00    -0.671 OA 
ENDBRANCH  15  20
ENDBRANCH  14  15
ENDBRANCH   2  14
TORSDOF 8
ENDMDL
MODEL      134
REMARK 921   NORMALIZED FREE ENERGY PREDICTED BY IDOCK:   -4.35 KCAL/MOL
REMARK 922        TOTAL FREE ENERGY PREDICTED BY IDOCK:   -7.71 KCAL/MOL
REMARK 923 INTER-LIGAND FREE ENERGY PREDICTED BY IDOCK:   -8.53 KCAL/MOL
REMARK 924 INTRA-LIGAND FREE ENERGY PREDICTED BY IDOCK:    0.82 KCAL/MOL
REMARK 927      BINDING AFFINITY PREDICTED BY RF-SCORE:    0.00 PKD
ROOT
HETATM    1  O   UNL     1     -10.195  13.244  68.855  1.00  0.00    -0.404 OA 
HETATM    2  C   UNL     1     -11.497  13.834  68.782  1.00  0.00    -0.303 C  
HETATM    3  H   UNL     1      -9.969  12.867  68.013  1.00  0.00     0.000 HD 
ENDROOT
BRANCH   2   4
HETATM    4  C   UNL     1     -11.479  14.901  67.659  1.00  0.00    -0.352 C  
BRANCH   4   5
HETATM    5  N   UNL     1     -11.165  14.408  66.267  1.00  0.00    -0.332 NA 
BRANCH   5   6
HETATM    6  C   UNL     1     -10.468  15.524  65.527  1.00  0.00    -0.386 C  
HETATM    7  O   UNL     1      -8.494  14.781  66.689  1.00  0.00    -0.199 OA 
HETATM    8  C   UNL     1      -9.099  15.849  66.120  1.00  0.00    -0.350 C  
HETATM    9  O   UNL     1      -8.582  16.954  66.067  1.00  0.00    -0.469 OA 
ENDBRANCH   5   6
BRANCH   5  10
HETATM   10  C   UNL     1     -12.462  14.125  65.556  1.00  0.00    -0.476 C  
HETATM   11  O   UNL     1     -12.025  11.826  66.097  1.00  0.00    -0.464 OA 
HETATM   12  O   UNL     1     -13.278  12.236  64.253  1.00  0.00    -0.785 OA 
HETATM   13  C   UNL     1     -12.628  12.645  65.205  1.00  0.00    -0.386 C  
ENDBRANCH   5  10
ENDBRANCH   4   5
ENDBRANCH   2   4
BRANCH   2  14
HETATM   14  C   UNL     1     -11.868  14.452  70.165  1.00  0.00    -0.314 C  
BRANCH  14  15
HETATM   15  N   UNL     1     -13.151  13.998  70.811  1.00  0.00    -0.241 NA 
BRANCH  15  16
HETATM   16  C   UNL     1     -12.796  13.078  71.956  1.00  0.00    -0.192 C  
HETATM   17  C   UNL     1     -12.797  11.606  71.556  1.00  0.00    -0.364 C  
HETATM   18  O   UNL     1     -12.469  11.417  70.252  1.00  0.00    -0.282 OA 
HETATM   19  O   UNL     1     -13.003  10.685  72.330  1.00  0.00    -0.353 OA 
ENDBRANCH  15  16
BRANCH  15  20
HETATM   20  C   UNL     1     -13.823  15.214  71.428  1.00  0.00    -0.502 C  
HETATM   21  C   UNL     1     -13.018  15.837  72.569  1.00  0.00    -0.470 C  
HETATM   22  O   UNL     1     -11.682  15.651  72.445  1.00  0.00    -0.419 OA 
HETATM   23  O   UNL     1     -13.514  16.483  73.475  1.00  0.00    -0.491 OA 
ENDBRANCH  15  20
ENDBRANCH  14  15
ENDBRANCH   2  14
TORSDOF 8
ENDMDL
MODEL      135
REMARK 921   NORMALIZED FREE ENERGY PREDICTED BY IDOCK:   -4.34 KCAL/MOL
REMARK 922        TOTAL FREE ENERGY PREDICTED BY IDOCK:   -7.70 KCAL/MOL
REMARK 923 INTER-LIGAND FREE ENERGY PREDICTED BY IDOCK:   -6.04 KCAL/MOL
REMARK 924 INTRA-LIGAND FREE ENERGY PREDICTED BY IDOCK:   -1.67 KCAL/MOL
REMARK 927      BINDING AFFINITY PREDICTED BY RF-SCORE:    0.00 PKD
ROOT
HETATM    1  O   UNL     1     -12.460  10.657  68.704  1.00  0.00    -0.788 OA 
HETATM    2  C   UNL     1     -11.498  11.063  69.684  1.00  0.00    -0.303 C  
HETATM    3  H   UNL     1     -12.434  11.256  67.966  1.00  0.00     0.000 HD 
ENDROOT
BRANCH   2   4
HETATM    4  C   UNL     1     -10.104  11.085  69.008  1.00  0.00    -0.180 C  
BRANCH   4   5
HETATM    5  N   UNL     1     -10.087  11.225  67.505  1.00  0.00    -0.181 NA 
BRANCH   5   6
HETATM    6  C   UNL     1      -8.779  10.662  67.003  1.00  0.00    -0.128 C  
HETATM    7  O   UNL     1     -10.103   9.724  65.223  1.00  0.00    -0.286 OA 
HETATM    8  C   UNL     1      -8.978   9.565  65.959  1.00  0.00    -0.163 C  
HETATM    9  O   UNL     1      -8.194   8.647  65.781  1.00  0.00    -0.113 OA 
ENDBRANCH   5   6
BRANCH   5  10
HETATM   10  C   UNL     1     -10.120  12.690  67.159  1.00  0.00    -0.223 C  
HETATM   11  O   UNL     1     -12.238  12.197  66.140  1.00  0.00    -0.611 OA 
HETATM   12  O   UNL     1     -11.070  13.950  65.305  1.00  0.00    -0.301 OA 
HETATM   13  C   UNL     1     -11.163  13.017  66.090  1.00  0.00    -0.291 C  
ENDBRANCH   5  10
ENDBRANCH   4   5
ENDBRANCH   2   4
BRANCH   2  14
HETATM   14  C   UNL     1     -11.541  10.081  70.895  1.00  0.00    -0.378 C  
BRANCH  14  15
HETATM   15  N   UNL     1     -10.555   8.942  70.904  1.00  0.00    -0.216 NA 
BRANCH  15  16
HETATM   16  C   UNL     1     -10.420   8.455  72.328  1.00  0.00    -0.337 C  
HETATM   17  C   UNL     1      -8.970   8.219  72.739  1.00  0.00    -0.253 C  
HETATM   18  O   UNL     1      -8.102   9.039  72.091  1.00  0.00    -0.359 OA 
HETATM   19  O   UNL     1      -8.621   7.428  73.600  1.00  0.00    -0.142 OA 
ENDBRANCH  15  16
BRANCH  15  20
HETATM   20  C   UNL     1     -11.158   7.793  70.111  1.00  0.00    -0.209 C  
HETATM   21  C   UNL     1     -10.332   7.402  68.886  1.00  0.00    -0.206 C  
HETATM   22  O   UNL     1      -9.008   7.652  69.032  1.00  0.00    -0.138 OA 
HETATM   23  O   UNL     1     -10.798   6.870  67.894  1.00  0.00    -0.231 OA 
ENDBRANCH  15  20
ENDBRANCH  14  15
ENDBRANCH   2  14
TORSDOF 8
ENDMDL
MODEL      136
REMARK 921   NORMALIZED FREE ENERGY PREDICTED BY IDOCK:   -4.33 KCAL/MOL
REMARK 922        TOTAL FREE ENERGY PREDICTED BY IDOCK:   -7.70 KCAL/MOL
REMARK 923 INTER-LIGAND FREE ENERGY PREDICTED BY IDOCK:   -6.55 KCAL/MOL
REMARK 924 INTRA-LIGAND FREE ENERGY PREDICTED BY IDOCK:   -1.15 KCAL/MOL
REMARK 927      BINDING AFFINITY PREDICTED BY RF-SCORE:    0.00 PKD
ROOT
HETATM    1  O   UNL     1     -11.227  15.350  64.081  1.00  0.00    -0.686 OA 
HETATM    2  C   UNL     1     -11.395  15.326  65.503  1.00  0.00    -0.220 C  
HETATM    3  H   UNL     1     -10.799  16.159  63.825  1.00  0.00     0.000 HD 
ENDROOT
BRANCH   2   4
HETATM    4  C   UNL     1      -9.996  15.471  66.154  1.00  0.00    -0.309 C  
BRANCH   4   5
HETATM    5  N   UNL     1      -9.924  16.289  67.421  1.00  0.00    -0.245 NA 
BRANCH   5   6
HETATM    6  C   UNL     1     -11.258  16.177  68.120  1.00  0.00    -0.311 C  
HETATM    7  O   UNL     1      -9.966  15.468  70.025  1.00  0.00    -0.290 OA 
HETATM    8  C   UNL     1     -11.171  15.374  69.415  1.00  0.00    -0.296 C  
HETATM    9  O   UNL     1     -12.099  14.728  69.877  1.00  0.00    -0.303 OA 
ENDBRANCH   5   6
BRANCH   5  10
HETATM   10  C   UNL     1      -9.721  17.733  67.047  1.00  0.00    -0.290 C  
HETATM   11  O   UNL     1      -8.212  17.796  68.915  1.00  0.00    -0.248 OA 
HETATM   12  O   UNL     1      -9.223  19.740  68.334  1.00  0.00    -0.344 OA 
HETATM   13  C   UNL     1      -9.056  18.540  68.163  1.00  0.00    -0.309 C  
ENDBRANCH   5  10
ENDBRANCH   4   5
ENDBRANCH   2   4
BRANCH   2  14
HETATM   14  C   UNL     1     -12.097  13.999  65.923  1.00  0.00    -0.428 C  
BRANCH  14  15
HETATM   15  N   UNL     1     -11.225  12.794  66.163  1.00  0.00    -0.287 NA 
BRANCH  15  16
HETATM   16  C   UNL     1     -11.675  12.142  67.450  1.00  0.00    -0.304 C  
HETATM   17  C   UNL     1     -10.518  11.825  68.392  1.00  0.00    -0.215 C  
HETATM   18  O   UNL     1      -9.482  12.694  68.259  1.00  0.00    -0.213 OA 
HETATM   19  O   UNL     1     -10.534  10.933  69.223  1.00  0.00    -0.216 OA 
ENDBRANCH  15  16
BRANCH  15  20
HETATM   20  C   UNL     1     -11.495  11.790  65.054  1.00  0.00    -0.188 C  
HETATM   21  C   UNL     1     -10.226  11.299  64.358  1.00  0.00    -0.320 C  
HETATM   22  O   UNL     1      -9.135  11.313  65.162  1.00  0.00    -0.189 OA 
HETATM   23  O   UNL     1     -10.197  10.885  63.212  1.00  0.00    -0.337 OA 
ENDBRANCH  15  20
ENDBRANCH  14  15
ENDBRANCH   2  14
TORSDOF 8
ENDMDL
MODEL      137
REMARK 921   NORMALIZED FREE ENERGY PREDICTED BY IDOCK:   -4.33 KCAL/MOL
REMARK 922        TOTAL FREE ENERGY PREDICTED BY IDOCK:   -7.69 KCAL/MOL
REMARK 923 INTER-LIGAND FREE ENERGY PREDICTED BY IDOCK:   -6.42 KCAL/MOL
REMARK 924 INTRA-LIGAND FREE ENERGY PREDICTED BY IDOCK:   -1.28 KCAL/MOL
REMARK 927      BINDING AFFINITY PREDICTED BY RF-SCORE:    0.00 PKD
ROOT
HETATM    1  O   UNL     1      -8.498  13.770  66.475  1.00  0.00    -0.424 OA 
HETATM    2  C   UNL     1      -9.355  14.177  67.548  1.00  0.00    -0.204 C  
HETATM    3  H   UNL     1      -7.970  13.031  66.754  1.00  0.00     0.000 HD 
ENDROOT
BRANCH   2   4
HETATM    4  C   UNL     1     -10.229  12.962  67.952  1.00  0.00    -0.233 C  
BRANCH   4   5
HETATM    5  N   UNL     1     -10.402  11.881  66.912  1.00  0.00    -0.208 NA 
BRANCH   5   6
HETATM    6  C   UNL     1     -11.717  12.121  66.211  1.00  0.00    -0.320 C  
HETATM    7  O   UNL     1     -10.360  12.830  64.352  1.00  0.00    -0.353 OA 
HETATM    8  C   UNL     1     -11.562  12.979  64.958  1.00  0.00    -0.325 C  
HETATM    9  O   UNL     1     -12.438  13.709  64.522  1.00  0.00    -0.565 OA 
ENDBRANCH   5   6
BRANCH   5  10
HETATM   10  C   UNL     1     -10.489  10.552  67.613  1.00  0.00    -0.234 C  
HETATM   11  O   UNL     1      -9.437   9.670  65.643  1.00  0.00    -0.215 OA 
HETATM   12  O   UNL     1     -10.759   8.262  66.829  1.00  0.00    -0.267 OA 
HETATM   13  C   UNL     1     -10.274   9.372  66.663  1.00  0.00    -0.249 C  
ENDBRANCH   5  10
ENDBRANCH   4   5
ENDBRANCH   2   4
BRANCH   2  14
HETATM   14  C   UNL     1     -10.223  15.389  67.090  1.00  0.00    -0.251 C  
BRANCH  14  15
HETATM   15  N   UNL     1     -10.287  16.585  68.005  1.00  0.00    -0.282 NA 
BRANCH  15  16
HETATM   16  C   UNL     1     -10.209  17.829  67.151  1.00  0.00    -0.353 C  
HETATM   17  C   UNL     1      -9.637  19.028  67.900  1.00  0.00    -0.318 C  
HETATM   18  O   UNL     1      -8.753  18.669  68.866  1.00  0.00    -0.281 OA 
HETATM   19  O   UNL     1      -9.889  20.191  67.628  1.00  0.00    -0.387 OA 
ENDBRANCH  15  16
BRANCH  15  20
HETATM   20  C   UNL     1     -11.658  16.600  68.663  1.00  0.00     0.081 C  
HETATM   21  C   UNL     1     -11.726  15.764  69.942  1.00  0.00    -0.357 C  
HETATM   22  O   UNL     1     -10.539  15.683  70.591  1.00  0.00    -0.293 OA 
HETATM   23  O   UNL     1     -12.749  15.262  70.371  1.00  0.00    -0.379 OA 
ENDBRANCH  15  20
ENDBRANCH  14  15
ENDBRANCH   2  14
TORSDOF 8
ENDMDL
MODEL      138
REMARK 921   NORMALIZED FREE ENERGY PREDICTED BY IDOCK:   -4.33 KCAL/MOL
REMARK 922        TOTAL FREE ENERGY PREDICTED BY IDOCK:   -7.69 KCAL/MOL
REMARK 923 INTER-LIGAND FREE ENERGY PREDICTED BY IDOCK:   -6.58 KCAL/MOL
REMARK 924 INTRA-LIGAND FREE ENERGY PREDICTED BY IDOCK:   -1.11 KCAL/MOL
REMARK 927      BINDING AFFINITY PREDICTED BY RF-SCORE:    0.00 PKD
ROOT
HETATM    1  O   UNL     1      -9.527  10.700  67.235  1.00  0.00    -0.157 OA 
HETATM    2  C   UNL     1     -10.771  10.442  67.897  1.00  0.00    -0.261 C  
HETATM    3  H   UNL     1      -9.676  10.783  66.300  1.00  0.00     0.000 HD 
ENDROOT
BRANCH   2   4
HETATM    4  C   UNL     1     -11.740  11.605  67.568  1.00  0.00    -0.214 C  
BRANCH   4   5
HETATM    5  N   UNL     1     -11.308  12.553  66.475  1.00  0.00    -0.314 NA 
BRANCH   5   6
HETATM    6  C   UNL     1     -11.265  13.944  67.061  1.00  0.00    -0.313 C  
HETATM    7  O   UNL     1      -8.879  13.620  67.122  1.00  0.00    -0.215 OA 
HETATM    8  C   UNL     1      -9.917  14.264  67.705  1.00  0.00    -0.225 C  
HETATM    9  O   UNL     1      -9.777  15.041  68.636  1.00  0.00    -0.204 OA 
ENDBRANCH   5   6
BRANCH   5  10
HETATM   10  C   UNL     1     -12.353  12.543  65.391  1.00  0.00    -0.359 C  
HETATM   11  O   UNL     1     -10.501  12.796  63.882  1.00  0.00    -0.418 OA 
HETATM   12  O   UNL     1     -12.507  13.608  63.207  1.00  0.00    -0.801 OA 
HETATM   13  C   UNL     1     -11.817  13.060  64.055  1.00  0.00    -0.445 C  
ENDBRANCH   5  10
ENDBRANCH   4   5
ENDBRANCH   2   4
BRANCH   2  14
HETATM   14  C   UNL     1     -10.526  10.305  69.431  1.00  0.00    -0.236 C  
BRANCH  14  15
HETATM   15  N   UNL     1     -10.465   8.914  70.006  1.00  0.00    -0.206 NA 
BRANCH  15  16
HETATM   16  C   UNL     1     -10.511   7.933  68.858  1.00  0.00    -0.190 C  
HETATM   17  C   UNL     1     -11.050   6.566  69.267  1.00  0.00    -0.334 C  
HETATM   18  O   UNL     1     -11.941   6.639  70.288  1.00  0.00    -0.387 OA 
HETATM   19  O   UNL     1     -10.768   5.521  68.703  1.00  0.00    -0.197 OA 
ENDBRANCH  15  16
BRANCH  15  20
HETATM   20  C   UNL     1      -9.108   8.739  70.668  1.00  0.00    -0.186 C  
HETATM   21  C   UNL     1      -9.194   8.499  72.175  1.00  0.00    -0.266 C  
HETATM   22  O   UNL     1     -10.342   7.887  72.554  1.00  0.00    -0.237 OA 
HETATM   23  O   UNL     1      -8.304   8.777  72.959  1.00  0.00    -0.412 OA 
ENDBRANCH  15  20
ENDBRANCH  14  15
ENDBRANCH   2  14
TORSDOF 8
ENDMDL
MODEL      139
REMARK 921   NORMALIZED FREE ENERGY PREDICTED BY IDOCK:   -4.33 KCAL/MOL
REMARK 922        TOTAL FREE ENERGY PREDICTED BY IDOCK:   -7.69 KCAL/MOL
REMARK 923 INTER-LIGAND FREE ENERGY PREDICTED BY IDOCK:   -6.67 KCAL/MOL
REMARK 924 INTRA-LIGAND FREE ENERGY PREDICTED BY IDOCK:   -1.02 KCAL/MOL
REMARK 927      BINDING AFFINITY PREDICTED BY RF-SCORE:    0.00 PKD
ROOT
HETATM    1  O   UNL     1     -12.229  10.961  68.155  1.00  0.00    -0.781 OA 
HETATM    2  C   UNL     1     -10.952  10.793  68.780  1.00  0.00    -0.247 C  
HETATM    3  H   UNL     1     -12.345  11.871  67.908  1.00  0.00     0.000 HD 
ENDROOT
BRANCH   2   4
HETATM    4  C   UNL     1      -9.864  11.265  67.782  1.00  0.00    -0.173 C  
BRANCH   4   5
HETATM    5  N   UNL     1     -10.345  11.718  66.425  1.00  0.00    -0.216 NA 
BRANCH   5   6
HETATM    6  C   UNL     1      -9.254  11.421  65.424  1.00  0.00    -0.151 C  
HETATM    7  O   UNL     1     -11.062  11.015  63.886  1.00  0.00    -0.236 OA 
HETATM    8  C   UNL     1      -9.780  10.699  64.186  1.00  0.00    -0.320 C  
HETATM    9  O   UNL     1      -9.111   9.932  63.512  1.00  0.00    -0.239 OA 
ENDBRANCH   5   6
BRANCH   5  10
HETATM   10  C   UNL     1     -10.543  13.210  66.461  1.00  0.00    -0.284 C  
HETATM   11  O   UNL     1     -12.833  12.719  65.928  1.00  0.00    -0.299 OA 
HETATM   12  O   UNL     1     -12.024  14.731  65.267  1.00  0.00    -0.325 OA 
HETATM   13  C   UNL     1     -11.854  13.645  65.803  1.00  0.00    -0.371 C  
ENDBRANCH   5  10
ENDBRANCH   4   5
ENDBRANCH   2   4
BRANCH   2  14
HETATM   14  C   UNL     1     -10.761   9.299  69.184  1.00  0.00    -0.183 C  
BRANCH  14  15
HETATM   15  N   UNL     1     -11.396   8.839  70.471  1.00  0.00    -0.253 NA 
BRANCH  15  16
HETATM   16  C   UNL     1     -10.445   7.874  71.140  1.00  0.00    -0.204 C  
HETATM   17  C   UNL     1     -11.162   6.793  71.942  1.00  0.00    -0.260 C  
HETATM   18  O   UNL     1     -12.381   6.483  71.428  1.00  0.00    -0.324 OA 
HETATM   19  O   UNL     1     -10.679   6.216  72.902  1.00  0.00    -0.222 OA 
ENDBRANCH  15  16
BRANCH  15  20
HETATM   20  C   UNL     1     -11.511  10.041  71.394  1.00  0.00    -0.255 C  
HETATM   21  C   UNL     1     -12.955  10.401  71.743  1.00  0.00    -0.475 C  
HETATM   22  O   UNL     1     -13.791   9.335  71.727  1.00  0.00    -0.372 OA 
HETATM   23  O   UNL     1     -13.319  11.521  72.058  1.00  0.00    -0.476 OA 
ENDBRANCH  15  20
ENDBRANCH  14  15
ENDBRANCH   2  14
TORSDOF 8
ENDMDL
MODEL      140
REMARK 921   NORMALIZED FREE ENERGY PREDICTED BY IDOCK:   -4.30 KCAL/MOL
REMARK 922        TOTAL FREE ENERGY PREDICTED BY IDOCK:   -7.65 KCAL/MOL
REMARK 923 INTER-LIGAND FREE ENERGY PREDICTED BY IDOCK:   -6.42 KCAL/MOL
REMARK 924 INTRA-LIGAND FREE ENERGY PREDICTED BY IDOCK:   -1.23 KCAL/MOL
REMARK 927      BINDING AFFINITY PREDICTED BY RF-SCORE:    0.00 PKD
ROOT
HETATM    1  O   UNL     1      -9.260  10.800  69.607  1.00  0.00    -0.403 OA 
HETATM    2  C   UNL     1     -10.631  10.645  69.223  1.00  0.00    -0.233 C  
HETATM    3  H   UNL     1      -9.215  11.154  70.488  1.00  0.00     0.000 HD 
ENDROOT
BRANCH   2   4
HETATM    4  C   UNL     1     -11.317   9.716  70.256  1.00  0.00    -0.257 C  
BRANCH   4   5
HETATM    5  N   UNL     1     -10.530   8.508  70.704  1.00  0.00    -0.197 NA 
BRANCH   5   6
HETATM    6  C   UNL     1     -11.225   7.279  70.169  1.00  0.00    -0.239 C  
HETATM    7  O   UNL     1      -9.166   6.886  68.982  1.00  0.00    -0.138 OA 
HETATM    8  C   UNL     1     -10.505   6.681  68.963  1.00  0.00    -0.214 C  
HETATM    9  O   UNL     1     -11.067   6.056  68.077  1.00  0.00    -0.304 OA 
ENDBRANCH   5   6
BRANCH   5  10
HETATM   10  C   UNL     1     -10.569   8.441  72.207  1.00  0.00    -0.342 C  
HETATM   11  O   UNL     1      -8.210   8.879  72.088  1.00  0.00    -0.373 OA 
HETATM   12  O   UNL     1      -8.961   7.730  73.892  1.00  0.00    -0.253 OA 
HETATM   13  C   UNL     1      -9.178   8.285  72.824  1.00  0.00    -0.266 C  
ENDBRANCH   5  10
ENDBRANCH   4   5
ENDBRANCH   2   4
BRANCH   2  14
HETATM   14  C   UNL     1     -10.705  10.063  67.778  1.00  0.00    -0.280 C  
BRANCH  14  15
HETATM   15  N   UNL     1     -10.827  11.040  66.638  1.00  0.00    -0.252 NA 
BRANCH  15  16
HETATM   16  C   UNL     1     -11.317  12.354  67.202  1.00  0.00    -0.329 C  
HETATM   17  C   UNL     1     -12.039  13.211  66.167  1.00  0.00    -0.417 C  
HETATM   18  O   UNL     1     -12.665  12.469  65.218  1.00  0.00    -0.654 OA 
HETATM   19  O   UNL     1     -12.109  14.428  66.213  1.00  0.00    -0.409 OA 
ENDBRANCH  15  16
BRANCH  15  20
HETATM   20  C   UNL     1      -9.433  11.300  66.091  1.00  0.00    -0.208 C  
HETATM   21  C   UNL     1      -9.163  10.598  64.760  1.00  0.00    -0.220 C  
HETATM   22  O   UNL     1     -10.281  10.412  64.017  1.00  0.00    -0.269 OA 
HETATM   23  O   UNL     1      -8.053  10.280  64.373  1.00  0.00    -0.163 OA 
ENDBRANCH  15  20
ENDBRANCH  14  15
ENDBRANCH   2  14
TORSDOF 8
ENDMDL
MODEL      141
REMARK 921   NORMALIZED FREE ENERGY PREDICTED BY IDOCK:   -4.30 KCAL/MOL
REMARK 922        TOTAL FREE ENERGY PREDICTED BY IDOCK:   -7.65 KCAL/MOL
REMARK 923 INTER-LIGAND FREE ENERGY PREDICTED BY IDOCK:   -6.53 KCAL/MOL
REMARK 924 INTRA-LIGAND FREE ENERGY PREDICTED BY IDOCK:   -1.12 KCAL/MOL
REMARK 927      BINDING AFFINITY PREDICTED BY RF-SCORE:    0.00 PKD
ROOT
HETATM    1  O   UNL     1      -9.910  12.625  68.673  1.00  0.00    -0.362 OA 
HETATM    2  C   UNL     1      -9.524  11.514  67.857  1.00  0.00    -0.178 C  
HETATM    3  H   UNL     1      -9.278  13.328  68.573  1.00  0.00     0.000 HD 
ENDROOT
BRANCH   2   4
HETATM    4  C   UNL     1      -9.432  12.005  66.390  1.00  0.00    -0.231 C  
BRANCH   4   5
HETATM    5  N   UNL     1     -10.361  13.127  65.996  1.00  0.00    -0.282 NA 
BRANCH   5   6
HETATM    6  C   UNL     1     -10.937  12.796  64.639  1.00  0.00    -0.327 C  
HETATM    7  O   UNL     1     -12.969  13.764  65.496  1.00  0.00    -0.651 OA 
HETATM    8  C   UNL     1     -12.462  12.863  64.621  1.00  0.00    -0.434 C  
HETATM    9  O   UNL     1     -13.162  12.195  63.878  1.00  0.00    -0.748 OA 
ENDBRANCH   5   6
BRANCH   5  10
HETATM   10  C   UNL     1      -9.555  14.391  65.857  1.00  0.00    -0.220 C  
HETATM   11  O   UNL     1     -11.003  15.264  67.563  1.00  0.00    -0.301 OA 
HETATM   12  O   UNL     1     -10.087  16.753  66.119  1.00  0.00    -0.318 OA 
HETATM   13  C   UNL     1     -10.243  15.599  66.494  1.00  0.00    -0.283 C  
ENDBRANCH   5  10
ENDBRANCH   4   5
ENDBRANCH   2   4
BRANCH   2  14
HETATM   14  C   UNL     1     -10.561  10.361  68.020  1.00  0.00    -0.221 C  
BRANCH  14  15
HETATM   15  N   UNL     1     -10.117   9.123  68.755  1.00  0.00    -0.191 NA 
BRANCH  15  16
HETATM   16  C   UNL     1     -10.376   7.933  67.860  1.00  0.00    -0.221 C  
HETATM   17  C   UNL     1     -10.565   6.635  68.638  1.00  0.00    -0.234 C  
HETATM   18  O   UNL     1     -11.101   6.837  69.870  1.00  0.00    -0.279 OA 
HETATM   19  O   UNL     1     -10.326   5.525  68.191  1.00  0.00    -0.185 OA 
ENDBRANCH  15  16
BRANCH  15  20
HETATM   20  C   UNL     1      -8.610   9.202  68.941  1.00  0.00    -0.131 C  
HETATM   21  C   UNL     1      -8.191   9.449  70.391  1.00  0.00    -0.188 C  
HETATM   22  O   UNL     1      -9.074   8.957  71.294  1.00  0.00    -0.217 OA 
HETATM   23  O   UNL     1      -7.145   9.984  70.713  1.00  0.00    -0.324 OA 
ENDBRANCH  15  20
ENDBRANCH  14  15
ENDBRANCH   2  14
TORSDOF 8
ENDMDL
MODEL      142
REMARK 921   NORMALIZED FREE ENERGY PREDICTED BY IDOCK:   -4.28 KCAL/MOL
REMARK 922        TOTAL FREE ENERGY PREDICTED BY IDOCK:   -7.61 KCAL/MOL
REMARK 923 INTER-LIGAND FREE ENERGY PREDICTED BY IDOCK:   -6.88 KCAL/MOL
REMARK 924 INTRA-LIGAND FREE ENERGY PREDICTED BY IDOCK:   -0.74 KCAL/MOL
REMARK 927      BINDING AFFINITY PREDICTED BY RF-SCORE:    0.00 PKD
ROOT
HETATM    1  O   UNL     1     -12.228  12.383  66.921  1.00  0.00    -0.527 OA 
HETATM    2  C   UNL     1     -10.969  12.945  67.306  1.00  0.00    -0.261 C  
HETATM    3  H   UNL     1     -12.161  11.436  66.902  1.00  0.00     0.000 HD 
ENDROOT
BRANCH   2   4
HETATM    4  C   UNL     1     -10.589  12.366  68.692  1.00  0.00    -0.218 C  
BRANCH   4   5
HETATM    5  N   UNL     1      -9.772  11.096  68.690  1.00  0.00    -0.196 NA 
BRANCH   5   6
HETATM    6  C   UNL     1      -9.033  11.024  67.375  1.00  0.00    -0.141 C  
HETATM    7  O   UNL     1      -7.103  10.522  68.726  1.00  0.00    -0.065 OA 
HETATM    8  C   UNL     1      -7.517  11.064  67.556  1.00  0.00    -0.102 C  
HETATM    9  O   UNL     1      -6.746  11.513  66.724  1.00  0.00    -0.140 OA 
ENDBRANCH   5   6
BRANCH   5  10
HETATM   10  C   UNL     1     -10.712   9.922  68.754  1.00  0.00    -0.220 C  
HETATM   11  O   UNL     1      -9.656   9.448  70.859  1.00  0.00    -0.267 OA 
HETATM   12  O   UNL     1     -10.544   7.696  69.727  1.00  0.00    -0.237 OA 
HETATM   13  C   UNL     1     -10.291   8.890  69.802  1.00  0.00    -0.207 C  
ENDBRANCH   5  10
ENDBRANCH   4   5
ENDBRANCH   2   4
BRANCH   2  14
HETATM   14  C   UNL     1     -11.079  14.501  67.337  1.00  0.00    -0.314 C  
BRANCH  14  15
HETATM   15  N   UNL     1     -10.764  15.247  66.067  1.00  0.00    -0.312 NA 
BRANCH  15  16
HETATM   16  C   UNL     1      -9.320  15.690  66.134  1.00  0.00    -0.347 C  
HETATM   17  C   UNL     1      -9.169  17.203  66.258  1.00  0.00    -0.231 C  
HETATM   18  O   UNL     1     -10.210  17.781  66.910  1.00  0.00    -0.320 OA 
HETATM   19  O   UNL     1      -8.194  17.829  65.876  1.00  0.00    -0.525 OA 
ENDBRANCH  15  16
BRANCH  15  20
HETATM   20  C   UNL     1     -10.860  14.266  64.909  1.00  0.00    -0.416 C  
HETATM   21  C   UNL     1     -12.041  14.541  63.978  1.00  0.00    -0.240 C  
HETATM   22  O   UNL     1     -12.396  15.848  63.937  1.00  0.00    -0.776 OA 
HETATM   23  O   UNL     1     -12.580  13.688  63.296  1.00  0.00    -0.816 OA 
ENDBRANCH  15  20
ENDBRANCH  14  15
ENDBRANCH   2  14
TORSDOF 8
ENDMDL
MODEL      143
REMARK 921   NORMALIZED FREE ENERGY PREDICTED BY IDOCK:   -4.28 KCAL/MOL
REMARK 922        TOTAL FREE ENERGY PREDICTED BY IDOCK:   -7.61 KCAL/MOL
REMARK 923 INTER-LIGAND FREE ENERGY PREDICTED BY IDOCK:   -6.65 KCAL/MOL
REMARK 924 INTRA-LIGAND FREE ENERGY PREDICTED BY IDOCK:   -0.95 KCAL/MOL
REMARK 927      BINDING AFFINITY PREDICTED BY RF-SCORE:    0.00 PKD
ROOT
HETATM    1  O   UNL     1     -11.907  10.296  68.036  1.00  0.00    -0.708 OA 
HETATM    2  C   UNL     1     -11.769  11.407  68.928  1.00  0.00    -0.343 C  
HETATM    3  H   UNL     1     -11.930  10.609  67.139  1.00  0.00     0.000 HD 
ENDROOT
BRANCH   2   4
HETATM    4  C   UNL     1     -10.474  12.169  68.549  1.00  0.00    -0.233 C  
BRANCH   4   5
HETATM    5  N   UNL     1     -10.647  13.420  67.721  1.00  0.00    -0.242 NA 
BRANCH   5   6
HETATM    6  C   UNL     1     -10.118  13.133  66.336  1.00  0.00    -0.281 C  
HETATM    7  O   UNL     1     -12.394  12.541  65.816  1.00  0.00    -0.627 OA 
HETATM    8  C   UNL     1     -11.098  12.317  65.496  1.00  0.00    -0.307 C  
HETATM    9  O   UNL     1     -10.757  11.556  64.605  1.00  0.00    -0.296 OA 
ENDBRANCH   5   6
BRANCH   5  10
HETATM   10  C   UNL     1      -9.800  14.511  68.320  1.00  0.00    -0.229 C  
HETATM   11  O   UNL     1     -10.946  15.964  66.788  1.00  0.00    -0.271 OA 
HETATM   12  O   UNL     1      -8.861  16.576  67.433  1.00  0.00    -0.188 OA 
HETATM   13  C   UNL     1      -9.789  15.780  67.466  1.00  0.00    -0.229 C  
ENDBRANCH   5  10
ENDBRANCH   4   5
ENDBRANCH   2   4
BRANCH   2  14
HETATM   14  C   UNL     1     -11.731  10.893  70.400  1.00  0.00    -0.350 C  
BRANCH  14  15
HETATM   15  N   UNL     1     -11.492   9.421  70.618  1.00  0.00    -0.274 NA 
BRANCH  15  16
HETATM   16  C   UNL     1     -10.074   9.248  71.114  1.00  0.00    -0.304 C  
HETATM   17  C   UNL     1      -9.217   8.404  70.176  1.00  0.00    -0.159 C  
HETATM   18  O   UNL     1      -9.599   8.513  68.877  1.00  0.00    -0.157 OA 
HETATM   19  O   UNL     1      -8.251   7.750  70.532  1.00  0.00    -0.115 OA 
ENDBRANCH  15  16
BRANCH  15  20
HETATM   20  C   UNL     1     -12.401   8.960  71.746  1.00  0.00    -0.357 C  
HETATM   21  C   UNL     1     -13.136   7.655  71.437  1.00  0.00    -0.296 C  
HETATM   22  O   UNL     1     -12.455   6.846  70.590  1.00  0.00    -0.321 OA 
HETATM   23  O   UNL     1     -14.201   7.341  71.937  1.00  0.00    -0.370 OA 
ENDBRANCH  15  20
ENDBRANCH  14  15
ENDBRANCH   2  14
TORSDOF 8
ENDMDL
MODEL      144
REMARK 921   NORMALIZED FREE ENERGY PREDICTED BY IDOCK:   -4.27 KCAL/MOL
REMARK 922        TOTAL FREE ENERGY PREDICTED BY IDOCK:   -7.59 KCAL/MOL
REMARK 923 INTER-LIGAND FREE ENERGY PREDICTED BY IDOCK:   -6.67 KCAL/MOL
REMARK 924 INTRA-LIGAND FREE ENERGY PREDICTED BY IDOCK:   -0.92 KCAL/MOL
REMARK 927      BINDING AFFINITY PREDICTED BY RF-SCORE:    0.00 PKD
ROOT
HETATM    1  O   UNL     1     -11.798  10.712  67.873  1.00  0.00    -0.738 OA 
HETATM    2  C   UNL     1     -10.834  11.297  66.991  1.00  0.00    -0.280 C  
HETATM    3  H   UNL     1     -12.264  11.400  68.335  1.00  0.00     0.000 HD 
ENDROOT
BRANCH   2   4
HETATM    4  C   UNL     1     -11.584  12.241  66.017  1.00  0.00    -0.393 C  
BRANCH   4   5
HETATM    5  N   UNL     1     -11.326  13.720  66.180  1.00  0.00    -0.308 NA 
BRANCH   5   6
HETATM    6  C   UNL     1     -12.191  14.218  67.313  1.00  0.00    -0.252 C  
HETATM    7  O   UNL     1     -10.215  15.396  68.027  1.00  0.00    -0.231 OA 
HETATM    8  C   UNL     1     -11.371  14.829  68.446  1.00  0.00    -0.299 C  
HETATM    9  O   UNL     1     -11.725  14.834  69.614  1.00  0.00    -0.278 OA 
ENDBRANCH   5   6
BRANCH   5  10
HETATM   10  C   UNL     1     -11.764  14.423  64.923  1.00  0.00    -0.408 C  
HETATM   11  O   UNL     1      -9.788  15.757  65.220  1.00  0.00    -0.375 OA 
HETATM   12  O   UNL     1     -11.523  16.708  64.114  1.00  0.00    -1.131 OA 
HETATM   13  C   UNL     1     -11.044  15.757  64.716  1.00  0.00    -0.400 C  
ENDBRANCH   5  10
ENDBRANCH   4   5
ENDBRANCH   2   4
BRANCH   2  14
HETATM   14  C   UNL     1     -10.068  10.170  66.233  1.00  0.00    -0.238 C  
BRANCH  14  15
HETATM   15  N   UNL     1      -9.306   9.167  67.060  1.00  0.00    -0.143 NA 
BRANCH  15  16
HETATM   16  C   UNL     1     -10.152   7.920  67.175  1.00  0.00    -0.258 C  
HETATM   17  C   UNL     1     -10.433   7.525  68.622  1.00  0.00    -0.183 C  
HETATM   18  O   UNL     1     -10.473   8.595  69.458  1.00  0.00    -0.216 OA 
HETATM   19  O   UNL     1     -10.664   6.385  68.989  1.00  0.00    -0.226 OA 
ENDBRANCH  15  16
BRANCH  15  20
HETATM   20  C   UNL     1      -8.059   8.771  66.286  1.00  0.00    -0.107 C  
HETATM   21  C   UNL     1      -6.814   9.555  66.700  1.00  0.00    -0.084 C  
HETATM   22  O   UNL     1      -6.845   9.965  67.991  1.00  0.00    -0.070 OA 
HETATM   23  O   UNL     1      -5.861   9.752  65.967  1.00  0.00    -0.058 OA 
ENDBRANCH  15  20
ENDBRANCH  14  15
ENDBRANCH   2  14
TORSDOF 8
ENDMDL
MODEL      145
REMARK 921   NORMALIZED FREE ENERGY PREDICTED BY IDOCK:   -4.25 KCAL/MOL
REMARK 922        TOTAL FREE ENERGY PREDICTED BY IDOCK:   -7.57 KCAL/MOL
REMARK 923 INTER-LIGAND FREE ENERGY PREDICTED BY IDOCK:   -6.80 KCAL/MOL
REMARK 924 INTRA-LIGAND FREE ENERGY PREDICTED BY IDOCK:   -0.77 KCAL/MOL
REMARK 927      BINDING AFFINITY PREDICTED BY RF-SCORE:    0.00 PKD
ROOT
HETATM    1  O   UNL     1      -7.513  14.786  68.763  1.00  0.00    -0.118 OA 
HETATM    2  C   UNL     1      -8.513  14.399  67.814  1.00  0.00    -0.173 C  
HETATM    3  H   UNL     1      -7.467  14.139  69.458  1.00  0.00     0.000 HD 
ENDROOT
BRANCH   2   4
HETATM    4  C   UNL     1      -8.142  12.996  67.271  1.00  0.00    -0.161 C  
BRANCH   4   5
HETATM    5  N   UNL     1      -9.280  12.018  67.102  1.00  0.00    -0.184 NA 
BRANCH   5   6
HETATM    6  C   UNL     1      -8.683  10.645  66.898  1.00  0.00    -0.132 C  
HETATM    7  O   UNL     1     -10.373   9.909  68.448  1.00  0.00    -0.180 OA 
HETATM    8  C   UNL     1      -9.135   9.650  67.964  1.00  0.00    -0.125 C  
HETATM    9  O   UNL     1      -8.466   8.697  68.330  1.00  0.00    -0.128 OA 
ENDBRANCH   5   6
BRANCH   5  10
HETATM   10  C   UNL     1     -10.040  12.378  65.853  1.00  0.00    -0.253 C  
HETATM   11  O   UNL     1     -11.958  12.492  67.294  1.00  0.00    -0.474 OA 
HETATM   12  O   UNL     1     -12.327  11.987  65.115  1.00  0.00    -0.423 OA 
HETATM   13  C   UNL     1     -11.553  12.242  66.027  1.00  0.00    -0.393 C  
ENDBRANCH   5  10
ENDBRANCH   4   5
ENDBRANCH   2   4
BRANCH   2  14
HETATM   14  C   UNL     1      -8.589  15.461  66.674  1.00  0.00    -0.283 C  
BRANCH  14  15
HETATM   15  N   UNL     1      -9.923  16.111  66.414  1.00  0.00    -0.281 NA 
BRANCH  15  16
HETATM   16  C   UNL     1     -10.520  15.471  65.182  1.00  0.00    -0.403 C  
HETATM   17  C   UNL     1     -11.522  16.374  64.470  1.00  0.00    -0.073 C  
HETATM   18  O   UNL     1     -11.239  17.693  64.624  1.00  0.00    -0.857 OA 
HETATM   19  O   UNL     1     -12.443  15.968  63.781  1.00  0.00    -0.784 OA 
ENDBRANCH  15  16
BRANCH  15  20
HETATM   20  C   UNL     1     -10.847  15.765  67.570  1.00  0.00    -0.315 C  
HETATM   21  C   UNL     1     -10.785  16.771  68.719  1.00  0.00    -0.341 C  
HETATM   22  O   UNL     1     -10.460  18.023  68.316  1.00  0.00    -0.375 OA 
HETATM   23  O   UNL     1     -11.051  16.498  69.876  1.00  0.00    -0.345 OA 
ENDBRANCH  15  20
ENDBRANCH  14  15
ENDBRANCH   2  14
TORSDOF 8
ENDMDL
MODEL      146
REMARK 921   NORMALIZED FREE ENERGY PREDICTED BY IDOCK:   -4.25 KCAL/MOL
REMARK 922        TOTAL FREE ENERGY PREDICTED BY IDOCK:   -7.57 KCAL/MOL
REMARK 923 INTER-LIGAND FREE ENERGY PREDICTED BY IDOCK:   -6.46 KCAL/MOL
REMARK 924 INTRA-LIGAND FREE ENERGY PREDICTED BY IDOCK:   -1.11 KCAL/MOL
REMARK 927      BINDING AFFINITY PREDICTED BY RF-SCORE:    0.00 PKD
ROOT
HETATM    1  O   UNL     1      -8.434  11.409  69.218  1.00  0.00    -0.374 OA 
HETATM    2  C   UNL     1      -9.553  11.256  68.337  1.00  0.00    -0.195 C  
HETATM    3  H   UNL     1      -8.488  10.765  69.914  1.00  0.00     0.000 HD 
ENDROOT
BRANCH   2   4
HETATM    4  C   UNL     1      -9.537   9.808  67.787  1.00  0.00    -0.135 C  
BRANCH   4   5
HETATM    5  N   UNL     1      -9.856   8.709  68.772  1.00  0.00    -0.168 NA 
BRANCH   5   6
HETATM    6  C   UNL     1     -10.472   7.564  68.004  1.00  0.00    -0.197 C  
HETATM    7  O   UNL     1      -8.274   6.584  68.111  1.00  0.00    -0.115 OA 
HETATM    8  C   UNL     1      -9.421   6.641  67.393  1.00  0.00    -0.129 C  
HETATM    9  O   UNL     1      -9.597   5.994  66.373  1.00  0.00    -0.157 OA 
ENDBRANCH   5   6
BRANCH   5  10
HETATM   10  C   UNL     1     -10.888   9.221  69.741  1.00  0.00    -0.224 C  
HETATM   11  O   UNL     1      -9.078   9.298  71.318  1.00  0.00    -0.264 OA 
HETATM   12  O   UNL     1     -11.167   9.014  72.152  1.00  0.00    -0.351 OA 
HETATM   13  C   UNL     1     -10.417   9.145  71.195  1.00  0.00    -0.315 C  
ENDBRANCH   5  10
ENDBRANCH   4   5
ENDBRANCH   2   4
BRANCH   2  14
HETATM   14  C   UNL     1      -9.465  12.313  67.194  1.00  0.00    -0.196 C  
BRANCH  14  15
HETATM   15  N   UNL     1     -10.755  12.917  66.702  1.00  0.00    -0.263 NA 
BRANCH  15  16
HETATM   16  C   UNL     1     -11.262  12.066  65.561  1.00  0.00    -0.321 C  
HETATM   17  C   UNL     1     -12.389  12.732  64.779  1.00  0.00    -0.478 C  
HETATM   18  O   UNL     1     -12.299  14.087  64.783  1.00  0.00    -0.454 OA 
HETATM   19  O   UNL     1     -13.247  12.125  64.160  1.00  0.00    -0.740 OA 
ENDBRANCH  15  16
BRANCH  15  20
HETATM   20  C   UNL     1     -11.783  12.801  67.816  1.00  0.00    -0.359 C  
HETATM   21  C   UNL     1     -11.912  14.071  68.657  1.00  0.00    -0.354 C  
HETATM   22  O   UNL     1     -11.619  15.200  67.968  1.00  0.00    -0.334 OA 
HETATM   23  O   UNL     1     -12.291  14.083  69.815  1.00  0.00    -0.336 OA 
ENDBRANCH  15  20
ENDBRANCH  14  15
ENDBRANCH   2  14
TORSDOF 8
ENDMDL
MODEL      147
REMARK 921   NORMALIZED FREE ENERGY PREDICTED BY IDOCK:   -4.24 KCAL/MOL
REMARK 922        TOTAL FREE ENERGY PREDICTED BY IDOCK:   -7.56 KCAL/MOL
REMARK 923 INTER-LIGAND FREE ENERGY PREDICTED BY IDOCK:   -7.00 KCAL/MOL
REMARK 924 INTRA-LIGAND FREE ENERGY PREDICTED BY IDOCK:   -0.55 KCAL/MOL
REMARK 927      BINDING AFFINITY PREDICTED BY RF-SCORE:    0.00 PKD
ROOT
HETATM    1  O   UNL     1     -13.218  14.218  65.597  1.00  0.00    -0.630 OA 
HETATM    2  C   UNL     1     -12.015  13.943  66.323  1.00  0.00    -0.434 C  
HETATM    3  H   UNL     1     -13.096  13.988  64.683  1.00  0.00     0.000 HD 
ENDROOT
BRANCH   2   4
HETATM    4  C   UNL     1     -11.678  12.441  66.145  1.00  0.00    -0.400 C  
BRANCH   4   5
HETATM    5  N   UNL     1     -10.292  12.117  65.644  1.00  0.00    -0.249 NA 
BRANCH   5   6
HETATM    6  C   UNL     1      -9.319  13.034  66.347  1.00  0.00    -0.182 C  
HETATM    7  O   UNL     1      -7.958  11.062  66.589  1.00  0.00    -0.144 OA 
HETATM    8  C   UNL     1      -8.258  12.266  67.131  1.00  0.00    -0.179 C  
HETATM    9  O   UNL     1      -7.710  12.697  68.133  1.00  0.00    -0.122 OA 
ENDBRANCH   5   6
BRANCH   5  10
HETATM   10  C   UNL     1     -10.231  12.424  64.171  1.00  0.00    -0.351 C  
HETATM   11  O   UNL     1      -9.569  10.129  63.923  1.00  0.00    -0.291 OA 
HETATM   12  O   UNL     1      -8.856  11.589  62.343  1.00  0.00    -0.318 OA 
HETATM   13  C   UNL     1      -9.462  11.364  63.381  1.00  0.00    -0.277 C  
ENDBRANCH   5  10
ENDBRANCH   4   5
ENDBRANCH   2   4
BRANCH   2  14
HETATM   14  C   UNL     1     -12.215  14.320  67.824  1.00  0.00    -0.164 C  
BRANCH  14  15
HETATM   15  N   UNL     1     -11.585  15.599  68.311  1.00  0.00    -0.353 NA 
BRANCH  15  16
HETATM   16  C   UNL     1     -11.071  15.361  69.712  1.00  0.00    -0.288 C  
HETATM   17  C   UNL     1     -12.028  15.864  70.788  1.00  0.00    -0.378 C  
HETATM   18  O   UNL     1     -13.328  15.816  70.397  1.00  0.00    -0.324 OA 
HETATM   19  O   UNL     1     -11.682  16.213  71.905  1.00  0.00    -0.475 OA 
ENDBRANCH  15  16
BRANCH  15  20
HETATM   20  C   UNL     1     -10.365  15.881  67.448  1.00  0.00    -0.288 C  
HETATM   21  C   UNL     1     -10.344  17.297  66.872  1.00  0.00    -0.310 C  
HETATM   22  O   UNL     1     -10.986  18.201  67.651  1.00  0.00    -0.324 OA 
HETATM   23  O   UNL     1      -9.767  17.603  65.844  1.00  0.00    -0.521 OA 
ENDBRANCH  15  20
ENDBRANCH  14  15
ENDBRANCH   2  14
TORSDOF 8
ENDMDL
MODEL      148
REMARK 921   NORMALIZED FREE ENERGY PREDICTED BY IDOCK:   -4.21 KCAL/MOL
REMARK 922        TOTAL FREE ENERGY PREDICTED BY IDOCK:   -7.52 KCAL/MOL
REMARK 923 INTER-LIGAND FREE ENERGY PREDICTED BY IDOCK:   -6.05 KCAL/MOL
REMARK 924 INTRA-LIGAND FREE ENERGY PREDICTED BY IDOCK:   -1.47 KCAL/MOL
REMARK 927      BINDING AFFINITY PREDICTED BY RF-SCORE:    0.00 PKD
ROOT
HETATM    1  O   UNL     1     -10.883  13.199  65.039  1.00  0.00    -0.292 OA 
HETATM    2  C   UNL     1     -11.465  12.882  66.309  1.00  0.00    -0.348 C  
HETATM    3  H   UNL     1     -11.538  13.603  64.482  1.00  0.00     0.000 HD 
ENDROOT
BRANCH   2   4
HETATM    4  C   UNL     1     -12.018  14.192  66.924  1.00  0.00    -0.449 C  
BRANCH   4   5
HETATM    5  N   UNL     1     -11.014  15.094  67.601  1.00  0.00    -0.300 NA 
BRANCH   5   6
HETATM    6  C   UNL     1     -11.630  15.587  68.889  1.00  0.00    -0.373 C  
HETATM    7  O   UNL     1      -9.363  15.674  69.696  1.00  0.00    -0.280 OA 
HETATM    8  C   UNL     1     -10.657  15.519  70.063  1.00  0.00    -0.324 C  
HETATM    9  O   UNL     1     -11.003  15.366  71.223  1.00  0.00    -0.340 OA 
ENDBRANCH   5   6
BRANCH   5  10
HETATM   10  C   UNL     1     -10.775  16.291  66.718  1.00  0.00    -0.204 C  
HETATM   11  O   UNL     1      -8.789  15.131  66.025  1.00  0.00    -0.198 OA 
HETATM   12  O   UNL     1      -8.761  17.394  65.907  1.00  0.00    -0.522 OA 
HETATM   13  C   UNL     1      -9.339  16.355  66.194  1.00  0.00    -0.325 C  
ENDBRANCH   5  10
ENDBRANCH   4   5
ENDBRANCH   2   4
BRANCH   2  14
HETATM   14  C   UNL     1     -10.390  12.219  67.224  1.00  0.00    -0.214 C  
BRANCH  14  15
HETATM   15  N   UNL     1      -9.923  10.834  66.859  1.00  0.00    -0.193 NA 
BRANCH  15  16
HETATM   16  C   UNL     1      -8.641  10.968  66.068  1.00  0.00    -0.172 C  
HETATM   17  C   UNL     1      -8.744  10.373  64.668  1.00  0.00    -0.187 C  
HETATM   18  O   UNL     1     -10.003  10.438  64.162  1.00  0.00    -0.328 OA 
HETATM   19  O   UNL     1      -7.794   9.942  64.034  1.00  0.00    -0.134 OA 
ENDBRANCH  15  16
BRANCH  15  20
HETATM   20  C   UNL     1      -9.561  10.106  68.144  1.00  0.00    -0.139 C  
HETATM   21  C   UNL     1     -10.356   8.818  68.356  1.00  0.00    -0.204 C  
HETATM   22  O   UNL     1     -10.740   8.230  67.198  1.00  0.00    -0.302 OA 
HETATM   23  O   UNL     1     -10.581   8.332  69.450  1.00  0.00    -0.224 OA 
ENDBRANCH  15  20
ENDBRANCH  14  15
ENDBRANCH   2  14
TORSDOF 8
ENDMDL
MODEL      149
REMARK 921   NORMALIZED FREE ENERGY PREDICTED BY IDOCK:   -4.20 KCAL/MOL
REMARK 922        TOTAL FREE ENERGY PREDICTED BY IDOCK:   -7.50 KCAL/MOL
REMARK 923 INTER-LIGAND FREE ENERGY PREDICTED BY IDOCK:   -6.13 KCAL/MOL
REMARK 924 INTRA-LIGAND FREE ENERGY PREDICTED BY IDOCK:   -1.38 KCAL/MOL
REMARK 927      BINDING AFFINITY PREDICTED BY RF-SCORE:    0.00 PKD
ROOT
HETATM    1  O   UNL     1      -9.539  11.397  66.815  1.00  0.00    -0.183 OA 
HETATM    2  C   UNL     1     -10.769  10.903  67.357  1.00  0.00    -0.257 C  
HETATM    3  H   UNL     1      -9.710  11.839  65.991  1.00  0.00     0.000 HD 
ENDROOT
BRANCH   2   4
HETATM    4  C   UNL     1     -11.732  12.104  67.535  1.00  0.00    -0.315 C  
BRANCH   4   5
HETATM    5  N   UNL     1     -11.418  13.344  66.733  1.00  0.00    -0.328 NA 
BRANCH   5   6
HETATM    6  C   UNL     1     -11.393  14.516  67.684  1.00  0.00    -0.337 C  
HETATM    7  O   UNL     1      -8.998  14.293  67.568  1.00  0.00    -0.179 OA 
HETATM    8  C   UNL     1     -10.029  14.702  68.344  1.00  0.00    -0.227 C  
HETATM    9  O   UNL     1      -9.871  15.193  69.451  1.00  0.00    -0.225 OA 
ENDBRANCH   5   6
BRANCH   5  10
HETATM   10  C   UNL     1     -12.534  13.574  65.749  1.00  0.00    -0.462 C  
HETATM   11  O   UNL     1     -11.153  12.359  64.204  1.00  0.00    -0.318 OA 
HETATM   12  O   UNL     1     -12.599  13.872  63.333  1.00  0.00    -0.853 OA 
HETATM   13  C   UNL     1     -12.105  13.316  64.304  1.00  0.00    -0.416 C  
ENDBRANCH   5  10
ENDBRANCH   4   5
ENDBRANCH   2   4
BRANCH   2  14
HETATM   14  C   UNL     1     -10.489  10.178  68.709  1.00  0.00    -0.204 C  
BRANCH  14  15
HETATM   15  N   UNL     1     -10.180   8.704  68.658  1.00  0.00    -0.191 NA 
BRANCH  15  16
HETATM   16  C   UNL     1     -10.658   8.174  67.326  1.00  0.00    -0.273 C  
HETATM   17  C   UNL     1     -10.884   6.665  67.334  1.00  0.00    -0.363 C  
HETATM   18  O   UNL     1     -11.250   6.198  68.556  1.00  0.00    -0.341 OA 
HETATM   19  O   UNL     1     -10.810   5.955  66.345  1.00  0.00    -0.214 OA 
ENDBRANCH  15  16
BRANCH  15  20
HETATM   20  C   UNL     1      -8.669   8.540  68.669  1.00  0.00    -0.139 C  
HETATM   21  C   UNL     1      -8.117   8.100  70.025  1.00  0.00    -0.114 C  
HETATM   22  O   UNL     1      -8.996   7.364  70.747  1.00  0.00    -0.149 OA 
HETATM   23  O   UNL     1      -6.984   8.336  70.406  1.00  0.00    -0.036 OA 
ENDBRANCH  15  20
ENDBRANCH  14  15
ENDBRANCH   2  14
TORSDOF 8
ENDMDL
MODEL      150
REMARK 921   NORMALIZED FREE ENERGY PREDICTED BY IDOCK:   -4.20 KCAL/MOL
REMARK 922        TOTAL FREE ENERGY PREDICTED BY IDOCK:   -7.50 KCAL/MOL
REMARK 923 INTER-LIGAND FREE ENERGY PREDICTED BY IDOCK:   -6.48 KCAL/MOL
REMARK 924 INTRA-LIGAND FREE ENERGY PREDICTED BY IDOCK:   -1.02 KCAL/MOL
REMARK 927      BINDING AFFINITY PREDICTED BY RF-SCORE:    0.00 PKD
ROOT
HETATM    1  O   UNL     1     -13.043  14.217  65.054  1.00  0.00    -0.728 OA 
HETATM    2  C   UNL     1     -11.746  14.018  65.626  1.00  0.00    -0.354 C  
HETATM    3  H   UNL     1     -13.418  15.023  65.389  1.00  0.00     0.000 HD 
ENDROOT
BRANCH   2   4
HETATM    4  C   UNL     1     -10.873  15.250  65.276  1.00  0.00    -0.403 C  
BRANCH   4   5
HETATM    5  N   UNL     1     -10.266  15.998  66.438  1.00  0.00    -0.291 NA 
BRANCH   5   6
HETATM    6  C   UNL     1      -9.667  17.277  65.903  1.00  0.00    -0.086 C  
HETATM    7  O   UNL     1     -10.744  18.324  67.785  1.00  0.00    -0.411 OA 
HETATM    8  C   UNL     1     -10.302  18.520  66.521  1.00  0.00    -0.414 C  
HETATM    9  O   UNL     1     -10.384  19.596  65.949  1.00  0.00    -0.480 OA 
ENDBRANCH   5   6
BRANCH   5  10
HETATM   10  C   UNL     1      -9.145  15.169  67.008  1.00  0.00    -0.230 C  
HETATM   11  O   UNL     1     -10.323  15.373  69.091  1.00  0.00    -0.217 OA 
HETATM   12  O   UNL     1      -8.078  15.077  69.195  1.00  0.00    -0.176 OA 
HETATM   13  C   UNL     1      -9.099  15.217  68.536  1.00  0.00    -0.191 C  
ENDBRANCH   5  10
ENDBRANCH   4   5
ENDBRANCH   2   4
BRANCH   2  14
HETATM   14  C   UNL     1     -11.131  12.695  65.077  1.00  0.00    -0.291 C  
BRANCH  14  15
HETATM   15  N   UNL     1     -10.671  11.670  66.082  1.00  0.00    -0.269 NA 
BRANCH  15  16
HETATM   16  C   UNL     1      -9.159  11.665  66.083  1.00  0.00    -0.203 C  
HETATM   17  C   UNL     1      -8.570  10.414  65.441  1.00  0.00    -0.174 C  
HETATM   18  O   UNL     1      -9.367   9.898  64.470  1.00  0.00    -0.258 OA 
HETATM   19  O   UNL     1      -7.474   9.953  65.714  1.00  0.00    -0.101 OA 
ENDBRANCH  15  16
BRANCH  15  20
HETATM   20  C   UNL     1     -11.101  12.140  67.462  1.00  0.00    -0.275 C  
HETATM   21  C   UNL     1     -11.596  11.007  68.361  1.00  0.00    -0.302 C  
HETATM   22  O   UNL     1     -11.028   9.811  68.076  1.00  0.00    -0.246 OA 
HETATM   23  O   UNL     1     -12.382  11.163  69.279  1.00  0.00    -0.381 OA 
ENDBRANCH  15  20
ENDBRANCH  14  15
ENDBRANCH   2  14
TORSDOF 8
ENDMDL
MODEL      151
REMARK 921   NORMALIZED FREE ENERGY PREDICTED BY IDOCK:   -4.20 KCAL/MOL
REMARK 922        TOTAL FREE ENERGY PREDICTED BY IDOCK:   -7.49 KCAL/MOL
REMARK 923 INTER-LIGAND FREE ENERGY PREDICTED BY IDOCK:   -6.54 KCAL/MOL
REMARK 924 INTRA-LIGAND FREE ENERGY PREDICTED BY IDOCK:   -0.96 KCAL/MOL
REMARK 927      BINDING AFFINITY PREDICTED BY RF-SCORE:    0.00 PKD
ROOT
HETATM    1  O   UNL     1      -9.695  12.120  64.638  1.00  0.00    -0.428 OA 
HETATM    2  C   UNL     1      -9.587  12.581  65.990  1.00  0.00    -0.202 C  
HETATM    3  H   UNL     1     -10.405  12.577  64.203  1.00  0.00     0.000 HD 
ENDROOT
BRANCH   2   4
HETATM    4  C   UNL     1      -9.353  14.113  65.957  1.00  0.00    -0.075 C  
BRANCH   4   5
HETATM    5  N   UNL     1     -10.574  14.984  66.126  1.00  0.00    -0.299 NA 
BRANCH   5   6
HETATM    6  C   UNL     1     -11.122  15.284  64.751  1.00  0.00    -0.394 C  
HETATM    7  O   UNL     1     -13.039  14.013  65.465  1.00  0.00    -0.713 OA 
HETATM    8  C   UNL     1     -12.310  14.395  64.391  1.00  0.00    -0.403 C  
HETATM    9  O   UNL     1     -12.596  14.076  63.248  1.00  0.00    -0.801 OA 
ENDBRANCH   5   6
BRANCH   5  10
HETATM   10  C   UNL     1     -10.150  16.288  66.747  1.00  0.00    -0.278 C  
HETATM   11  O   UNL     1     -10.547  15.188  68.845  1.00  0.00    -0.226 OA 
HETATM   12  O   UNL     1     -10.768  17.444  68.800  1.00  0.00    -0.309 OA 
HETATM   13  C   UNL     1     -10.539  16.390  68.223  1.00  0.00    -0.318 C  
ENDBRANCH   5  10
ENDBRANCH   4   5
ENDBRANCH   2   4
BRANCH   2  14
HETATM   14  C   UNL     1      -8.422  11.831  66.705  1.00  0.00    -0.153 C  
BRANCH  14  15
HETATM   15  N   UNL     1      -8.756  11.048  67.948  1.00  0.00    -0.130 NA 
BRANCH  15  16
HETATM   16  C   UNL     1      -7.641  11.262  68.946  1.00  0.00    -0.126 C  
HETATM   17  C   UNL     1      -7.270   9.990  69.702  1.00  0.00    -0.119 C  
HETATM   18  O   UNL     1      -7.478   8.866  68.969  1.00  0.00    -0.072 OA 
HETATM   19  O   UNL     1      -6.778   9.974  70.818  1.00  0.00    -0.260 OA 
ENDBRANCH  15  16
BRANCH  15  20
HETATM   20  C   UNL     1     -10.007  11.654  68.563  1.00  0.00    -0.194 C  
HETATM   21  C   UNL     1     -11.168  10.666  68.673  1.00  0.00    -0.278 C  
HETATM   22  O   UNL     1     -10.765   9.380  68.810  1.00  0.00    -0.220 OA 
HETATM   23  O   UNL     1     -12.341  10.996  68.691  1.00  0.00    -0.539 OA 
ENDBRANCH  15  20
ENDBRANCH  14  15
ENDBRANCH   2  14
TORSDOF 8
ENDMDL
MODEL      152
REMARK 921   NORMALIZED FREE ENERGY PREDICTED BY IDOCK:   -4.19 KCAL/MOL
REMARK 922        TOTAL FREE ENERGY PREDICTED BY IDOCK:   -7.49 KCAL/MOL
REMARK 923 INTER-LIGAND FREE ENERGY PREDICTED BY IDOCK:   -6.26 KCAL/MOL
REMARK 924 INTRA-LIGAND FREE ENERGY PREDICTED BY IDOCK:   -1.23 KCAL/MOL
REMARK 927      BINDING AFFINITY PREDICTED BY RF-SCORE:    0.00 PKD
ROOT
HETATM    1  O   UNL     1     -11.739   7.674  70.187  1.00  0.00    -0.483 OA 
HETATM    2  C   UNL     1     -11.852   8.755  71.119  1.00  0.00    -0.295 C  
HETATM    3  H   UNL     1     -11.960   7.981  69.316  1.00  0.00     0.000 HD 
ENDROOT
BRANCH   2   4
HETATM    4  C   UNL     1     -10.909   9.893  70.652  1.00  0.00    -0.330 C  
BRANCH   4   5
HETATM    5  N   UNL     1     -11.570  11.116  70.063  1.00  0.00    -0.321 NA 
BRANCH   5   6
HETATM    6  C   UNL     1     -12.895  11.306  70.762  1.00  0.00    -0.191 C  
HETATM    7  O   UNL     1     -12.194  13.596  71.019  1.00  0.00    -0.351 OA 
HETATM    8  C   UNL     1     -12.955  12.611  71.552  1.00  0.00    -0.282 C  
HETATM    9  O   UNL     1     -13.637  12.768  72.552  1.00  0.00    -0.538 OA 
ENDBRANCH   5   6
BRANCH   5  10
HETATM   10  C   UNL     1     -11.851  10.854  68.607  1.00  0.00    -0.199 C  
HETATM   11  O   UNL     1     -10.451  12.763  68.201  1.00  0.00    -0.222 OA 
HETATM   12  O   UNL     1     -12.043  12.297  66.655  1.00  0.00    -0.612 OA 
HETATM   13  C   UNL     1     -11.491  12.045  67.717  1.00  0.00    -0.325 C  
ENDBRANCH   5  10
ENDBRANCH   4   5
ENDBRANCH   2   4
BRANCH   2  14
HETATM   14  C   UNL     1     -11.488   8.250  72.549  1.00  0.00    -0.384 C  
BRANCH  14  15
HETATM   15  N   UNL     1     -10.214   7.462  72.708  1.00  0.00    -0.215 NA 
BRANCH  15  16
HETATM   16  C   UNL     1      -9.216   8.333  73.435  1.00  0.00    -0.151 C  
HETATM   17  C   UNL     1      -7.835   8.320  72.787  1.00  0.00    -0.126 C  
HETATM   18  O   UNL     1      -7.888   8.119  71.445  1.00  0.00    -0.086 OA 
HETATM   19  O   UNL     1      -6.793   8.531  73.387  1.00  0.00    -0.212 OA 
ENDBRANCH  15  16
BRANCH  15  20
HETATM   20  C   UNL     1     -10.502   6.283  73.623  1.00  0.00    -0.284 C  
HETATM   21  C   UNL     1     -11.014   5.049  72.879  1.00  0.00    -0.277 C  
HETATM   22  O   UNL     1     -10.561   4.968  71.604  1.00  0.00    -0.194 OA 
HETATM   23  O   UNL     1     -11.714   4.192  73.387  1.00  0.00    -0.184 OA 
ENDBRANCH  15  20
ENDBRANCH  14  15
ENDBRANCH   2  14
TORSDOF 8
ENDMDL
MODEL      153
REMARK 921   NORMALIZED FREE ENERGY PREDICTED BY IDOCK:   -4.18 KCAL/MOL
REMARK 922        TOTAL FREE ENERGY PREDICTED BY IDOCK:   -7.47 KCAL/MOL
REMARK 923 INTER-LIGAND FREE ENERGY PREDICTED BY IDOCK:   -5.68 KCAL/MOL
REMARK 924 INTRA-LIGAND FREE ENERGY PREDICTED BY IDOCK:   -1.78 KCAL/MOL
REMARK 927      BINDING AFFINITY PREDICTED BY RF-SCORE:    0.00 PKD
ROOT
HETATM    1  O   UNL     1      -9.775  10.289  70.025  1.00  0.00    -0.395 OA 
HETATM    2  C   UNL     1     -11.161  10.644  70.085  1.00  0.00    -0.302 C  
HETATM    3  H   UNL     1      -9.441  10.164  70.905  1.00  0.00     0.000 HD 
ENDROOT
BRANCH   2   4
HETATM    4  C   UNL     1     -11.914   9.515  70.833  1.00  0.00    -0.295 C  
BRANCH   4   5
HETATM    5  N   UNL     1     -11.099   8.306  71.223  1.00  0.00    -0.244 NA 
BRANCH   5   6
HETATM    6  C   UNL     1     -11.510   7.162  70.327  1.00  0.00    -0.247 C  
HETATM    7  O   UNL     1      -9.337   7.441  69.325  1.00  0.00    -0.154 OA 
HETATM    8  C   UNL     1     -10.608   7.029  69.102  1.00  0.00    -0.219 C  
HETATM    9  O   UNL     1     -10.979   6.574  68.032  1.00  0.00    -0.279 OA 
ENDBRANCH   5   6
BRANCH   5  10
HETATM   10  C   UNL     1     -11.448   7.929  72.639  1.00  0.00    -0.395 C  
HETATM   11  O   UNL     1      -9.091   8.128  73.060  1.00  0.00    -0.239 OA 
HETATM   12  O   UNL     1     -10.265   6.713  74.386  1.00  0.00    -0.360 OA 
HETATM   13  C   UNL     1     -10.224   7.499  73.450  1.00  0.00    -0.343 C  
ENDBRANCH   5  10
ENDBRANCH   4   5
ENDBRANCH   2   4
BRANCH   2  14
HETATM   14  C   UNL     1     -11.711  10.850  68.640  1.00  0.00    -0.263 C  
BRANCH  14  15
HETATM   15  N   UNL     1     -10.716  11.177  67.556  1.00  0.00    -0.220 NA 
BRANCH  15  16
HETATM   16  C   UNL     1     -10.549   9.948  66.692  1.00  0.00    -0.115 C  
HETATM   17  C   UNL     1      -9.087   9.603  66.429  1.00  0.00    -0.156 C  
HETATM   18  O   UNL     1      -8.269   9.979  67.445  1.00  0.00    -0.117 OA 
HETATM   19  O   UNL     1      -8.691   8.997  65.446  1.00  0.00    -0.168 OA 
ENDBRANCH  15  16
BRANCH  15  20
HETATM   20  C   UNL     1     -11.326  12.249  66.667  1.00  0.00    -0.343 C  
HETATM   21  C   UNL     1     -10.444  13.490  66.522  1.00  0.00    -0.284 C  
HETATM   22  O   UNL     1      -9.122  13.223  66.643  1.00  0.00    -0.234 OA 
HETATM   23  O   UNL     1     -10.873  14.601  66.270  1.00  0.00    -0.308 OA 
ENDBRANCH  15  20
ENDBRANCH  14  15
ENDBRANCH   2  14
TORSDOF 8
ENDMDL
MODEL      154
REMARK 921   NORMALIZED FREE ENERGY PREDICTED BY IDOCK:   -4.16 KCAL/MOL
REMARK 922        TOTAL FREE ENERGY PREDICTED BY IDOCK:   -7.44 KCAL/MOL
REMARK 923 INTER-LIGAND FREE ENERGY PREDICTED BY IDOCK:   -6.29 KCAL/MOL
REMARK 924 INTRA-LIGAND FREE ENERGY PREDICTED BY IDOCK:   -1.16 KCAL/MOL
REMARK 927      BINDING AFFINITY PREDICTED BY RF-SCORE:    0.00 PKD
ROOT
HETATM    1  O   UNL     1     -12.119  11.628  68.776  1.00  0.00    -0.402 OA 
HETATM    2  C   UNL     1     -11.473  11.262  67.551  1.00  0.00    -0.246 C  
HETATM    3  H   UNL     1     -12.783  10.983  68.989  1.00  0.00     0.000 HD 
ENDROOT
BRANCH   2   4
HETATM    4  C   UNL     1     -10.867   9.847  67.731  1.00  0.00    -0.264 C  
BRANCH   4   5
HETATM    5  N   UNL     1      -9.426   9.673  67.316  1.00  0.00    -0.141 NA 
BRANCH   5   6
HETATM    6  C   UNL     1      -9.413   9.021  65.954  1.00  0.00    -0.249 C  
HETATM    7  O   UNL     1      -7.719  10.648  65.422  1.00  0.00    -0.133 OA 
HETATM    8  C   UNL     1      -8.704   9.875  64.906  1.00  0.00    -0.176 C  
HETATM    9  O   UNL     1      -8.974   9.852  63.716  1.00  0.00    -0.217 OA 
ENDBRANCH   5   6
BRANCH   5  10
HETATM   10  C   UNL     1      -8.760   8.732  68.284  1.00  0.00    -0.135 C  
HETATM   11  O   UNL     1      -8.010  10.725  69.396  1.00  0.00    -0.140 OA 
HETATM   12  O   UNL     1      -6.729   8.869  69.621  1.00  0.00    -0.044 OA 
HETATM   13  C   UNL     1      -7.710   9.429  69.151  1.00  0.00    -0.079 C  
ENDBRANCH   5  10
ENDBRANCH   4   5
ENDBRANCH   2   4
BRANCH   2  14
HETATM   14  C   UNL     1     -10.382  12.321  67.201  1.00  0.00    -0.218 C  
BRANCH  14  15
HETATM   15  N   UNL     1     -10.784  13.468  66.311  1.00  0.00    -0.286 NA 
BRANCH  15  16
HETATM   16  C   UNL     1      -9.577  14.359  66.127  1.00  0.00    -0.283 C  
HETATM   17  C   UNL     1      -9.914  15.843  66.230  1.00  0.00    -0.298 C  
HETATM   18  O   UNL     1     -10.964  16.085  67.057  1.00  0.00    -0.273 OA 
HETATM   19  O   UNL     1      -9.277  16.731  65.687  1.00  0.00    -0.503 OA 
ENDBRANCH  15  16
BRANCH  15  20
HETATM   20  C   UNL     1     -11.116  12.904  64.939  1.00  0.00    -0.297 C  
HETATM   21  C   UNL     1     -12.601  13.001  64.587  1.00  0.00    -0.362 C  
HETATM   22  O   UNL     1     -13.225  14.046  65.184  1.00  0.00    -0.768 OA 
HETATM   23  O   UNL     1     -13.164  12.253  63.808  1.00  0.00    -0.771 OA 
ENDBRANCH  15  20
ENDBRANCH  14  15
ENDBRANCH   2  14
TORSDOF 8
ENDMDL
MODEL      155
REMARK 921   NORMALIZED FREE ENERGY PREDICTED BY IDOCK:   -4.16 KCAL/MOL
REMARK 922        TOTAL FREE ENERGY PREDICTED BY IDOCK:   -7.44 KCAL/MOL
REMARK 923 INTER-LIGAND FREE ENERGY PREDICTED BY IDOCK:   -6.51 KCAL/MOL
REMARK 924 INTRA-LIGAND FREE ENERGY PREDICTED BY IDOCK:   -0.94 KCAL/MOL
REMARK 927      BINDING AFFINITY PREDICTED BY RF-SCORE:    0.00 PKD
ROOT
HETATM    1  O   UNL     1      -9.458  11.426  68.996  1.00  0.00    -0.385 OA 
HETATM    2  C   UNL     1     -10.596  10.558  69.045  1.00  0.00    -0.222 C  
HETATM    3  H   UNL     1      -9.023  11.332  68.156  1.00  0.00     0.000 HD 
ENDROOT
BRANCH   2   4
HETATM    4  C   UNL     1     -11.532  10.925  67.865  1.00  0.00    -0.266 C  
BRANCH   4   5
HETATM    5  N   UNL     1     -11.271  12.248  67.186  1.00  0.00    -0.288 NA 
BRANCH   5   6
HETATM    6  C   UNL     1     -12.231  13.261  67.762  1.00  0.00    -0.113 C  
HETATM    7  O   UNL     1     -10.273  14.239  68.766  1.00  0.00    -0.231 OA 
HETATM    8  C   UNL     1     -11.610  14.074  68.895  1.00  0.00    -0.315 C  
HETATM    9  O   UNL     1     -12.251  14.554  69.816  1.00  0.00    -0.315 OA 
ENDBRANCH   5   6
BRANCH   5  10
HETATM   10  C   UNL     1     -11.580  12.102  65.720  1.00  0.00    -0.355 C  
HETATM   11  O   UNL     1     -10.140  14.003  65.432  1.00  0.00    -0.332 OA 
HETATM   12  O   UNL     1     -11.766  13.691  63.883  1.00  0.00    -0.389 OA 
HETATM   13  C   UNL     1     -11.205  13.347  64.914  1.00  0.00    -0.331 C  
ENDBRANCH   5  10
ENDBRANCH   4   5
ENDBRANCH   2   4
BRANCH   2  14
HETATM   14  C   UNL     1     -11.310  10.712  70.423  1.00  0.00    -0.304 C  
BRANCH  14  15
HETATM   15  N   UNL     1     -11.278   9.533  71.360  1.00  0.00    -0.375 NA 
BRANCH  15  16
HETATM   16  C   UNL     1     -12.285   8.519  70.869  1.00  0.00    -0.094 C  
HETATM   17  C   UNL     1     -13.473   8.359  71.812  1.00  0.00    -0.364 C  
HETATM   18  O   UNL     1     -13.758   9.499  72.494  1.00  0.00    -0.424 OA 
HETATM   19  O   UNL     1     -14.144   7.344  71.904  1.00  0.00    -0.348 OA 
ENDBRANCH  15  16
BRANCH  15  20
HETATM   20  C   UNL     1      -9.912   8.876  71.241  1.00  0.00    -0.288 C  
HETATM   21  C   UNL     1      -9.436   8.226  72.540  1.00  0.00    -0.286 C  
HETATM   22  O   UNL     1     -10.453   7.797  73.327  1.00  0.00    -0.349 OA 
HETATM   23  O   UNL     1      -8.264   8.057  72.826  1.00  0.00    -0.130 OA 
ENDBRANCH  15  20
ENDBRANCH  14  15
ENDBRANCH   2  14
TORSDOF 8
ENDMDL
MODEL      156
REMARK 921   NORMALIZED FREE ENERGY PREDICTED BY IDOCK:   -4.16 KCAL/MOL
REMARK 922        TOTAL FREE ENERGY PREDICTED BY IDOCK:   -7.44 KCAL/MOL
REMARK 923 INTER-LIGAND FREE ENERGY PREDICTED BY IDOCK:   -6.47 KCAL/MOL
REMARK 924 INTRA-LIGAND FREE ENERGY PREDICTED BY IDOCK:   -0.98 KCAL/MOL
REMARK 927      BINDING AFFINITY PREDICTED BY RF-SCORE:    0.00 PKD
ROOT
HETATM    1  O   UNL     1      -8.090  13.879  66.739  1.00  0.00    -0.385 OA 
HETATM    2  C   UNL     1      -9.090  12.863  66.873  1.00  0.00    -0.224 C  
HETATM    3  H   UNL     1      -8.501  14.735  66.771  1.00  0.00     0.000 HD 
ENDROOT
BRANCH   2   4
HETATM    4  C   UNL     1      -9.836  13.096  68.211  1.00  0.00    -0.227 C  
BRANCH   4   5
HETATM    5  N   UNL     1     -11.225  13.680  68.115  1.00  0.00    -0.262 NA 
BRANCH   5   6
HETATM    6  C   UNL     1     -11.968  13.315  69.378  1.00  0.00    -0.301 C  
HETATM    7  O   UNL     1     -12.140  15.693  69.718  1.00  0.00    -0.361 OA 
HETATM    8  C   UNL     1     -12.094  14.492  70.342  1.00  0.00    -0.322 C  
HETATM    9  O   UNL     1     -12.172  14.371  71.554  1.00  0.00    -0.341 OA 
ENDBRANCH   5   6
BRANCH   5  10
HETATM   10  C   UNL     1     -11.938  13.034  66.958  1.00  0.00    -0.347 C  
HETATM   11  O   UNL     1     -11.454  15.071  65.782  1.00  0.00    -0.327 OA 
HETATM   12  O   UNL     1     -13.284  13.905  65.125  1.00  0.00    -0.768 OA 
HETATM   13  C   UNL     1     -12.324  14.039  65.871  1.00  0.00    -0.486 C  
ENDBRANCH   5  10
ENDBRANCH   4   5
ENDBRANCH   2   4
BRANCH   2  14
HETATM   14  C   UNL     1      -8.416  11.458  66.820  1.00  0.00    -0.165 C  
BRANCH  14  15
HETATM   15  N   UNL     1      -9.119  10.376  66.042  1.00  0.00    -0.158 NA 
BRANCH  15  16
HETATM   16  C   UNL     1      -8.548  10.364  64.642  1.00  0.00    -0.185 C  
HETATM   17  C   UNL     1      -9.614  10.544  63.566  1.00  0.00    -0.326 C  
HETATM   18  O   UNL     1     -10.666  11.290  63.991  1.00  0.00    -0.353 OA 
HETATM   19  O   UNL     1      -9.514  10.124  62.425  1.00  0.00    -0.298 OA 
ENDBRANCH  15  16
BRANCH  15  20
HETATM   20  C   UNL     1      -8.756   9.038  66.666  1.00  0.00    -0.128 C  
HETATM   21  C   UNL     1      -9.416   8.804  68.025  1.00  0.00    -0.143 C  
HETATM   22  O   UNL     1     -10.603   9.443  68.160  1.00  0.00    -0.221 OA 
HETATM   23  O   UNL     1      -8.955   8.077  68.887  1.00  0.00    -0.141 OA 
ENDBRANCH  15  20
ENDBRANCH  14  15
ENDBRANCH   2  14
TORSDOF 8
ENDMDL
MODEL      157
REMARK 921   NORMALIZED FREE ENERGY PREDICTED BY IDOCK:   -4.16 KCAL/MOL
REMARK 922        TOTAL FREE ENERGY PREDICTED BY IDOCK:   -7.44 KCAL/MOL
REMARK 923 INTER-LIGAND FREE ENERGY PREDICTED BY IDOCK:   -6.16 KCAL/MOL
REMARK 924 INTRA-LIGAND FREE ENERGY PREDICTED BY IDOCK:   -1.28 KCAL/MOL
REMARK 927      BINDING AFFINITY PREDICTED BY RF-SCORE:    0.00 PKD
ROOT
HETATM    1  O   UNL     1      -9.206  11.855  64.428  1.00  0.00    -0.419 OA 
HETATM    2  C   UNL     1      -9.304  11.531  65.820  1.00  0.00    -0.221 C  
HETATM    3  H   UNL     1      -8.889  11.100  63.947  1.00  0.00     0.000 HD 
ENDROOT
BRANCH   2   4
HETATM    4  C   UNL     1     -10.254  10.315  65.963  1.00  0.00    -0.228 C  
BRANCH   4   5
HETATM    5  N   UNL     1      -9.716   9.127  66.724  1.00  0.00    -0.191 NA 
BRANCH   5   6
HETATM    6  C   UNL     1      -8.700   9.636  67.719  1.00  0.00    -0.122 C  
HETATM    7  O   UNL     1      -9.840   8.217  69.296  1.00  0.00    -0.178 OA 
HETATM    8  C   UNL     1      -9.101   9.344  69.163  1.00  0.00    -0.148 C  
HETATM    9  O   UNL     1      -8.771  10.036  70.112  1.00  0.00    -0.159 OA 
ENDBRANCH   5   6
BRANCH   5  10
HETATM   10  C   UNL     1      -8.999   8.223  65.757  1.00  0.00    -0.138 C  
HETATM   11  O   UNL     1     -10.106   6.435  66.918  1.00  0.00    -0.160 OA 
HETATM   12  O   UNL     1      -8.129   5.954  65.917  1.00  0.00    -0.108 OA 
HETATM   13  C   UNL     1      -9.001   6.761  66.207  1.00  0.00    -0.152 C  
ENDBRANCH   5  10
ENDBRANCH   4   5
ENDBRANCH   2   4
BRANCH   2  14
HETATM   14  C   UNL     1      -9.825  12.771  66.609  1.00  0.00    -0.250 C  
BRANCH  14  15
HETATM   15  N   UNL     1     -11.205  12.687  67.207  1.00  0.00    -0.282 NA 
BRANCH  15  16
HETATM   16  C   UNL     1     -11.071  12.819  68.707  1.00  0.00    -0.260 C  
HETATM   17  C   UNL     1     -12.060  11.944  69.470  1.00  0.00    -0.226 C  
HETATM   18  O   UNL     1     -12.385  10.811  68.796  1.00  0.00    -0.435 OA 
HETATM   19  O   UNL     1     -12.471  12.191  70.592  1.00  0.00    -0.316 OA 
ENDBRANCH  15  16
BRANCH  15  20
HETATM   20  C   UNL     1     -11.995  13.899  66.739  1.00  0.00    -0.438 C  
HETATM   21  C   UNL     1     -12.579  13.736  65.335  1.00  0.00    -0.497 C  
HETATM   22  O   UNL     1     -12.845  12.447  65.013  1.00  0.00    -0.673 OA 
HETATM   23  O   UNL     1     -12.833  14.668  64.593  1.00  0.00    -0.559 OA 
ENDBRANCH  15  20
ENDBRANCH  14  15
ENDBRANCH   2  14
TORSDOF 8
ENDMDL
MODEL      158
REMARK 921   NORMALIZED FREE ENERGY PREDICTED BY IDOCK:   -4.16 KCAL/MOL
REMARK 922        TOTAL FREE ENERGY PREDICTED BY IDOCK:   -7.43 KCAL/MOL
REMARK 923 INTER-LIGAND FREE ENERGY PREDICTED BY IDOCK:   -6.63 KCAL/MOL
REMARK 924 INTRA-LIGAND FREE ENERGY PREDICTED BY IDOCK:   -0.81 KCAL/MOL
REMARK 927      BINDING AFFINITY PREDICTED BY RF-SCORE:    0.00 PKD
ROOT
HETATM    1  O   UNL     1     -11.110   9.844  67.914  1.00  0.00    -0.445 OA 
HETATM    2  C   UNL     1     -11.852  10.961  68.417  1.00  0.00    -0.122 C  
HETATM    3  H   UNL     1     -10.619  10.109  67.146  1.00  0.00     0.000 HD 
ENDROOT
BRANCH   2   4
HETATM    4  C   UNL     1     -10.851  12.099  68.735  1.00  0.00    -0.228 C  
BRANCH   4   5
HETATM    5  N   UNL     1     -10.745  13.208  67.716  1.00  0.00    -0.236 NA 
BRANCH   5   6
HETATM    6  C   UNL     1     -10.199  14.429  68.417  1.00  0.00    -0.243 C  
HETATM    7  O   UNL     1      -9.055  14.853  66.341  1.00  0.00    -0.278 OA 
HETATM    8  C   UNL     1      -9.009  15.040  67.681  1.00  0.00    -0.178 C  
HETATM    9  O   UNL     1      -8.115  15.660  68.233  1.00  0.00    -0.130 OA 
ENDBRANCH   5   6
BRANCH   5  10
HETATM   10  C   UNL     1     -12.128  13.540  67.224  1.00  0.00    -0.323 C  
HETATM   11  O   UNL     1     -11.503  12.317  65.253  1.00  0.00    -0.331 OA 
HETATM   12  O   UNL     1     -13.065  13.942  65.013  1.00  0.00    -0.749 OA 
HETATM   13  C   UNL     1     -12.284  13.320  65.719  1.00  0.00    -0.456 C  
ENDBRANCH   5  10
ENDBRANCH   4   5
ENDBRANCH   2   4
BRANCH   2  14
HETATM   14  C   UNL     1     -12.659  10.526  69.679  1.00  0.00     0.128 C  
BRANCH  14  15
HETATM   15  N   UNL     1     -12.097  10.895  71.027  1.00  0.00    -0.338 NA 
BRANCH  15  16
HETATM   16  C   UNL     1     -13.199  11.550  71.827  1.00  0.00    -0.351 C  
HETATM   17  C   UNL     1     -13.038  13.063  71.930  1.00  0.00    -0.384 C  
HETATM   18  O   UNL     1     -12.413  13.598  70.850  1.00  0.00    -0.347 OA 
HETATM   19  O   UNL     1     -13.477  13.739  72.846  1.00  0.00    -0.652 OA 
ENDBRANCH  15  16
BRANCH  15  20
HETATM   20  C   UNL     1     -11.741   9.609  71.756  1.00  0.00    -0.285 C  
HETATM   21  C   UNL     1     -10.505   8.912  71.188  1.00  0.00    -0.266 C  
HETATM   22  O   UNL     1      -9.621   9.768  70.621  1.00  0.00    -0.212 OA 
HETATM   23  O   UNL     1     -10.300   7.715  71.277  1.00  0.00    -0.199 OA 
ENDBRANCH  15  20
ENDBRANCH  14  15
ENDBRANCH   2  14
TORSDOF 8
ENDMDL
MODEL      159
REMARK 921   NORMALIZED FREE ENERGY PREDICTED BY IDOCK:   -4.15 KCAL/MOL
REMARK 922        TOTAL FREE ENERGY PREDICTED BY IDOCK:   -7.43 KCAL/MOL
REMARK 923 INTER-LIGAND FREE ENERGY PREDICTED BY IDOCK:   -6.12 KCAL/MOL
REMARK 924 INTRA-LIGAND FREE ENERGY PREDICTED BY IDOCK:   -1.31 KCAL/MOL
REMARK 927      BINDING AFFINITY PREDICTED BY RF-SCORE:    0.00 PKD
ROOT
HETATM    1  O   UNL     1      -8.675  12.725  68.848  1.00  0.00    -0.363 OA 
HETATM    2  C   UNL     1      -9.738  12.711  67.890  1.00  0.00    -0.216 C  
HETATM    3  H   UNL     1      -8.128  11.957  68.728  1.00  0.00     0.000 HD 
ENDROOT
BRANCH   2   4
HETATM    4  C   UNL     1      -9.109  12.667  66.474  1.00  0.00    -0.162 C  
BRANCH   4   5
HETATM    5  N   UNL     1      -9.474  11.483  65.612  1.00  0.00    -0.226 NA 
BRANCH   5   6
HETATM    6  C   UNL     1     -10.900  11.670  65.150  1.00  0.00    -0.288 C  
HETATM    7  O   UNL     1      -9.969  11.603  62.929  1.00  0.00    -0.341 OA 
HETATM    8  C   UNL     1     -10.987  12.082  63.682  1.00  0.00    -0.448 C  
HETATM    9  O   UNL     1     -11.894  12.756  63.220  1.00  0.00    -0.525 OA 
ENDBRANCH   5   6
BRANCH   5  10
HETATM   10  C   UNL     1      -9.425  10.239  66.459  1.00  0.00    -0.171 C  
HETATM   11  O   UNL     1      -7.919   9.401  64.787  1.00  0.00    -0.112 OA 
HETATM   12  O   UNL     1      -9.130   7.877  65.948  1.00  0.00    -0.161 OA 
HETATM   13  C   UNL     1      -8.840   9.041  65.710  1.00  0.00    -0.179 C  
ENDBRANCH   5  10
ENDBRANCH   4   5
ENDBRANCH   2   4
BRANCH   2  14
HETATM   14  C   UNL     1     -10.635  13.971  68.087  1.00  0.00    -0.248 C  
BRANCH  14  15
HETATM   15  N   UNL     1     -10.435  15.125  67.140  1.00  0.00    -0.275 NA 
BRANCH  15  16
HETATM   16  C   UNL     1     -11.627  15.179  66.213  1.00  0.00    -0.080 C  
HETATM   17  C   UNL     1     -11.268  15.660  64.811  1.00  0.00    -0.382 C  
HETATM   18  O   UNL     1      -9.997  15.336  64.456  1.00  0.00     0.000 OA 
HETATM   19  O   UNL     1     -12.047  16.217  64.055  1.00  0.00    -0.928 OA 
ENDBRANCH  15  16
BRANCH  15  20
HETATM   20  C   UNL     1     -10.463  16.410  67.952  1.00  0.00    -0.307 C  
HETATM   21  C   UNL     1      -9.147  17.187  67.904  1.00  0.00    -0.230 C  
HETATM   22  O   UNL     1      -8.455  16.994  66.755  1.00  0.00    -0.202 OA 
HETATM   23  O   UNL     1      -8.775  17.948  68.780  1.00  0.00    -0.279 OA 
ENDBRANCH  15  20
ENDBRANCH  14  15
ENDBRANCH   2  14
TORSDOF 8
ENDMDL
MODEL      160
REMARK 921   NORMALIZED FREE ENERGY PREDICTED BY IDOCK:   -4.14 KCAL/MOL
REMARK 922        TOTAL FREE ENERGY PREDICTED BY IDOCK:   -7.41 KCAL/MOL
REMARK 923 INTER-LIGAND FREE ENERGY PREDICTED BY IDOCK:   -6.31 KCAL/MOL
REMARK 924 INTRA-LIGAND FREE ENERGY PREDICTED BY IDOCK:   -1.10 KCAL/MOL
REMARK 927      BINDING AFFINITY PREDICTED BY RF-SCORE:    0.00 PKD
ROOT
HETATM    1  O   UNL     1     -12.087  12.080  66.659  1.00  0.00    -0.615 OA 
HETATM    2  C   UNL     1     -11.698  12.721  67.878  1.00  0.00    -0.357 C  
HETATM    3  H   UNL     1     -12.827  12.540  66.280  1.00  0.00     0.000 HD 
ENDROOT
BRANCH   2   4
HETATM    4  C   UNL     1     -11.354  14.198  67.556  1.00  0.00    -0.322 C  
BRANCH   4   5
HETATM    5  N   UNL     1     -11.195  15.125  68.736  1.00  0.00    -0.268 NA 
BRANCH   5   6
HETATM    6  C   UNL     1     -12.409  14.964  69.618  1.00  0.00    -0.208 C  
HETATM    7  O   UNL     1     -10.845  15.105  71.444  1.00  0.00    -0.203 OA 
HETATM    8  C   UNL     1     -12.041  14.605  71.056  1.00  0.00    -0.329 C  
HETATM    9  O   UNL     1     -12.760  13.954  71.798  1.00  0.00    -0.329 OA 
ENDBRANCH   5   6
BRANCH   5  10
HETATM   10  C   UNL     1     -11.178  16.544  68.231  1.00  0.00    -0.265 C  
HETATM   11  O   UNL     1      -8.928  16.604  69.070  1.00  0.00    -0.256 OA 
HETATM   12  O   UNL     1     -10.051  18.571  68.974  1.00  0.00    -0.384 OA 
HETATM   13  C   UNL     1     -10.020  17.359  68.810  1.00  0.00    -0.329 C  
ENDBRANCH   5  10
ENDBRANCH   4   5
ENDBRANCH   2   4
BRANCH   2  14
HETATM   14  C   UNL     1     -10.484  11.965  68.501  1.00  0.00    -0.224 C  
BRANCH  14  15
HETATM   15  N   UNL     1     -10.780  10.807  69.417  1.00  0.00    -0.227 NA 
BRANCH  15  16
HETATM   16  C   UNL     1     -12.201  10.955  69.912  1.00  0.00    -0.336 C  
HETATM   17  C   UNL     1     -12.543   9.981  71.034  1.00  0.00    -0.367 C  
HETATM   18  O   UNL     1     -11.465   9.659  71.795  1.00  0.00    -0.365 OA 
HETATM   19  O   UNL     1     -13.670   9.580  71.274  1.00  0.00    -0.336 OA 
ENDBRANCH  15  16
BRANCH  15  20
HETATM   20  C   UNL     1     -10.743   9.532  68.590  1.00  0.00    -0.184 C  
HETATM   21  C   UNL     1      -9.432   8.758  68.726  1.00  0.00    -0.142 C  
HETATM   22  O   UNL     1      -8.826   8.939  69.925  1.00  0.00    -0.138 OA 
HETATM   23  O   UNL     1      -8.993   8.009  67.871  1.00  0.00    -0.130 OA 
ENDBRANCH  15  20
ENDBRANCH  14  15
ENDBRANCH   2  14
TORSDOF 8
ENDMDL
MODEL      161
REMARK 921   NORMALIZED FREE ENERGY PREDICTED BY IDOCK:   -4.13 KCAL/MOL
REMARK 922        TOTAL FREE ENERGY PREDICTED BY IDOCK:   -7.40 KCAL/MOL
REMARK 923 INTER-LIGAND FREE ENERGY PREDICTED BY IDOCK:   -6.40 KCAL/MOL
REMARK 924 INTRA-LIGAND FREE ENERGY PREDICTED BY IDOCK:   -1.00 KCAL/MOL
REMARK 927      BINDING AFFINITY PREDICTED BY RF-SCORE:    0.00 PKD
ROOT
HETATM    1  O   UNL     1     -11.546  14.536  63.995  1.00  0.00    -0.632 OA 
HETATM    2  C   UNL     1     -11.157  14.233  65.339  1.00  0.00    -0.327 C  
HETATM    3  H   UNL     1     -11.471  13.755  63.459  1.00  0.00     0.000 HD 
ENDROOT
BRANCH   2   4
HETATM    4  C   UNL     1     -12.066  13.088  65.856  1.00  0.00    -0.444 C  
BRANCH   4   5
HETATM    5  N   UNL     1     -11.366  11.875  66.419  1.00  0.00    -0.345 NA 
BRANCH   5   6
HETATM    6  C   UNL     1     -10.712  12.281  67.719  1.00  0.00    -0.217 C  
HETATM    7  O   UNL     1     -12.444  10.970  68.759  1.00  0.00    -0.468 OA 
HETATM    8  C   UNL     1     -11.608  12.022  68.927  1.00  0.00    -0.321 C  
HETATM    9  O   UNL     1     -11.563  12.675  69.958  1.00  0.00    -0.239 OA 
ENDBRANCH   5   6
BRANCH   5  10
HETATM   10  C   UNL     1     -10.276  11.465  65.465  1.00  0.00    -0.264 C  
HETATM   11  O   UNL     1     -10.414   9.323  66.544  1.00  0.00    -0.227 OA 
HETATM   12  O   UNL     1      -8.424   9.891  65.617  1.00  0.00    -0.135 OA 
HETATM   13  C   UNL     1      -9.585  10.167  65.886  1.00  0.00    -0.218 C  
ENDBRANCH   5  10
ENDBRANCH   4   5
ENDBRANCH   2   4
BRANCH   2  14
HETATM   14  C   UNL     1     -11.281  15.515  66.219  1.00  0.00    -0.096 C  
BRANCH  14  15
HETATM   15  N   UNL     1     -10.015  16.080  66.809  1.00  0.00    -0.250 NA 
BRANCH  15  16
HETATM   16  C   UNL     1      -8.898  15.098  66.542  1.00  0.00    -0.277 C  
HETATM   17  C   UNL     1      -7.987  14.894  67.748  1.00  0.00    -0.150 C  
HETATM   18  O   UNL     1      -8.636  15.060  68.929  1.00  0.00    -0.172 OA 
HETATM   19  O   UNL     1      -6.817  14.555  67.675  1.00  0.00    -0.168 OA 
ENDBRANCH  15  16
BRANCH  15  20
HETATM   20  C   UNL     1      -9.666  17.347  66.045  1.00  0.00    -0.152 C  
HETATM   21  C   UNL     1     -10.395  18.588  66.563  1.00  0.00    -0.414 C  
HETATM   22  O   UNL     1     -10.697  18.519  67.882  1.00  0.00    -0.385 OA 
HETATM   23  O   UNL     1     -10.637  19.567  65.880  1.00  0.00    -0.504 OA 
ENDBRANCH  15  20
ENDBRANCH  14  15
ENDBRANCH   2  14
TORSDOF 8
ENDMDL
MODEL      162
REMARK 921   NORMALIZED FREE ENERGY PREDICTED BY IDOCK:   -4.11 KCAL/MOL
REMARK 922        TOTAL FREE ENERGY PREDICTED BY IDOCK:   -7.37 KCAL/MOL
REMARK 923 INTER-LIGAND FREE ENERGY PREDICTED BY IDOCK:   -6.25 KCAL/MOL
REMARK 924 INTRA-LIGAND FREE ENERGY PREDICTED BY IDOCK:   -1.11 KCAL/MOL
REMARK 927      BINDING AFFINITY PREDICTED BY RF-SCORE:    0.00 PKD
ROOT
HETATM    1  O   UNL     1      -8.085  12.514  67.721  1.00  0.00    -0.140 OA 
HETATM    2  C   UNL     1      -9.159  13.368  68.130  1.00  0.00    -0.207 C  
HETATM    3  H   UNL     1      -8.118  11.703  68.215  1.00  0.00     0.000 HD 
ENDROOT
BRANCH   2   4
HETATM    4  C   UNL     1     -10.490  12.609  67.903  1.00  0.00    -0.218 C  
BRANCH   4   5
HETATM    5  N   UNL     1     -10.692  11.348  68.709  1.00  0.00    -0.195 NA 
BRANCH   5   6
HETATM    6  C   UNL     1     -11.151  10.263  67.764  1.00  0.00    -0.269 C  
HETATM    7  O   UNL     1      -8.864   9.512  67.846  1.00  0.00    -0.120 OA 
HETATM    8  C   UNL     1      -9.984   9.549  67.086  1.00  0.00    -0.204 C  
HETATM    9  O   UNL     1     -10.053   9.036  65.980  1.00  0.00    -0.278 OA 
ENDBRANCH   5   6
BRANCH   5  10
HETATM   10  C   UNL     1     -11.795  11.587  69.705  1.00  0.00    -0.357 C  
HETATM   11  O   UNL     1     -10.695   9.908  71.025  1.00  0.00    -0.309 OA 
HETATM   12  O   UNL     1     -12.928  10.161  71.321  1.00  0.00    -0.358 OA 
HETATM   13  C   UNL     1     -11.893  10.475  70.751  1.00  0.00    -0.365 C  
ENDBRANCH   5  10
ENDBRANCH   4   5
ENDBRANCH   2   4
BRANCH   2  14
HETATM   14  C   UNL     1      -9.104  14.699  67.320  1.00  0.00    -0.206 C  
BRANCH  14  15
HETATM   15  N   UNL     1      -9.616  15.947  67.991  1.00  0.00    -0.210 NA 
BRANCH  15  16
HETATM   16  C   UNL     1      -9.646  15.694  69.481  1.00  0.00    -0.279 C  
HETATM   17  C   UNL     1     -11.033  15.885  70.088  1.00  0.00    -0.364 C  
HETATM   18  O   UNL     1     -12.031  15.601  69.211  1.00  0.00    -0.365 OA 
HETATM   19  O   UNL     1     -11.237  16.195  71.250  1.00  0.00    -0.323 OA 
ENDBRANCH  15  16
BRANCH  15  20
HETATM   20  C   UNL     1      -8.600  17.055  67.763  1.00  0.00    -0.213 C  
HETATM   21  C   UNL     1      -8.756  17.751  66.411  1.00  0.00    -0.228 C  
HETATM   22  O   UNL     1     -10.029  17.739  65.948  1.00  0.00    -0.527 OA 
HETATM   23  O   UNL     1      -7.846  18.310  65.826  1.00  0.00    -0.517 OA 
ENDBRANCH  15  20
ENDBRANCH  14  15
ENDBRANCH   2  14
TORSDOF 8
ENDMDL
MODEL      163
REMARK 921   NORMALIZED FREE ENERGY PREDICTED BY IDOCK:   -4.10 KCAL/MOL
REMARK 922        TOTAL FREE ENERGY PREDICTED BY IDOCK:   -7.35 KCAL/MOL
REMARK 923 INTER-LIGAND FREE ENERGY PREDICTED BY IDOCK:   -6.09 KCAL/MOL
REMARK 924 INTRA-LIGAND FREE ENERGY PREDICTED BY IDOCK:   -1.26 KCAL/MOL
REMARK 927      BINDING AFFINITY PREDICTED BY RF-SCORE:    0.00 PKD
ROOT
HETATM    1  O   UNL     1      -9.642  11.743  64.189  1.00  0.00    -0.412 OA 
HETATM    2  C   UNL     1      -9.318  11.539  65.569  1.00  0.00    -0.185 C  
HETATM    3  H   UNL     1      -9.335  11.004  63.677  1.00  0.00     0.000 HD 
ENDROOT
BRANCH   2   4
HETATM    4  C   UNL     1      -9.971  10.210  66.024  1.00  0.00    -0.256 C  
BRANCH   4   5
HETATM    5  N   UNL     1      -9.031   9.076  66.355  1.00  0.00    -0.147 NA 
BRANCH   5   6
HETATM    6  C   UNL     1      -9.527   8.418  67.620  1.00  0.00    -0.149 C  
HETATM    7  O   UNL     1      -9.905   6.493  66.223  1.00  0.00    -0.100 OA 
HETATM    8  C   UNL     1     -10.312   7.138  67.341  1.00  0.00    -0.254 C  
HETATM    9  O   UNL     1     -11.201   6.716  68.063  1.00  0.00    -0.239 OA 
ENDBRANCH   5   6
BRANCH   5  10
HETATM   10  C   UNL     1      -7.669   9.651  66.640  1.00  0.00    -0.098 C  
HETATM   11  O   UNL     1      -6.829   7.611  65.691  1.00  0.00    -0.048 OA 
HETATM   12  O   UNL     1      -5.521   8.659  67.217  1.00  0.00    -0.037 OA 
HETATM   13  C   UNL     1      -6.562   8.597  66.577  1.00  0.00    -0.063 C  
ENDBRANCH   5  10
ENDBRANCH   4   5
ENDBRANCH   2   4
BRANCH   2  14
HETATM   14  C   UNL     1      -9.823  12.753  66.408  1.00  0.00    -0.269 C  
BRANCH  14  15
HETATM   15  N   UNL     1     -11.141  12.605  67.123  1.00  0.00    -0.268 NA 
BRANCH  15  16
HETATM   16  C   UNL     1     -10.888  12.776  68.604  1.00  0.00    -0.253 C  
HETATM   17  C   UNL     1     -11.903  12.034  69.468  1.00  0.00    -0.326 C  
HETATM   18  O   UNL     1     -12.385  10.916  68.866  1.00  0.00    -0.486 OA 
HETATM   19  O   UNL     1     -12.207  12.361  70.603  1.00  0.00    -0.368 OA 
ENDBRANCH  15  16
BRANCH  15  20
HETATM   20  C   UNL     1     -12.035  13.760  66.703  1.00  0.00    -0.431 C  
HETATM   21  C   UNL     1     -12.563  13.630  65.274  1.00  0.00    -0.469 C  
HETATM   22  O   UNL     1     -12.691  12.344  64.867  1.00  0.00    -0.620 OA 
HETATM   23  O   UNL     1     -12.890  14.578  64.582  1.00  0.00    -0.614 OA 
ENDBRANCH  15  20
ENDBRANCH  14  15
ENDBRANCH   2  14
TORSDOF 8
ENDMDL
MODEL      164
REMARK 921   NORMALIZED FREE ENERGY PREDICTED BY IDOCK:   -4.10 KCAL/MOL
REMARK 922        TOTAL FREE ENERGY PREDICTED BY IDOCK:   -7.35 KCAL/MOL
REMARK 923 INTER-LIGAND FREE ENERGY PREDICTED BY IDOCK:   -7.02 KCAL/MOL
REMARK 924 INTRA-LIGAND FREE ENERGY PREDICTED BY IDOCK:   -0.33 KCAL/MOL
REMARK 927      BINDING AFFINITY PREDICTED BY RF-SCORE:    0.00 PKD
ROOT
HETATM    1  O   UNL     1     -13.564  14.129  65.586  1.00  0.00    -0.671 OA 
HETATM    2  C   UNL     1     -12.251  13.872  66.098  1.00  0.00    -0.464 C  
HETATM    3  H   UNL     1     -13.583  13.945  64.655  1.00  0.00     0.000 HD 
ENDROOT
BRANCH   2   4
HETATM    4  C   UNL     1     -11.897  12.395  65.794  1.00  0.00    -0.406 C  
BRANCH   4   5
HETATM    5  N   UNL     1     -10.571  11.898  66.320  1.00  0.00    -0.244 NA 
BRANCH   5   6
HETATM    6  C   UNL     1     -10.049  10.864  65.351  1.00  0.00    -0.277 C  
HETATM    7  O   UNL     1      -9.678  12.733  63.878  1.00  0.00    -0.178 OA 
HETATM    8  C   UNL     1      -9.933  11.404  63.928  1.00  0.00    -0.315 C  
HETATM    9  O   UNL     1     -10.034  10.710  62.929  1.00  0.00    -0.300 OA 
ENDBRANCH   5   6
BRANCH   5  10
HETATM   10  C   UNL     1     -10.806  11.215  67.640  1.00  0.00    -0.247 C  
HETATM   11  O   UNL     1      -8.938  12.511  68.415  1.00  0.00    -0.189 OA 
HETATM   12  O   UNL     1      -9.333  10.538  69.458  1.00  0.00    -0.169 OA 
HETATM   13  C   UNL     1      -9.616  11.354  68.592  1.00  0.00    -0.173 C  
ENDBRANCH   5  10
ENDBRANCH   4   5
ENDBRANCH   2   4
BRANCH   2  14
HETATM   14  C   UNL     1     -12.220  14.174  67.628  1.00  0.00    -0.196 C  
BRANCH  14  15
HETATM   15  N   UNL     1     -11.568  15.458  68.072  1.00  0.00    -0.331 NA 
BRANCH  15  16
HETATM   16  C   UNL     1     -10.952  15.221  69.432  1.00  0.00    -0.271 C  
HETATM   17  C   UNL     1     -11.831  15.715  70.576  1.00  0.00    -0.373 C  
HETATM   18  O   UNL     1     -13.155  15.658  70.281  1.00  0.00    -0.301 OA 
HETATM   19  O   UNL     1     -11.407  16.064  71.666  1.00  0.00    -0.361 OA 
ENDBRANCH  15  16
BRANCH  15  20
HETATM   20  C   UNL     1     -10.417  15.753  67.124  1.00  0.00    -0.309 C  
HETATM   21  C   UNL     1     -10.353  17.216  66.685  1.00  0.00    -0.310 C  
HETATM   22  O   UNL     1     -10.857  18.073  67.606  1.00  0.00    -0.390 OA 
HETATM   23  O   UNL     1      -9.853  17.589  65.639  1.00  0.00    -0.543 OA 
ENDBRANCH  15  20
ENDBRANCH  14  15
ENDBRANCH   2  14
TORSDOF 8
ENDMDL
MODEL      165
REMARK 921   NORMALIZED FREE ENERGY PREDICTED BY IDOCK:   -4.10 KCAL/MOL
REMARK 922        TOTAL FREE ENERGY PREDICTED BY IDOCK:   -7.35 KCAL/MOL
REMARK 923 INTER-LIGAND FREE ENERGY PREDICTED BY IDOCK:   -6.50 KCAL/MOL
REMARK 924 INTRA-LIGAND FREE ENERGY PREDICTED BY IDOCK:   -0.85 KCAL/MOL
REMARK 927      BINDING AFFINITY PREDICTED BY RF-SCORE:    0.00 PKD
ROOT
HETATM    1  O   UNL     1     -10.092   9.009  65.932  1.00  0.00    -0.418 OA 
HETATM    2  C   UNL     1     -10.322   9.934  67.001  1.00  0.00    -0.239 C  
HETATM    3  H   UNL     1     -10.401   9.384  65.116  1.00  0.00     0.000 HD 
ENDROOT
BRANCH   2   4
HETATM    4  C   UNL     1      -9.590  11.256  66.658  1.00  0.00    -0.195 C  
BRANCH   4   5
HETATM    5  N   UNL     1     -10.454  12.405  66.197  1.00  0.00    -0.243 NA 
BRANCH   5   6
HETATM    6  C   UNL     1     -10.796  13.241  67.407  1.00  0.00    -0.267 C  
HETATM    7  O   UNL     1     -10.867  15.082  65.857  1.00  0.00    -0.318 OA 
HETATM    8  C   UNL     1     -10.638  14.737  67.145  1.00  0.00    -0.285 C  
HETATM    9  O   UNL     1     -10.358  15.551  68.011  1.00  0.00    -0.240 OA 
ENDBRANCH   5   6
BRANCH   5  10
HETATM   10  C   UNL     1     -11.739  11.847  65.646  1.00  0.00    -0.145 C  
HETATM   11  O   UNL     1     -10.761  12.260  63.491  1.00  0.00    -0.429 OA 
HETATM   12  O   UNL     1     -13.024  12.287  63.625  1.00  0.00    -0.777 OA 
HETATM   13  C   UNL     1     -11.932  12.171  64.164  1.00  0.00    -0.408 C  
ENDBRANCH   5  10
ENDBRANCH   4   5
ENDBRANCH   2   4
BRANCH   2  14
HETATM   14  C   UNL     1      -9.815   9.320  68.342  1.00  0.00    -0.155 C  
BRANCH  14  15
HETATM   15  N   UNL     1     -10.808   9.183  69.466  1.00  0.00    -0.215 NA 
BRANCH  15  16
HETATM   16  C   UNL     1     -10.292   8.128  70.417  1.00  0.00    -0.206 C  
HETATM   17  C   UNL     1     -11.156   6.871  70.434  1.00  0.00    -0.296 C  
HETATM   18  O   UNL     1     -11.767   6.640  69.244  1.00  0.00    -0.189 OA 
HETATM   19  O   UNL     1     -11.245   6.113  71.386  1.00  0.00    -0.279 OA 
ENDBRANCH  15  16
BRANCH  15  20
HETATM   20  C   UNL     1     -10.824  10.491  70.241  1.00  0.00    -0.174 C  
HETATM   21  C   UNL     1     -12.233  10.990  70.560  1.00  0.00    -0.381 C  
HETATM   22  O   UNL     1     -13.140   9.991  70.680  1.00  0.00    -0.290 OA 
HETATM   23  O   UNL     1     -12.513  12.162  70.742  1.00  0.00    -0.347 OA 
ENDBRANCH  15  20
ENDBRANCH  14  15
ENDBRANCH   2  14
TORSDOF 8
ENDMDL
MODEL      166
REMARK 921   NORMALIZED FREE ENERGY PREDICTED BY IDOCK:   -4.09 KCAL/MOL
REMARK 922        TOTAL FREE ENERGY PREDICTED BY IDOCK:   -7.34 KCAL/MOL
REMARK 923 INTER-LIGAND FREE ENERGY PREDICTED BY IDOCK:   -6.22 KCAL/MOL
REMARK 924 INTRA-LIGAND FREE ENERGY PREDICTED BY IDOCK:   -1.12 KCAL/MOL
REMARK 927      BINDING AFFINITY PREDICTED BY RF-SCORE:    0.00 PKD
ROOT
HETATM    1  O   UNL     1     -10.137  14.104  64.682  1.00  0.00    -0.587 OA 
HETATM    2  C   UNL     1     -10.127  13.464  65.963  1.00  0.00    -0.304 C  
HETATM    3  H   UNL     1     -10.549  14.957  64.756  1.00  0.00     0.000 HD 
ENDROOT
BRANCH   2   4
HETATM    4  C   UNL     1      -9.373  14.386  66.954  1.00  0.00    -0.256 C  
BRANCH   4   5
HETATM    5  N   UNL     1     -10.208  15.398  67.700  1.00  0.00    -0.243 NA 
BRANCH   5   6
HETATM    6  C   UNL     1     -11.529  14.750  68.038  1.00  0.00    -0.331 C  
HETATM    7  O   UNL     1     -11.317  15.895  70.145  1.00  0.00    -0.310 OA 
HETATM    8  C   UNL     1     -11.843  14.810  69.530  1.00  0.00    -0.326 C  
HETATM    9  O   UNL     1     -12.523  13.982  70.115  1.00  0.00    -0.344 OA 
ENDBRANCH   5   6
BRANCH   5  10
HETATM   10  C   UNL     1     -10.487  16.559  66.782  1.00  0.00    -0.269 C  
HETATM   11  O   UNL     1      -9.342  17.879  68.430  1.00  0.00    -0.273 OA 
HETATM   12  O   UNL     1     -10.897  18.929  67.159  1.00  0.00    -0.444 OA 
HETATM   13  C   UNL     1     -10.296  17.911  67.471  1.00  0.00    -0.377 C  
ENDBRANCH   5  10
ENDBRANCH   4   5
ENDBRANCH   2   4
BRANCH   2  14
HETATM   14  C   UNL     1      -9.450  12.064  65.841  1.00  0.00    -0.197 C  
BRANCH  14  15
HETATM   15  N   UNL     1      -9.903  10.986  66.790  1.00  0.00    -0.193 NA 
BRANCH  15  16
HETATM   16  C   UNL     1     -11.310  11.317  67.234  1.00  0.00    -0.255 C  
HETATM   17  C   UNL     1     -11.551  11.021  68.710  1.00  0.00    -0.318 C  
HETATM   18  O   UNL     1     -10.428  11.153  69.461  1.00  0.00    -0.164 OA 
HETATM   19  O   UNL     1     -12.643  10.757  69.188  1.00  0.00    -0.312 OA 
ENDBRANCH  15  16
BRANCH  15  20
HETATM   20  C   UNL     1      -9.993   9.682  66.013  1.00  0.00    -0.274 C  
HETATM   21  C   UNL     1      -9.055   8.596  66.540  1.00  0.00    -0.165 C  
HETATM   22  O   UNL     1      -8.800   8.708  67.866  1.00  0.00    -0.136 OA 
HETATM   23  O   UNL     1      -8.619   7.685  65.858  1.00  0.00    -0.140 OA 
ENDBRANCH  15  20
ENDBRANCH  14  15
ENDBRANCH   2  14
TORSDOF 8
ENDMDL
MODEL      167
REMARK 921   NORMALIZED FREE ENERGY PREDICTED BY IDOCK:   -4.09 KCAL/MOL
REMARK 922        TOTAL FREE ENERGY PREDICTED BY IDOCK:   -7.33 KCAL/MOL
REMARK 923 INTER-LIGAND FREE ENERGY PREDICTED BY IDOCK:   -6.25 KCAL/MOL
REMARK 924 INTRA-LIGAND FREE ENERGY PREDICTED BY IDOCK:   -1.08 KCAL/MOL
REMARK 927      BINDING AFFINITY PREDICTED BY RF-SCORE:    0.00 PKD
ROOT
HETATM    1  O   UNL     1      -7.354  12.731  66.807  1.00  0.00    -0.355 OA 
HETATM    2  C   UNL     1      -8.565  12.273  67.419  1.00  0.00    -0.178 C  
HETATM    3  H   UNL     1      -6.669  12.788  67.463  1.00  0.00     0.000 HD 
ENDROOT
BRANCH   2   4
HETATM    4  C   UNL     1      -8.281  10.900  68.079  1.00  0.00    -0.121 C  
BRANCH   4   5
HETATM    5  N   UNL     1      -8.586   9.677  67.247  1.00  0.00    -0.131 NA 
BRANCH   5   6
HETATM    6  C   UNL     1      -8.792   8.516  68.191  1.00  0.00    -0.142 C  
HETATM    7  O   UNL     1     -10.749   8.055  66.866  1.00  0.00    -0.322 OA 
HETATM    8  C   UNL     1     -10.198   7.931  68.097  1.00  0.00    -0.205 C  
HETATM    9  O   UNL     1     -10.768   7.380  69.025  1.00  0.00    -0.209 OA 
ENDBRANCH   5   6
BRANCH   5  10
HETATM   10  C   UNL     1      -7.387   9.368  66.392  1.00  0.00    -0.093 C  
HETATM   11  O   UNL     1      -8.947   9.346  64.565  1.00  0.00    -0.216 OA 
HETATM   12  O   UNL     1      -7.078   8.082  64.347  1.00  0.00    -0.073 OA 
HETATM   13  C   UNL     1      -7.773   8.839  65.009  1.00  0.00    -0.105 C  
ENDBRANCH   5  10
ENDBRANCH   4   5
ENDBRANCH   2   4
BRANCH   2  14
HETATM   14  C   UNL     1      -9.690  12.178  66.343  1.00  0.00    -0.231 C  
BRANCH  14  15
HETATM   15  N   UNL     1     -10.756  13.243  66.353  1.00  0.00    -0.283 NA 
BRANCH  15  16
HETATM   16  C   UNL     1     -10.300  14.349  67.276  1.00  0.00    -0.260 C  
HETATM   17  C   UNL     1     -11.397  14.819  68.226  1.00  0.00    -0.301 C  
HETATM   18  O   UNL     1     -12.276  13.832  68.539  1.00  0.00    -0.348 OA 
HETATM   19  O   UNL     1     -11.453  15.937  68.711  1.00  0.00    -0.357 OA 
ENDBRANCH  15  16
BRANCH  15  20
HETATM   20  C   UNL     1     -10.830  13.847  64.960  1.00  0.00    -0.382 C  
HETATM   21  C   UNL     1     -12.225  13.774  64.340  1.00  0.00    -0.399 C  
HETATM   22  O   UNL     1     -13.220  13.786  65.260  1.00  0.00    -0.755 OA 
HETATM   23  O   UNL     1     -12.435  13.759  63.140  1.00  0.00    -0.786 OA 
ENDBRANCH  15  20
ENDBRANCH  14  15
ENDBRANCH   2  14
TORSDOF 8
ENDMDL
MODEL      168
REMARK 921   NORMALIZED FREE ENERGY PREDICTED BY IDOCK:   -4.08 KCAL/MOL
REMARK 922        TOTAL FREE ENERGY PREDICTED BY IDOCK:   -7.33 KCAL/MOL
REMARK 923 INTER-LIGAND FREE ENERGY PREDICTED BY IDOCK:   -6.40 KCAL/MOL
REMARK 924 INTRA-LIGAND FREE ENERGY PREDICTED BY IDOCK:   -0.93 KCAL/MOL
REMARK 927      BINDING AFFINITY PREDICTED BY RF-SCORE:    0.00 PKD
ROOT
HETATM    1  O   UNL     1     -11.747  12.791  70.021  1.00  0.00    -0.458 OA 
HETATM    2  C   UNL     1     -11.236  12.410  68.739  1.00  0.00    -0.273 C  
HETATM    3  H   UNL     1     -11.595  13.719  70.162  1.00  0.00     0.000 HD 
ENDROOT
BRANCH   2   4
HETATM    4  C   UNL     1     -11.937  13.280  67.665  1.00  0.00    -0.322 C  
BRANCH   4   5
HETATM    5  N   UNL     1     -11.146  14.443  67.118  1.00  0.00    -0.303 NA 
BRANCH   5   6
HETATM    6  C   UNL     1     -11.486  15.662  67.942  1.00  0.00    -0.251 C  
HETATM    7  O   UNL     1      -9.250  15.442  68.810  1.00  0.00    -0.184 OA 
HETATM    8  C   UNL     1     -10.499  15.886  69.085  1.00  0.00    -0.235 C  
HETATM    9  O   UNL     1     -10.791  16.433  70.137  1.00  0.00    -0.331 OA 
ENDBRANCH   5   6
BRANCH   5  10
HETATM   10  C   UNL     1     -11.594  14.704  65.704  1.00  0.00    -0.328 C  
HETATM   11  O   UNL     1      -9.498  15.853  65.465  1.00  0.00    -0.369 OA 
HETATM   12  O   UNL     1     -11.206  16.527  64.137  1.00  0.00    -1.004 OA 
HETATM   13  C   UNL     1     -10.776  15.803  65.023  1.00  0.00    -0.421 C  
ENDBRANCH   5  10
ENDBRANCH   4   5
ENDBRANCH   2   4
BRANCH   2  14
HETATM   14  C   UNL     1     -11.486  10.888  68.509  1.00  0.00    -0.310 C  
BRANCH  14  15
HETATM   15  N   UNL     1     -10.306  10.041  68.108  1.00  0.00    -0.182 NA 
BRANCH  15  16
HETATM   16  C   UNL     1      -9.054  10.867  68.295  1.00  0.00    -0.158 C  
HETATM   17  C   UNL     1      -8.333  11.156  66.983  1.00  0.00    -0.144 C  
HETATM   18  O   UNL     1      -9.180  11.222  65.923  1.00  0.00    -0.204 OA 
HETATM   19  O   UNL     1      -7.135  11.371  66.891  1.00  0.00    -0.128 OA 
ENDBRANCH  15  16
BRANCH  15  20
HETATM   20  C   UNL     1     -10.207   8.881  69.086  1.00  0.00    -0.206 C  
HETATM   21  C   UNL     1     -10.296   7.511  68.412  1.00  0.00    -0.195 C  
HETATM   22  O   UNL     1      -9.836   7.511  67.138  1.00  0.00    -0.168 OA 
HETATM   23  O   UNL     1     -10.688   6.504  68.973  1.00  0.00    -0.225 OA 
ENDBRANCH  15  20
ENDBRANCH  14  15
ENDBRANCH   2  14
TORSDOF 8
ENDMDL
MODEL      169
REMARK 921   NORMALIZED FREE ENERGY PREDICTED BY IDOCK:   -4.08 KCAL/MOL
REMARK 922        TOTAL FREE ENERGY PREDICTED BY IDOCK:   -7.32 KCAL/MOL
REMARK 923 INTER-LIGAND FREE ENERGY PREDICTED BY IDOCK:   -6.15 KCAL/MOL
REMARK 924 INTRA-LIGAND FREE ENERGY PREDICTED BY IDOCK:   -1.17 KCAL/MOL
REMARK 927      BINDING AFFINITY PREDICTED BY RF-SCORE:    0.00 PKD
ROOT
HETATM    1  O   UNL     1     -12.048  15.963  68.533  1.00  0.00    -0.469 OA 
HETATM    2  C   UNL     1     -11.370  14.851  69.128  1.00  0.00    -0.292 C  
HETATM    3  H   UNL     1     -11.595  16.767  68.756  1.00  0.00     0.000 HD 
ENDROOT
BRANCH   2   4
HETATM    4  C   UNL     1      -9.907  14.850  68.616  1.00  0.00    -0.225 C  
BRANCH   4   5
HETATM    5  N   UNL     1      -9.397  16.147  68.035  1.00  0.00    -0.202 NA 
BRANCH   5   6
HETATM    6  C   UNL     1      -9.160  15.931  66.559  1.00  0.00    -0.286 C  
HETATM    7  O   UNL     1     -10.767  17.699  66.254  1.00  0.00    -0.245 OA 
HETATM    8  C   UNL     1     -10.233  16.587  65.695  1.00  0.00    -0.292 C  
HETATM    9  O   UNL     1     -10.566  16.174  64.595  1.00  0.00    -0.597 OA 
ENDBRANCH   5   6
BRANCH   5  10
HETATM   10  C   UNL     1      -8.071  16.468  68.672  1.00  0.00    -0.233 C  
HETATM   11  O   UNL     1      -8.855  18.739  68.687  1.00  0.00    -0.335 OA 
HETATM   12  O   UNL     1      -6.613  18.417  68.607  1.00  0.00    -0.217 OA 
HETATM   13  C   UNL     1      -7.748  17.963  68.633  1.00  0.00    -0.289 C  
ENDBRANCH   5  10
ENDBRANCH   4   5
ENDBRANCH   2   4
BRANCH   2  14
HETATM   14  C   UNL     1     -12.114  13.530  68.762  1.00  0.00    -0.270 C  
BRANCH  14  15
HETATM   15  N   UNL     1     -11.289  12.275  68.641  1.00  0.00    -0.266 NA 
BRANCH  15  16
HETATM   16  C   UNL     1     -11.724  11.324  69.732  1.00  0.00    -0.349 C  
HETATM   17  C   UNL     1     -10.718  10.206  69.981  1.00  0.00    -0.305 C  
HETATM   18  O   UNL     1      -9.440  10.583  69.717  1.00  0.00    -0.102 OA 
HETATM   19  O   UNL     1     -11.007   9.109  70.430  1.00  0.00    -0.231 OA 
ENDBRANCH  15  16
BRANCH  15  20
HETATM   20  C   UNL     1     -11.640  11.607  67.321  1.00  0.00    -0.238 C  
HETATM   21  C   UNL     1     -10.501  11.638  66.303  1.00  0.00    -0.246 C  
HETATM   22  O   UNL     1      -9.273  11.658  66.875  1.00  0.00    -0.175 OA 
HETATM   23  O   UNL     1     -10.666  11.596  65.097  1.00  0.00    -0.282 OA 
ENDBRANCH  15  20
ENDBRANCH  14  15
ENDBRANCH   2  14
TORSDOF 8
ENDMDL
MODEL      170
REMARK 921   NORMALIZED FREE ENERGY PREDICTED BY IDOCK:   -4.07 KCAL/MOL
REMARK 922        TOTAL FREE ENERGY PREDICTED BY IDOCK:   -7.31 KCAL/MOL
REMARK 923 INTER-LIGAND FREE ENERGY PREDICTED BY IDOCK:   -7.03 KCAL/MOL
REMARK 924 INTRA-LIGAND FREE ENERGY PREDICTED BY IDOCK:   -0.28 KCAL/MOL
REMARK 927      BINDING AFFINITY PREDICTED BY RF-SCORE:    0.00 PKD
ROOT
HETATM    1  O   UNL     1     -11.017   9.901  67.976  1.00  0.00    -0.357 OA 
HETATM    2  C   UNL     1     -11.906  10.978  68.291  1.00  0.00    -0.148 C  
HETATM    3  H   UNL     1     -10.517  10.119  67.197  1.00  0.00     0.000 HD 
ENDROOT
BRANCH   2   4
HETATM    4  C   UNL     1     -11.058  12.259  68.490  1.00  0.00    -0.249 C  
BRANCH   4   5
HETATM    5  N   UNL     1     -11.043  13.242  67.344  1.00  0.00    -0.271 NA 
BRANCH   5   6
HETATM    6  C   UNL     1     -11.257  12.465  66.067  1.00  0.00    -0.335 C  
HETATM    7  O   UNL     1     -12.669  14.309  65.428  1.00  0.00    -0.507 OA 
HETATM    8  C   UNL     1     -12.447  12.983  65.263  1.00  0.00    -0.499 C  
HETATM    9  O   UNL     1     -13.121  12.285  64.522  1.00  0.00    -0.791 OA 
ENDBRANCH   5   6
BRANCH   5  10
HETATM   10  C   UNL     1      -9.679  13.875  67.274  1.00  0.00    -0.245 C  
HETATM   11  O   UNL     1     -10.868  15.961  67.263  1.00  0.00    -0.319 OA 
HETATM   12  O   UNL     1      -8.835  15.923  66.262  1.00  0.00    -0.305 OA 
HETATM   13  C   UNL     1      -9.735  15.345  66.855  1.00  0.00    -0.231 C  
ENDBRANCH   5  10
ENDBRANCH   4   5
ENDBRANCH   2   4
BRANCH   2  14
HETATM   14  C   UNL     1     -12.726  10.619  69.569  1.00  0.00     0.343 C  
BRANCH  14  15
HETATM   15  N   UNL     1     -12.124  10.972  70.905  1.00  0.00    -0.350 NA 
BRANCH  15  16
HETATM   16  C   UNL     1     -13.213  11.580  71.759  1.00  0.00    -0.351 C  
HETATM   17  C   UNL     1     -13.152  13.103  71.803  1.00  0.00    -0.383 C  
HETATM   18  O   UNL     1     -12.640  13.639  70.665  1.00  0.00    -0.327 OA 
HETATM   19  O   UNL     1     -13.573  13.781  72.725  1.00  0.00    -0.666 OA 
ENDBRANCH  15  16
BRANCH  15  20
HETATM   20  C   UNL     1     -11.711   9.679  71.590  1.00  0.00    -0.369 C  
HETATM   21  C   UNL     1     -10.486   9.021  70.954  1.00  0.00    -0.254 C  
HETATM   22  O   UNL     1      -9.645   9.908  70.370  1.00  0.00    -0.218 OA 
HETATM   23  O   UNL     1     -10.252   7.827  71.009  1.00  0.00    -0.197 OA 
ENDBRANCH  15  20
ENDBRANCH  14  15
ENDBRANCH   2  14
TORSDOF 8
ENDMDL
MODEL      171
REMARK 921   NORMALIZED FREE ENERGY PREDICTED BY IDOCK:   -4.07 KCAL/MOL
REMARK 922        TOTAL FREE ENERGY PREDICTED BY IDOCK:   -7.30 KCAL/MOL
REMARK 923 INTER-LIGAND FREE ENERGY PREDICTED BY IDOCK:   -6.60 KCAL/MOL
REMARK 924 INTRA-LIGAND FREE ENERGY PREDICTED BY IDOCK:   -0.70 KCAL/MOL
REMARK 927      BINDING AFFINITY PREDICTED BY RF-SCORE:    0.00 PKD
ROOT
HETATM    1  O   UNL     1     -10.475  15.916  68.480  1.00  0.00    -0.227 OA 
HETATM    2  C   UNL     1     -11.658  15.159  68.761  1.00  0.00    -0.349 C  
HETATM    3  H   UNL     1     -10.096  16.227  69.293  1.00  0.00     0.000 HD 
ENDROOT
BRANCH   2   4
HETATM    4  C   UNL     1     -11.268  13.991  69.702  1.00  0.00    -0.164 C  
BRANCH   4   5
HETATM    5  N   UNL     1     -12.339  13.502  70.647  1.00  0.00    -0.360 NA 
BRANCH   5   6
HETATM    6  C   UNL     1     -12.413  14.471  71.804  1.00  0.00    -0.348 C  
HETATM    7  O   UNL     1     -14.398  13.257  72.424  1.00  0.00    -0.574 OA 
HETATM    8  C   UNL     1     -13.777  14.458  72.488  1.00  0.00    -0.488 C  
HETATM    9  O   UNL     1     -14.258  15.423  73.061  1.00  0.00    -0.233 OA 
ENDBRANCH   5   6
BRANCH   5  10
HETATM   10  C   UNL     1     -11.920  12.164  71.195  1.00  0.00     0.447 C  
HETATM   11  O   UNL     1     -13.011  11.255  69.258  1.00  0.00     0.104 OA 
HETATM   12  O   UNL     1     -12.899   9.936  71.098  1.00  0.00    -0.338 OA 
HETATM   13  C   UNL     1     -12.671  11.002  70.543  1.00  0.00    -0.247 C  
ENDBRANCH   5  10
ENDBRANCH   4   5
ENDBRANCH   2   4
BRANCH   2  14
HETATM   14  C   UNL     1     -12.280  14.647  67.426  1.00  0.00    -0.051 C  
BRANCH  14  15
HETATM   15  N   UNL     1     -11.350  14.022  66.419  1.00  0.00    -0.323 NA 
BRANCH  15  16
HETATM   16  C   UNL     1     -11.602  12.531  66.416  1.00  0.00    -0.391 C  
HETATM   17  C   UNL     1     -10.323  11.714  66.571  1.00  0.00    -0.224 C  
HETATM   18  O   UNL     1      -9.373  12.360  67.294  1.00  0.00    -0.175 OA 
HETATM   19  O   UNL     1     -10.181  10.577  66.151  1.00  0.00    -0.235 OA 
ENDBRANCH  15  16
BRANCH  15  20
HETATM   20  C   UNL     1     -11.743  14.527  65.040  1.00  0.00    -0.392 C  
HETATM   21  C   UNL     1     -11.219  15.930  64.736  1.00  0.00    -0.355 C  
HETATM   22  O   UNL     1     -10.065  16.222  65.385  1.00  0.00    -0.519 OA 
HETATM   23  O   UNL     1     -11.747  16.697  63.950  1.00  0.00    -1.153 OA 
ENDBRANCH  15  20
ENDBRANCH  14  15
ENDBRANCH   2  14
TORSDOF 8
ENDMDL
MODEL      172
REMARK 921   NORMALIZED FREE ENERGY PREDICTED BY IDOCK:   -4.05 KCAL/MOL
REMARK 922        TOTAL FREE ENERGY PREDICTED BY IDOCK:   -7.28 KCAL/MOL
REMARK 923 INTER-LIGAND FREE ENERGY PREDICTED BY IDOCK:   -6.11 KCAL/MOL
REMARK 924 INTRA-LIGAND FREE ENERGY PREDICTED BY IDOCK:   -1.17 KCAL/MOL
REMARK 927      BINDING AFFINITY PREDICTED BY RF-SCORE:    0.00 PKD
ROOT
HETATM    1  O   UNL     1      -7.368  12.993  67.079  1.00  0.00    -0.367 OA 
HETATM    2  C   UNL     1      -8.406  12.050  67.366  1.00  0.00    -0.171 C  
HETATM    3  H   UNL     1      -6.888  13.189  67.876  1.00  0.00     0.000 HD 
ENDROOT
BRANCH   2   4
HETATM    4  C   UNL     1      -7.750  10.783  67.972  1.00  0.00    -0.101 C  
BRANCH   4   5
HETATM    5  N   UNL     1      -8.643   9.578  68.142  1.00  0.00    -0.120 NA 
BRANCH   5   6
HETATM    6  C   UNL     1      -8.395   9.009  69.519  1.00  0.00    -0.117 C  
HETATM    7  O   UNL     1     -10.769   9.271  69.826  1.00  0.00    -0.222 OA 
HETATM    8  C   UNL     1      -9.575   9.233  70.462  1.00  0.00    -0.262 C  
HETATM    9  O   UNL     1      -9.464   9.342  71.673  1.00  0.00    -0.294 OA 
ENDBRANCH   5   6
BRANCH   5  10
HETATM   10  C   UNL     1      -8.237   8.535  67.134  1.00  0.00    -0.108 C  
HETATM   11  O   UNL     1     -10.580   8.410  66.619  1.00  0.00    -0.262 OA 
HETATM   12  O   UNL     1      -9.335   6.553  66.244  1.00  0.00    -0.160 OA 
HETATM   13  C   UNL     1      -9.423   7.708  66.636  1.00  0.00    -0.198 C  
ENDBRANCH   5  10
ENDBRANCH   4   5
ENDBRANCH   2   4
BRANCH   2  14
HETATM   14  C   UNL     1      -9.193  11.727  66.059  1.00  0.00    -0.194 C  
BRANCH  14  15
HETATM   15  N   UNL     1     -10.565  12.332  65.904  1.00  0.00    -0.249 NA 
BRANCH  15  16
HETATM   16  C   UNL     1     -11.273  11.599  64.788  1.00  0.00    -0.234 C  
HETATM   17  C   UNL     1     -12.161  12.512  63.949  1.00  0.00    -0.503 C  
HETATM   18  O   UNL     1     -11.699  13.788  63.897  1.00  0.00    -0.363 OA 
HETATM   19  O   UNL     1     -13.146  12.136  63.334  1.00  0.00    -0.752 OA 
ENDBRANCH  15  16
BRANCH  15  20
HETATM   20  C   UNL     1     -11.350  12.046  67.174  1.00  0.00    -0.333 C  
HETATM   21  C   UNL     1     -11.852  13.309  67.874  1.00  0.00    -0.349 C  
HETATM   22  O   UNL     1     -12.075  14.339  67.023  1.00  0.00    -0.425 OA 
HETATM   23  O   UNL     1     -12.083  13.377  69.068  1.00  0.00    -0.325 OA 
ENDBRANCH  15  20
ENDBRANCH  14  15
ENDBRANCH   2  14
TORSDOF 8
ENDMDL
MODEL      173
REMARK 921   NORMALIZED FREE ENERGY PREDICTED BY IDOCK:   -4.05 KCAL/MOL
REMARK 922        TOTAL FREE ENERGY PREDICTED BY IDOCK:   -7.28 KCAL/MOL
REMARK 923 INTER-LIGAND FREE ENERGY PREDICTED BY IDOCK:   -6.01 KCAL/MOL
REMARK 924 INTRA-LIGAND FREE ENERGY PREDICTED BY IDOCK:   -1.27 KCAL/MOL
REMARK 927      BINDING AFFINITY PREDICTED BY RF-SCORE:    0.00 PKD
ROOT
HETATM    1  O   UNL     1      -7.195  11.772  66.477  1.00  0.00    -0.355 OA 
HETATM    2  C   UNL     1      -8.585  11.589  66.769  1.00  0.00    -0.170 C  
HETATM    3  H   UNL     1      -6.681  11.148  66.976  1.00  0.00     0.000 HD 
ENDROOT
BRANCH   2   4
HETATM    4  C   UNL     1      -8.959  10.125  66.423  1.00  0.00    -0.144 C  
BRANCH   4   5
HETATM    5  N   UNL     1      -8.629   9.082  67.463  1.00  0.00    -0.120 NA 
BRANCH   5   6
HETATM    6  C   UNL     1      -9.558   7.910  67.253  1.00  0.00    -0.159 C  
HETATM    7  O   UNL     1      -7.539   6.607  67.090  1.00  0.00    -0.092 OA 
HETATM    8  C   UNL     1      -8.833   6.685  66.701  1.00  0.00    -0.136 C  
HETATM    9  O   UNL     1      -9.367   5.840  65.999  1.00  0.00    -0.161 OA 
ENDBRANCH   5   6
BRANCH   5  10
HETATM   10  C   UNL     1      -8.915   9.657  68.825  1.00  0.00    -0.134 C  
HETATM   11  O   UNL     1      -6.530   9.869  69.015  1.00  0.00    -0.047 OA 
HETATM   12  O   UNL     1      -7.706   9.632  70.939  1.00  0.00    -0.314 OA 
HETATM   13  C   UNL     1      -7.674   9.697  69.718  1.00  0.00    -0.133 C  
ENDBRANCH   5  10
ENDBRANCH   4   5
ENDBRANCH   2   4
BRANCH   2  14
HETATM   14  C   UNL     1      -9.429  12.613  65.950  1.00  0.00    -0.089 C  
BRANCH  14  15
HETATM   15  N   UNL     1     -10.789  12.982  66.484  1.00  0.00    -0.276 NA 
BRANCH  15  16
HETATM   16  C   UNL     1     -10.660  13.195  67.975  1.00  0.00    -0.236 C  
HETATM   17  C   UNL     1     -11.742  12.474  68.773  1.00  0.00    -0.327 C  
HETATM   18  O   UNL     1     -12.171  11.338  68.165  1.00  0.00    -0.622 OA 
HETATM   19  O   UNL     1     -12.140  12.833  69.869  1.00  0.00    -0.308 OA 
ENDBRANCH  15  16
BRANCH  15  20
HETATM   20  C   UNL     1     -11.179  14.326  65.890  1.00  0.00    -0.319 C  
HETATM   21  C   UNL     1     -12.364  14.242  64.928  1.00  0.00    -0.425 C  
HETATM   22  O   UNL     1     -13.216  13.229  65.216  1.00  0.00    -0.625 OA 
HETATM   23  O   UNL     1     -12.560  15.033  64.022  1.00  0.00    -0.817 OA 
ENDBRANCH  15  20
ENDBRANCH  14  15
ENDBRANCH   2  14
TORSDOF 8
ENDMDL
MODEL      174
REMARK 921   NORMALIZED FREE ENERGY PREDICTED BY IDOCK:   -4.03 KCAL/MOL
REMARK 922        TOTAL FREE ENERGY PREDICTED BY IDOCK:   -7.25 KCAL/MOL
REMARK 923 INTER-LIGAND FREE ENERGY PREDICTED BY IDOCK:   -6.50 KCAL/MOL
REMARK 924 INTRA-LIGAND FREE ENERGY PREDICTED BY IDOCK:   -0.76 KCAL/MOL
REMARK 927      BINDING AFFINITY PREDICTED BY RF-SCORE:    0.00 PKD
ROOT
HETATM    1  O   UNL     1      -7.848  14.075  69.231  1.00  0.00    -0.334 OA 
HETATM    2  C   UNL     1      -8.598  13.483  68.164  1.00  0.00    -0.173 C  
HETATM    3  H   UNL     1      -7.684  13.423  69.903  1.00  0.00     0.000 HD 
ENDROOT
BRANCH   2   4
HETATM    4  C   UNL     1      -7.788  12.280  67.617  1.00  0.00    -0.156 C  
BRANCH   4   5
HETATM    5  N   UNL     1      -8.549  10.993  67.415  1.00  0.00    -0.131 NA 
BRANCH   5   6
HETATM    6  C   UNL     1      -9.301  11.101  66.109  1.00  0.00    -0.206 C  
HETATM    7  O   UNL     1      -9.192   8.695  66.087  1.00  0.00    -0.184 OA 
HETATM    8  C   UNL     1      -9.270   9.800  65.310  1.00  0.00    -0.238 C  
HETATM    9  O   UNL     1      -9.334   9.751  64.092  1.00  0.00    -0.266 OA 
ENDBRANCH   5   6
BRANCH   5  10
HETATM   10  C   UNL     1      -9.563  10.857  68.519  1.00  0.00    -0.187 C  
HETATM   11  O   UNL     1      -7.701  10.165  69.870  1.00  0.00    -0.160 OA 
HETATM   12  O   UNL     1      -9.748   9.381  70.447  1.00  0.00    -0.225 OA 
HETATM   13  C   UNL     1      -9.038  10.039  69.700  1.00  0.00    -0.210 C  
ENDBRANCH   5  10
ENDBRANCH   4   5
ENDBRANCH   2   4
BRANCH   2  14
HETATM   14  C   UNL     1      -8.866  14.552  67.061  1.00  0.00    -0.237 C  
BRANCH  14  15
HETATM   15  N   UNL     1     -10.288  15.013  66.868  1.00  0.00    -0.262 NA 
BRANCH  15  16
HETATM   16  C   UNL     1     -10.611  14.922  65.394  1.00  0.00    -0.373 C  
HETATM   17  C   UNL     1     -11.097  16.245  64.811  1.00  0.00    -0.281 C  
HETATM   18  O   UNL     1     -10.568  17.323  65.445  1.00  0.00    -0.630 OA 
HETATM   19  O   UNL     1     -11.830  16.338  63.840  1.00  0.00    -0.994 OA 
ENDBRANCH  15  16
BRANCH  15  20
HETATM   20  C   UNL     1     -11.202  14.023  67.571  1.00  0.00    -0.309 C  
HETATM   21  C   UNL     1     -11.862  14.593  68.827  1.00  0.00    -0.313 C  
HETATM   22  O   UNL     1     -12.044  15.934  68.773  1.00  0.00    -0.297 OA 
HETATM   23  O   UNL     1     -12.239  13.912  69.764  1.00  0.00    -0.330 OA 
ENDBRANCH  15  20
ENDBRANCH  14  15
ENDBRANCH   2  14
TORSDOF 8
ENDMDL
MODEL      175
REMARK 921   NORMALIZED FREE ENERGY PREDICTED BY IDOCK:   -3.99 KCAL/MOL
REMARK 922        TOTAL FREE ENERGY PREDICTED BY IDOCK:   -7.20 KCAL/MOL
REMARK 923 INTER-LIGAND FREE ENERGY PREDICTED BY IDOCK:   -5.95 KCAL/MOL
REMARK 924 INTRA-LIGAND FREE ENERGY PREDICTED BY IDOCK:   -1.25 KCAL/MOL
REMARK 927      BINDING AFFINITY PREDICTED BY RF-SCORE:    0.00 PKD
ROOT
HETATM    1  O   UNL     1     -10.032   9.513  65.278  1.00  0.00    -0.427 OA 
HETATM    2  C   UNL     1      -9.680  10.675  66.037  1.00  0.00    -0.208 C  
HETATM    3  H   UNL     1      -9.274   9.207  64.794  1.00  0.00     0.000 HD 
ENDROOT
BRANCH   2   4
HETATM    4  C   UNL     1      -8.508  10.296  66.978  1.00  0.00    -0.129 C  
BRANCH   4   5
HETATM    5  N   UNL     1      -8.682   9.040  67.797  1.00  0.00    -0.125 NA 
BRANCH   5   6
HETATM    6  C   UNL     1      -8.521   9.411  69.252  1.00  0.00    -0.141 C  
HETATM    7  O   UNL     1     -10.197   7.729  69.652  1.00  0.00    -0.196 OA 
HETATM    8  C   UNL     1      -9.661   8.881  70.118  1.00  0.00    -0.180 C  
HETATM    9  O   UNL     1     -10.041   9.422  71.145  1.00  0.00    -0.296 OA 
ENDBRANCH   5   6
BRANCH   5  10
HETATM   10  C   UNL     1      -7.578   8.080  67.442  1.00  0.00    -0.097 C  
HETATM   11  O   UNL     1      -9.300   6.820  66.339  1.00  0.00    -0.163 OA 
HETATM   12  O   UNL     1      -7.501   5.670  67.102  1.00  0.00    -0.082 OA 
HETATM   13  C   UNL     1      -8.107   6.725  66.972  1.00  0.00    -0.109 C  
ENDBRANCH   5  10
ENDBRANCH   4   5
ENDBRANCH   2   4
BRANCH   2  14
HETATM   14  C   UNL     1     -10.925  11.176  66.831  1.00  0.00    -0.273 C  
BRANCH  14  15
HETATM   15  N   UNL     1     -11.295  12.631  66.702  1.00  0.00    -0.308 NA 
BRANCH  15  16
HETATM   16  C   UNL     1     -10.356  13.429  67.577  1.00  0.00    -0.226 C  
HETATM   17  C   UNL     1     -11.085  14.225  68.656  1.00  0.00    -0.253 C  
HETATM   18  O   UNL     1     -12.236  13.629  69.058  1.00  0.00    -0.334 OA 
HETATM   19  O   UNL     1     -10.657  15.253  69.156  1.00  0.00    -0.229 OA 
ENDBRANCH  15  16
BRANCH  15  20
HETATM   20  C   UNL     1     -11.017  13.061  65.270  1.00  0.00    -0.284 C  
HETATM   21  C   UNL     1     -12.277  13.459  64.501  1.00  0.00    -0.398 C  
HETATM   22  O   UNL     1     -13.256  13.952  65.298  1.00  0.00    -0.774 OA 
HETATM   23  O   UNL     1     -12.382  13.394  63.289  1.00  0.00    -0.714 OA 
ENDBRANCH  15  20
ENDBRANCH  14  15
ENDBRANCH   2  14
TORSDOF 8
ENDMDL
MODEL      176
REMARK 921   NORMALIZED FREE ENERGY PREDICTED BY IDOCK:   -3.98 KCAL/MOL
REMARK 922        TOTAL FREE ENERGY PREDICTED BY IDOCK:   -7.17 KCAL/MOL
REMARK 923 INTER-LIGAND FREE ENERGY PREDICTED BY IDOCK:   -6.31 KCAL/MOL
REMARK 924 INTRA-LIGAND FREE ENERGY PREDICTED BY IDOCK:   -0.86 KCAL/MOL
REMARK 927      BINDING AFFINITY PREDICTED BY RF-SCORE:    0.00 PKD
ROOT
HETATM    1  O   UNL     1     -12.346  10.863  68.288  1.00  0.00    -0.730 OA 
HETATM    2  C   UNL     1     -11.515  11.329  69.357  1.00  0.00    -0.301 C  
HETATM    3  H   UNL     1     -13.211  11.249  68.366  1.00  0.00     0.000 HD 
ENDROOT
BRANCH   2   4
HETATM    4  C   UNL     1     -11.465  12.876  69.286  1.00  0.00    -0.282 C  
BRANCH   4   5
HETATM    5  N   UNL     1     -10.950  13.475  67.999  1.00  0.00    -0.244 NA 
BRANCH   5   6
HETATM    6  C   UNL     1      -9.977  14.573  68.357  1.00  0.00    -0.241 C  
HETATM    7  O   UNL     1      -8.337  13.195  67.256  1.00  0.00    -0.180 OA 
HETATM    8  C   UNL     1      -8.523  14.132  68.216  1.00  0.00    -0.169 C  
HETATM    9  O   UNL     1      -7.607  14.591  68.880  1.00  0.00    -0.129 OA 
ENDBRANCH   5   6
BRANCH   5  10
HETATM   10  C   UNL     1     -12.105  14.104  67.268  1.00  0.00    -0.372 C  
HETATM   11  O   UNL     1     -11.987  12.179  65.836  1.00  0.00    -0.561 OA 
HETATM   12  O   UNL     1     -12.820  14.087  64.940  1.00  0.00    -0.692 OA 
HETATM   13  C   UNL     1     -12.332  13.487  65.887  1.00  0.00    -0.456 C  
ENDBRANCH   5  10
ENDBRANCH   4   5
ENDBRANCH   2   4
BRANCH   2  14
HETATM   14  C   UNL     1     -10.096  10.695  69.229  1.00  0.00    -0.206 C  
BRANCH  14  15
HETATM   15  N   UNL     1      -9.990   9.196  69.341  1.00  0.00    -0.185 NA 
BRANCH  15  16
HETATM   16  C   UNL     1     -10.977   8.736  70.389  1.00  0.00    -0.235 C  
HETATM   17  C   UNL     1     -10.718   7.309  70.862  1.00  0.00    -0.234 C  
HETATM   18  O   UNL     1      -9.405   6.968  70.800  1.00  0.00    -0.161 OA 
HETATM   19  O   UNL     1     -11.577   6.569  71.311  1.00  0.00    -0.301 OA 
ENDBRANCH  15  16
BRANCH  15  20
HETATM   20  C   UNL     1     -10.449   8.593  68.023  1.00  0.00    -0.197 C  
HETATM   21  C   UNL     1      -9.295   8.224  67.090  1.00  0.00    -0.151 C  
HETATM   22  O   UNL     1      -8.156   7.904  67.750  1.00  0.00    -0.124 OA 
HETATM   23  O   UNL     1      -9.394   8.167  65.877  1.00  0.00    -0.155 OA 
ENDBRANCH  15  20
ENDBRANCH  14  15
ENDBRANCH   2  14
TORSDOF 8
ENDMDL
MODEL      177
REMARK 921   NORMALIZED FREE ENERGY PREDICTED BY IDOCK:   -3.96 KCAL/MOL
REMARK 922        TOTAL FREE ENERGY PREDICTED BY IDOCK:   -7.15 KCAL/MOL
REMARK 923 INTER-LIGAND FREE ENERGY PREDICTED BY IDOCK:   -6.32 KCAL/MOL
REMARK 924 INTRA-LIGAND FREE ENERGY PREDICTED BY IDOCK:   -0.83 KCAL/MOL
REMARK 927      BINDING AFFINITY PREDICTED BY RF-SCORE:    0.00 PKD
ROOT
HETATM    1  O   UNL     1     -10.258   7.412  66.207  1.00  0.00    -0.469 OA 
HETATM    2  C   UNL     1     -10.304   8.703  66.825  1.00  0.00    -0.266 C  
HETATM    3  H   UNL     1     -10.863   7.389  65.475  1.00  0.00     0.000 HD 
ENDROOT
BRANCH   2   4
HETATM    4  C   UNL     1      -9.951   9.762  65.750  1.00  0.00    -0.279 C  
BRANCH   4   5
HETATM    5  N   UNL     1     -10.024  11.208  66.180  1.00  0.00    -0.221 NA 
BRANCH   5   6
HETATM    6  C   UNL     1     -10.668  11.991  65.061  1.00  0.00    -0.296 C  
HETATM    7  O   UNL     1     -12.232  12.712  66.744  1.00  0.00    -0.506 OA 
HETATM    8  C   UNL     1     -12.070  12.476  65.421  1.00  0.00    -0.435 C  
HETATM    9  O   UNL     1     -12.955  12.662  64.601  1.00  0.00    -0.768 OA 
ENDBRANCH   5   6
BRANCH   5  10
HETATM   10  C   UNL     1      -8.621  11.726  66.356  1.00  0.00    -0.113 C  
HETATM   11  O   UNL     1      -9.452  12.702  68.388  1.00  0.00    -0.214 OA 
HETATM   12  O   UNL     1      -7.695  13.728  67.388  1.00  0.00    -0.169 OA 
HETATM   13  C   UNL     1      -8.534  12.838  67.403  1.00  0.00    -0.191 C  
ENDBRANCH   5  10
ENDBRANCH   4   5
ENDBRANCH   2   4
BRANCH   2  14
HETATM   14  C   UNL     1      -9.311   8.742  68.027  1.00  0.00    -0.142 C  
BRANCH  14  15
HETATM   15  N   UNL     1      -9.865   8.457  69.399  1.00  0.00    -0.181 NA 
BRANCH  15  16
HETATM   16  C   UNL     1     -10.878   9.531  69.724  1.00  0.00    -0.243 C  
HETATM   17  C   UNL     1     -11.266   9.553  71.199  1.00  0.00    -0.376 C  
HETATM   18  O   UNL     1     -10.262   9.134  72.011  1.00  0.00    -0.290 OA 
HETATM   19  O   UNL     1     -12.335   9.963  71.621  1.00  0.00    -0.372 OA 
ENDBRANCH  15  16
BRANCH  15  20
HETATM   20  C   UNL     1     -10.634   7.147  69.332  1.00  0.00    -0.233 C  
HETATM   21  C   UNL     1      -9.886   5.973  69.964  1.00  0.00    -0.172 C  
HETATM   22  O   UNL     1      -9.048   6.347  70.961  1.00  0.00    -0.152 OA 
HETATM   23  O   UNL     1     -10.058   4.809  69.647  1.00  0.00    -0.229 OA 
ENDBRANCH  15  20
ENDBRANCH  14  15
ENDBRANCH   2  14
TORSDOF 8
ENDMDL
MODEL      178
REMARK 921   NORMALIZED FREE ENERGY PREDICTED BY IDOCK:   -3.94 KCAL/MOL
REMARK 922        TOTAL FREE ENERGY PREDICTED BY IDOCK:   -7.11 KCAL/MOL
REMARK 923 INTER-LIGAND FREE ENERGY PREDICTED BY IDOCK:   -6.20 KCAL/MOL
REMARK 924 INTRA-LIGAND FREE ENERGY PREDICTED BY IDOCK:   -0.91 KCAL/MOL
REMARK 927      BINDING AFFINITY PREDICTED BY RF-SCORE:    0.00 PKD
ROOT
HETATM    1  O   UNL     1      -7.678  14.251  66.992  1.00  0.00    -0.349 OA 
HETATM    2  C   UNL     1      -8.875  13.639  67.484  1.00  0.00    -0.205 C  
HETATM    3  H   UNL     1      -7.904  14.990  66.438  1.00  0.00     0.000 HD 
ENDROOT
BRANCH   2   4
HETATM    4  C   UNL     1      -9.683  14.714  68.255  1.00  0.00    -0.215 C  
BRANCH   4   5
HETATM    5  N   UNL     1     -11.176  14.504  68.336  1.00  0.00    -0.259 NA 
BRANCH   5   6
HETATM    6  C   UNL     1     -11.735  14.618  66.937  1.00  0.00    -0.350 C  
HETATM    7  O   UNL     1     -12.108  12.245  67.118  1.00  0.00    -0.560 OA 
HETATM    8  C   UNL     1     -11.872  13.260  66.253  1.00  0.00    -0.395 C  
HETATM    9  O   UNL     1     -11.803  13.099  65.045  1.00  0.00    -0.323 OA 
ENDBRANCH   5   6
BRANCH   5  10
HETATM   10  C   UNL     1     -11.771  15.615  69.160  1.00  0.00    -0.390 C  
HETATM   11  O   UNL     1     -11.995  13.949  70.876  1.00  0.00    -0.318 OA 
HETATM   12  O   UNL     1     -13.463  15.676  70.910  1.00  0.00    -0.569 OA 
HETATM   13  C   UNL     1     -12.522  15.096  70.388  1.00  0.00    -0.368 C  
ENDBRANCH   5  10
ENDBRANCH   4   5
ENDBRANCH   2   4
BRANCH   2  14
HETATM   14  C   UNL     1      -8.505  12.427  68.394  1.00  0.00    -0.131 C  
BRANCH  14  15
HETATM   15  N   UNL     1      -9.062  11.078  68.019  1.00  0.00    -0.147 NA 
BRANCH  15  16
HETATM   16  C   UNL     1      -8.198  10.507  66.919  1.00  0.00    -0.123 C  
HETATM   17  C   UNL     1      -8.955   9.548  66.007  1.00  0.00    -0.163 C  
HETATM   18  O   UNL     1     -10.274   9.854  65.905  1.00  0.00    -0.261 OA 
HETATM   19  O   UNL     1      -8.433   8.641  65.380  1.00  0.00    -0.153 OA 
ENDBRANCH  15  16
BRANCH  15  20
HETATM   20  C   UNL     1      -8.902  10.155  69.216  1.00  0.00    -0.183 C  
HETATM   21  C   UNL     1     -10.208   9.911  69.973  1.00  0.00    -0.271 C  
HETATM   22  O   UNL     1     -11.306   9.998  69.185  1.00  0.00    -0.189 OA 
HETATM   23  O   UNL     1     -10.263   9.614  71.153  1.00  0.00    -0.272 OA 
ENDBRANCH  15  20
ENDBRANCH  14  15
ENDBRANCH   2  14
TORSDOF 8
ENDMDL
MODEL      179
REMARK 921   NORMALIZED FREE ENERGY PREDICTED BY IDOCK:   -3.92 KCAL/MOL
REMARK 922        TOTAL FREE ENERGY PREDICTED BY IDOCK:   -7.09 KCAL/MOL
REMARK 923 INTER-LIGAND FREE ENERGY PREDICTED BY IDOCK:   -7.66 KCAL/MOL
REMARK 924 INTRA-LIGAND FREE ENERGY PREDICTED BY IDOCK:    0.57 KCAL/MOL
REMARK 927      BINDING AFFINITY PREDICTED BY RF-SCORE:    0.00 PKD
ROOT
HETATM    1  O   UNL     1     -11.525  15.988  68.081  1.00  0.00    -0.338 OA 
HETATM    2  C   UNL     1     -11.985  14.634  68.153  1.00  0.00    -0.246 C  
HETATM    3  H   UNL     1     -11.500  16.362  68.954  1.00  0.00     0.000 HD 
ENDROOT
BRANCH   2   4
HETATM    4  C   UNL     1     -11.030  13.852  69.090  1.00  0.00    -0.218 C  
BRANCH   4   5
HETATM    5  N   UNL     1     -11.675  12.890  70.058  1.00  0.00    -0.261 NA 
BRANCH   5   6
HETATM    6  C   UNL     1     -11.874  11.576  69.339  1.00  0.00    -0.350 C  
HETATM    7  O   UNL     1     -11.668  10.587  71.526  1.00  0.00    -0.194 OA 
HETATM    8  C   UNL     1     -11.487  10.377  70.201  1.00  0.00    -0.319 C  
HETATM    9  O   UNL     1     -11.079   9.319  69.747  1.00  0.00    -0.227 OA 
ENDBRANCH   5   6
BRANCH   5  10
HETATM   10  C   UNL     1     -13.033  13.422  70.429  1.00  0.00     0.172 C  
HETATM   11  O   UNL     1     -11.871  14.615  72.160  1.00  0.00    -0.277 OA 
HETATM   12  O   UNL     1     -14.046  14.098  72.538  1.00  0.00    -0.590 OA 
HETATM   13  C   UNL     1     -13.055  14.054  71.822  1.00  0.00    -0.370 C  
ENDBRANCH   5  10
ENDBRANCH   4   5
ENDBRANCH   2   4
BRANCH   2  14
HETATM   14  C   UNL     1     -12.025  14.020  66.720  1.00  0.00    -0.444 C  
BRANCH  14  15
HETATM   15  N   UNL     1     -11.146  14.646  65.668  1.00  0.00    -0.328 NA 
BRANCH  15  16
HETATM   16  C   UNL     1      -9.896  15.155  66.348  1.00  0.00    -0.280 C  
HETATM   17  C   UNL     1      -9.458  16.523  65.836  1.00  0.00    -0.219 C  
HETATM   18  O   UNL     1     -10.501  17.283  65.415  1.00  0.00    -0.635 OA 
HETATM   19  O   UNL     1      -8.307  16.927  65.858  1.00  0.00    -0.498 OA 
ENDBRANCH  15  16
BRANCH  15  20
HETATM   20  C   UNL     1     -10.701  13.549  64.714  1.00  0.00    -0.401 C  
HETATM   21  C   UNL     1     -11.779  13.147  63.707  1.00  0.00    -0.461 C  
HETATM   22  O   UNL     1     -12.633  14.154  63.408  1.00  0.00    -0.818 OA 
HETATM   23  O   UNL     1     -11.840  12.050  63.181  1.00  0.00    -0.355 OA 
ENDBRANCH  15  20
ENDBRANCH  14  15
ENDBRANCH   2  14
TORSDOF 8
ENDMDL
MODEL      180
REMARK 921   NORMALIZED FREE ENERGY PREDICTED BY IDOCK:   -3.92 KCAL/MOL
REMARK 922        TOTAL FREE ENERGY PREDICTED BY IDOCK:   -7.09 KCAL/MOL
REMARK 923 INTER-LIGAND FREE ENERGY PREDICTED BY IDOCK:   -6.36 KCAL/MOL
REMARK 924 INTRA-LIGAND FREE ENERGY PREDICTED BY IDOCK:   -0.73 KCAL/MOL
REMARK 927      BINDING AFFINITY PREDICTED BY RF-SCORE:    0.00 PKD
ROOT
HETATM    1  O   UNL     1     -12.247  12.139  68.238  1.00  0.00    -0.356 OA 
HETATM    2  C   UNL     1     -11.463  12.097  67.040  1.00  0.00    -0.350 C  
HETATM    3  H   UNL     1     -12.918  11.467  68.202  1.00  0.00     0.000 HD 
ENDROOT
BRANCH   2   4
HETATM    4  C   UNL     1     -10.853  10.678  66.916  1.00  0.00    -0.205 C  
BRANCH   4   5
HETATM    5  N   UNL     1      -9.927  10.244  68.026  1.00  0.00    -0.150 NA 
BRANCH   5   6
HETATM    6  C   UNL     1      -8.550  10.060  67.435  1.00  0.00    -0.125 C  
HETATM    7  O   UNL     1      -7.766  10.388  69.688  1.00  0.00    -0.153 OA 
HETATM    8  C   UNL     1      -7.443  10.522  68.380  1.00  0.00    -0.092 C  
HETATM    9  O   UNL     1      -6.363  10.947  68.004  1.00  0.00    -0.056 OA 
ENDBRANCH   5   6
BRANCH   5  10
HETATM   10  C   UNL     1     -10.390   8.906  68.540  1.00  0.00    -0.198 C  
HETATM   11  O   UNL     1     -11.516  10.173  70.241  1.00  0.00    -0.265 OA 
HETATM   12  O   UNL     1     -10.903   8.053  70.762  1.00  0.00    -0.224 OA 
HETATM   13  C   UNL     1     -10.936   8.982  69.966  1.00  0.00    -0.214 C  
ENDBRANCH   5  10
ENDBRANCH   4   5
ENDBRANCH   2   4
BRANCH   2  14
HETATM   14  C   UNL     1     -10.362  13.200  67.098  1.00  0.00    -0.247 C  
BRANCH  14  15
HETATM   15  N   UNL     1     -10.770  14.611  66.761  1.00  0.00    -0.296 NA 
BRANCH  15  16
HETATM   16  C   UNL     1     -11.230  14.630  65.321  1.00  0.00    -0.358 C  
HETATM   17  C   UNL     1     -11.259  16.034  64.726  1.00  0.00    -0.339 C  
HETATM   18  O   UNL     1     -10.326  16.855  65.276  1.00  0.00    -0.624 OA 
HETATM   19  O   UNL     1     -11.990  16.378  63.812  1.00  0.00    -0.964 OA 
ENDBRANCH  15  16
BRANCH  15  20
HETATM   20  C   UNL     1     -11.985  14.963  67.605  1.00  0.00    -0.145 C  
HETATM   21  C   UNL     1     -11.640  15.781  68.850  1.00  0.00    -0.394 C  
HETATM   22  O   UNL     1     -10.536  16.550  68.696  1.00  0.00    -0.266 OA 
HETATM   23  O   UNL     1     -12.315  15.789  69.865  1.00  0.00    -0.338 OA 
ENDBRANCH  15  20
ENDBRANCH  14  15
ENDBRANCH   2  14
TORSDOF 8
ENDMDL
MODEL      181
REMARK 921   NORMALIZED FREE ENERGY PREDICTED BY IDOCK:   -3.91 KCAL/MOL
REMARK 922        TOTAL FREE ENERGY PREDICTED BY IDOCK:   -7.08 KCAL/MOL
REMARK 923 INTER-LIGAND FREE ENERGY PREDICTED BY IDOCK:   -6.25 KCAL/MOL
REMARK 924 INTRA-LIGAND FREE ENERGY PREDICTED BY IDOCK:   -0.83 KCAL/MOL
REMARK 927      BINDING AFFINITY PREDICTED BY RF-SCORE:    0.00 PKD
ROOT
HETATM    1  O   UNL     1     -11.570  11.390  67.615  1.00  0.00    -0.474 OA 
HETATM    2  C   UNL     1     -11.373  12.022  68.885  1.00  0.00    -0.278 C  
HETATM    3  H   UNL     1     -11.040  10.603  67.567  1.00  0.00     0.000 HD 
ENDROOT
BRANCH   2   4
HETATM    4  C   UNL     1     -11.749  11.004  69.991  1.00  0.00    -0.355 C  
BRANCH   4   5
HETATM    5  N   UNL     1     -10.933   9.735  70.043  1.00  0.00    -0.260 NA 
BRANCH   5   6
HETATM    6  C   UNL     1     -10.798   9.331  71.492  1.00  0.00    -0.372 C  
HETATM    7  O   UNL     1     -11.180   7.093  70.688  1.00  0.00    -0.261 OA 
HETATM    8  C   UNL     1     -11.314   7.917  71.753  1.00  0.00    -0.264 C  
HETATM    9  O   UNL     1     -11.779   7.551  72.821  1.00  0.00    -0.279 OA 
ENDBRANCH   5   6
BRANCH   5  10
HETATM   10  C   UNL     1      -9.553  10.031  69.519  1.00  0.00    -0.230 C  
HETATM   11  O   UNL     1     -10.134   8.544  67.724  1.00  0.00    -0.186 OA 
HETATM   12  O   UNL     1      -7.935   8.734  68.241  1.00  0.00    -0.104 OA 
HETATM   13  C   UNL     1      -9.103   9.030  68.453  1.00  0.00    -0.133 C  
ENDBRANCH   5  10
ENDBRANCH   4   5
ENDBRANCH   2   4
BRANCH   2  14
HETATM   14  C   UNL     1     -12.243  13.314  68.965  1.00  0.00    -0.116 C  
BRANCH  14  15
HETATM   15  N   UNL     1     -11.535  14.615  69.241  1.00  0.00    -0.275 NA 
BRANCH  15  16
HETATM   16  C   UNL     1     -11.360  14.742  70.737  1.00  0.00    -0.173 C  
HETATM   17  C   UNL     1     -12.388  15.668  71.378  1.00  0.00    -0.426 C  
HETATM   18  O   UNL     1     -13.571  15.678  70.711  1.00  0.00    -0.524 OA 
HETATM   19  O   UNL     1     -12.203  16.286  72.414  1.00  0.00    -0.490 OA 
ENDBRANCH  15  16
BRANCH  15  20
HETATM   20  C   UNL     1     -10.137  14.524  68.650  1.00  0.00    -0.244 C  
HETATM   21  C   UNL     1      -9.963  15.349  67.375  1.00  0.00    -0.229 C  
HETATM   22  O   UNL     1     -10.771  16.435  67.327  1.00  0.00    -0.317 OA 
HETATM   23  O   UNL     1      -9.146  15.095  66.508  1.00  0.00    -0.259 OA 
ENDBRANCH  15  20
ENDBRANCH  14  15
ENDBRANCH   2  14
TORSDOF 8
ENDMDL
MODEL      182
REMARK 921   NORMALIZED FREE ENERGY PREDICTED BY IDOCK:   -3.88 KCAL/MOL
REMARK 922        TOTAL FREE ENERGY PREDICTED BY IDOCK:   -7.03 KCAL/MOL
REMARK 923 INTER-LIGAND FREE ENERGY PREDICTED BY IDOCK:   -5.67 KCAL/MOL
REMARK 924 INTRA-LIGAND FREE ENERGY PREDICTED BY IDOCK:   -1.36 KCAL/MOL
REMARK 927      BINDING AFFINITY PREDICTED BY RF-SCORE:    0.00 PKD
ROOT
HETATM    1  O   UNL     1      -8.673   9.735  65.814  1.00  0.00    -0.133 OA 
HETATM    2  C   UNL     1      -9.945   9.926  66.444  1.00  0.00    -0.244 C  
HETATM    3  H   UNL     1      -8.410  10.538  65.380  1.00  0.00     0.000 HD 
ENDROOT
BRANCH   2   4
HETATM    4  C   UNL     1      -9.814  11.105  67.441  1.00  0.00    -0.173 C  
BRANCH   4   5
HETATM    5  N   UNL     1     -11.012  12.016  67.568  1.00  0.00    -0.240 NA 
BRANCH   5   6
HETATM    6  C   UNL     1     -11.986  11.368  68.522  1.00  0.00    -0.225 C  
HETATM    7  O   UNL     1     -11.597  13.300  69.906  1.00  0.00    -0.264 OA 
HETATM    8  C   UNL     1     -11.940  11.991  69.915  1.00  0.00    -0.318 C  
HETATM    9  O   UNL     1     -12.208  11.383  70.940  1.00  0.00    -0.370 OA 
ENDBRANCH   5   6
BRANCH   5  10
HETATM   10  C   UNL     1     -11.682  12.116  66.224  1.00  0.00    -0.320 C  
HETATM   11  O   UNL     1     -11.447  14.490  66.508  1.00  0.00    -0.345 OA 
HETATM   12  O   UNL     1     -13.159  13.765  65.210  1.00  0.00    -0.756 OA 
HETATM   13  C   UNL     1     -12.200  13.525  65.930  1.00  0.00    -0.460 C  
ENDBRANCH   5  10
ENDBRANCH   4   5
ENDBRANCH   2   4
BRANCH   2  14
HETATM   14  C   UNL     1     -10.377   8.608  67.157  1.00  0.00    -0.299 C  
BRANCH  14  15
HETATM   15  N   UNL     1      -9.592   8.181  68.369  1.00  0.00    -0.146 NA 
BRANCH  15  16
HETATM   16  C   UNL     1     -10.497   8.293  69.574  1.00  0.00    -0.227 C  
HETATM   17  C   UNL     1      -9.809   8.931  70.776  1.00  0.00    -0.223 C  
HETATM   18  O   UNL     1      -8.846   9.820  70.418  1.00  0.00    -0.210 OA 
HETATM   19  O   UNL     1     -10.123   8.724  71.937  1.00  0.00    -0.295 OA 
ENDBRANCH  15  16
BRANCH  15  20
HETATM   20  C   UNL     1      -9.259   6.705  68.217  1.00  0.00    -0.121 C  
HETATM   21  C   UNL     1      -8.085   6.442  67.274  1.00  0.00    -0.113 C  
HETATM   22  O   UNL     1      -7.193   7.461  67.234  1.00  0.00    -0.088 OA 
HETATM   23  O   UNL     1      -7.930   5.404  66.656  1.00  0.00    -0.103 OA 
ENDBRANCH  15  20
ENDBRANCH  14  15
ENDBRANCH   2  14
TORSDOF 8
ENDMDL
MODEL      183
REMARK 921   NORMALIZED FREE ENERGY PREDICTED BY IDOCK:   -3.88 KCAL/MOL
REMARK 922        TOTAL FREE ENERGY PREDICTED BY IDOCK:   -7.03 KCAL/MOL
REMARK 923 INTER-LIGAND FREE ENERGY PREDICTED BY IDOCK:   -6.22 KCAL/MOL
REMARK 924 INTRA-LIGAND FREE ENERGY PREDICTED BY IDOCK:   -0.81 KCAL/MOL
REMARK 927      BINDING AFFINITY PREDICTED BY RF-SCORE:    0.00 PKD
ROOT
HETATM    1  O   UNL     1     -12.022  11.972  66.778  1.00  0.00    -0.616 OA 
HETATM    2  C   UNL     1     -11.536  12.542  67.998  1.00  0.00    -0.342 C  
HETATM    3  H   UNL     1     -11.687  11.088  66.685  1.00  0.00     0.000 HD 
ENDROOT
BRANCH   2   4
HETATM    4  C   UNL     1     -11.984  11.629  69.167  1.00  0.00    -0.313 C  
BRANCH   4   5
HETATM    5  N   UNL     1     -11.014  10.553  69.591  1.00  0.00    -0.264 NA 
BRANCH   5   6
HETATM    6  C   UNL     1     -11.152   9.399  68.627  1.00  0.00     0.060 C  
HETATM    7  O   UNL     1      -8.875   9.900  68.025  1.00  0.00    -0.125 OA 
HETATM    8  C   UNL     1     -10.042   9.380  67.579  1.00  0.00    -0.215 C  
HETATM    9  O   UNL     1     -10.177   8.919  66.457  1.00  0.00    -0.284 OA 
ENDBRANCH   5   6
BRANCH   5  10
HETATM   10  C   UNL     1     -11.411  10.061  70.958  1.00  0.00    -0.383 C  
HETATM   11  O   UNL     1      -9.100   9.450  71.190  1.00  0.00    -0.250 OA 
HETATM   12  O   UNL     1     -10.613   8.255  72.383  1.00  0.00    -0.293 OA 
HETATM   13  C   UNL     1     -10.359   9.142  71.579  1.00  0.00    -0.344 C  
ENDBRANCH   5  10
ENDBRANCH   4   5
ENDBRANCH   2   4
BRANCH   2  14
HETATM   14  C   UNL     1     -12.087  13.994  68.151  1.00  0.00    -0.272 C  
BRANCH  14  15
HETATM   15  N   UNL     1     -11.537  14.833  69.274  1.00  0.00    -0.286 NA 
BRANCH  15  16
HETATM   16  C   UNL     1     -10.797  16.001  68.663  1.00  0.00    -0.301 C  
HETATM   17  C   UNL     1      -9.295  15.953  68.922  1.00  0.00    -0.233 C  
HETATM   18  O   UNL     1      -8.824  14.684  69.038  1.00  0.00    -0.166 OA 
HETATM   19  O   UNL     1      -8.573  16.936  68.959  1.00  0.00    -0.238 OA 
ENDBRANCH  15  16
BRANCH  15  20
HETATM   20  C   UNL     1     -12.711  15.421  70.040  1.00  0.00    -0.154 C  
HETATM   21  C   UNL     1     -12.587  15.263  71.556  1.00  0.00    -0.373 C  
HETATM   22  O   UNL     1     -11.303  15.226  71.986  1.00  0.00    -0.433 OA 
HETATM   23  O   UNL     1     -13.539  15.226  72.315  1.00  0.00    -0.396 OA 
ENDBRANCH  15  20
ENDBRANCH  14  15
ENDBRANCH   2  14
TORSDOF 8
ENDMDL
MODEL      184
REMARK 921   NORMALIZED FREE ENERGY PREDICTED BY IDOCK:   -3.87 KCAL/MOL
REMARK 922        TOTAL FREE ENERGY PREDICTED BY IDOCK:   -7.01 KCAL/MOL
REMARK 923 INTER-LIGAND FREE ENERGY PREDICTED BY IDOCK:   -8.09 KCAL/MOL
REMARK 924 INTRA-LIGAND FREE ENERGY PREDICTED BY IDOCK:    1.08 KCAL/MOL
REMARK 927      BINDING AFFINITY PREDICTED BY RF-SCORE:    0.00 PKD
ROOT
HETATM    1  O   UNL     1     -10.205  15.182  70.272  1.00  0.00    -0.493 OA 
HETATM    2  C   UNL     1     -10.981  15.525  69.118  1.00  0.00    -0.259 C  
HETATM    3  H   UNL     1     -10.566  15.614  71.038  1.00  0.00     0.000 HD 
ENDROOT
BRANCH   2   4
HETATM    4  C   UNL     1     -12.448  15.100  69.383  1.00  0.00    -0.034 C  
BRANCH   4   5
HETATM    5  N   UNL     1     -12.653  13.940  70.327  1.00  0.00    -0.304 NA 
BRANCH   5   6
HETATM    6  C   UNL     1     -12.122  14.346  71.681  1.00  0.00    -0.262 C  
HETATM    7  O   UNL     1     -14.391  14.046  72.430  1.00  0.00    -0.614 OA 
HETATM    8  C   UNL     1     -13.237  14.715  72.657  1.00  0.00    -0.464 C  
HETATM    9  O   UNL     1     -13.102  15.514  73.570  1.00  0.00    -0.504 OA 
ENDBRANCH   5   6
BRANCH   5  10
HETATM   10  C   UNL     1     -11.831  12.776  69.841  1.00  0.00    -0.301 C  
HETATM   11  O   UNL     1     -13.417  11.418  71.028  1.00  0.00     0.166 OA 
HETATM   12  O   UNL     1     -11.326  10.581  70.768  1.00  0.00    -0.327 OA 
HETATM   13  C   UNL     1     -12.134  11.484  70.603  1.00  0.00    -0.353 C  
ENDBRANCH   5  10
ENDBRANCH   4   5
ENDBRANCH   2   4
BRANCH   2  14
HETATM   14  C   UNL     1     -10.389  14.816  67.862  1.00  0.00    -0.240 C  
BRANCH  14  15
HETATM   15  N   UNL     1     -10.426  15.566  66.556  1.00  0.00    -0.294 NA 
BRANCH  15  16
HETATM   16  C   UNL     1      -9.001  15.880  66.159  1.00  0.00    -0.341 C  
HETATM   17  C   UNL     1      -8.659  17.360  66.301  1.00  0.00    -0.211 C  
HETATM   18  O   UNL     1      -9.362  17.968  67.291  1.00  0.00    -0.251 OA 
HETATM   19  O   UNL     1      -7.802  17.931  65.647  1.00  0.00    -0.534 OA 
ENDBRANCH  15  16
BRANCH  15  20
HETATM   20  C   UNL     1     -10.972  14.629  65.491  1.00  0.00    -0.340 C  
HETATM   21  C   UNL     1     -11.813  15.340  64.431  1.00  0.00    -0.281 C  
HETATM   22  O   UNL     1     -11.446  16.630  64.235  1.00  0.00    -1.075 OA 
HETATM   23  O   UNL     1     -12.690  14.798  63.783  1.00  0.00    -0.767 OA 
ENDBRANCH  15  20
ENDBRANCH  14  15
ENDBRANCH   2  14
TORSDOF 8
ENDMDL
MODEL      185
REMARK 921   NORMALIZED FREE ENERGY PREDICTED BY IDOCK:   -3.87 KCAL/MOL
REMARK 922        TOTAL FREE ENERGY PREDICTED BY IDOCK:   -7.01 KCAL/MOL
REMARK 923 INTER-LIGAND FREE ENERGY PREDICTED BY IDOCK:   -6.14 KCAL/MOL
REMARK 924 INTRA-LIGAND FREE ENERGY PREDICTED BY IDOCK:   -0.87 KCAL/MOL
REMARK 927      BINDING AFFINITY PREDICTED BY RF-SCORE:    0.00 PKD
ROOT
HETATM    1  O   UNL     1     -10.363  14.258  65.151  1.00  0.00    -0.371 OA 
HETATM    2  C   UNL     1     -10.798  13.603  66.348  1.00  0.00    -0.290 C  
HETATM    3  H   UNL     1      -9.690  13.737  64.730  1.00  0.00     0.000 HD 
ENDROOT
BRANCH   2   4
HETATM    4  C   UNL     1     -11.314  12.193  65.963  1.00  0.00    -0.358 C  
BRANCH   4   5
HETATM    5  N   UNL     1     -10.439  11.026  66.351  1.00  0.00    -0.254 NA 
BRANCH   5   6
HETATM    6  C   UNL     1     -10.295  11.037  67.855  1.00  0.00    -0.186 C  
HETATM    7  O   UNL     1     -10.352   8.636  67.669  1.00  0.00    -0.226 OA 
HETATM    8  C   UNL     1     -10.625   9.684  68.481  1.00  0.00    -0.220 C  
HETATM    9  O   UNL     1     -11.068   9.550  69.611  1.00  0.00    -0.234 OA 
ENDBRANCH   5   6
BRANCH   5  10
HETATM   10  C   UNL     1      -9.072  11.234  65.757  1.00  0.00    -0.203 C  
HETATM   11  O   UNL     1      -9.997  10.224  63.783  1.00  0.00    -0.262 OA 
HETATM   12  O   UNL     1      -7.763  10.013  64.105  1.00  0.00    -0.138 OA 
HETATM   13  C   UNL     1      -8.855  10.414  64.484  1.00  0.00    -0.207 C  
ENDBRANCH   5  10
ENDBRANCH   4   5
ENDBRANCH   2   4
BRANCH   2  14
HETATM   14  C   UNL     1     -11.903  14.458  67.039  1.00  0.00    -0.412 C  
BRANCH  14  15
HETATM   15  N   UNL     1     -11.616  14.983  68.421  1.00  0.00    -0.323 NA 
BRANCH  15  16
HETATM   16  C   UNL     1     -12.079  13.945  69.418  1.00  0.00    -0.337 C  
HETATM   17  C   UNL     1     -12.619  14.559  70.706  1.00  0.00    -0.351 C  
HETATM   18  O   UNL     1     -13.180  15.780  70.509  1.00  0.00    -0.449 OA 
HETATM   19  O   UNL     1     -12.613  13.998  71.789  1.00  0.00    -0.326 OA 
ENDBRANCH  15  16
BRANCH  15  20
HETATM   20  C   UNL     1     -10.108  15.090  68.580  1.00  0.00    -0.225 C  
HETATM   21  C   UNL     1      -9.629  16.509  68.884  1.00  0.00    -0.261 C  
HETATM   22  O   UNL     1     -10.547  17.252  69.548  1.00  0.00    -0.264 OA 
HETATM   23  O   UNL     1      -8.517  16.924  68.610  1.00  0.00    -0.243 OA 
ENDBRANCH  15  20
ENDBRANCH  14  15
ENDBRANCH   2  14
TORSDOF 8
ENDMDL
MODEL      186
REMARK 921   NORMALIZED FREE ENERGY PREDICTED BY IDOCK:   -3.86 KCAL/MOL
REMARK 922        TOTAL FREE ENERGY PREDICTED BY IDOCK:   -7.00 KCAL/MOL
REMARK 923 INTER-LIGAND FREE ENERGY PREDICTED BY IDOCK:   -5.55 KCAL/MOL
REMARK 924 INTRA-LIGAND FREE ENERGY PREDICTED BY IDOCK:   -1.45 KCAL/MOL
REMARK 927      BINDING AFFINITY PREDICTED BY RF-SCORE:    0.00 PKD
ROOT
HETATM    1  O   UNL     1      -8.285  12.288  68.749  1.00  0.00    -0.319 OA 
HETATM    2  C   UNL     1      -8.688  13.069  67.618  1.00  0.00    -0.189 C  
HETATM    3  H   UNL     1      -7.337  12.245  68.783  1.00  0.00     0.000 HD 
ENDROOT
BRANCH   2   4
HETATM    4  C   UNL     1      -8.051  14.475  67.753  1.00  0.00    -0.158 C  
BRANCH   4   5
HETATM    5  N   UNL     1      -8.100  15.107  69.123  1.00  0.00    -0.200 NA 
BRANCH   5   6
HETATM    6  C   UNL     1      -9.015  16.306  69.046  1.00  0.00    -0.254 C  
HETATM    7  O   UNL     1     -10.360  15.122  70.656  1.00  0.00    -0.091 OA 
HETATM    8  C   UNL     1     -10.389  16.030  69.652  1.00  0.00    -0.283 C  
HETATM    9  O   UNL     1     -11.414  16.586  69.291  1.00  0.00    -0.221 OA 
ENDBRANCH   5   6
BRANCH   5  10
HETATM   10  C   UNL     1      -6.722  15.602  69.473  1.00  0.00    -0.185 C  
HETATM   11  O   UNL     1      -6.381  13.405  70.380  1.00  0.00    -0.061 OA 
HETATM   12  O   UNL     1      -5.172  15.097  71.281  1.00  0.00    -0.139 OA 
HETATM   13  C   UNL     1      -6.015  14.703  70.488  1.00  0.00    -0.172 C  
ENDBRANCH   5  10
ENDBRANCH   4   5
ENDBRANCH   2   4
BRANCH   2  14
HETATM   14  C   UNL     1     -10.245  13.139  67.561  1.00  0.00    -0.225 C  
BRANCH  14  15
HETATM   15  N   UNL     1     -10.882  13.423  66.225  1.00  0.00    -0.287 NA 
BRANCH  15  16
HETATM   16  C   UNL     1     -11.976  12.404  66.005  1.00  0.00    -0.350 C  
HETATM   17  C   UNL     1     -12.409  12.305  64.546  1.00  0.00    -0.384 C  
HETATM   18  O   UNL     1     -11.403  12.594  63.680  1.00  0.00    -0.427 OA 
HETATM   19  O   UNL     1     -13.516  11.944  64.182  1.00  0.00    -0.591 OA 
ENDBRANCH  15  16
BRANCH  15  20
HETATM   20  C   UNL     1     -11.566  14.778  66.310  1.00  0.00    -0.298 C  
HETATM   21  C   UNL     1     -10.697  15.930  65.805  1.00  0.00    -0.316 C  
HETATM   22  O   UNL     1      -9.809  15.552  64.853  1.00  0.00    -0.249 OA 
HETATM   23  O   UNL     1     -10.817  17.084  66.174  1.00  0.00    -0.154 OA 
ENDBRANCH  15  20
ENDBRANCH  14  15
ENDBRANCH   2  14
TORSDOF 8
ENDMDL
MODEL      187
REMARK 921   NORMALIZED FREE ENERGY PREDICTED BY IDOCK:   -3.86 KCAL/MOL
REMARK 922        TOTAL FREE ENERGY PREDICTED BY IDOCK:   -6.99 KCAL/MOL
REMARK 923 INTER-LIGAND FREE ENERGY PREDICTED BY IDOCK:   -6.11 KCAL/MOL
REMARK 924 INTRA-LIGAND FREE ENERGY PREDICTED BY IDOCK:   -0.88 KCAL/MOL
REMARK 927      BINDING AFFINITY PREDICTED BY RF-SCORE:    0.00 PKD
ROOT
HETATM    1  O   UNL     1     -12.062  12.054  66.389  1.00  0.00    -0.610 OA 
HETATM    2  C   UNL     1     -11.478  12.449  67.635  1.00  0.00    -0.337 C  
HETATM    3  H   UNL     1     -12.864  12.542  66.245  1.00  0.00     0.000 HD 
ENDROOT
BRANCH   2   4
HETATM    4  C   UNL     1     -11.222  13.977  67.583  1.00  0.00    -0.297 C  
BRANCH   4   5
HETATM    5  N   UNL     1     -11.515  14.752  68.844  1.00  0.00    -0.282 NA 
BRANCH   5   6
HETATM    6  C   UNL     1     -10.201  15.248  69.398  1.00  0.00    -0.256 C  
HETATM    7  O   UNL     1     -10.876  17.387  68.523  1.00  0.00    -0.308 OA 
HETATM    8  C   UNL     1      -9.811  16.614  68.839  1.00  0.00    -0.261 C  
HETATM    9  O   UNL     1      -8.657  16.991  68.711  1.00  0.00    -0.257 OA 
ENDBRANCH   5   6
BRANCH   5  10
HETATM   10  C   UNL     1     -12.116  13.812  69.855  1.00  0.00    -0.348 C  
HETATM   11  O   UNL     1     -13.245  15.758  70.697  1.00  0.00    -0.501 OA 
HETATM   12  O   UNL     1     -12.839  14.080  72.166  1.00  0.00    -0.340 OA 
HETATM   13  C   UNL     1     -12.745  14.548  71.039  1.00  0.00    -0.343 C  
ENDBRANCH   5  10
ENDBRANCH   4   5
ENDBRANCH   2   4
BRANCH   2  14
HETATM   14  C   UNL     1     -10.161  11.648  67.871  1.00  0.00    -0.187 C  
BRANCH  14  15
HETATM   15  N   UNL     1     -10.273  10.308  68.552  1.00  0.00    -0.165 NA 
BRANCH  15  16
HETATM   16  C   UNL     1     -11.534  10.313  69.385  1.00  0.00    -0.186 C  
HETATM   17  C   UNL     1     -11.509   9.278  70.504  1.00  0.00    -0.248 C  
HETATM   18  O   UNL     1     -10.254   9.030  70.961  1.00  0.00    -0.228 OA 
HETATM   19  O   UNL     1     -12.506   8.769  70.991  1.00  0.00    -0.244 OA 
ENDBRANCH  15  16
BRANCH  15  20
HETATM   20  C   UNL     1     -10.470   9.251  67.478  1.00  0.00    -0.274 C  
HETATM   21  C   UNL     1      -9.188   8.496  67.127  1.00  0.00    -0.142 C  
HETATM   22  O   UNL     1      -8.313   8.419  68.158  1.00  0.00    -0.125 OA 
HETATM   23  O   UNL     1      -8.986   7.966  66.048  1.00  0.00    -0.169 OA 
ENDBRANCH  15  20
ENDBRANCH  14  15
ENDBRANCH   2  14
TORSDOF 8
ENDMDL
MODEL      188
REMARK 921   NORMALIZED FREE ENERGY PREDICTED BY IDOCK:   -3.86 KCAL/MOL
REMARK 922        TOTAL FREE ENERGY PREDICTED BY IDOCK:   -6.99 KCAL/MOL
REMARK 923 INTER-LIGAND FREE ENERGY PREDICTED BY IDOCK:   -6.09 KCAL/MOL
REMARK 924 INTRA-LIGAND FREE ENERGY PREDICTED BY IDOCK:   -0.90 KCAL/MOL
REMARK 927      BINDING AFFINITY PREDICTED BY RF-SCORE:    0.00 PKD
ROOT
HETATM    1  O   UNL     1     -10.479  14.394  69.281  1.00  0.00    -0.336 OA 
HETATM    2  C   UNL     1      -9.809  14.838  68.096  1.00  0.00    -0.221 C  
HETATM    3  H   UNL     1     -11.344  14.074  69.056  1.00  0.00     0.000 HD 
ENDROOT
BRANCH   2   4
HETATM    4  C   UNL     1      -9.744  13.647  67.107  1.00  0.00    -0.245 C  
BRANCH   4   5
HETATM    5  N   UNL     1     -10.841  13.570  66.073  1.00  0.00    -0.277 NA 
BRANCH   5   6
HETATM    6  C   UNL     1     -10.326  12.754  64.911  1.00  0.00    -0.309 C  
HETATM    7  O   UNL     1     -11.728  11.004  65.789  1.00  0.00     0.195 OA 
HETATM    8  C   UNL     1     -10.605  11.262  65.079  1.00  0.00    -0.289 C  
HETATM    9  O   UNL     1      -9.905  10.383  64.601  1.00  0.00    -0.299 OA 
ENDBRANCH   5   6
BRANCH   5  10
HETATM   10  C   UNL     1     -11.122  14.961  65.568  1.00  0.00    -0.352 C  
HETATM   11  O   UNL     1     -13.331  14.134  65.113  1.00  0.00    -0.684 OA 
HETATM   12  O   UNL     1     -12.582  15.848  63.833  1.00  0.00    -0.719 OA 
HETATM   13  C   UNL     1     -12.397  15.034  64.726  1.00  0.00    -0.156 C  
ENDBRANCH   5  10
ENDBRANCH   4   5
ENDBRANCH   2   4
BRANCH   2  14
HETATM   14  C   UNL     1      -8.388  15.364  68.466  1.00  0.00    -0.151 C  
BRANCH  14  15
HETATM   15  N   UNL     1      -8.066  16.797  68.130  1.00  0.00    -0.191 NA 
BRANCH  15  16
HETATM   16  C   UNL     1      -7.601  16.845  66.692  1.00  0.00    -0.266 C  
HETATM   17  C   UNL     1      -6.144  17.273  66.554  1.00  0.00    -0.216 C  
HETATM   18  O   UNL     1      -5.389  16.913  67.624  1.00  0.00    -0.112 OA 
HETATM   19  O   UNL     1      -5.680  17.822  65.568  1.00  0.00    -0.138 OA 
ENDBRANCH  15  16
BRANCH  15  20
HETATM   20  C   UNL     1      -9.358  17.596  68.191  1.00  0.00    -0.279 C  
HETATM   21  C   UNL     1      -9.188  18.976  68.826  1.00  0.00    -0.343 C  
HETATM   22  O   UNL     1      -7.947  19.493  68.656  1.00  0.00    -0.350 OA 
HETATM   23  O   UNL     1     -10.086  19.582  69.384  1.00  0.00    -0.356 OA 
ENDBRANCH  15  20
ENDBRANCH  14  15
ENDBRANCH   2  14
TORSDOF 8
ENDMDL
MODEL      189
REMARK 921   NORMALIZED FREE ENERGY PREDICTED BY IDOCK:   -3.85 KCAL/MOL
REMARK 922        TOTAL FREE ENERGY PREDICTED BY IDOCK:   -6.98 KCAL/MOL
REMARK 923 INTER-LIGAND FREE ENERGY PREDICTED BY IDOCK:   -5.81 KCAL/MOL
REMARK 924 INTRA-LIGAND FREE ENERGY PREDICTED BY IDOCK:   -1.17 KCAL/MOL
REMARK 927      BINDING AFFINITY PREDICTED BY RF-SCORE:    0.00 PKD
ROOT
HETATM    1  O   UNL     1     -10.379   7.639  66.216  1.00  0.00    -0.462 OA 
HETATM    2  C   UNL     1      -9.533   8.785  66.371  1.00  0.00    -0.228 C  
HETATM    3  H   UNL     1      -9.978   6.889  66.639  1.00  0.00     0.000 HD 
ENDROOT
BRANCH   2   4
HETATM    4  C   UNL     1      -9.320   9.022  67.888  1.00  0.00    -0.141 C  
BRANCH   4   5
HETATM    5  N   UNL     1      -9.710  10.380  68.418  1.00  0.00    -0.154 NA 
BRANCH   5   6
HETATM    6  C   UNL     1      -8.441  11.129  68.749  1.00  0.00    -0.134 C  
HETATM    7  O   UNL     1      -9.604  13.058  67.894  1.00  0.00    -0.201 OA 
HETATM    8  C   UNL     1      -8.384  12.501  68.081  1.00  0.00    -0.175 C  
HETATM    9  O   UNL     1      -7.345  13.059  67.766  1.00  0.00    -0.109 OA 
ENDBRANCH   5   6
BRANCH   5  10
HETATM   10  C   UNL     1     -10.480  10.191  69.698  1.00  0.00    -0.252 C  
HETATM   11  O   UNL     1     -12.263  11.327  68.559  1.00  0.00    -0.588 OA 
HETATM   12  O   UNL     1     -12.207  11.491  70.819  1.00  0.00    -0.374 OA 
HETATM   13  C   UNL     1     -11.720  11.083  69.774  1.00  0.00    -0.335 C  
ENDBRANCH   5  10
ENDBRANCH   4   5
ENDBRANCH   2   4
BRANCH   2  14
HETATM   14  C   UNL     1     -10.192  10.016  65.677  1.00  0.00    -0.188 C  
BRANCH  14  15
HETATM   15  N   UNL     1      -9.429  10.676  64.558  1.00  0.00    -0.240 NA 
BRANCH  15  16
HETATM   16  C   UNL     1      -8.585   9.619  63.883  1.00  0.00    -0.206 C  
HETATM   17  C   UNL     1      -7.089   9.883  64.012  1.00  0.00    -0.127 C  
HETATM   18  O   UNL     1      -6.771  10.547  65.153  1.00  0.00    -0.107 OA 
HETATM   19  O   UNL     1      -6.251   9.488  63.217  1.00  0.00    -0.094 OA 
ENDBRANCH  15  16
BRANCH  15  20
HETATM   20  C   UNL     1     -10.434  11.151  63.521  1.00  0.00    -0.358 C  
HETATM   21  C   UNL     1     -11.076  12.494  63.869  1.00  0.00    -0.423 C  
HETATM   22  O   UNL     1     -10.275  13.292  64.615  1.00  0.00    -0.364 OA 
HETATM   23  O   UNL     1     -12.175  12.843  63.476  1.00  0.00    -0.554 OA 
ENDBRANCH  15  20
ENDBRANCH  14  15
ENDBRANCH   2  14
TORSDOF 8
ENDMDL
MODEL      190
REMARK 921   NORMALIZED FREE ENERGY PREDICTED BY IDOCK:   -3.85 KCAL/MOL
REMARK 922        TOTAL FREE ENERGY PREDICTED BY IDOCK:   -6.98 KCAL/MOL
REMARK 923 INTER-LIGAND FREE ENERGY PREDICTED BY IDOCK:   -6.29 KCAL/MOL
REMARK 924 INTRA-LIGAND FREE ENERGY PREDICTED BY IDOCK:   -0.70 KCAL/MOL
REMARK 927      BINDING AFFINITY PREDICTED BY RF-SCORE:    0.00 PKD
ROOT
HETATM    1  O   UNL     1      -7.873  14.421  66.842  1.00  0.00    -0.352 OA 
HETATM    2  C   UNL     1      -9.155  13.807  67.019  1.00  0.00    -0.246 C  
HETATM    3  H   UNL     1      -7.573  14.774  67.671  1.00  0.00     0.000 HD 
ENDROOT
BRANCH   2   4
HETATM    4  C   UNL     1      -9.013  12.704  68.098  1.00  0.00    -0.199 C  
BRANCH   4   5
HETATM    5  N   UNL     1      -8.694  11.314  67.603  1.00  0.00    -0.129 NA 
BRANCH   5   6
HETATM    6  C   UNL     1      -8.990  10.345  68.723  1.00  0.00    -0.157 C  
HETATM    7  O   UNL     1     -10.610   9.410  67.206  1.00  0.00    -0.267 OA 
HETATM    8  C   UNL     1     -10.302   9.594  68.512  1.00  0.00    -0.205 C  
HETATM    9  O   UNL     1     -10.998   9.174  69.423  1.00  0.00    -0.197 OA 
ENDBRANCH   5   6
BRANCH   5  10
HETATM   10  C   UNL     1      -7.220  11.238  67.307  1.00  0.00    -0.114 C  
HETATM   11  O   UNL     1      -7.892  10.243  65.227  1.00  0.00    -0.140 OA 
HETATM   12  O   UNL     1      -5.848   9.684  66.030  1.00  0.00    -0.058 OA 
HETATM   13  C   UNL     1      -6.902  10.293  66.148  1.00  0.00    -0.115 C  
ENDBRANCH   5  10
ENDBRANCH   4   5
ENDBRANCH   2   4
BRANCH   2  14
HETATM   14  C   UNL     1      -9.648  13.227  65.657  1.00  0.00     0.007 C  
BRANCH  14  15
HETATM   15  N   UNL     1     -10.825  13.899  64.999  1.00  0.00    -0.358 NA 
BRANCH  15  16
HETATM   16  C   UNL     1     -12.065  13.106  65.343  1.00  0.00    -0.433 C  
HETATM   17  C   UNL     1     -12.508  12.179  64.215  1.00  0.00    -0.363 C  
HETATM   18  O   UNL     1     -11.468  11.743  63.457  1.00  0.00    -0.422 OA 
HETATM   19  O   UNL     1     -13.657  11.809  64.042  1.00  0.00    -0.392 OA 
ENDBRANCH  15  16
BRANCH  15  20
HETATM   20  C   UNL     1     -11.000  15.269  65.635  1.00  0.00    -0.344 C  
HETATM   21  C   UNL     1     -11.399  16.354  64.635  1.00  0.00    -0.161 C  
HETATM   22  O   UNL     1     -12.103  15.877  63.580  1.00  0.00    -0.682 OA 
HETATM   23  O   UNL     1     -11.159  17.539  64.788  1.00  0.00    -0.959 OA 
ENDBRANCH  15  20
ENDBRANCH  14  15
ENDBRANCH   2  14
TORSDOF 8
ENDMDL
MODEL      191
REMARK 921   NORMALIZED FREE ENERGY PREDICTED BY IDOCK:   -3.84 KCAL/MOL
REMARK 922        TOTAL FREE ENERGY PREDICTED BY IDOCK:   -6.96 KCAL/MOL
REMARK 923 INTER-LIGAND FREE ENERGY PREDICTED BY IDOCK:   -7.74 KCAL/MOL
REMARK 924 INTRA-LIGAND FREE ENERGY PREDICTED BY IDOCK:    0.77 KCAL/MOL
REMARK 927      BINDING AFFINITY PREDICTED BY RF-SCORE:    0.00 PKD
ROOT
HETATM    1  O   UNL     1     -12.639  15.434  69.478  1.00  0.00    -0.606 OA 
HETATM    2  C   UNL     1     -12.399  14.068  69.123  1.00  0.00    -0.134 C  
HETATM    3  H   UNL     1     -13.378  15.483  70.073  1.00  0.00     0.000 HD 
ENDROOT
BRANCH   2   4
HETATM    4  C   UNL     1     -12.144  13.271  70.427  1.00  0.00    -0.327 C  
BRANCH   4   5
HETATM    5  N   UNL     1     -13.211  13.363  71.492  1.00  0.00    -0.342 NA 
BRANCH   5   6
HETATM    6  C   UNL     1     -12.624  14.102  72.671  1.00  0.00    -0.176 C  
HETATM    7  O   UNL     1     -14.274  15.784  72.170  1.00  0.00    -0.463 OA 
HETATM    8  C   UNL     1     -13.051  15.568  72.710  1.00  0.00    -0.480 C  
HETATM    9  O   UNL     1     -12.375  16.459  73.199  1.00  0.00    -0.482 OA 
ENDBRANCH   5   6
BRANCH   5  10
HETATM   10  C   UNL     1     -13.554  11.969  71.948  1.00  0.00    -0.048 C  
HETATM   11  O   UNL     1     -11.550  11.315  70.796  1.00  0.00    -0.190 OA 
HETATM   12  O   UNL     1     -13.187   9.759  70.993  1.00  0.00    -0.353 OA 
HETATM   13  C   UNL     1     -12.776  10.895  71.187  1.00  0.00    -0.429 C  
ENDBRANCH   5  10
ENDBRANCH   4   5
ENDBRANCH   2   4
BRANCH   2  14
HETATM   14  C   UNL     1     -11.185  13.988  68.147  1.00  0.00    -0.275 C  
BRANCH  14  15
HETATM   15  N   UNL     1     -11.365  13.204  66.873  1.00  0.00    -0.304 NA 
BRANCH  15  16
HETATM   16  C   UNL     1     -11.202  14.158  65.712  1.00  0.00    -0.312 C  
HETATM   17  C   UNL     1     -12.436  14.221  64.819  1.00  0.00    -0.374 C  
HETATM   18  O   UNL     1     -13.588  13.984  65.499  1.00  0.00    -0.596 OA 
HETATM   19  O   UNL     1     -12.412  14.516  63.635  1.00  0.00    -0.782 OA 
ENDBRANCH  15  16
BRANCH  15  20
HETATM   20  C   UNL     1     -10.224  12.204  66.772  1.00  0.00    -0.203 C  
HETATM   21  C   UNL     1     -10.465  10.926  67.576  1.00  0.00    -0.215 C  
HETATM   22  O   UNL     1     -11.777  10.616  67.708  1.00  0.00    -0.503 OA 
HETATM   23  O   UNL     1      -9.573  10.222  68.014  1.00  0.00    -0.144 OA 
ENDBRANCH  15  20
ENDBRANCH  14  15
ENDBRANCH   2  14
TORSDOF 8
ENDMDL
MODEL      192
REMARK 921   NORMALIZED FREE ENERGY PREDICTED BY IDOCK:   -3.82 KCAL/MOL
REMARK 922        TOTAL FREE ENERGY PREDICTED BY IDOCK:   -6.94 KCAL/MOL
REMARK 923 INTER-LIGAND FREE ENERGY PREDICTED BY IDOCK:   -5.49 KCAL/MOL
REMARK 924 INTRA-LIGAND FREE ENERGY PREDICTED BY IDOCK:   -1.46 KCAL/MOL
REMARK 927      BINDING AFFINITY PREDICTED BY RF-SCORE:    0.00 PKD
ROOT
HETATM    1  O   UNL     1     -11.366   7.398  67.968  1.00  0.00    -0.367 OA 
HETATM    2  C   UNL     1     -10.444   6.818  68.897  1.00  0.00    -0.207 C  
HETATM    3  H   UNL     1     -11.953   6.727  67.641  1.00  0.00     0.000 HD 
ENDROOT
BRANCH   2   4
HETATM    4  C   UNL     1     -11.261   6.159  70.037  1.00  0.00    -0.401 C  
BRANCH   4   5
HETATM    5  N   UNL     1     -11.489   6.996  71.272  1.00  0.00    -0.272 NA 
BRANCH   5   6
HETATM    6  C   UNL     1     -11.130   6.156  72.474  1.00  0.00    -0.274 C  
HETATM    7  O   UNL     1      -9.716   8.007  73.085  1.00  0.00    -0.277 OA 
HETATM    8  C   UNL     1      -9.883   6.667  73.190  1.00  0.00    -0.170 C  
HETATM    9  O   UNL     1      -9.120   5.951  73.820  1.00  0.00    -0.127 OA 
ENDBRANCH   5   6
BRANCH   5  10
HETATM   10  C   UNL     1     -12.956   7.325  71.363  1.00  0.00    -0.373 C  
HETATM   11  O   UNL     1     -12.220   9.557  71.859  1.00  0.00    -0.374 OA 
HETATM   12  O   UNL     1     -14.233   8.923  72.685  1.00  0.00    -0.563 OA 
HETATM   13  C   UNL     1     -13.215   8.663  72.058  1.00  0.00    -0.386 C  
ENDBRANCH   5  10
ENDBRANCH   4   5
ENDBRANCH   2   4
BRANCH   2  14
HETATM   14  C   UNL     1      -9.481   7.920  69.434  1.00  0.00    -0.156 C  
BRANCH  14  15
HETATM   15  N   UNL     1      -9.294   9.154  68.590  1.00  0.00    -0.136 NA 
BRANCH  15  16
HETATM   16  C   UNL     1      -9.694  10.352  69.421  1.00  0.00    -0.200 C  
HETATM   17  C   UNL     1     -10.804  11.176  68.779  1.00  0.00    -0.213 C  
HETATM   18  O   UNL     1     -11.636  10.425  68.012  1.00  0.00    -0.392 OA 
HETATM   19  O   UNL     1     -10.976  12.368  68.976  1.00  0.00    -0.236 OA 
ENDBRANCH  15  16
BRANCH  15  20
HETATM   20  C   UNL     1      -7.808   9.306  68.303  1.00  0.00    -0.098 C  
HETATM   21  C   UNL     1      -7.453   9.111  66.829  1.00  0.00    -0.087 C  
HETATM   22  O   UNL     1      -8.458   9.450  65.987  1.00  0.00    -0.119 OA 
HETATM   23  O   UNL     1      -6.360   8.740  66.438  1.00  0.00    -0.059 OA 
ENDBRANCH  15  20
ENDBRANCH  14  15
ENDBRANCH   2  14
TORSDOF 8
ENDMDL
MODEL      193
REMARK 921   NORMALIZED FREE ENERGY PREDICTED BY IDOCK:   -3.82 KCAL/MOL
REMARK 922        TOTAL FREE ENERGY PREDICTED BY IDOCK:   -6.94 KCAL/MOL
REMARK 923 INTER-LIGAND FREE ENERGY PREDICTED BY IDOCK:   -7.38 KCAL/MOL
REMARK 924 INTRA-LIGAND FREE ENERGY PREDICTED BY IDOCK:    0.44 KCAL/MOL
REMARK 927      BINDING AFFINITY PREDICTED BY RF-SCORE:    0.00 PKD
ROOT
HETATM    1  O   UNL     1      -7.508  13.514  67.088  1.00  0.00    -0.357 OA 
HETATM    2  C   UNL     1      -8.683  14.330  67.020  1.00  0.00    -0.212 C  
HETATM    3  H   UNL     1      -6.812  13.916  66.582  1.00  0.00     0.000 HD 
ENDROOT
BRANCH   2   4
HETATM    4  C   UNL     1      -8.321  15.739  67.554  1.00  0.00    -0.166 C  
BRANCH   4   5
HETATM    5  N   UNL     1      -8.674  16.907  66.665  1.00  0.00    -0.229 NA 
BRANCH   5   6
HETATM    6  C   UNL     1      -7.395  17.640  66.336  1.00  0.00    -0.288 C  
HETATM    7  O   UNL     1      -7.169  17.890  68.721  1.00  0.00    -0.262 OA 
HETATM    8  C   UNL     1      -6.860  18.438  67.522  1.00  0.00    -0.202 C  
HETATM    9  O   UNL     1      -6.195  19.456  67.411  1.00  0.00    -0.190 OA 
ENDBRANCH   5   6
BRANCH   5  10
HETATM   10  C   UNL     1      -9.558  17.848  67.440  1.00  0.00    -0.271 C  
HETATM   11  O   UNL     1     -10.771  18.084  65.380  1.00  0.00    -0.632 OA 
HETATM   12  O   UNL     1     -10.836  19.828  66.827  1.00  0.00    -0.472 OA 
HETATM   13  C   UNL     1     -10.435  18.711  66.531  1.00  0.00    -0.420 C  
ENDBRANCH   5  10
ENDBRANCH   4   5
ENDBRANCH   2   4
BRANCH   2  14
HETATM   14  C   UNL     1      -9.826  13.669  67.851  1.00  0.00    -0.237 C  
BRANCH  14  15
HETATM   15  N   UNL     1     -11.245  13.976  67.451  1.00  0.00    -0.300 NA 
BRANCH  15  16
HETATM   16  C   UNL     1     -11.676  12.944  66.434  1.00  0.00    -0.395 C  
HETATM   17  C   UNL     1     -12.300  13.564  65.187  1.00  0.00    -0.449 C  
HETATM   18  O   UNL     1     -11.801  14.796  64.909  1.00  0.00    -0.382 OA 
HETATM   19  O   UNL     1     -13.111  12.999  64.473  1.00  0.00    -0.693 OA 
ENDBRANCH  15  16
BRANCH  15  20
HETATM   20  C   UNL     1     -12.131  13.775  68.670  1.00  0.00    -0.298 C  
HETATM   21  C   UNL     1     -12.021  14.906  69.693  1.00  0.00    -0.320 C  
HETATM   22  O   UNL     1     -11.702  16.100  69.137  1.00  0.00    -0.327 OA 
HETATM   23  O   UNL     1     -12.248  14.770  70.882  1.00  0.00    -0.277 OA 
ENDBRANCH  15  20
ENDBRANCH  14  15
ENDBRANCH   2  14
TORSDOF 8
ENDMDL
MODEL      194
REMARK 921   NORMALIZED FREE ENERGY PREDICTED BY IDOCK:   -3.81 KCAL/MOL
REMARK 922        TOTAL FREE ENERGY PREDICTED BY IDOCK:   -6.93 KCAL/MOL
REMARK 923 INTER-LIGAND FREE ENERGY PREDICTED BY IDOCK:   -5.86 KCAL/MOL
REMARK 924 INTRA-LIGAND FREE ENERGY PREDICTED BY IDOCK:   -1.07 KCAL/MOL
REMARK 927      BINDING AFFINITY PREDICTED BY RF-SCORE:    0.00 PKD
ROOT
HETATM    1  O   UNL     1     -10.328  11.432  66.577  1.00  0.00    -0.221 OA 
HETATM    2  C   UNL     1     -10.807  12.435  67.480  1.00  0.00    -0.236 C  
HETATM    3  H   UNL     1     -10.205  10.615  67.046  1.00  0.00     0.000 HD 
ENDROOT
BRANCH   2   4
HETATM    4  C   UNL     1     -12.128  11.924  68.108  1.00  0.00     0.035 C  
BRANCH   4   5
HETATM    5  N   UNL     1     -12.146  11.777  69.611  1.00  0.00    -0.283 NA 
BRANCH   5   6
HETATM    6  C   UNL     1     -11.851  13.130  70.212  1.00  0.00    -0.224 C  
HETATM    7  O   UNL     1     -13.438  12.492  71.907  1.00  0.00    -0.433 OA 
HETATM    8  C   UNL     1     -12.886  13.543  71.255  1.00  0.00    -0.338 C  
HETATM    9  O   UNL     1     -13.176  14.702  71.502  1.00  0.00    -0.319 OA 
ENDBRANCH   5   6
BRANCH   5  10
HETATM   10  C   UNL     1     -11.037  10.842  70.013  1.00  0.00    -0.255 C  
HETATM   11  O   UNL     1     -12.789   9.481  70.934  1.00  0.00    -0.253 OA 
HETATM   12  O   UNL     1     -10.737   9.309  71.882  1.00  0.00    -0.339 OA 
HETATM   13  C   UNL     1     -11.484   9.816  71.056  1.00  0.00    -0.383 C  
ENDBRANCH   5  10
ENDBRANCH   4   5
ENDBRANCH   2   4
BRANCH   2  14
HETATM   14  C   UNL     1     -11.009  13.776  66.710  1.00  0.00    -0.304 C  
BRANCH  14  15
HETATM   15  N   UNL     1     -10.070  14.911  67.027  1.00  0.00    -0.242 NA 
BRANCH  15  16
HETATM   16  C   UNL     1     -10.898  16.078  67.512  1.00  0.00    -0.292 C  
HETATM   17  C   UNL     1     -10.592  17.373  66.767  1.00  0.00    -0.194 C  
HETATM   18  O   UNL     1     -10.191  17.158  65.487  1.00  0.00    -0.592 OA 
HETATM   19  O   UNL     1     -10.748  18.488  67.236  1.00  0.00    -0.419 OA 
ENDBRANCH  15  16
BRANCH  15  20
HETATM   20  C   UNL     1      -9.198  14.486  68.198  1.00  0.00    -0.195 C  
HETATM   21  C   UNL     1      -7.704  14.500  67.878  1.00  0.00    -0.140 C  
HETATM   22  O   UNL     1      -7.368  15.412  66.934  1.00  0.00    -0.152 OA 
HETATM   23  O   UNL     1      -6.881  13.804  68.446  1.00  0.00    -0.083 OA 
ENDBRANCH  15  20
ENDBRANCH  14  15
ENDBRANCH   2  14
TORSDOF 8
ENDMDL
MODEL      195
REMARK 921   NORMALIZED FREE ENERGY PREDICTED BY IDOCK:   -3.79 KCAL/MOL
REMARK 922        TOTAL FREE ENERGY PREDICTED BY IDOCK:   -6.90 KCAL/MOL
REMARK 923 INTER-LIGAND FREE ENERGY PREDICTED BY IDOCK:   -5.75 KCAL/MOL
REMARK 924 INTRA-LIGAND FREE ENERGY PREDICTED BY IDOCK:   -1.16 KCAL/MOL
REMARK 927      BINDING AFFINITY PREDICTED BY RF-SCORE:    0.00 PKD
ROOT
HETATM    1  O   UNL     1      -7.960  10.329  70.484  1.00  0.00    -0.412 OA 
HETATM    2  C   UNL     1      -8.899   9.701  69.604  1.00  0.00    -0.201 C  
HETATM    3  H   UNL     1      -7.784   9.756  71.221  1.00  0.00     0.000 HD 
ENDROOT
BRANCH   2   4
HETATM    4  C   UNL     1      -8.301   8.345  69.151  1.00  0.00    -0.122 C  
BRANCH   4   5
HETATM    5  N   UNL     1      -9.193   7.135  69.290  1.00  0.00    -0.141 NA 
BRANCH   5   6
HETATM    6  C   UNL     1      -9.817   7.176  70.664  1.00  0.00    -0.182 C  
HETATM    7  O   UNL     1     -11.753   6.233  69.585  1.00  0.00    -0.382 OA 
HETATM    8  C   UNL     1     -11.333   6.997  70.620  1.00  0.00    -0.307 C  
HETATM    9  O   UNL     1     -12.096   7.471  71.447  1.00  0.00    -0.303 OA 
ENDBRANCH   5   6
BRANCH   5  10
HETATM   10  C   UNL     1      -8.338   5.898  69.210  1.00  0.00    -0.113 C  
HETATM   11  O   UNL     1      -8.945   5.872  66.886  1.00  0.00    -0.114 OA 
HETATM   12  O   UNL     1      -8.435   3.883  67.846  1.00  0.00    -0.092 OA 
HETATM   13  C   UNL     1      -8.588   5.093  67.934  1.00  0.00    -0.103 C  
ENDBRANCH   5  10
ENDBRANCH   4   5
ENDBRANCH   2   4
BRANCH   2  14
HETATM   14  C   UNL     1      -9.190  10.641  68.394  1.00  0.00    -0.159 C  
BRANCH  14  15
HETATM   15  N   UNL     1     -10.524  11.340  68.359  1.00  0.00    -0.188 NA 
BRANCH  15  16
HETATM   16  C   UNL     1     -11.035  11.296  66.937  1.00  0.00    -0.290 C  
HETATM   17  C   UNL     1     -11.717  12.592  66.511  1.00  0.00    -0.391 C  
HETATM   18  O   UNL     1     -11.209  13.682  67.142  1.00  0.00    -0.293 OA 
HETATM   19  O   UNL     1     -12.580  12.663  65.652  1.00  0.00    -0.611 OA 
ENDBRANCH  15  16
BRANCH  15  20
HETATM   20  C   UNL     1     -11.502  10.527  69.192  1.00  0.00    -0.247 C  
HETATM   21  C   UNL     1     -12.081  11.304  70.375  1.00  0.00    -0.384 C  
HETATM   22  O   UNL     1     -12.149  12.639  70.156  1.00  0.00    -0.341 OA 
HETATM   23  O   UNL     1     -12.492  10.780  71.395  1.00  0.00    -0.369 OA 
ENDBRANCH  15  20
ENDBRANCH  14  15
ENDBRANCH   2  14
TORSDOF 8
ENDMDL
MODEL      196
REMARK 921   NORMALIZED FREE ENERGY PREDICTED BY IDOCK:   -3.79 KCAL/MOL
REMARK 922        TOTAL FREE ENERGY PREDICTED BY IDOCK:   -6.89 KCAL/MOL
REMARK 923 INTER-LIGAND FREE ENERGY PREDICTED BY IDOCK:   -5.90 KCAL/MOL
REMARK 924 INTRA-LIGAND FREE ENERGY PREDICTED BY IDOCK:   -0.99 KCAL/MOL
REMARK 927      BINDING AFFINITY PREDICTED BY RF-SCORE:    0.00 PKD
ROOT
HETATM    1  O   UNL     1      -9.813  11.262  69.508  1.00  0.00    -0.413 OA 
HETATM    2  C   UNL     1     -10.265  11.422  68.159  1.00  0.00    -0.187 C  
HETATM    3  H   UNL     1      -9.357  12.048  69.786  1.00  0.00     0.000 HD 
ENDROOT
BRANCH   2   4
HETATM    4  C   UNL     1     -11.180  12.671  68.103  1.00  0.00    -0.269 C  
BRANCH   4   5
HETATM    5  N   UNL     1     -10.668  13.846  67.306  1.00  0.00    -0.282 NA 
BRANCH   5   6
HETATM    6  C   UNL     1      -9.870  13.305  66.144  1.00  0.00    -0.280 C  
HETATM    7  O   UNL     1     -11.145  14.856  64.815  1.00  0.00    -0.391 OA 
HETATM    8  C   UNL     1     -10.479  13.677  64.795  1.00  0.00    -0.418 C  
HETATM    9  O   UNL     1     -10.361  12.999  63.787  1.00  0.00    -0.349 OA 
ENDBRANCH   5   6
BRANCH   5  10
HETATM   10  C   UNL     1      -9.732  14.643  68.176  1.00  0.00    -0.220 C  
HETATM   11  O   UNL     1     -11.372  16.389  67.996  1.00  0.00    -0.288 OA 
HETATM   12  O   UNL     1      -9.223  17.018  68.348  1.00  0.00    -0.242 OA 
HETATM   13  C   UNL     1     -10.053  16.138  68.168  1.00  0.00    -0.237 C  
ENDBRANCH   5  10
ENDBRANCH   4   5
ENDBRANCH   2   4
BRANCH   2  14
HETATM   14  C   UNL     1     -11.013  10.132  67.703  1.00  0.00    -0.268 C  
BRANCH  14  15
HETATM   15  N   UNL     1     -10.177   8.972  67.227  1.00  0.00    -0.236 NA 
BRANCH  15  16
HETATM   16  C   UNL     1      -8.796   9.495  66.905  1.00  0.00    -0.127 C  
HETATM   17  C   UNL     1      -8.506   9.519  65.407  1.00  0.00    -0.148 C  
HETATM   18  O   UNL     1      -9.624   9.710  64.660  1.00  0.00    -0.247 OA 
HETATM   19  O   UNL     1      -7.388   9.443  64.924  1.00  0.00    -0.100 OA 
ENDBRANCH  15  16
BRANCH  15  20
HETATM   20  C   UNL     1     -10.011   8.005  68.388  1.00  0.00    -0.185 C  
HETATM   21  C   UNL     1     -10.910   6.772  68.283  1.00  0.00    -0.226 C  
HETATM   22  O   UNL     1     -11.200   6.429  67.005  1.00  0.00    -0.373 OA 
HETATM   23  O   UNL     1     -11.288   6.125  69.243  1.00  0.00    -0.416 OA 
ENDBRANCH  15  20
ENDBRANCH  14  15
ENDBRANCH   2  14
TORSDOF 8
ENDMDL
MODEL      197
REMARK 921   NORMALIZED FREE ENERGY PREDICTED BY IDOCK:   -3.78 KCAL/MOL
REMARK 922        TOTAL FREE ENERGY PREDICTED BY IDOCK:   -6.88 KCAL/MOL
REMARK 923 INTER-LIGAND FREE ENERGY PREDICTED BY IDOCK:   -5.94 KCAL/MOL
REMARK 924 INTRA-LIGAND FREE ENERGY PREDICTED BY IDOCK:   -0.94 KCAL/MOL
REMARK 927      BINDING AFFINITY PREDICTED BY RF-SCORE:    0.00 PKD
ROOT
HETATM    1  O   UNL     1     -10.030  13.591  64.533  1.00  0.00    -0.631 OA 
HETATM    2  C   UNL     1     -10.041  12.916  65.796  1.00  0.00    -0.287 C  
HETATM    3  H   UNL     1     -10.300  14.494  64.653  1.00  0.00     0.000 HD 
ENDROOT
BRANCH   2   4
HETATM    4  C   UNL     1      -9.094  13.679  66.757  1.00  0.00    -0.217 C  
BRANCH   4   5
HETATM    5  N   UNL     1      -9.576  15.022  67.252  1.00  0.00    -0.205 NA 
BRANCH   5   6
HETATM    6  C   UNL     1      -8.381  15.942  67.330  1.00  0.00    -0.186 C  
HETATM    7  O   UNL     1      -9.620  17.340  65.809  1.00  0.00    -0.528 OA 
HETATM    8  C   UNL     1      -8.378  16.988  66.218  1.00  0.00    -0.273 C  
HETATM    9  O   UNL     1      -7.363  17.484  65.755  1.00  0.00    -0.456 OA 
ENDBRANCH   5   6
BRANCH   5  10
HETATM   10  C   UNL     1     -10.118  14.852  68.646  1.00  0.00    -0.237 C  
HETATM   11  O   UNL     1     -12.273  14.805  67.588  1.00  0.00    -0.215 OA 
HETATM   12  O   UNL     1     -12.187  15.535  69.732  1.00  0.00    -0.355 OA 
HETATM   13  C   UNL     1     -11.621  15.124  68.729  1.00  0.00    -0.349 C  
ENDBRANCH   5  10
ENDBRANCH   4   5
ENDBRANCH   2   4
BRANCH   2  14
HETATM   14  C   UNL     1      -9.598  11.434  65.599  1.00  0.00    -0.231 C  
BRANCH  14  15
HETATM   15  N   UNL     1      -9.893  10.464  66.713  1.00  0.00    -0.187 NA 
BRANCH  15  16
HETATM   16  C   UNL     1     -11.195  10.880  67.360  1.00  0.00    -0.273 C  
HETATM   17  C   UNL     1     -11.221  10.619  68.862  1.00  0.00    -0.275 C  
HETATM   18  O   UNL     1      -9.990  10.697  69.429  1.00  0.00    -0.216 OA 
HETATM   19  O   UNL     1     -12.239  10.423  69.507  1.00  0.00    -0.155 OA 
ENDBRANCH  15  16
BRANCH  15  20
HETATM   20  C   UNL     1     -10.138   9.097  66.094  1.00  0.00    -0.208 C  
HETATM   21  C   UNL     1      -9.132   8.039  66.545  1.00  0.00    -0.173 C  
HETATM   22  O   UNL     1      -8.636   8.266  67.785  1.00  0.00    -0.129 OA 
HETATM   23  O   UNL     1      -8.838   7.057  65.886  1.00  0.00    -0.154 OA 
ENDBRANCH  15  20
ENDBRANCH  14  15
ENDBRANCH   2  14
TORSDOF 8
ENDMDL
MODEL      198
REMARK 921   NORMALIZED FREE ENERGY PREDICTED BY IDOCK:   -3.75 KCAL/MOL
REMARK 922        TOTAL FREE ENERGY PREDICTED BY IDOCK:   -6.84 KCAL/MOL
REMARK 923 INTER-LIGAND FREE ENERGY PREDICTED BY IDOCK:   -5.77 KCAL/MOL
REMARK 924 INTRA-LIGAND FREE ENERGY PREDICTED BY IDOCK:   -1.08 KCAL/MOL
REMARK 927      BINDING AFFINITY PREDICTED BY RF-SCORE:    0.00 PKD
ROOT
HETATM    1  O   UNL     1     -12.158  12.630  67.124  1.00  0.00    -0.466 OA 
HETATM    2  C   UNL     1     -11.241  13.683  66.805  1.00  0.00    -0.314 C  
HETATM    3  H   UNL     1     -12.246  12.048  66.379  1.00  0.00     0.000 HD 
ENDROOT
BRANCH   2   4
HETATM    4  C   UNL     1      -9.888  13.037  66.414  1.00  0.00    -0.270 C  
BRANCH   4   5
HETATM    5  N   UNL     1      -9.883  11.538  66.235  1.00  0.00    -0.210 NA 
BRANCH   5   6
HETATM    6  C   UNL     1      -9.109  10.938  67.385  1.00  0.00    -0.140 C  
HETATM    7  O   UNL     1     -11.176   9.823  67.921  1.00  0.00    -0.184 OA 
HETATM    8  C   UNL     1     -10.022  10.309  68.435  1.00  0.00    -0.157 C  
HETATM    9  O   UNL     1      -9.736  10.225  69.619  1.00  0.00    -0.228 OA 
ENDBRANCH   5   6
BRANCH   5  10
HETATM   10  C   UNL     1      -9.146  11.210  64.964  1.00  0.00    -0.121 C  
HETATM   11  O   UNL     1     -11.272  11.518  63.889  1.00  0.00    -0.387 OA 
HETATM   12  O   UNL     1      -9.797  10.117  62.887  1.00  0.00    -0.179 OA 
HETATM   13  C   UNL     1     -10.090  10.863  63.811  1.00  0.00    -0.353 C  
ENDBRANCH   5  10
ENDBRANCH   4   5
ENDBRANCH   2   4
BRANCH   2  14
HETATM   14  C   UNL     1     -11.097  14.638  68.029  1.00  0.00    -0.281 C  
BRANCH  14  15
HETATM   15  N   UNL     1     -10.175  15.821  67.886  1.00  0.00    -0.238 NA 
BRANCH  15  16
HETATM   16  C   UNL     1     -10.991  17.076  68.091  1.00  0.00    -0.263 C  
HETATM   17  C   UNL     1     -10.751  18.123  67.008  1.00  0.00    -0.253 C  
HETATM   18  O   UNL     1     -10.424  17.573  65.811  1.00  0.00    -0.535 OA 
HETATM   19  O   UNL     1     -10.898  19.324  67.170  1.00  0.00    -0.475 OA 
ENDBRANCH  15  16
BRANCH  15  20
HETATM   20  C   UNL     1      -9.168  15.772  69.024  1.00  0.00    -0.243 C  
HETATM   21  C   UNL     1      -7.857  15.082  68.644  1.00  0.00    -0.138 C  
HETATM   22  O   UNL     1      -7.556  15.193  67.328  1.00  0.00    -0.189 OA 
HETATM   23  O   UNL     1      -7.123  14.531  69.446  1.00  0.00    -0.143 OA 
ENDBRANCH  15  20
ENDBRANCH  14  15
ENDBRANCH   2  14
TORSDOF 8
ENDMDL
MODEL      199
REMARK 921   NORMALIZED FREE ENERGY PREDICTED BY IDOCK:   -3.74 KCAL/MOL
REMARK 922        TOTAL FREE ENERGY PREDICTED BY IDOCK:   -6.82 KCAL/MOL
REMARK 923 INTER-LIGAND FREE ENERGY PREDICTED BY IDOCK:   -5.58 KCAL/MOL
REMARK 924 INTRA-LIGAND FREE ENERGY PREDICTED BY IDOCK:   -1.25 KCAL/MOL
REMARK 927      BINDING AFFINITY PREDICTED BY RF-SCORE:    0.00 PKD
ROOT
HETATM    1  O   UNL     1      -9.300  11.799  64.659  1.00  0.00    -0.421 OA 
HETATM    2  C   UNL     1      -8.972  11.399  65.995  1.00  0.00    -0.197 C  
HETATM    3  H   UNL     1      -9.118  11.084  64.060  1.00  0.00     0.000 HD 
ENDROOT
BRANCH   2   4
HETATM    4  C   UNL     1      -9.801  10.134  66.335  1.00  0.00    -0.222 C  
BRANCH   4   5
HETATM    5  N   UNL     1      -9.027   8.853  66.528  1.00  0.00    -0.147 NA 
BRANCH   5   6
HETATM    6  C   UNL     1      -9.461   8.243  67.839  1.00  0.00    -0.146 C  
HETATM    7  O   UNL     1      -9.948   6.283  66.528  1.00  0.00    -0.166 OA 
HETATM    8  C   UNL     1     -10.280   6.970  67.647  1.00  0.00    -0.193 C  
HETATM    9  O   UNL     1     -11.133   6.587  68.431  1.00  0.00    -0.293 OA 
ENDBRANCH   5   6
BRANCH   5  10
HETATM   10  C   UNL     1      -7.564   9.190  66.639  1.00  0.00    -0.089 C  
HETATM   11  O   UNL     1      -7.251   7.490  64.971  1.00  0.00    -0.061 OA 
HETATM   12  O   UNL     1      -5.522   7.887  66.383  1.00  0.00    -0.025 OA 
HETATM   13  C   UNL     1      -6.666   8.120  66.016  1.00  0.00    -0.053 C  
ENDBRANCH   5  10
ENDBRANCH   4   5
ENDBRANCH   2   4
BRANCH   2  14
HETATM   14  C   UNL     1      -9.271  12.571  66.979  1.00  0.00    -0.214 C  
BRANCH  14  15
HETATM   15  N   UNL     1     -10.013  13.765  66.436  1.00  0.00    -0.289 NA 
BRANCH  15  16
HETATM   16  C   UNL     1     -11.492  13.526  66.639  1.00  0.00    -0.339 C  
HETATM   17  C   UNL     1     -12.302  13.703  65.359  1.00  0.00    -0.476 C  
HETATM   18  O   UNL     1     -11.592  13.398  64.242  1.00  0.00    -0.372 OA 
HETATM   19  O   UNL     1     -13.480  14.021  65.331  1.00  0.00    -0.679 OA 
ENDBRANCH  15  16
BRANCH  15  20
HETATM   20  C   UNL     1      -9.651  14.971  67.288  1.00  0.00    -0.207 C  
HETATM   21  C   UNL     1      -9.311  16.214  66.467  1.00  0.00    -0.268 C  
HETATM   22  O   UNL     1      -9.947  16.255  65.271  1.00  0.00    -0.505 OA 
HETATM   23  O   UNL     1      -8.585  17.110  66.860  1.00  0.00    -0.212 OA 
ENDBRANCH  15  20
ENDBRANCH  14  15
ENDBRANCH   2  14
TORSDOF 8
ENDMDL
MODEL      200
REMARK 921   NORMALIZED FREE ENERGY PREDICTED BY IDOCK:   -3.74 KCAL/MOL
REMARK 922        TOTAL FREE ENERGY PREDICTED BY IDOCK:   -6.82 KCAL/MOL
REMARK 923 INTER-LIGAND FREE ENERGY PREDICTED BY IDOCK:   -7.17 KCAL/MOL
REMARK 924 INTRA-LIGAND FREE ENERGY PREDICTED BY IDOCK:    0.34 KCAL/MOL
REMARK 927      BINDING AFFINITY PREDICTED BY RF-SCORE:    0.00 PKD
ROOT
HETATM    1  O   UNL     1      -9.172  13.619  65.852  1.00  0.00    -0.489 OA 
HETATM    2  C   UNL     1      -8.868  14.603  66.846  1.00  0.00    -0.242 C  
HETATM    3  H   UNL     1      -9.337  12.783  66.272  1.00  0.00     0.000 HD 
ENDROOT
BRANCH   2   4
HETATM    4  C   UNL     1     -10.064  14.677  67.829  1.00  0.00    -0.228 C  
BRANCH   4   5
HETATM    5  N   UNL     1     -11.162  13.661  67.631  1.00  0.00    -0.269 NA 
BRANCH   5   6
HETATM    6  C   UNL     1     -12.223  14.291  66.760  1.00  0.00    -0.352 C  
HETATM    7  O   UNL     1     -12.067  12.266  65.465  1.00  0.00    -0.523 OA 
HETATM    8  C   UNL     1     -12.365  13.586  65.413  1.00  0.00    -0.478 C  
HETATM    9  O   UNL     1     -12.734  14.142  64.391  1.00  0.00    -0.667 OA 
ENDBRANCH   5   6
BRANCH   5  10
HETATM   10  C   UNL     1     -11.785  13.361  68.969  1.00  0.00    -0.323 C  
HETATM   11  O   UNL     1     -11.895  15.747  69.227  1.00  0.00    -0.365 OA 
HETATM   12  O   UNL     1     -11.761  14.505  71.119  1.00  0.00    -0.314 OA 
HETATM   13  C   UNL     1     -11.792  14.576  69.898  1.00  0.00    -0.317 C  
ENDBRANCH   5  10
ENDBRANCH   4   5
ENDBRANCH   2   4
BRANCH   2  14
HETATM   14  C   UNL     1      -8.597  15.975  66.157  1.00  0.00    -0.280 C  
BRANCH  14  15
HETATM   15  N   UNL     1      -8.344  17.165  67.046  1.00  0.00    -0.198 NA 
BRANCH  15  16
HETATM   16  C   UNL     1      -6.862  17.462  67.015  1.00  0.00    -0.182 C  
HETATM   17  C   UNL     1      -6.238  17.513  68.405  1.00  0.00    -0.175 C  
HETATM   18  O   UNL     1      -6.868  16.701  69.292  1.00  0.00    -0.218 OA 
HETATM   19  O   UNL     1      -5.241  18.158  68.687  1.00  0.00    -0.157 OA 
ENDBRANCH  15  16
BRANCH  15  20
HETATM   20  C   UNL     1      -9.037  18.369  66.429  1.00  0.00    -0.261 C  
HETATM   21  C   UNL     1      -9.995  19.074  67.389  1.00  0.00    -0.342 C  
HETATM   22  O   UNL     1      -9.636  18.950  68.690  1.00  0.00    -0.353 OA 
HETATM   23  O   UNL     1     -10.957  19.729  67.029  1.00  0.00    -0.435 OA 
ENDBRANCH  15  20
ENDBRANCH  14  15
ENDBRANCH   2  14
TORSDOF 8
ENDMDL
MODEL      201
REMARK 921   NORMALIZED FREE ENERGY PREDICTED BY IDOCK:   -3.73 KCAL/MOL
REMARK 922        TOTAL FREE ENERGY PREDICTED BY IDOCK:   -6.81 KCAL/MOL
REMARK 923 INTER-LIGAND FREE ENERGY PREDICTED BY IDOCK:   -5.52 KCAL/MOL
REMARK 924 INTRA-LIGAND FREE ENERGY PREDICTED BY IDOCK:   -1.29 KCAL/MOL
REMARK 927      BINDING AFFINITY PREDICTED BY RF-SCORE:    0.00 PKD
ROOT
HETATM    1  O   UNL     1     -11.874  10.305  67.961  1.00  0.00    -0.708 OA 
HETATM    2  C   UNL     1     -10.868  11.047  68.660  1.00  0.00    -0.215 C  
HETATM    3  H   UNL     1     -12.359  10.887  67.388  1.00  0.00     0.000 HD 
ENDROOT
BRANCH   2   4
HETATM    4  C   UNL     1      -9.950  11.718  67.608  1.00  0.00    -0.194 C  
BRANCH   4   5
HETATM    5  N   UNL     1      -9.835  13.222  67.675  1.00  0.00    -0.224 NA 
BRANCH   5   6
HETATM    6  C   UNL     1      -8.440  13.559  68.146  1.00  0.00    -0.172 C  
HETATM    7  O   UNL     1      -8.667  15.512  66.757  1.00  0.00    -0.223 OA 
HETATM    8  C   UNL     1      -7.782  14.639  67.292  1.00  0.00    -0.169 C  
HETATM    9  O   UNL     1      -6.576  14.729  67.123  1.00  0.00    -0.253 OA 
ENDBRANCH   5   6
BRANCH   5  10
HETATM   10  C   UNL     1     -10.805  13.730  68.709  1.00  0.00    -0.259 C  
HETATM   11  O   UNL     1     -11.968  14.705  66.847  1.00  0.00    -0.373 OA 
HETATM   12  O   UNL     1     -12.197  15.723  68.859  1.00  0.00    -0.258 OA 
HETATM   13  C   UNL     1     -11.710  14.838  68.168  1.00  0.00    -0.325 C  
ENDBRANCH   5  10
ENDBRANCH   4   5
ENDBRANCH   2   4
BRANCH   2  14
HETATM   14  C   UNL     1     -10.073  10.091  69.601  1.00  0.00    -0.236 C  
BRANCH  14  15
HETATM   15  N   UNL     1     -10.192   8.610  69.351  1.00  0.00    -0.206 NA 
BRANCH  15  16
HETATM   16  C   UNL     1      -8.966   8.166  68.586  1.00  0.00    -0.137 C  
HETATM   17  C   UNL     1      -9.301   7.573  67.222  1.00  0.00    -0.140 C  
HETATM   18  O   UNL     1     -10.428   8.105  66.682  1.00  0.00    -0.303 OA 
HETATM   19  O   UNL     1      -8.606   6.757  66.639  1.00  0.00    -0.116 OA 
ENDBRANCH  15  16
BRANCH  15  20
HETATM   20  C   UNL     1     -10.140   7.901  70.696  1.00  0.00    -0.194 C  
HETATM   21  C   UNL     1     -11.416   7.125  71.022  1.00  0.00    -0.297 C  
HETATM   22  O   UNL     1     -12.068   6.682  69.921  1.00  0.00    -0.227 OA 
HETATM   23  O   UNL     1     -11.790   6.879  72.155  1.00  0.00    -0.288 OA 
ENDBRANCH  15  20
ENDBRANCH  14  15
ENDBRANCH   2  14
TORSDOF 8
ENDMDL
MODEL      202
REMARK 921   NORMALIZED FREE ENERGY PREDICTED BY IDOCK:   -3.73 KCAL/MOL
REMARK 922        TOTAL FREE ENERGY PREDICTED BY IDOCK:   -6.81 KCAL/MOL
REMARK 923 INTER-LIGAND FREE ENERGY PREDICTED BY IDOCK:   -5.99 KCAL/MOL
REMARK 924 INTRA-LIGAND FREE ENERGY PREDICTED BY IDOCK:   -0.82 KCAL/MOL
REMARK 927      BINDING AFFINITY PREDICTED BY RF-SCORE:    0.00 PKD
ROOT
HETATM    1  O   UNL     1      -9.702  12.312  67.726  1.00  0.00    -0.189 OA 
HETATM    2  C   UNL     1     -10.604  12.043  68.806  1.00  0.00    -0.209 C  
HETATM    3  H   UNL     1      -8.911  11.797  67.837  1.00  0.00     0.000 HD 
ENDROOT
BRANCH   2   4
HETATM    4  C   UNL     1     -10.901  10.523  68.816  1.00  0.00    -0.231 C  
BRANCH   4   5
HETATM    5  N   UNL     1     -10.371   9.740  69.993  1.00  0.00    -0.245 NA 
BRANCH   5   6
HETATM    6  C   UNL     1      -9.009   9.206  69.618  1.00  0.00    -0.155 C  
HETATM    7  O   UNL     1      -8.637   9.072  71.993  1.00  0.00    -0.367 OA 
HETATM    8  C   UNL     1      -8.033   9.224  70.791  1.00  0.00    -0.154 C  
HETATM    9  O   UNL     1      -6.824   9.338  70.667  1.00  0.00    -0.072 OA 
ENDBRANCH   5   6
BRANCH   5  10
HETATM   10  C   UNL     1     -11.277   8.561  70.232  1.00  0.00    -0.179 C  
HETATM   11  O   UNL     1     -12.390   9.991  71.808  1.00  0.00    -0.390 OA 
HETATM   12  O   UNL     1     -12.498   7.758  72.179  1.00  0.00    -0.296 OA 
HETATM   13  C   UNL     1     -12.099   8.703  71.514  1.00  0.00    -0.316 C  
ENDBRANCH   5  10
ENDBRANCH   4   5
ENDBRANCH   2   4
BRANCH   2  14
HETATM   14  C   UNL     1     -11.902  12.889  68.624  1.00  0.00    -0.312 C  
BRANCH  14  15
HETATM   15  N   UNL     1     -12.107  14.059  69.551  1.00  0.00    -0.338 NA 
BRANCH  15  16
HETATM   16  C   UNL     1     -12.513  13.518  70.902  1.00  0.00    -0.369 C  
HETATM   17  C   UNL     1     -13.300  14.526  71.733  1.00  0.00    -0.363 C  
HETATM   18  O   UNL     1     -14.023  15.384  70.968  1.00  0.00    -0.470 OA 
HETATM   19  O   UNL     1     -13.335  14.532  72.952  1.00  0.00    -0.488 OA 
ENDBRANCH  15  16
BRANCH  15  20
HETATM   20  C   UNL     1     -10.763  14.743  69.748  1.00  0.00    -0.154 C  
HETATM   21  C   UNL     1     -10.501  15.866  68.743  1.00  0.00    -0.237 C  
HETATM   22  O   UNL     1     -11.634  16.463  68.302  1.00  0.00    -0.255 OA 
HETATM   23  O   UNL     1      -9.388  16.230  68.407  1.00  0.00    -0.199 OA 
ENDBRANCH  15  20
ENDBRANCH  14  15
ENDBRANCH   2  14
TORSDOF 8
ENDMDL
MODEL      203
REMARK 921   NORMALIZED FREE ENERGY PREDICTED BY IDOCK:   -3.73 KCAL/MOL
REMARK 922        TOTAL FREE ENERGY PREDICTED BY IDOCK:   -6.80 KCAL/MOL
REMARK 923 INTER-LIGAND FREE ENERGY PREDICTED BY IDOCK:   -7.38 KCAL/MOL
REMARK 924 INTRA-LIGAND FREE ENERGY PREDICTED BY IDOCK:    0.58 KCAL/MOL
REMARK 927      BINDING AFFINITY PREDICTED BY RF-SCORE:    0.00 PKD
ROOT
HETATM    1  O   UNL     1     -11.279  16.603  70.181  1.00  0.00    -0.459 OA 
HETATM    2  C   UNL     1     -10.626  16.189  68.975  1.00  0.00    -0.273 C  
HETATM    3  H   UNL     1     -12.102  16.138  70.272  1.00  0.00     0.000 HD 
ENDROOT
BRANCH   2   4
HETATM    4  C   UNL     1     -10.419  14.655  69.044  1.00  0.00    -0.246 C  
BRANCH   4   5
HETATM    5  N   UNL     1     -10.525  13.902  67.740  1.00  0.00    -0.240 NA 
BRANCH   5   6
HETATM    6  C   UNL     1      -9.289  14.207  66.927  1.00  0.00    -0.264 C  
HETATM    7  O   UNL     1      -8.381  12.225  67.949  1.00  0.00    -0.143 OA 
HETATM    8  C   UNL     1      -8.069  13.426  67.408  1.00  0.00    -0.172 C  
HETATM    9  O   UNL     1      -6.921  13.824  67.295  1.00  0.00    -0.149 OA 
ENDBRANCH   5   6
BRANCH   5  10
HETATM   10  C   UNL     1     -11.715  14.425  66.980  1.00  0.00    -0.399 C  
HETATM   11  O   UNL     1     -12.077  12.132  66.362  1.00  0.00    -0.630 OA 
HETATM   12  O   UNL     1     -12.837  13.722  64.936  1.00  0.00    -0.690 OA 
HETATM   13  C   UNL     1     -12.256  13.414  65.968  1.00  0.00    -0.437 C  
ENDBRANCH   5  10
ENDBRANCH   4   5
ENDBRANCH   2   4
BRANCH   2  14
HETATM   14  C   UNL     1      -9.274  16.952  68.826  1.00  0.00    -0.260 C  
BRANCH  14  15
HETATM   15  N   UNL     1      -9.319  18.343  68.250  1.00  0.00    -0.314 NA 
BRANCH  15  16
HETATM   16  C   UNL     1      -8.049  19.055  68.655  1.00  0.00    -0.361 C  
HETATM   17  C   UNL     1      -6.839  18.129  68.705  1.00  0.00    -0.260 C  
HETATM   18  O   UNL     1      -6.928  17.103  67.820  1.00  0.00    -0.144 OA 
HETATM   19  O   UNL     1      -5.861  18.314  69.412  1.00  0.00    -0.217 OA 
ENDBRANCH  15  16
BRANCH  15  20
HETATM   20  C   UNL     1      -9.281  18.225  66.734  1.00  0.00    -0.288 C  
HETATM   21  C   UNL     1     -10.524  18.796  66.051  1.00  0.00    -0.432 C  
HETATM   22  O   UNL     1     -11.105  19.800  66.750  1.00  0.00    -0.354 OA 
HETATM   23  O   UNL     1     -10.928  18.429  64.962  1.00  0.00    -0.644 OA 
ENDBRANCH  15  20
ENDBRANCH  14  15
ENDBRANCH   2  14
TORSDOF 8
ENDMDL
MODEL      204
REMARK 921   NORMALIZED FREE ENERGY PREDICTED BY IDOCK:   -3.69 KCAL/MOL
REMARK 922        TOTAL FREE ENERGY PREDICTED BY IDOCK:   -6.76 KCAL/MOL
REMARK 923 INTER-LIGAND FREE ENERGY PREDICTED BY IDOCK:   -5.86 KCAL/MOL
REMARK 924 INTRA-LIGAND FREE ENERGY PREDICTED BY IDOCK:   -0.90 KCAL/MOL
REMARK 927      BINDING AFFINITY PREDICTED BY RF-SCORE:    0.00 PKD
ROOT
HETATM    1  O   UNL     1     -10.344   4.860  70.336  1.00  0.00    -0.246 OA 
HETATM    2  C   UNL     1     -10.689   6.197  69.955  1.00  0.00    -0.305 C  
HETATM    3  H   UNL     1     -10.059   4.852  71.243  1.00  0.00     0.000 HD 
ENDROOT
BRANCH   2   4
HETATM    4  C   UNL     1     -11.798   6.698  70.913  1.00  0.00    -0.377 C  
BRANCH   4   5
HETATM    5  N   UNL     1     -11.530   8.000  71.631  1.00  0.00    -0.257 NA 
BRANCH   5   6
HETATM    6  C   UNL     1     -11.097   7.670  73.039  1.00  0.00    -0.381 C  
HETATM    7  O   UNL     1      -9.038   8.765  72.440  1.00  0.00    -0.366 OA 
HETATM    8  C   UNL     1      -9.590   7.819  73.235  1.00  0.00    -0.283 C  
HETATM    9  O   UNL     1      -8.944   7.173  74.044  1.00  0.00    -0.175 OA 
ENDBRANCH   5   6
BRANCH   5  10
HETATM   10  C   UNL     1     -12.819   8.774  71.715  1.00  0.00    -0.360 C  
HETATM   11  O   UNL     1     -11.585  10.552  70.674  1.00  0.00    -0.319 OA 
HETATM   12  O   UNL     1     -13.335  11.138  71.991  1.00  0.00    -0.454 OA 
HETATM   13  C   UNL     1     -12.616  10.275  71.505  1.00  0.00    -0.440 C  
ENDBRANCH   5  10
ENDBRANCH   4   5
ENDBRANCH   2   4
BRANCH   2  14
HETATM   14  C   UNL     1     -11.156   6.210  68.467  1.00  0.00    -0.262 C  
BRANCH  14  15
HETATM   15  N   UNL     1     -10.170   6.684  67.431  1.00  0.00    -0.168 NA 
BRANCH  15  16
HETATM   16  C   UNL     1      -9.399   7.843  68.018  1.00  0.00    -0.145 C  
HETATM   17  C   UNL     1      -9.079   8.924  66.990  1.00  0.00    -0.135 C  
HETATM   18  O   UNL     1     -10.014   9.005  66.008  1.00  0.00    -0.283 OA 
HETATM   19  O   UNL     1      -8.127   9.683  67.066  1.00  0.00    -0.112 OA 
ENDBRANCH  15  16
BRANCH  15  20
HETATM   20  C   UNL     1      -9.162   5.570  67.199  1.00  0.00    -0.111 C  
HETATM   21  C   UNL     1      -9.756   4.352  66.492  1.00  0.00    -0.215 C  
HETATM   22  O   UNL     1     -10.794   4.660  65.677  1.00  0.00    -0.292 OA 
HETATM   23  O   UNL     1      -9.316   3.221  66.601  1.00  0.00    -0.173 OA 
ENDBRANCH  15  20
ENDBRANCH  14  15
ENDBRANCH   2  14
TORSDOF 8
ENDMDL
MODEL      205
REMARK 921   NORMALIZED FREE ENERGY PREDICTED BY IDOCK:   -3.69 KCAL/MOL
REMARK 922        TOTAL FREE ENERGY PREDICTED BY IDOCK:   -6.75 KCAL/MOL
REMARK 923 INTER-LIGAND FREE ENERGY PREDICTED BY IDOCK:   -6.10 KCAL/MOL
REMARK 924 INTRA-LIGAND FREE ENERGY PREDICTED BY IDOCK:   -0.66 KCAL/MOL
REMARK 927      BINDING AFFINITY PREDICTED BY RF-SCORE:    0.00 PKD
ROOT
HETATM    1  O   UNL     1      -7.525  14.161  67.007  1.00  0.00    -0.315 OA 
HETATM    2  C   UNL     1      -8.943  14.193  67.203  1.00  0.00    -0.225 C  
HETATM    3  H   UNL     1      -7.156  15.011  67.216  1.00  0.00     0.000 HD 
ENDROOT
BRANCH   2   4
HETATM    4  C   UNL     1      -9.215  14.595  68.675  1.00  0.00    -0.194 C  
BRANCH   4   5
HETATM    5  N   UNL     1     -10.422  15.467  68.923  1.00  0.00    -0.229 NA 
BRANCH   5   6
HETATM    6  C   UNL     1      -9.961  16.905  68.920  1.00  0.00    -0.279 C  
HETATM    7  O   UNL     1     -10.823  16.960  66.672  1.00  0.00    -0.149 OA 
HETATM    8  C   UNL     1      -9.910  17.498  67.514  1.00  0.00    -0.293 C  
HETATM    9  O   UNL     1      -9.143  18.387  67.180  1.00  0.00    -0.260 OA 
ENDBRANCH   5   6
BRANCH   5  10
HETATM   10  C   UNL     1     -10.962  15.159  70.294  1.00  0.00    -0.251 C  
HETATM   11  O   UNL     1     -11.995  13.263  69.243  1.00  0.00    -0.312 OA 
HETATM   12  O   UNL     1     -13.007  14.104  71.088  1.00  0.00    -0.331 OA 
HETATM   13  C   UNL     1     -12.109  14.148  70.260  1.00  0.00    -0.342 C  
ENDBRANCH   5  10
ENDBRANCH   4   5
ENDBRANCH   2   4
BRANCH   2  14
HETATM   14  C   UNL     1      -9.548  12.797  66.861  1.00  0.00    -0.235 C  
BRANCH  14  15
HETATM   15  N   UNL     1     -10.153  12.616  65.493  1.00  0.00    -0.274 NA 
BRANCH  15  16
HETATM   16  C   UNL     1      -9.627  11.320  64.919  1.00  0.00    -0.232 C  
HETATM   17  C   UNL     1      -9.684  11.279  63.396  1.00  0.00    -0.360 C  
HETATM   18  O   UNL     1      -9.556  12.509  62.834  1.00  0.00     0.272 OA 
HETATM   19  O   UNL     1      -9.770  10.255  62.739  1.00  0.00    -0.294 OA 
ENDBRANCH  15  16
BRANCH  15  20
HETATM   20  C   UNL     1     -11.653  12.434  65.662  1.00  0.00    -0.392 C  
HETATM   21  C   UNL     1     -12.472  13.592  65.091  1.00  0.00    -0.451 C  
HETATM   22  O   UNL     1     -11.865  14.215  64.053  1.00  0.00    -0.370 OA 
HETATM   23  O   UNL     1     -13.583  13.897  65.487  1.00  0.00    -0.579 OA 
ENDBRANCH  15  20
ENDBRANCH  14  15
ENDBRANCH   2  14
TORSDOF 8
ENDMDL
MODEL      206
REMARK 921   NORMALIZED FREE ENERGY PREDICTED BY IDOCK:   -3.69 KCAL/MOL
REMARK 922        TOTAL FREE ENERGY PREDICTED BY IDOCK:   -6.75 KCAL/MOL
REMARK 923 INTER-LIGAND FREE ENERGY PREDICTED BY IDOCK:   -5.37 KCAL/MOL
REMARK 924 INTRA-LIGAND FREE ENERGY PREDICTED BY IDOCK:   -1.39 KCAL/MOL
REMARK 927      BINDING AFFINITY PREDICTED BY RF-SCORE:    0.00 PKD
ROOT
HETATM    1  O   UNL     1     -12.268  10.754  68.334  1.00  0.00    -0.832 OA 
HETATM    2  C   UNL     1     -11.053  10.397  69.000  1.00  0.00    -0.248 C  
HETATM    3  H   UNL     1     -12.578  11.589  68.665  1.00  0.00     0.000 HD 
ENDROOT
BRANCH   2   4
HETATM    4  C   UNL     1     -10.023  11.530  68.763  1.00  0.00    -0.157 C  
BRANCH   4   5
HETATM    5  N   UNL     1     -10.406  12.587  67.755  1.00  0.00    -0.217 NA 
BRANCH   5   6
HETATM    6  C   UNL     1      -9.542  12.396  66.532  1.00  0.00    -0.240 C  
HETATM    7  O   UNL     1     -11.502  11.390  65.560  1.00  0.00    -0.099 OA 
HETATM    8  C   UNL     1     -10.149  11.408  65.539  1.00  0.00    -0.247 C  
HETATM    9  O   UNL     1      -9.488  10.717  64.779  1.00  0.00    -0.214 OA 
ENDBRANCH   5   6
BRANCH   5  10
HETATM   10  C   UNL     1     -10.088  13.940  68.336  1.00  0.00    -0.237 C  
HETATM   11  O   UNL     1     -12.016  14.694  67.118  1.00  0.00    -0.391 OA 
HETATM   12  O   UNL     1     -10.390  16.218  67.532  1.00  0.00    -0.275 OA 
HETATM   13  C   UNL     1     -10.816  15.074  67.613  1.00  0.00    -0.291 C  
ENDBRANCH   5  10
ENDBRANCH   4   5
ENDBRANCH   2   4
BRANCH   2  14
HETATM   14  C   UNL     1     -10.544   9.026  68.457  1.00  0.00    -0.155 C  
BRANCH  14  15
HETATM   15  N   UNL     1     -10.185   7.966  69.465  1.00  0.00    -0.204 NA 
BRANCH  15  16
HETATM   16  C   UNL     1     -11.208   8.016  70.577  1.00  0.00    -0.250 C  
HETATM   17  C   UNL     1     -10.580   7.926  71.965  1.00  0.00    -0.238 C  
HETATM   18  O   UNL     1      -9.329   8.453  72.009  1.00  0.00    -0.210 OA 
HETATM   19  O   UNL     1     -11.153   7.491  72.950  1.00  0.00    -0.337 OA 
ENDBRANCH  15  16
BRANCH  15  20
HETATM   20  C   UNL     1     -10.342   6.609  68.797  1.00  0.00    -0.194 C  
HETATM   21  C   UNL     1      -9.070   5.764  68.835  1.00  0.00    -0.115 C  
HETATM   22  O   UNL     1      -8.282   6.030  69.905  1.00  0.00    -0.114 OA 
HETATM   23  O   UNL     1      -8.806   4.897  68.020  1.00  0.00    -0.102 OA 
ENDBRANCH  15  20
ENDBRANCH  14  15
ENDBRANCH   2  14
TORSDOF 8
ENDMDL
MODEL      207
REMARK 921   NORMALIZED FREE ENERGY PREDICTED BY IDOCK:   -3.69 KCAL/MOL
REMARK 922        TOTAL FREE ENERGY PREDICTED BY IDOCK:   -6.75 KCAL/MOL
REMARK 923 INTER-LIGAND FREE ENERGY PREDICTED BY IDOCK:   -6.21 KCAL/MOL
REMARK 924 INTRA-LIGAND FREE ENERGY PREDICTED BY IDOCK:   -0.54 KCAL/MOL
REMARK 927      BINDING AFFINITY PREDICTED BY RF-SCORE:    0.00 PKD
ROOT
HETATM    1  O   UNL     1      -9.363  13.300  68.606  1.00  0.00    -0.365 OA 
HETATM    2  C   UNL     1     -10.553  14.029  68.925  1.00  0.00    -0.228 C  
HETATM    3  H   UNL     1      -9.563  12.635  67.957  1.00  0.00     0.000 HD 
ENDROOT
BRANCH   2   4
HETATM    4  C   UNL     1     -11.103  14.648  67.615  1.00  0.00    -0.304 C  
BRANCH   4   5
HETATM    5  N   UNL     1     -10.582  14.065  66.324  1.00  0.00    -0.279 NA 
BRANCH   5   6
HETATM    6  C   UNL     1     -10.187  15.212  65.424  1.00  0.00    -0.372 C  
HETATM    7  O   UNL     1      -8.183  15.295  66.757  1.00  0.00    -0.230 OA 
HETATM    8  C   UNL     1      -9.029  16.026  65.994  1.00  0.00    -0.310 C  
HETATM    9  O   UNL     1      -8.859  17.214  65.767  1.00  0.00    -0.526 OA 
ENDBRANCH   5   6
BRANCH   5  10
HETATM   10  C   UNL     1     -11.701  13.316  65.651  1.00  0.00    -0.356 C  
HETATM   11  O   UNL     1     -10.053  11.616  65.247  1.00  0.00    -0.244 OA 
HETATM   12  O   UNL     1     -11.783  11.749  63.788  1.00  0.00    -0.424 OA 
HETATM   13  C   UNL     1     -11.196  12.167  64.777  1.00  0.00    -0.323 C  
ENDBRANCH   5  10
ENDBRANCH   4   5
ENDBRANCH   2   4
BRANCH   2  14
HETATM   14  C   UNL     1     -10.226  15.120  69.991  1.00  0.00    -0.127 C  
BRANCH  14  15
HETATM   15  N   UNL     1     -11.232  16.224  70.190  1.00  0.00    -0.363 NA 
BRANCH  15  16
HETATM   16  C   UNL     1     -11.768  16.116  71.599  1.00  0.00    -0.484 C  
HETATM   17  C   UNL     1     -13.152  15.476  71.659  1.00  0.00    -0.481 C  
HETATM   18  O   UNL     1     -13.360  14.584  70.657  1.00  0.00    -0.295 OA 
HETATM   19  O   UNL     1     -13.966  15.685  72.543  1.00  0.00    -0.552 OA 
ENDBRANCH  15  16
BRANCH  15  20
HETATM   20  C   UNL     1     -10.495  17.551  70.111  1.00  0.00     0.837 C  
HETATM   21  C   UNL     1     -10.285  18.044  68.679  1.00  0.00    -0.377 C  
HETATM   22  O   UNL     1     -11.247  17.623  67.823  1.00  0.00    -0.094 OA 
HETATM   23  O   UNL     1      -9.379  18.785  68.342  1.00  0.00    -0.316 OA 
ENDBRANCH  15  20
ENDBRANCH  14  15
ENDBRANCH   2  14
TORSDOF 8
ENDMDL
MODEL      208
REMARK 921   NORMALIZED FREE ENERGY PREDICTED BY IDOCK:   -3.69 KCAL/MOL
REMARK 922        TOTAL FREE ENERGY PREDICTED BY IDOCK:   -6.75 KCAL/MOL
REMARK 923 INTER-LIGAND FREE ENERGY PREDICTED BY IDOCK:   -5.72 KCAL/MOL
REMARK 924 INTRA-LIGAND FREE ENERGY PREDICTED BY IDOCK:   -1.03 KCAL/MOL
REMARK 927      BINDING AFFINITY PREDICTED BY RF-SCORE:    0.00 PKD
ROOT
HETATM    1  O   UNL     1     -10.535   4.969  70.108  1.00  0.00    -0.267 OA 
HETATM    2  C   UNL     1     -10.657   6.386  69.944  1.00  0.00    -0.243 C  
HETATM    3  H   UNL     1     -10.377   4.768  71.023  1.00  0.00     0.000 HD 
ENDROOT
BRANCH   2   4
HETATM    4  C   UNL     1     -11.812   6.877  70.852  1.00  0.00    -0.376 C  
BRANCH   4   5
HETATM    5  N   UNL     1     -11.499   8.030  71.776  1.00  0.00    -0.264 NA 
BRANCH   5   6
HETATM    6  C   UNL     1     -10.998   7.455  73.079  1.00  0.00    -0.374 C  
HETATM    7  O   UNL     1      -9.007   8.737  72.640  1.00  0.00    -0.380 OA 
HETATM    8  C   UNL     1      -9.492   7.631  73.253  1.00  0.00    -0.259 C  
HETATM    9  O   UNL     1      -8.790   6.870  73.900  1.00  0.00    -0.144 OA 
ENDBRANCH   5   6
BRANCH   5  10
HETATM   10  C   UNL     1     -12.776   8.775  72.062  1.00  0.00    -0.387 C  
HETATM   11  O   UNL     1     -11.841  10.503  70.680  1.00  0.00    -0.305 OA 
HETATM   12  O   UNL     1     -13.321  11.138  72.275  1.00  0.00    -0.394 OA 
HETATM   13  C   UNL     1     -12.678  10.262  71.716  1.00  0.00    -0.433 C  
ENDBRANCH   5  10
ENDBRANCH   4   5
ENDBRANCH   2   4
BRANCH   2  14
HETATM   14  C   UNL     1     -10.918   6.716  68.442  1.00  0.00    -0.239 C  
BRANCH  14  15
HETATM   15  N   UNL     1      -9.838   7.452  67.692  1.00  0.00    -0.146 NA 
BRANCH  15  16
HETATM   16  C   UNL     1      -9.194   6.481  66.730  1.00  0.00    -0.147 C  
HETATM   17  C   UNL     1      -7.696   6.317  66.965  1.00  0.00    -0.100 C  
HETATM   18  O   UNL     1      -7.348   6.499  68.265  1.00  0.00    -0.082 OA 
HETATM   19  O   UNL     1      -6.897   5.994  66.102  1.00  0.00    -0.058 OA 
ENDBRANCH  15  16
BRANCH  15  20
HETATM   20  C   UNL     1     -10.503   8.523  66.842  1.00  0.00    -0.275 C  
HETATM   21  C   UNL     1     -10.583   9.884  67.535  1.00  0.00    -0.275 C  
HETATM   22  O   UNL     1      -9.582  10.090  68.425  1.00  0.00    -0.142 OA 
HETATM   23  O   UNL     1     -11.425  10.726  67.281  1.00  0.00    -0.436 OA 
ENDBRANCH  15  20
ENDBRANCH  14  15
ENDBRANCH   2  14
TORSDOF 8
ENDMDL
MODEL      209
REMARK 921   NORMALIZED FREE ENERGY PREDICTED BY IDOCK:   -3.69 KCAL/MOL
REMARK 922        TOTAL FREE ENERGY PREDICTED BY IDOCK:   -6.74 KCAL/MOL
REMARK 923 INTER-LIGAND FREE ENERGY PREDICTED BY IDOCK:   -5.89 KCAL/MOL
REMARK 924 INTRA-LIGAND FREE ENERGY PREDICTED BY IDOCK:   -0.85 KCAL/MOL
REMARK 927      BINDING AFFINITY PREDICTED BY RF-SCORE:    0.00 PKD
ROOT
HETATM    1  O   UNL     1     -10.682  11.542  63.055  1.00  0.00    -0.633 OA 
HETATM    2  C   UNL     1     -10.745  10.923  64.345  1.00  0.00    -0.180 C  
HETATM    3  H   UNL     1     -11.556  11.603  62.689  1.00  0.00     0.000 HD 
ENDROOT
BRANCH   2   4
HETATM    4  C   UNL     1     -11.688  11.769  65.238  1.00  0.00    -0.065 C  
BRANCH   4   5
HETATM    5  N   UNL     1     -11.320  13.223  65.417  1.00  0.00    -0.293 NA 
BRANCH   5   6
HETATM    6  C   UNL     1     -11.908  13.690  66.727  1.00  0.00    -0.413 C  
HETATM    7  O   UNL     1      -9.640  13.616  67.532  1.00  0.00    -0.210 OA 
HETATM    8  C   UNL     1     -10.940  13.516  67.895  1.00  0.00    -0.256 C  
HETATM    9  O   UNL     1     -11.295  13.330  69.048  1.00  0.00    -0.256 OA 
ENDBRANCH   5   6
BRANCH   5  10
HETATM   10  C   UNL     1     -11.965  14.019  64.314  1.00  0.00    -0.435 C  
HETATM   11  O   UNL     1     -10.299  15.677  64.809  1.00  0.00    -0.422 OA 
HETATM   12  O   UNL     1     -12.254  16.405  63.922  1.00  0.00    -0.902 OA 
HETATM   13  C   UNL     1     -11.553  15.492  64.335  1.00  0.00    -0.258 C  
ENDBRANCH   5  10
ENDBRANCH   4   5
ENDBRANCH   2   4
BRANCH   2  14
HETATM   14  C   UNL     1      -9.309  10.824  64.947  1.00  0.00    -0.222 C  
BRANCH  14  15
HETATM   15  N   UNL     1      -9.021   9.673  65.875  1.00  0.00    -0.158 NA 
BRANCH  15  16
HETATM   16  C   UNL     1      -7.541   9.373  65.798  1.00  0.00    -0.099 C  
HETATM   17  C   UNL     1      -7.220   7.903  66.050  1.00  0.00    -0.073 C  
HETATM   18  O   UNL     1      -8.222   7.074  65.659  1.00  0.00    -0.123 OA 
HETATM   19  O   UNL     1      -6.157   7.499  66.492  1.00  0.00    -0.041 OA 
ENDBRANCH  15  16
BRANCH  15  20
HETATM   20  C   UNL     1      -9.292  10.137  67.297  1.00  0.00    -0.152 C  
HETATM   21  C   UNL     1     -10.483   9.432  67.947  1.00  0.00    -0.243 C  
HETATM   22  O   UNL     1     -10.688   8.180  67.472  1.00  0.00    -0.242 OA 
HETATM   23  O   UNL     1     -11.154   9.918  68.841  1.00  0.00    -0.212 OA 
ENDBRANCH  15  20
ENDBRANCH  14  15
ENDBRANCH   2  14
TORSDOF 8
ENDMDL
MODEL      210
REMARK 921   NORMALIZED FREE ENERGY PREDICTED BY IDOCK:   -3.68 KCAL/MOL
REMARK 922        TOTAL FREE ENERGY PREDICTED BY IDOCK:   -6.74 KCAL/MOL
REMARK 923 INTER-LIGAND FREE ENERGY PREDICTED BY IDOCK:   -5.87 KCAL/MOL
REMARK 924 INTRA-LIGAND FREE ENERGY PREDICTED BY IDOCK:   -0.87 KCAL/MOL
REMARK 927      BINDING AFFINITY PREDICTED BY RF-SCORE:    0.00 PKD
ROOT
HETATM    1  O   UNL     1     -13.255  13.764  65.546  1.00  0.00    -0.662 OA 
HETATM    2  C   UNL     1     -11.891  13.453  65.853  1.00  0.00    -0.376 C  
HETATM    3  H   UNL     1     -13.428  13.570  64.632  1.00  0.00     0.000 HD 
ENDROOT
BRANCH   2   4
HETATM    4  C   UNL     1     -11.655  11.956  65.526  1.00  0.00    -0.218 C  
BRANCH   4   5
HETATM    5  N   UNL     1     -10.693  11.215  66.422  1.00  0.00    -0.262 NA 
BRANCH   5   6
HETATM    6  C   UNL     1      -9.988  10.175  65.584  1.00  0.00    -0.279 C  
HETATM    7  O   UNL     1      -7.963  11.219  66.365  1.00  0.00    -0.164 OA 
HETATM    8  C   UNL     1      -8.518  10.514  65.351  1.00  0.00    -0.170 C  
HETATM    9  O   UNL     1      -7.889  10.165  64.364  1.00  0.00    -0.143 OA 
ENDBRANCH   5   6
BRANCH   5  10
HETATM   10  C   UNL     1     -11.484  10.493  67.480  1.00  0.00     0.082 C  
HETATM   11  O   UNL     1      -9.916  11.456  69.024  1.00  0.00    -0.171 OA 
HETATM   12  O   UNL     1     -10.894   9.501  69.625  1.00  0.00    -0.231 OA 
HETATM   13  C   UNL     1     -10.736  10.401  68.811  1.00  0.00    -0.225 C  
ENDBRANCH   5  10
ENDBRANCH   4   5
ENDBRANCH   2   4
BRANCH   2  14
HETATM   14  C   UNL     1     -11.608  13.771  67.353  1.00  0.00    -0.362 C  
BRANCH  14  15
HETATM   15  N   UNL     1     -10.665  14.906  67.658  1.00  0.00    -0.265 NA 
BRANCH  15  16
HETATM   16  C   UNL     1     -10.323  15.591  66.355  1.00  0.00    -0.296 C  
HETATM   17  C   UNL     1      -9.140  16.546  66.479  1.00  0.00    -0.276 C  
HETATM   18  O   UNL     1      -8.254  16.160  67.433  1.00  0.00    -0.150 OA 
HETATM   19  O   UNL     1      -8.964  17.517  65.762  1.00  0.00    -0.512 OA 
ENDBRANCH  15  16
BRANCH  15  20
HETATM   20  C   UNL     1     -11.417  15.928  68.496  1.00  0.00    -0.377 C  
HETATM   21  C   UNL     1     -11.207  15.751  70.000  1.00  0.00    -0.342 C  
HETATM   22  O   UNL     1     -10.007  15.203  70.312  1.00  0.00    -0.098 OA 
HETATM   23  O   UNL     1     -12.007  16.112  70.845  1.00  0.00    -0.375 OA 
ENDBRANCH  15  20
ENDBRANCH  14  15
ENDBRANCH   2  14
TORSDOF 8
ENDMDL
MODEL      211
REMARK 921   NORMALIZED FREE ENERGY PREDICTED BY IDOCK:   -3.68 KCAL/MOL
REMARK 922        TOTAL FREE ENERGY PREDICTED BY IDOCK:   -6.73 KCAL/MOL
REMARK 923 INTER-LIGAND FREE ENERGY PREDICTED BY IDOCK:   -5.76 KCAL/MOL
REMARK 924 INTRA-LIGAND FREE ENERGY PREDICTED BY IDOCK:   -0.97 KCAL/MOL
REMARK 927      BINDING AFFINITY PREDICTED BY RF-SCORE:    0.00 PKD
ROOT
HETATM    1  O   UNL     1     -10.732  11.735  62.892  1.00  0.00    -0.659 OA 
HETATM    2  C   UNL     1     -10.403  11.137  64.151  1.00  0.00    -0.361 C  
HETATM    3  H   UNL     1     -11.485  12.304  62.998  1.00  0.00     0.000 HD 
ENDROOT
BRANCH   2   4
HETATM    4  C   UNL     1     -10.128  12.275  65.166  1.00  0.00    -0.261 C  
BRANCH   4   5
HETATM    5  N   UNL     1     -11.142  12.452  66.270  1.00  0.00    -0.289 NA 
BRANCH   5   6
HETATM    6  C   UNL     1     -11.782  13.810  66.097  1.00  0.00    -0.370 C  
HETATM    7  O   UNL     1     -13.311  12.672  64.625  1.00  0.00    -0.767 OA 
HETATM    8  C   UNL     1     -12.724  13.861  64.898  1.00  0.00    -0.278 C  
HETATM    9  O   UNL     1     -12.953  14.875  64.257  1.00  0.00    -0.490 OA 
ENDBRANCH   5   6
BRANCH   5  10
HETATM   10  C   UNL     1     -10.419  12.449  67.590  1.00  0.00    -0.216 C  
HETATM   11  O   UNL     1     -12.374  11.337  68.432  1.00  0.00    -0.545 OA 
HETATM   12  O   UNL     1     -11.164  12.561  69.906  1.00  0.00    -0.046 OA 
HETATM   13  C   UNL     1     -11.348  12.153  68.768  1.00  0.00    -0.288 C  
ENDBRANCH   5  10
ENDBRANCH   4   5
ENDBRANCH   2   4
BRANCH   2  14
HETATM   14  C   UNL     1      -9.166  10.203  63.977  1.00  0.00    -0.272 C  
BRANCH  14  15
HETATM   15  N   UNL     1      -8.737   9.385  65.167  1.00  0.00    -0.169 NA 
BRANCH  15  16
HETATM   16  C   UNL     1      -8.468   7.976  64.691  1.00  0.00     0.017 C  
HETATM   17  C   UNL     1      -8.852   6.918  65.720  1.00  0.00    -0.067 C  
HETATM   18  O   UNL     1      -9.885   7.307  66.511  1.00  0.00    -0.193 OA 
HETATM   19  O   UNL     1      -8.339   5.813  65.793  1.00  0.00    -0.122 OA 
ENDBRANCH  15  16
BRANCH  15  20
HETATM   20  C   UNL     1      -7.408   9.934  65.660  1.00  0.00    -0.116 C  
HETATM   21  C   UNL     1      -7.410  10.279  67.150  1.00  0.00    -0.091 C  
HETATM   22  O   UNL     1      -8.268   9.520  67.873  1.00  0.00    -0.112 OA 
HETATM   23  O   UNL     1      -6.679  11.112  67.654  1.00  0.00    -0.066 OA 
ENDBRANCH  15  20
ENDBRANCH  14  15
ENDBRANCH   2  14
TORSDOF 8
ENDMDL
MODEL      212
REMARK 921   NORMALIZED FREE ENERGY PREDICTED BY IDOCK:   -3.67 KCAL/MOL
REMARK 922        TOTAL FREE ENERGY PREDICTED BY IDOCK:   -6.72 KCAL/MOL
REMARK 923 INTER-LIGAND FREE ENERGY PREDICTED BY IDOCK:   -5.56 KCAL/MOL
REMARK 924 INTRA-LIGAND FREE ENERGY PREDICTED BY IDOCK:   -1.16 KCAL/MOL
REMARK 927      BINDING AFFINITY PREDICTED BY RF-SCORE:    0.00 PKD
ROOT
HETATM    1  O   UNL     1      -7.987  12.645  69.064  1.00  0.00    -0.328 OA 
HETATM    2  C   UNL     1      -9.010  12.040  68.265  1.00  0.00    -0.186 C  
HETATM    3  H   UNL     1      -7.228  12.073  69.094  1.00  0.00     0.000 HD 
ENDROOT
BRANCH   2   4
HETATM    4  C   UNL     1      -8.427  11.780  66.853  1.00  0.00    -0.174 C  
BRANCH   4   5
HETATM    5  N   UNL     1      -8.627  10.395  66.287  1.00  0.00    -0.138 NA 
BRANCH   5   6
HETATM    6  C   UNL     1      -8.465   9.406  67.416  1.00  0.00    -0.125 C  
HETATM    7  O   UNL     1     -10.329   8.263  66.407  1.00  0.00    -0.227 OA 
HETATM    8  C   UNL     1      -9.680   8.495  67.572  1.00  0.00    -0.162 C  
HETATM    9  O   UNL     1     -10.024   7.999  68.633  1.00  0.00    -0.178 OA 
ENDBRANCH   5   6
BRANCH   5  10
HETATM   10  C   UNL     1      -7.540  10.128  65.280  1.00  0.00    -0.144 C  
HETATM   11  O   UNL     1      -9.329   9.992  63.683  1.00  0.00    -0.268 OA 
HETATM   12  O   UNL     1      -7.444   8.816  63.231  1.00  0.00    -0.098 OA 
HETATM   13  C   UNL     1      -8.082   9.552  63.971  1.00  0.00    -0.152 C  
ENDBRANCH   5  10
ENDBRANCH   4   5
ENDBRANCH   2   4
BRANCH   2  14
HETATM   14  C   UNL     1     -10.255  12.978  68.216  1.00  0.00    -0.246 C  
BRANCH  14  15
HETATM   15  N   UNL     1     -10.569  13.652  66.905  1.00  0.00    -0.271 NA 
BRANCH  15  16
HETATM   16  C   UNL     1     -11.819  13.015  66.342  1.00  0.00    -0.405 C  
HETATM   17  C   UNL     1     -11.949  13.196  64.833  1.00  0.00    -0.388 C  
HETATM   18  O   UNL     1     -10.745  13.276  64.210  1.00  0.00    -0.396 OA 
HETATM   19  O   UNL     1     -13.010  13.205  64.232  1.00  0.00    -0.635 OA 
ENDBRANCH  15  16
BRANCH  15  20
HETATM   20  C   UNL     1     -10.919  15.103  67.195  1.00  0.00    -0.326 C  
HETATM   21  C   UNL     1      -9.696  15.982  67.453  1.00  0.00    -0.232 C  
HETATM   22  O   UNL     1      -8.583  15.551  66.810  1.00  0.00    -0.228 OA 
HETATM   23  O   UNL     1      -9.719  16.999  68.123  1.00  0.00    -0.252 OA 
ENDBRANCH  15  20
ENDBRANCH  14  15
ENDBRANCH   2  14
TORSDOF 8
ENDMDL
MODEL      213
REMARK 921   NORMALIZED FREE ENERGY PREDICTED BY IDOCK:   -3.67 KCAL/MOL
REMARK 922        TOTAL FREE ENERGY PREDICTED BY IDOCK:   -6.72 KCAL/MOL
REMARK 923 INTER-LIGAND FREE ENERGY PREDICTED BY IDOCK:   -6.03 KCAL/MOL
REMARK 924 INTRA-LIGAND FREE ENERGY PREDICTED BY IDOCK:   -0.69 KCAL/MOL
REMARK 927      BINDING AFFINITY PREDICTED BY RF-SCORE:    0.00 PKD
ROOT
HETATM    1  O   UNL     1     -10.907  17.584  70.242  1.00  0.00    -0.039 OA 
HETATM    2  C   UNL     1     -10.561  16.583  69.278  1.00  0.00    -0.327 C  
HETATM    3  H   UNL     1     -10.156  18.143  70.403  1.00  0.00     0.000 HD 
ENDROOT
BRANCH   2   4
HETATM    4  C   UNL     1     -10.090  17.302  67.989  1.00  0.00    -0.324 C  
BRANCH   4   5
HETATM    5  N   UNL     1      -9.992  16.455  66.743  1.00  0.00    -0.261 NA 
BRANCH   5   6
HETATM    6  C   UNL     1      -8.704  16.812  66.040  1.00  0.00    -0.183 C  
HETATM    7  O   UNL     1      -7.815  14.851  67.118  1.00  0.00    -0.200 OA 
HETATM    8  C   UNL     1      -7.502  16.068  66.615  1.00  0.00    -0.123 C  
HETATM    9  O   UNL     1      -6.363  16.507  66.602  1.00  0.00    -0.281 OA 
ENDBRANCH   5   6
BRANCH   5  10
HETATM   10  C   UNL     1     -11.131  16.817  65.827  1.00  0.00     0.201 C  
HETATM   11  O   UNL     1     -10.711  14.692  64.791  1.00  0.00    -0.412 OA 
HETATM   12  O   UNL     1     -11.632  16.310  63.499  1.00  0.00    -0.651 OA 
HETATM   13  C   UNL     1     -11.177  15.943  64.573  1.00  0.00    -0.312 C  
ENDBRANCH   5  10
ENDBRANCH   4   5
ENDBRANCH   2   4
BRANCH   2  14
HETATM   14  C   UNL     1     -11.793  15.665  69.014  1.00  0.00    -0.364 C  
BRANCH  14  15
HETATM   15  N   UNL     1     -12.053  14.549  69.993  1.00  0.00    -0.320 NA 
BRANCH  15  16
HETATM   16  C   UNL     1     -13.181  14.982  70.902  1.00  0.00    -0.399 C  
HETATM   17  C   UNL     1     -12.732  15.196  72.344  1.00  0.00    -0.348 C  
HETATM   18  O   UNL     1     -11.437  15.597  72.435  1.00  0.00    -0.423 OA 
HETATM   19  O   UNL     1     -13.463  15.087  73.314  1.00  0.00    -0.492 OA 
ENDBRANCH  15  16
BRANCH  15  20
HETATM   20  C   UNL     1     -12.566  13.349  69.213  1.00  0.00     0.372 C  
HETATM   21  C   UNL     1     -11.629  12.914  68.086  1.00  0.00    -0.336 C  
HETATM   22  O   UNL     1     -10.328  13.198  68.333  1.00  0.00    -0.245 OA 
HETATM   23  O   UNL     1     -11.998  12.323  67.086  1.00  0.00    -0.564 OA 
ENDBRANCH  15  20
ENDBRANCH  14  15
ENDBRANCH   2  14
TORSDOF 8
ENDMDL
MODEL      214
REMARK 921   NORMALIZED FREE ENERGY PREDICTED BY IDOCK:   -3.67 KCAL/MOL
REMARK 922        TOTAL FREE ENERGY PREDICTED BY IDOCK:   -6.71 KCAL/MOL
REMARK 923 INTER-LIGAND FREE ENERGY PREDICTED BY IDOCK:   -5.91 KCAL/MOL
REMARK 924 INTRA-LIGAND FREE ENERGY PREDICTED BY IDOCK:   -0.81 KCAL/MOL
REMARK 927      BINDING AFFINITY PREDICTED BY RF-SCORE:    0.00 PKD
ROOT
HETATM    1  O   UNL     1     -11.903   6.624  69.647  1.00  0.00    -0.649 OA 
HETATM    2  C   UNL     1     -11.247   7.249  70.756  1.00  0.00    -0.274 C  
HETATM    3  H   UNL     1     -11.626   5.717  69.583  1.00  0.00     0.000 HD 
ENDROOT
BRANCH   2   4
HETATM    4  C   UNL     1     -11.597   6.446  72.034  1.00  0.00    -0.321 C  
BRANCH   4   5
HETATM    5  N   UNL     1     -10.448   6.111  72.954  1.00  0.00    -0.206 NA 
BRANCH   5   6
HETATM    6  C   UNL     1     -10.897   4.995  73.867  1.00  0.00    -0.275 C  
HETATM    7  O   UNL     1      -9.509   3.590  72.487  1.00  0.00    -0.114 OA 
HETATM    8  C   UNL     1     -10.603   3.614  73.285  1.00  0.00    -0.188 C  
HETATM    9  O   UNL     1     -11.266   2.619  73.531  1.00  0.00    -0.207 OA 
ENDBRANCH   5   6
BRANCH   5  10
HETATM   10  C   UNL     1     -10.153   7.314  73.810  1.00  0.00    -0.329 C  
HETATM   11  O   UNL     1      -8.395   7.755  72.235  1.00  0.00    -0.105 OA 
HETATM   12  O   UNL     1      -8.110   8.526  74.347  1.00  0.00    -0.312 OA 
HETATM   13  C   UNL     1      -8.777   7.917  73.523  1.00  0.00    -0.261 C  
ENDBRANCH   5  10
ENDBRANCH   4   5
ENDBRANCH   2   4
BRANCH   2  14
HETATM   14  C   UNL     1     -11.703   8.736  70.860  1.00  0.00    -0.258 C  
BRANCH  14  15
HETATM   15  N   UNL     1     -11.392   9.644  69.699  1.00  0.00    -0.137 NA 
BRANCH  15  16
HETATM   16  C   UNL     1     -11.865  11.035  70.055  1.00  0.00    -0.355 C  
HETATM   17  C   UNL     1     -11.773  12.010  68.886  1.00  0.00    -0.326 C  
HETATM   18  O   UNL     1     -11.927  11.401  67.682  1.00  0.00    -0.630 OA 
HETATM   19  O   UNL     1     -11.641  13.217  69.008  1.00  0.00    -0.271 OA 
ENDBRANCH  15  16
BRANCH  15  20
HETATM   20  C   UNL     1      -9.880   9.726  69.558  1.00  0.00    -0.214 C  
HETATM   21  C   UNL     1      -9.316   8.770  68.507  1.00  0.00    -0.141 C  
HETATM   22  O   UNL     1     -10.188   8.501  67.506  1.00  0.00    -0.206 OA 
HETATM   23  O   UNL     1      -8.180   8.331  68.529  1.00  0.00    -0.127 OA 
ENDBRANCH  15  20
ENDBRANCH  14  15
ENDBRANCH   2  14
TORSDOF 8
ENDMDL
MODEL      215
REMARK 921   NORMALIZED FREE ENERGY PREDICTED BY IDOCK:   -3.65 KCAL/MOL
REMARK 922        TOTAL FREE ENERGY PREDICTED BY IDOCK:   -6.70 KCAL/MOL
REMARK 923 INTER-LIGAND FREE ENERGY PREDICTED BY IDOCK:   -7.12 KCAL/MOL
REMARK 924 INTRA-LIGAND FREE ENERGY PREDICTED BY IDOCK:    0.43 KCAL/MOL
REMARK 927      BINDING AFFINITY PREDICTED BY RF-SCORE:    0.00 PKD
ROOT
HETATM    1  O   UNL     1      -8.555  13.320  68.737  1.00  0.00    -0.359 OA 
HETATM    2  C   UNL     1      -9.768  13.464  67.988  1.00  0.00    -0.222 C  
HETATM    3  H   UNL     1      -8.236  12.429  68.657  1.00  0.00     0.000 HD 
ENDROOT
BRANCH   2   4
HETATM    4  C   UNL     1      -9.470  13.086  66.515  1.00  0.00    -0.245 C  
BRANCH   4   5
HETATM    5  N   UNL     1     -10.264  11.938  65.941  1.00  0.00    -0.228 NA 
BRANCH   5   6
HETATM    6  C   UNL     1     -11.730  12.257  66.115  1.00  0.00    -0.376 C  
HETATM    7  O   UNL     1     -11.625  13.006  63.828  1.00  0.00    -0.424 OA 
HETATM    8  C   UNL     1     -12.263  13.167  65.011  1.00  0.00    -0.440 C  
HETATM    9  O   UNL     1     -13.189  13.948  65.164  1.00  0.00    -0.768 OA 
ENDBRANCH   5   6
BRANCH   5  10
HETATM   10  C   UNL     1      -9.964  10.700  66.743  1.00  0.00    -0.209 C  
HETATM   11  O   UNL     1      -9.635   9.642  64.612  1.00  0.00    -0.247 OA 
HETATM   12  O   UNL     1     -10.292   8.322  66.334  1.00  0.00    -0.227 OA 
HETATM   13  C   UNL     1     -10.006   9.427  65.896  1.00  0.00    -0.256 C  
ENDBRANCH   5  10
ENDBRANCH   4   5
ENDBRANCH   2   4
BRANCH   2  14
HETATM   14  C   UNL     1     -10.291  14.927  68.119  1.00  0.00    -0.237 C  
BRANCH  14  15
HETATM   15  N   UNL     1      -9.560  16.000  67.355  1.00  0.00    -0.224 NA 
BRANCH  15  16
HETATM   16  C   UNL     1      -8.080  15.822  67.603  1.00  0.00    -0.147 C  
HETATM   17  C   UNL     1      -7.298  17.126  67.489  1.00  0.00    -0.161 C  
HETATM   18  O   UNL     1      -8.038  18.212  67.833  1.00  0.00    -0.238 OA 
HETATM   19  O   UNL     1      -6.118  17.195  67.187  1.00  0.00    -0.131 OA 
ENDBRANCH  15  16
BRANCH  15  20
HETATM   20  C   UNL     1      -9.781  15.753  65.871  1.00  0.00    -0.354 C  
HETATM   21  C   UNL     1     -10.715  16.772  65.219  1.00  0.00    -0.169 C  
HETATM   22  O   UNL     1     -10.686  17.986  65.821  1.00  0.00    -0.442 OA 
HETATM   23  O   UNL     1     -11.381  16.544  64.225  1.00  0.00    -1.020 OA 
ENDBRANCH  15  20
ENDBRANCH  14  15
ENDBRANCH   2  14
TORSDOF 8
ENDMDL
MODEL      216
REMARK 921   NORMALIZED FREE ENERGY PREDICTED BY IDOCK:   -3.63 KCAL/MOL
REMARK 922        TOTAL FREE ENERGY PREDICTED BY IDOCK:   -6.66 KCAL/MOL
REMARK 923 INTER-LIGAND FREE ENERGY PREDICTED BY IDOCK:   -6.02 KCAL/MOL
REMARK 924 INTRA-LIGAND FREE ENERGY PREDICTED BY IDOCK:   -0.63 KCAL/MOL
REMARK 927      BINDING AFFINITY PREDICTED BY RF-SCORE:    0.00 PKD
ROOT
HETATM    1  O   UNL     1      -7.626  14.498  67.729  1.00  0.00    -0.127 OA 
HETATM    2  C   UNL     1      -8.937  14.645  67.172  1.00  0.00    -0.225 C  
HETATM    3  H   UNL     1      -7.572  13.675  68.201  1.00  0.00     0.000 HD 
ENDROOT
BRANCH   2   4
HETATM    4  C   UNL     1      -9.204  13.430  66.248  1.00  0.00    -0.050 C  
BRANCH   4   5
HETATM    5  N   UNL     1     -10.500  12.687  66.470  1.00  0.00    -0.245 NA 
BRANCH   5   6
HETATM    6  C   UNL     1     -10.176  11.394  67.180  1.00  0.00    -0.202 C  
HETATM    7  O   UNL     1     -11.311  12.384  69.059  1.00  0.00    -0.249 OA 
HETATM    8  C   UNL     1     -10.353  11.500  68.692  1.00  0.00    -0.210 C  
HETATM    9  O   UNL     1      -9.717  10.839  69.498  1.00  0.00    -0.133 OA 
ENDBRANCH   5   6
BRANCH   5  10
HETATM   10  C   UNL     1     -11.089  12.340  65.128  1.00  0.00    -0.317 C  
HETATM   11  O   UNL     1     -12.932  13.724  65.805  1.00  0.00    -0.477 OA 
HETATM   12  O   UNL     1     -13.371  12.064  64.325  1.00  0.00    -0.709 OA 
HETATM   13  C   UNL     1     -12.582  12.662  65.042  1.00  0.00    -0.430 C  
ENDBRANCH   5  10
ENDBRANCH   4   5
ENDBRANCH   2   4
BRANCH   2  14
HETATM   14  C   UNL     1      -9.026  15.995  66.397  1.00  0.00    -0.319 C  
BRANCH  14  15
HETATM   15  N   UNL     1      -8.269  17.171  66.956  1.00  0.00    -0.197 NA 
BRANCH  15  16
HETATM   16  C   UNL     1      -6.967  17.291  66.197  1.00  0.00    -0.216 C  
HETATM   17  C   UNL     1      -6.090  18.432  66.701  1.00  0.00    -0.157 C  
HETATM   18  O   UNL     1      -6.266  18.684  68.024  1.00  0.00    -0.193 OA 
HETATM   19  O   UNL     1      -5.268  19.020  66.016  1.00  0.00    -0.148 OA 
ENDBRANCH  15  16
BRANCH  15  20
HETATM   20  C   UNL     1      -9.063  18.431  66.650  1.00  0.00    -0.297 C  
HETATM   21  C   UNL     1     -10.105  18.765  67.717  1.00  0.00    -0.368 C  
HETATM   22  O   UNL     1      -9.763  18.329  68.954  1.00  0.00    -0.335 OA 
HETATM   23  O   UNL     1     -11.119  19.405  67.500  1.00  0.00    -0.417 OA 
ENDBRANCH  15  20
ENDBRANCH  14  15
ENDBRANCH   2  14
TORSDOF 8
ENDMDL
MODEL      217
REMARK 921   NORMALIZED FREE ENERGY PREDICTED BY IDOCK:   -3.62 KCAL/MOL
REMARK 922        TOTAL FREE ENERGY PREDICTED BY IDOCK:   -6.65 KCAL/MOL
REMARK 923 INTER-LIGAND FREE ENERGY PREDICTED BY IDOCK:   -5.77 KCAL/MOL
REMARK 924 INTRA-LIGAND FREE ENERGY PREDICTED BY IDOCK:   -0.88 KCAL/MOL
REMARK 927      BINDING AFFINITY PREDICTED BY RF-SCORE:    0.00 PKD
ROOT
HETATM    1  O   UNL     1      -8.765   8.004  68.168  1.00  0.00    -0.126 OA 
HETATM    2  C   UNL     1      -9.895   8.762  68.615  1.00  0.00    -0.168 C  
HETATM    3  H   UNL     1      -8.229   7.764  68.915  1.00  0.00     0.000 HD 
ENDROOT
BRANCH   2   4
HETATM    4  C   UNL     1     -10.680   7.899  69.635  1.00  0.00    -0.218 C  
BRANCH   4   5
HETATM    5  N   UNL     1     -10.679   8.381  71.066  1.00  0.00    -0.217 NA 
BRANCH   5   6
HETATM    6  C   UNL     1     -11.084   9.836  71.065  1.00  0.00    -0.361 C  
HETATM    7  O   UNL     1     -12.876   9.122  72.507  1.00  0.00    -0.388 OA 
HETATM    8  C   UNL     1     -12.502  10.045  71.590  1.00  0.00    -0.418 C  
HETATM    9  O   UNL     1     -13.225  10.966  71.243  1.00  0.00    -0.333 OA 
ENDBRANCH   5   6
BRANCH   5  10
HETATM   10  C   UNL     1      -9.273   8.296  71.599  1.00  0.00    -0.185 C  
HETATM   11  O   UNL     1     -10.285   7.325  73.549  1.00  0.00    -0.300 OA 
HETATM   12  O   UNL     1      -8.322   8.421  73.837  1.00  0.00    -0.307 OA 
HETATM   13  C   UNL     1      -9.231   8.051  73.108  1.00  0.00    -0.279 C  
ENDBRANCH   5  10
ENDBRANCH   4   5
ENDBRANCH   2   4
BRANCH   2  14
HETATM   14  C   UNL     1     -10.776   9.157  67.390  1.00  0.00    -0.177 C  
BRANCH  14  15
HETATM   15  N   UNL     1     -10.424  10.426  66.658  1.00  0.00    -0.234 NA 
BRANCH  15  16
HETATM   16  C   UNL     1     -10.190  11.508  67.688  1.00  0.00    -0.184 C  
HETATM   17  C   UNL     1     -10.910  12.810  67.354  1.00  0.00    -0.240 C  
HETATM   18  O   UNL     1     -12.057  12.610  66.655  1.00  0.00    -0.519 OA 
HETATM   19  O   UNL     1     -10.540  13.913  67.724  1.00  0.00    -0.242 OA 
ENDBRANCH  15  16
BRANCH  15  20
HETATM   20  C   UNL     1      -9.095  10.209  65.953  1.00  0.00    -0.156 C  
HETATM   21  C   UNL     1      -9.204  10.240  64.429  1.00  0.00    -0.252 C  
HETATM   22  O   UNL     1     -10.217  11.021  63.981  1.00  0.00    -0.305 OA 
HETATM   23  O   UNL     1      -8.433   9.666  63.681  1.00  0.00    -0.159 OA 
ENDBRANCH  15  20
ENDBRANCH  14  15
ENDBRANCH   2  14
TORSDOF 8
ENDMDL
MODEL      218
REMARK 921   NORMALIZED FREE ENERGY PREDICTED BY IDOCK:   -3.62 KCAL/MOL
REMARK 922        TOTAL FREE ENERGY PREDICTED BY IDOCK:   -6.65 KCAL/MOL
REMARK 923 INTER-LIGAND FREE ENERGY PREDICTED BY IDOCK:   -5.34 KCAL/MOL
REMARK 924 INTRA-LIGAND FREE ENERGY PREDICTED BY IDOCK:   -1.31 KCAL/MOL
REMARK 927      BINDING AFFINITY PREDICTED BY RF-SCORE:    0.00 PKD
ROOT
HETATM    1  O   UNL     1     -12.961   7.040  70.771  1.00  0.00    -0.563 OA 
HETATM    2  C   UNL     1     -12.047   8.083  71.129  1.00  0.00    -0.265 C  
HETATM    3  H   UNL     1     -13.262   7.173  69.880  1.00  0.00     0.000 HD 
ENDROOT
BRANCH   2   4
HETATM    4  C   UNL     1     -10.876   8.065  70.115  1.00  0.00    -0.242 C  
BRANCH   4   5
HETATM    5  N   UNL     1     -10.432   9.403  69.575  1.00  0.00    -0.210 NA 
BRANCH   5   6
HETATM    6  C   UNL     1      -9.026   9.656  70.066  1.00  0.00    -0.237 C  
HETATM    7  O   UNL     1      -8.607  10.432  67.825  1.00  0.00    -0.121 OA 
HETATM    8  C   UNL     1      -8.040   9.874  68.921  1.00  0.00    -0.105 C  
HETATM    9  O   UNL     1      -6.853   9.600  68.986  1.00  0.00    -0.049 OA 
ENDBRANCH   5   6
BRANCH   5  10
HETATM   10  C   UNL     1     -11.320  10.472  70.155  1.00  0.00    -0.323 C  
HETATM   11  O   UNL     1     -11.879  10.964  67.871  1.00  0.00    -0.590 OA 
HETATM   12  O   UNL     1     -12.036  12.662  69.365  1.00  0.00    -0.301 OA 
HETATM   13  C   UNL     1     -11.763  11.497  69.109  1.00  0.00    -0.329 C  
ENDBRANCH   5  10
ENDBRANCH   4   5
ENDBRANCH   2   4
BRANCH   2  14
HETATM   14  C   UNL     1     -11.553   7.864  72.592  1.00  0.00    -0.377 C  
BRANCH  14  15
HETATM   15  N   UNL     1     -10.266   7.105  72.786  1.00  0.00    -0.193 NA 
BRANCH  15  16
HETATM   16  C   UNL     1      -9.282   8.025  73.471  1.00  0.00    -0.243 C  
HETATM   17  C   UNL     1      -7.830   7.619  73.240  1.00  0.00    -0.116 C  
HETATM   18  O   UNL     1      -7.644   7.001  72.045  1.00  0.00    -0.090 OA 
HETATM   19  O   UNL     1      -6.915   7.873  74.006  1.00  0.00    -0.106 OA 
ENDBRANCH  15  16
BRANCH  15  20
HETATM   20  C   UNL     1     -10.535   5.964  73.755  1.00  0.00    -0.273 C  
HETATM   21  C   UNL     1     -10.905   4.654  73.061  1.00  0.00    -0.247 C  
HETATM   22  O   UNL     1     -10.358   4.529  71.827  1.00  0.00    -0.179 OA 
HETATM   23  O   UNL     1     -11.578   3.779  73.576  1.00  0.00    -0.183 OA 
ENDBRANCH  15  20
ENDBRANCH  14  15
ENDBRANCH   2  14
TORSDOF 8
ENDMDL
MODEL      219
REMARK 921   NORMALIZED FREE ENERGY PREDICTED BY IDOCK:   -3.62 KCAL/MOL
REMARK 922        TOTAL FREE ENERGY PREDICTED BY IDOCK:   -6.65 KCAL/MOL
REMARK 923 INTER-LIGAND FREE ENERGY PREDICTED BY IDOCK:   -6.15 KCAL/MOL
REMARK 924 INTRA-LIGAND FREE ENERGY PREDICTED BY IDOCK:   -0.49 KCAL/MOL
REMARK 927      BINDING AFFINITY PREDICTED BY RF-SCORE:    0.00 PKD
ROOT
HETATM    1  O   UNL     1     -12.341  12.202  68.292  1.00  0.00    -0.239 OA 
HETATM    2  C   UNL     1     -11.497  12.036  67.147  1.00  0.00    -0.335 C  
HETATM    3  H   UNL     1     -13.053  11.574  68.256  1.00  0.00     0.000 HD 
ENDROOT
BRANCH   2   4
HETATM    4  C   UNL     1     -10.979  10.575  67.140  1.00  0.00    -0.228 C  
BRANCH   4   5
HETATM    5  N   UNL     1      -9.483  10.391  67.054  1.00  0.00    -0.161 NA 
BRANCH   5   6
HETATM    6  C   UNL     1      -9.185   9.620  65.790  1.00  0.00    -0.210 C  
HETATM    7  O   UNL     1      -7.098  10.822  65.797  1.00  0.00    -0.128 OA 
HETATM    8  C   UNL     1      -8.014  10.213  65.009  1.00  0.00    -0.146 C  
HETATM    9  O   UNL     1      -7.895  10.128  63.797  1.00  0.00    -0.152 OA 
ENDBRANCH   5   6
BRANCH   5  10
HETATM   10  C   UNL     1      -9.035   9.553  68.221  1.00  0.00    -0.124 C  
HETATM   11  O   UNL     1      -7.872  11.529  68.936  1.00  0.00    -0.131 OA 
HETATM   12  O   UNL     1      -7.022   9.532  69.590  1.00  0.00    -0.056 OA 
HETATM   13  C   UNL     1      -7.859  10.176  68.974  1.00  0.00    -0.107 C  
ENDBRANCH   5  10
ENDBRANCH   4   5
ENDBRANCH   2   4
BRANCH   2  14
HETATM   14  C   UNL     1     -10.328  13.066  67.206  1.00  0.00    -0.238 C  
BRANCH  14  15
HETATM   15  N   UNL     1     -10.646  14.500  66.870  1.00  0.00    -0.276 NA 
BRANCH  15  16
HETATM   16  C   UNL     1     -11.017  14.565  65.407  1.00  0.00    -0.342 C  
HETATM   17  C   UNL     1     -10.962  15.980  64.842  1.00  0.00    -0.384 C  
HETATM   18  O   UNL     1     -10.036  16.756  65.464  1.00  0.00    -0.566 OA 
HETATM   19  O   UNL     1     -11.624  16.367  63.894  1.00  0.00    -1.100 OA 
ENDBRANCH  15  16
BRANCH  15  20
HETATM   20  C   UNL     1     -11.889  14.901  67.648  1.00  0.00    -0.244 C  
HETATM   21  C   UNL     1     -11.581  15.681  68.926  1.00  0.00    -0.383 C  
HETATM   22  O   UNL     1     -10.432  16.396  68.851  1.00  0.00    -0.246 OA 
HETATM   23  O   UNL     1     -12.313  15.708  69.899  1.00  0.00    -0.354 OA 
ENDBRANCH  15  20
ENDBRANCH  14  15
ENDBRANCH   2  14
TORSDOF 8
ENDMDL
MODEL      220
REMARK 921   NORMALIZED FREE ENERGY PREDICTED BY IDOCK:   -3.62 KCAL/MOL
REMARK 922        TOTAL FREE ENERGY PREDICTED BY IDOCK:   -6.64 KCAL/MOL
REMARK 923 INTER-LIGAND FREE ENERGY PREDICTED BY IDOCK:   -5.72 KCAL/MOL
REMARK 924 INTRA-LIGAND FREE ENERGY PREDICTED BY IDOCK:   -0.92 KCAL/MOL
REMARK 927      BINDING AFFINITY PREDICTED BY RF-SCORE:    0.00 PKD
ROOT
HETATM    1  O   UNL     1      -9.048  11.215  69.361  1.00  0.00    -0.391 OA 
HETATM    2  C   UNL     1      -9.748   9.979  69.540  1.00  0.00    -0.233 C  
HETATM    3  H   UNL     1      -8.353  11.098  68.724  1.00  0.00     0.000 HD 
ENDROOT
BRANCH   2   4
HETATM    4  C   UNL     1     -10.299   9.536  68.161  1.00  0.00    -0.208 C  
BRANCH   4   5
HETATM    5  N   UNL     1     -10.154  10.525  67.029  1.00  0.00    -0.204 NA 
BRANCH   5   6
HETATM    6  C   UNL     1     -11.406  11.368  66.988  1.00  0.00    -0.236 C  
HETATM    7  O   UNL     1      -9.902  13.239  67.183  1.00  0.00    -0.228 OA 
HETATM    8  C   UNL     1     -11.157  12.803  67.445  1.00  0.00    -0.275 C  
HETATM    9  O   UNL     1     -12.005  13.505  67.972  1.00  0.00    -0.355 OA 
ENDBRANCH   5   6
BRANCH   5  10
HETATM   10  C   UNL     1     -10.072   9.761  65.734  1.00  0.00    -0.238 C  
HETATM   11  O   UNL     1      -7.796  10.526  65.660  1.00  0.00    -0.154 OA 
HETATM   12  O   UNL     1      -8.806  10.084  63.679  1.00  0.00    -0.191 OA 
HETATM   13  C   UNL     1      -8.851  10.151  64.899  1.00  0.00    -0.190 C  
ENDBRANCH   5  10
ENDBRANCH   4   5
ENDBRANCH   2   4
BRANCH   2  14
HETATM   14  C   UNL     1     -10.888  10.172  70.586  1.00  0.00    -0.235 C  
BRANCH  14  15
HETATM   15  N   UNL     1     -11.137   9.051  71.561  1.00  0.00    -0.322 NA 
BRANCH  15  16
HETATM   16  C   UNL     1     -12.106   8.084  70.921  1.00  0.00    -0.152 C  
HETATM   17  C   UNL     1     -13.451   8.030  71.638  1.00  0.00    -0.337 C  
HETATM   18  O   UNL     1     -13.776   9.208  72.231  1.00  0.00    -0.443 OA 
HETATM   19  O   UNL     1     -14.194   7.062  71.633  1.00  0.00    -0.369 OA 
ENDBRANCH  15  16
BRANCH  15  20
HETATM   20  C   UNL     1      -9.833   8.292  71.747  1.00  0.00    -0.218 C  
HETATM   21  C   UNL     1      -9.638   7.760  73.167  1.00  0.00    -0.275 C  
HETATM   22  O   UNL     1     -10.805   7.492  73.802  1.00  0.00    -0.316 OA 
HETATM   23  O   UNL     1      -8.549   7.544  73.668  1.00  0.00    -0.155 OA 
ENDBRANCH  15  20
ENDBRANCH  14  15
ENDBRANCH   2  14
TORSDOF 8
ENDMDL
MODEL      221
REMARK 921   NORMALIZED FREE ENERGY PREDICTED BY IDOCK:   -3.61 KCAL/MOL
REMARK 922        TOTAL FREE ENERGY PREDICTED BY IDOCK:   -6.63 KCAL/MOL
REMARK 923 INTER-LIGAND FREE ENERGY PREDICTED BY IDOCK:   -5.54 KCAL/MOL
REMARK 924 INTRA-LIGAND FREE ENERGY PREDICTED BY IDOCK:   -1.09 KCAL/MOL
REMARK 927      BINDING AFFINITY PREDICTED BY RF-SCORE:    0.00 PKD
ROOT
HETATM    1  O   UNL     1     -10.583   7.018  66.503  1.00  0.00    -0.505 OA 
HETATM    2  C   UNL     1      -9.816   7.762  67.457  1.00  0.00    -0.171 C  
HETATM    3  H   UNL     1     -10.124   6.216  66.283  1.00  0.00     0.000 HD 
ENDROOT
BRANCH   2   4
HETATM    4  C   UNL     1      -9.593   6.864  68.700  1.00  0.00    -0.133 C  
BRANCH   4   5
HETATM    5  N   UNL     1     -10.221   7.332  69.990  1.00  0.00    -0.197 NA 
BRANCH   5   6
HETATM    6  C   UNL     1      -9.260   7.017  71.112  1.00  0.00    -0.157 C  
HETATM    7  O   UNL     1      -9.152   9.405  71.411  1.00  0.00    -0.285 OA 
HETATM    8  C   UNL     1      -8.473   8.244  71.566  1.00  0.00    -0.140 C  
HETATM    9  O   UNL     1      -7.352   8.191  72.047  1.00  0.00    -0.078 OA 
ENDBRANCH   5   6
BRANCH   5  10
HETATM   10  C   UNL     1     -11.479   6.540  70.226  1.00  0.00    -0.411 C  
HETATM   11  O   UNL     1     -12.345   8.573  71.166  1.00  0.00    -0.286 OA 
HETATM   12  O   UNL     1     -13.215   6.625  71.932  1.00  0.00    -0.258 OA 
HETATM   13  C   UNL     1     -12.427   7.224  71.213  1.00  0.00    -0.366 C  
ENDBRANCH   5  10
ENDBRANCH   4   5
ENDBRANCH   2   4
BRANCH   2  14
HETATM   14  C   UNL     1     -10.570   9.079  67.819  1.00  0.00    -0.214 C  
BRANCH  14  15
HETATM   15  N   UNL     1     -10.318  10.287  66.955  1.00  0.00    -0.232 NA 
BRANCH  15  16
HETATM   16  C   UNL     1     -10.021  11.456  67.865  1.00  0.00    -0.177 C  
HETATM   17  C   UNL     1     -10.806  12.711  67.494  1.00  0.00    -0.239 C  
HETATM   18  O   UNL     1     -12.007  12.428  66.926  1.00  0.00    -0.550 OA 
HETATM   19  O   UNL     1     -10.436  13.848  67.735  1.00  0.00    -0.238 OA 
ENDBRANCH  15  16
BRANCH  15  20
HETATM   20  C   UNL     1      -9.052  10.034  66.152  1.00  0.00    -0.156 C  
HETATM   21  C   UNL     1      -9.312   9.830  64.659  1.00  0.00    -0.256 C  
HETATM   22  O   UNL     1     -10.412  10.483  64.214  1.00  0.00    -0.287 OA 
HETATM   23  O   UNL     1      -8.580   9.191  63.924  1.00  0.00    -0.200 OA 
ENDBRANCH  15  20
ENDBRANCH  14  15
ENDBRANCH   2  14
TORSDOF 8
ENDMDL
MODEL      222
REMARK 921   NORMALIZED FREE ENERGY PREDICTED BY IDOCK:   -3.61 KCAL/MOL
REMARK 922        TOTAL FREE ENERGY PREDICTED BY IDOCK:   -6.63 KCAL/MOL
REMARK 923 INTER-LIGAND FREE ENERGY PREDICTED BY IDOCK:   -5.58 KCAL/MOL
REMARK 924 INTRA-LIGAND FREE ENERGY PREDICTED BY IDOCK:   -1.04 KCAL/MOL
REMARK 927      BINDING AFFINITY PREDICTED BY RF-SCORE:    0.00 PKD
ROOT
HETATM    1  O   UNL     1     -12.608  10.718  68.774  1.00  0.00    -0.732 OA 
HETATM    2  C   UNL     1     -11.342  10.273  68.276  1.00  0.00    -0.177 C  
HETATM    3  H   UNL     1     -13.156   9.967  68.968  1.00  0.00     0.000 HD 
ENDROOT
BRANCH   2   4
HETATM    4  C   UNL     1     -10.702   9.351  69.345  1.00  0.00    -0.217 C  
BRANCH   4   5
HETATM    5  N   UNL     1      -9.522   8.521  68.900  1.00  0.00    -0.146 NA 
BRANCH   5   6
HETATM    6  C   UNL     1      -9.989   7.092  68.760  1.00  0.00    -0.160 C  
HETATM    7  O   UNL     1      -9.571   7.404  66.409  1.00  0.00    -0.176 OA 
HETATM    8  C   UNL     1     -10.312   6.724  67.314  1.00  0.00    -0.244 C  
HETATM    9  O   UNL     1     -11.138   5.882  66.997  1.00  0.00    -0.260 OA 
ENDBRANCH   5   6
BRANCH   5  10
HETATM   10  C   UNL     1      -8.475   8.560  69.981  1.00  0.00    -0.125 C  
HETATM   11  O   UNL     1      -6.904   8.747  68.174  1.00  0.00    -0.067 OA 
HETATM   12  O   UNL     1      -6.163   7.804  70.098  1.00  0.00    -0.033 OA 
HETATM   13  C   UNL     1      -7.066   8.305  69.443  1.00  0.00    -0.055 C  
ENDBRANCH   5  10
ENDBRANCH   4   5
ENDBRANCH   2   4
BRANCH   2  14
HETATM   14  C   UNL     1     -10.443  11.506  67.958  1.00  0.00    -0.189 C  
BRANCH  14  15
HETATM   15  N   UNL     1     -11.095  12.694  67.299  1.00  0.00    -0.266 NA 
BRANCH  15  16
HETATM   16  C   UNL     1     -10.400  13.941  67.793  1.00  0.00    -0.240 C  
HETATM   17  C   UNL     1     -11.359  14.944  68.426  1.00  0.00    -0.303 C  
HETATM   18  O   UNL     1     -12.432  14.348  69.006  1.00  0.00    -0.166 OA 
HETATM   19  O   UNL     1     -11.163  16.148  68.470  1.00  0.00    -0.337 OA 
ENDBRANCH  15  16
BRANCH  15  20
HETATM   20  C   UNL     1     -10.821  12.611  65.806  1.00  0.00    -0.274 C  
HETATM   21  C   UNL     1     -12.090  12.646  64.954  1.00  0.00    -0.438 C  
HETATM   22  O   UNL     1     -13.105  13.331  65.534  1.00  0.00    -0.529 OA 
HETATM   23  O   UNL     1     -12.174  12.156  63.842  1.00  0.00    -0.450 OA 
ENDBRANCH  15  20
ENDBRANCH  14  15
ENDBRANCH   2  14
TORSDOF 8
ENDMDL
MODEL      223
REMARK 921   NORMALIZED FREE ENERGY PREDICTED BY IDOCK:   -3.60 KCAL/MOL
REMARK 922        TOTAL FREE ENERGY PREDICTED BY IDOCK:   -6.61 KCAL/MOL
REMARK 923 INTER-LIGAND FREE ENERGY PREDICTED BY IDOCK:   -5.61 KCAL/MOL
REMARK 924 INTRA-LIGAND FREE ENERGY PREDICTED BY IDOCK:   -1.00 KCAL/MOL
REMARK 927      BINDING AFFINITY PREDICTED BY RF-SCORE:    0.00 PKD
ROOT
HETATM    1  O   UNL     1     -12.482  10.791  68.935  1.00  0.00    -0.782 OA 
HETATM    2  C   UNL     1     -11.659  11.627  68.114  1.00  0.00    -0.319 C  
HETATM    3  H   UNL     1     -12.925  10.151  68.391  1.00  0.00     0.000 HD 
ENDROOT
BRANCH   2   4
HETATM    4  C   UNL     1     -10.657  10.720  67.356  1.00  0.00    -0.242 C  
BRANCH   4   5
HETATM    5  N   UNL     1      -9.308  10.518  68.004  1.00  0.00    -0.143 NA 
BRANCH   5   6
HETATM    6  C   UNL     1      -8.251  10.932  67.008  1.00  0.00    -0.134 C  
HETATM    7  O   UNL     1      -7.148  11.925  68.905  1.00  0.00    -0.106 OA 
HETATM    8  C   UNL     1      -7.314  12.002  67.564  1.00  0.00    -0.137 C  
HETATM    9  O   UNL     1      -6.746  12.833  66.872  1.00  0.00    -0.041 OA 
ENDBRANCH   5   6
BRANCH   5  10
HETATM   10  C   UNL     1      -9.126   9.050  68.284  1.00  0.00    -0.133 C  
HETATM   11  O   UNL     1      -9.561   9.639  70.572  1.00  0.00    -0.258 OA 
HETATM   12  O   UNL     1      -8.280   7.806  70.199  1.00  0.00    -0.119 OA 
HETATM   13  C   UNL     1      -8.916   8.759  69.771  1.00  0.00    -0.146 C  
ENDBRANCH   5  10
ENDBRANCH   4   5
ENDBRANCH   2   4
BRANCH   2  14
HETATM   14  C   UNL     1     -10.930  12.679  69.005  1.00  0.00    -0.191 C  
BRANCH  14  15
HETATM   15  N   UNL     1     -11.237  14.133  68.760  1.00  0.00    -0.254 NA 
BRANCH  15  16
HETATM   16  C   UNL     1     -10.892  14.900  70.017  1.00  0.00    -0.176 C  
HETATM   17  C   UNL     1     -12.098  15.129  70.922  1.00  0.00    -0.334 C  
HETATM   18  O   UNL     1     -13.024  14.141  70.821  1.00  0.00    -0.329 OA 
HETATM   19  O   UNL     1     -12.203  16.061  71.703  1.00  0.00    -0.449 OA 
ENDBRANCH  15  16
BRANCH  15  20
HETATM   20  C   UNL     1     -10.296  14.636  67.677  1.00  0.00    -0.233 C  
HETATM   21  C   UNL     1     -10.839  14.436  66.262  1.00  0.00    -0.313 C  
HETATM   22  O   UNL     1     -12.193  14.451  66.201  1.00  0.00    -0.403 OA 
HETATM   23  O   UNL     1     -10.135  14.327  65.274  1.00  0.00    -0.364 OA 
ENDBRANCH  15  20
ENDBRANCH  14  15
ENDBRANCH   2  14
TORSDOF 8
ENDMDL
MODEL      224
REMARK 921   NORMALIZED FREE ENERGY PREDICTED BY IDOCK:   -3.59 KCAL/MOL
REMARK 922        TOTAL FREE ENERGY PREDICTED BY IDOCK:   -6.60 KCAL/MOL
REMARK 923 INTER-LIGAND FREE ENERGY PREDICTED BY IDOCK:   -6.57 KCAL/MOL
REMARK 924 INTRA-LIGAND FREE ENERGY PREDICTED BY IDOCK:   -0.03 KCAL/MOL
REMARK 927      BINDING AFFINITY PREDICTED BY RF-SCORE:    0.00 PKD
ROOT
HETATM    1  O   UNL     1     -11.457  10.416  68.126  1.00  0.00    -0.514 OA 
HETATM    2  C   UNL     1     -10.345  10.892  67.359  1.00  0.00    -0.211 C  
HETATM    3  H   UNL     1     -11.993  11.152  68.397  1.00  0.00     0.000 HD 
ENDROOT
BRANCH   2   4
HETATM    4  C   UNL     1     -10.900  11.680  66.146  1.00  0.00    -0.294 C  
BRANCH   4   5
HETATM    5  N   UNL     1     -12.046  12.624  66.424  1.00  0.00    -0.565 NA 
BRANCH   5   6
HETATM    6  C   UNL     1     -12.731  12.917  65.110  1.00  0.00    -0.374 C  
HETATM    7  O   UNL     1     -10.622  13.883  64.463  1.00  0.00    -0.424 OA 
HETATM    8  C   UNL     1     -11.960  13.927  64.264  1.00  0.00    -0.444 C  
HETATM    9  O   UNL     1     -12.487  14.685  63.465  1.00  0.00    -0.681 OA 
ENDBRANCH   5   6
BRANCH   5  10
HETATM   10  C   UNL     1     -11.483  13.918  66.948  1.00  0.00    -0.351 C  
HETATM   11  O   UNL     1     -12.266  13.159  69.088  1.00  0.00    -0.247 OA 
HETATM   12  O   UNL     1     -12.116  15.399  68.775  1.00  0.00    -0.281 OA 
HETATM   13  C   UNL     1     -12.001  14.259  68.346  1.00  0.00    -0.309 C  
ENDBRANCH   5  10
ENDBRANCH   4   5
ENDBRANCH   2   4
BRANCH   2  14
HETATM   14  C   UNL     1      -9.464   9.684  66.914  1.00  0.00    -0.153 C  
BRANCH  14  15
HETATM   15  N   UNL     1      -9.570   8.412  67.713  1.00  0.00    -0.152 NA 
BRANCH  15  16
HETATM   16  C   UNL     1      -9.220   7.258  66.801  1.00  0.00    -0.155 C  
HETATM   17  C   UNL     1     -10.156   6.065  66.967  1.00  0.00    -0.179 C  
HETATM   18  O   UNL     1     -11.408   6.431  67.344  1.00  0.00    -0.283 OA 
HETATM   19  O   UNL     1      -9.845   4.910  66.728  1.00  0.00    -0.162 OA 
ENDBRANCH  15  16
BRANCH  15  20
HETATM   20  C   UNL     1      -8.501   8.445  68.794  1.00  0.00    -0.124 C  
HETATM   21  C   UNL     1      -9.011   8.973  70.135  1.00  0.00    -0.184 C  
HETATM   22  O   UNL     1     -10.329   8.736  70.336  1.00  0.00    -0.188 OA 
HETATM   23  O   UNL     1      -8.301   9.507  70.969  1.00  0.00    -0.294 OA 
ENDBRANCH  15  20
ENDBRANCH  14  15
ENDBRANCH   2  14
TORSDOF 8
ENDMDL
MODEL      225
REMARK 921   NORMALIZED FREE ENERGY PREDICTED BY IDOCK:   -3.59 KCAL/MOL
REMARK 922        TOTAL FREE ENERGY PREDICTED BY IDOCK:   -6.60 KCAL/MOL
REMARK 923 INTER-LIGAND FREE ENERGY PREDICTED BY IDOCK:   -5.77 KCAL/MOL
REMARK 924 INTRA-LIGAND FREE ENERGY PREDICTED BY IDOCK:   -0.83 KCAL/MOL
REMARK 927      BINDING AFFINITY PREDICTED BY RF-SCORE:    0.00 PKD
ROOT
HETATM    1  O   UNL     1     -12.640  10.805  68.679  1.00  0.00    -0.669 OA 
HETATM    2  C   UNL     1     -11.241  11.066  68.516  1.00  0.00    -0.268 C  
HETATM    3  H   UNL     1     -12.784   9.867  68.729  1.00  0.00     0.000 HD 
ENDROOT
BRANCH   2   4
HETATM    4  C   UNL     1     -10.491  10.430  69.714  1.00  0.00    -0.240 C  
BRANCH   4   5
HETATM    5  N   UNL     1      -9.519   9.322  69.388  1.00  0.00    -0.162 NA 
BRANCH   5   6
HETATM    6  C   UNL     1     -10.187   8.009  69.720  1.00  0.00    -0.206 C  
HETATM    7  O   UNL     1      -9.546   7.358  67.492  1.00  0.00    -0.134 OA 
HETATM    8  C   UNL     1     -10.451   7.159  68.479  1.00  0.00    -0.204 C  
HETATM    9  O   UNL     1     -11.368   6.359  68.386  1.00  0.00    -0.280 OA 
ENDBRANCH   5   6
BRANCH   5  10
HETATM   10  C   UNL     1      -8.315   9.464  70.280  1.00  0.00    -0.195 C  
HETATM   11  O   UNL     1      -7.157  10.108  68.277  1.00  0.00    -0.074 OA 
HETATM   12  O   UNL     1      -5.925   9.157  69.926  1.00  0.00    -0.034 OA 
HETATM   13  C   UNL     1      -7.006   9.532  69.492  1.00  0.00    -0.059 C  
ENDBRANCH   5  10
ENDBRANCH   4   5
ENDBRANCH   2   4
BRANCH   2  14
HETATM   14  C   UNL     1     -11.004  12.606  68.433  1.00  0.00    -0.257 C  
BRANCH  14  15
HETATM   15  N   UNL     1     -10.939  13.228  67.063  1.00  0.00    -0.272 NA 
BRANCH  15  16
HETATM   16  C   UNL     1     -11.895  12.477  66.164  1.00  0.00    -0.397 C  
HETATM   17  C   UNL     1     -11.251  12.028  64.856  1.00  0.00    -0.320 C  
HETATM   18  O   UNL     1      -9.921  11.785  64.984  1.00  0.00    -0.248 OA 
HETATM   19  O   UNL     1     -11.864  11.841  63.818  1.00  0.00    -0.422 OA 
ENDBRANCH  15  16
BRANCH  15  20
HETATM   20  C   UNL     1     -11.471  14.648  67.166  1.00  0.00    -0.368 C  
HETATM   21  C   UNL     1     -10.543  15.691  66.542  1.00  0.00    -0.307 C  
HETATM   22  O   UNL     1      -9.795  15.200  65.525  1.00  0.00    -0.338 OA 
HETATM   23  O   UNL     1     -10.510  16.860  66.882  1.00  0.00    -0.312 OA 
ENDBRANCH  15  20
ENDBRANCH  14  15
ENDBRANCH   2  14
TORSDOF 8
ENDMDL
MODEL      226
REMARK 921   NORMALIZED FREE ENERGY PREDICTED BY IDOCK:   -3.57 KCAL/MOL
REMARK 922        TOTAL FREE ENERGY PREDICTED BY IDOCK:   -6.58 KCAL/MOL
REMARK 923 INTER-LIGAND FREE ENERGY PREDICTED BY IDOCK:   -5.40 KCAL/MOL
REMARK 924 INTRA-LIGAND FREE ENERGY PREDICTED BY IDOCK:   -1.17 KCAL/MOL
REMARK 927      BINDING AFFINITY PREDICTED BY RF-SCORE:    0.00 PKD
ROOT
HETATM    1  O   UNL     1      -8.383  10.563  69.994  1.00  0.00    -0.346 OA 
HETATM    2  C   UNL     1      -9.271   9.501  69.628  1.00  0.00    -0.200 C  
HETATM    3  H   UNL     1      -7.550  10.448  69.551  1.00  0.00     0.000 HD 
ENDROOT
BRANCH   2   4
HETATM    4  C   UNL     1      -9.430   9.517  68.087  1.00  0.00    -0.133 C  
BRANCH   4   5
HETATM    5  N   UNL     1      -8.491  10.420  67.323  1.00  0.00    -0.122 NA 
BRANCH   5   6
HETATM    6  C   UNL     1      -9.323  11.273  66.395  1.00  0.00    -0.192 C  
HETATM    7  O   UNL     1      -9.235  12.910  68.159  1.00  0.00    -0.204 OA 
HETATM    8  C   UNL     1      -9.965  12.458  67.112  1.00  0.00    -0.207 C  
HETATM    9  O   UNL     1     -11.018  12.970  66.768  1.00  0.00    -0.268 OA 
ENDBRANCH   5   6
BRANCH   5  10
HETATM   10  C   UNL     1      -7.588   9.564  66.475  1.00  0.00    -0.094 C  
HETATM   11  O   UNL     1      -6.058  11.411  66.594  1.00  0.00    -0.130 OA 
HETATM   12  O   UNL     1      -5.919  10.066  64.775  1.00  0.00    -0.094 OA 
HETATM   13  C   UNL     1      -6.453  10.364  65.834  1.00  0.00    -0.123 C  
ENDBRANCH   5  10
ENDBRANCH   4   5
ENDBRANCH   2   4
BRANCH   2  14
HETATM   14  C   UNL     1     -10.637   9.689  70.356  1.00  0.00    -0.295 C  
BRANCH  14  15
HETATM   15  N   UNL     1     -11.351   8.450  70.831  1.00  0.00    -0.266 NA 
BRANCH  15  16
HETATM   16  C   UNL     1     -10.307   7.405  71.151  1.00  0.00    -0.201 C  
HETATM   17  C   UNL     1     -10.654   6.030  70.591  1.00  0.00    -0.260 C  
HETATM   18  O   UNL     1     -11.389   6.098  69.451  1.00  0.00    -0.420 OA 
HETATM   19  O   UNL     1     -10.265   4.977  71.069  1.00  0.00    -0.217 OA 
ENDBRANCH  15  16
BRANCH  15  20
HETATM   20  C   UNL     1     -12.045   8.782  72.142  1.00  0.00    -0.371 C  
HETATM   21  C   UNL     1     -13.528   8.412  72.154  1.00  0.00    -0.315 C  
HETATM   22  O   UNL     1     -13.824   7.365  71.347  1.00  0.00    -0.393 OA 
HETATM   23  O   UNL     1     -14.359   8.961  72.855  1.00  0.00    -0.548 OA 
ENDBRANCH  15  20
ENDBRANCH  14  15
ENDBRANCH   2  14
TORSDOF 8
ENDMDL
MODEL      227
REMARK 921   NORMALIZED FREE ENERGY PREDICTED BY IDOCK:   -3.56 KCAL/MOL
REMARK 922        TOTAL FREE ENERGY PREDICTED BY IDOCK:   -6.56 KCAL/MOL
REMARK 923 INTER-LIGAND FREE ENERGY PREDICTED BY IDOCK:   -7.09 KCAL/MOL
REMARK 924 INTRA-LIGAND FREE ENERGY PREDICTED BY IDOCK:    0.53 KCAL/MOL
REMARK 927      BINDING AFFINITY PREDICTED BY RF-SCORE:    0.00 PKD
ROOT
HETATM    1  O   UNL     1      -9.591  12.298  68.688  1.00  0.00    -0.354 OA 
HETATM    2  C   UNL     1     -10.883  11.698  68.543  1.00  0.00    -0.219 C  
HETATM    3  H   UNL     1      -9.172  11.965  69.473  1.00  0.00     0.000 HD 
ENDROOT
BRANCH   2   4
HETATM    4  C   UNL     1     -10.695  10.161  68.488  1.00  0.00    -0.230 C  
BRANCH   4   5
HETATM    5  N   UNL     1     -10.498   9.459  69.810  1.00  0.00    -0.214 NA 
BRANCH   5   6
HETATM    6  C   UNL     1     -11.374  10.145  70.832  1.00  0.00    -0.340 C  
HETATM    7  O   UNL     1     -12.390   7.979  71.108  1.00  0.00    -0.294 OA 
HETATM    8  C   UNL     1     -12.600   9.314  71.200  1.00  0.00    -0.257 C  
HETATM    9  O   UNL     1     -13.661   9.794  71.567  1.00  0.00    -0.348 OA 
ENDBRANCH   5   6
BRANCH   5  10
HETATM   10  C   UNL     1      -9.066   9.637  70.239  1.00  0.00    -0.225 C  
HETATM   11  O   UNL     1      -9.260   7.407  71.109  1.00  0.00    -0.154 OA 
HETATM   12  O   UNL     1      -7.761   8.783  72.109  1.00  0.00    -0.315 OA 
HETATM   13  C   UNL     1      -8.627   8.592  71.266  1.00  0.00    -0.187 C  
ENDBRANCH   5  10
ENDBRANCH   4   5
ENDBRANCH   2   4
BRANCH   2  14
HETATM   14  C   UNL     1     -11.570  12.246  67.254  1.00  0.00    -0.357 C  
BRANCH  14  15
HETATM   15  N   UNL     1     -10.681  12.642  66.104  1.00  0.00    -0.264 NA 
BRANCH  15  16
HETATM   16  C   UNL     1     -10.940  11.685  64.964  1.00  0.00    -0.273 C  
HETATM   17  C   UNL     1      -9.671  11.006  64.460  1.00  0.00    -0.273 C  
HETATM   18  O   UNL     1      -8.738  10.851  65.434  1.00  0.00    -0.188 OA 
HETATM   19  O   UNL     1      -9.522  10.586  63.324  1.00  0.00    -0.270 OA 
ENDBRANCH  15  16
BRANCH  15  20
HETATM   20  C   UNL     1     -11.122  14.015  65.622  1.00  0.00    -0.302 C  
HETATM   21  C   UNL     1     -12.337  13.971  64.695  1.00  0.00    -0.397 C  
HETATM   22  O   UNL     1     -13.156  12.919  64.937  1.00  0.00    -0.799 OA 
HETATM   23  O   UNL     1     -12.582  14.820  63.857  1.00  0.00    -0.834 OA 
ENDBRANCH  15  20
ENDBRANCH  14  15
ENDBRANCH   2  14
TORSDOF 8
ENDMDL
MODEL      228
REMARK 921   NORMALIZED FREE ENERGY PREDICTED BY IDOCK:   -3.56 KCAL/MOL
REMARK 922        TOTAL FREE ENERGY PREDICTED BY IDOCK:   -6.56 KCAL/MOL
REMARK 923 INTER-LIGAND FREE ENERGY PREDICTED BY IDOCK:   -6.04 KCAL/MOL
REMARK 924 INTRA-LIGAND FREE ENERGY PREDICTED BY IDOCK:   -0.52 KCAL/MOL
REMARK 927      BINDING AFFINITY PREDICTED BY RF-SCORE:    0.00 PKD
ROOT
HETATM    1  O   UNL     1     -13.019  13.685  65.674  1.00  0.00    -0.538 OA 
HETATM    2  C   UNL     1     -11.623  13.370  65.712  1.00  0.00    -0.332 C  
HETATM    3  H   UNL     1     -13.386  13.403  64.843  1.00  0.00     0.000 HD 
ENDROOT
BRANCH   2   4
HETATM    4  C   UNL     1     -11.469  11.843  65.501  1.00  0.00    -0.252 C  
BRANCH   4   5
HETATM    5  N   UNL     1     -10.596  11.111  66.492  1.00  0.00    -0.256 NA 
BRANCH   5   6
HETATM    6  C   UNL     1     -10.264   9.759  65.905  1.00  0.00    -0.174 C  
HETATM    7  O   UNL     1      -8.026  10.628  65.706  1.00  0.00    -0.159 OA 
HETATM    8  C   UNL     1      -8.918   9.752  65.185  1.00  0.00    -0.197 C  
HETATM    9  O   UNL     1      -8.654   9.016  64.248  1.00  0.00    -0.189 OA 
ENDBRANCH   5   6
BRANCH   5  10
HETATM   10  C   UNL     1     -11.388  10.883  67.751  1.00  0.00    -0.292 C  
HETATM   11  O   UNL     1      -9.285  11.143  68.882  1.00  0.00    -0.169 OA 
HETATM   12  O   UNL     1     -10.858   9.867  69.900  1.00  0.00    -0.240 OA 
HETATM   13  C   UNL     1     -10.500  10.551  68.951  1.00  0.00    -0.206 C  
ENDBRANCH   5  10
ENDBRANCH   4   5
ENDBRANCH   2   4
BRANCH   2  14
HETATM   14  C   UNL     1     -11.021  13.832  67.074  1.00  0.00    -0.290 C  
BRANCH  14  15
HETATM   15  N   UNL     1     -10.349  15.180  67.119  1.00  0.00    -0.259 NA 
BRANCH  15  16
HETATM   16  C   UNL     1      -8.907  14.968  67.520  1.00  0.00    -0.185 C  
HETATM   17  C   UNL     1      -8.559  15.625  68.851  1.00  0.00    -0.211 C  
HETATM   18  O   UNL     1      -9.620  15.689  69.697  1.00  0.00    -0.277 OA 
HETATM   19  O   UNL     1      -7.440  15.998  69.161  1.00  0.00    -0.193 OA 
ENDBRANCH  15  16
BRANCH  15  20
HETATM   20  C   UNL     1     -10.324  15.739  65.705  1.00  0.00    -0.388 C  
HETATM   21  C   UNL     1     -10.699  17.219  65.632  1.00  0.00    -0.120 C  
HETATM   22  O   UNL     1     -10.388  17.906  66.758  1.00  0.00    -0.345 OA 
HETATM   23  O   UNL     1     -11.180  17.750  64.647  1.00  0.00    -0.764 OA 
ENDBRANCH  15  20
ENDBRANCH  14  15
ENDBRANCH   2  14
TORSDOF 8
ENDMDL
MODEL      229
REMARK 921   NORMALIZED FREE ENERGY PREDICTED BY IDOCK:   -3.55 KCAL/MOL
REMARK 922        TOTAL FREE ENERGY PREDICTED BY IDOCK:   -6.55 KCAL/MOL
REMARK 923 INTER-LIGAND FREE ENERGY PREDICTED BY IDOCK:   -7.05 KCAL/MOL
REMARK 924 INTRA-LIGAND FREE ENERGY PREDICTED BY IDOCK:    0.50 KCAL/MOL
REMARK 927      BINDING AFFINITY PREDICTED BY RF-SCORE:    0.00 PKD
ROOT
HETATM    1  O   UNL     1      -8.011  12.889  66.633  1.00  0.00    -0.396 OA 
HETATM    2  C   UNL     1      -9.079  11.945  66.775  1.00  0.00    -0.197 C  
HETATM    3  H   UNL     1      -8.062  13.301  65.779  1.00  0.00     0.000 HD 
ENDROOT
BRANCH   2   4
HETATM    4  C   UNL     1     -10.417  12.702  66.577  1.00  0.00    -0.247 C  
BRANCH   4   5
HETATM    5  N   UNL     1     -10.333  14.057  65.919  1.00  0.00    -0.308 NA 
BRANCH   5   6
HETATM    6  C   UNL     1     -11.347  14.958  66.584  1.00  0.00    -0.326 C  
HETATM    7  O   UNL     1      -9.431  16.057  67.545  1.00  0.00    -0.220 OA 
HETATM    8  C   UNL     1     -10.743  15.772  67.725  1.00  0.00    -0.307 C  
HETATM    9  O   UNL     1     -11.377  16.154  68.696  1.00  0.00    -0.354 OA 
ENDBRANCH   5   6
BRANCH   5  10
HETATM   10  C   UNL     1     -10.726  13.913  64.472  1.00  0.00    -0.366 C  
HETATM   11  O   UNL     1     -12.984  13.924  65.292  1.00  0.00    -0.747 OA 
HETATM   12  O   UNL     1     -12.593  12.828  63.346  1.00  0.00    -0.701 OA 
HETATM   13  C   UNL     1     -12.181  13.473  64.301  1.00  0.00    -0.396 C  
ENDBRANCH   5  10
ENDBRANCH   4   5
ENDBRANCH   2   4
BRANCH   2  14
HETATM   14  C   UNL     1      -8.995  11.269  68.178  1.00  0.00    -0.166 C  
BRANCH  14  15
HETATM   15  N   UNL     1      -9.918  10.109  68.449  1.00  0.00    -0.152 NA 
BRANCH  15  16
HETATM   16  C   UNL     1      -9.082   8.852  68.502  1.00  0.00    -0.137 C  
HETATM   17  C   UNL     1      -9.881   7.594  68.179  1.00  0.00    -0.164 C  
HETATM   18  O   UNL     1     -10.908   7.832  67.322  1.00  0.00    -0.284 OA 
HETATM   19  O   UNL     1      -9.600   6.478  68.586  1.00  0.00    -0.126 OA 
ENDBRANCH  15  16
BRANCH  15  20
HETATM   20  C   UNL     1     -10.508  10.293  69.838  1.00  0.00    -0.256 C  
HETATM   21  C   UNL     1     -11.808  11.098  69.843  1.00  0.00    -0.363 C  
HETATM   22  O   UNL     1     -12.516  10.977  68.694  1.00  0.00    -0.462 OA 
HETATM   23  O   UNL     1     -12.203  11.743  70.798  1.00  0.00    -0.378 OA 
ENDBRANCH  15  20
ENDBRANCH  14  15
ENDBRANCH   2  14
TORSDOF 8
ENDMDL
MODEL      230
REMARK 921   NORMALIZED FREE ENERGY PREDICTED BY IDOCK:   -3.55 KCAL/MOL
REMARK 922        TOTAL FREE ENERGY PREDICTED BY IDOCK:   -6.55 KCAL/MOL
REMARK 923 INTER-LIGAND FREE ENERGY PREDICTED BY IDOCK:   -5.19 KCAL/MOL
REMARK 924 INTRA-LIGAND FREE ENERGY PREDICTED BY IDOCK:   -1.36 KCAL/MOL
REMARK 927      BINDING AFFINITY PREDICTED BY RF-SCORE:    0.00 PKD
ROOT
HETATM    1  O   UNL     1     -12.648   7.002  70.334  1.00  0.00    -0.618 OA 
HETATM    2  C   UNL     1     -11.389   7.173  70.995  1.00  0.00    -0.279 C  
HETATM    3  H   UNL     1     -13.079   7.844  70.248  1.00  0.00     0.000 HD 
ENDROOT
BRANCH   2   4
HETATM    4  C   UNL     1     -10.544   8.173  70.167  1.00  0.00    -0.237 C  
BRANCH   4   5
HETATM    5  N   UNL     1     -11.130   9.551  69.973  1.00  0.00    -0.241 NA 
BRANCH   5   6
HETATM    6  C   UNL     1     -10.073  10.416  69.327  1.00  0.00    -0.230 C  
HETATM    7  O   UNL     1     -11.912  11.404  68.126  1.00  0.00    -0.594 OA 
HETATM    8  C   UNL     1     -10.587  11.129  68.079  1.00  0.00    -0.198 C  
HETATM    9  O   UNL     1      -9.877  11.448  67.139  1.00  0.00    -0.188 OA 
ENDBRANCH   5   6
BRANCH   5  10
HETATM   10  C   UNL     1     -11.438  10.135  71.325  1.00  0.00    -0.249 C  
HETATM   11  O   UNL     1     -13.740   9.819  70.714  1.00  0.00    -0.182 OA 
HETATM   12  O   UNL     1     -13.277  11.479  72.187  1.00  0.00    -0.505 OA 
HETATM   13  C   UNL     1     -12.897  10.576  71.455  1.00  0.00    -0.463 C  
ENDBRANCH   5  10
ENDBRANCH   4   5
ENDBRANCH   2   4
BRANCH   2  14
HETATM   14  C   UNL     1     -10.681   5.791  71.136  1.00  0.00    -0.261 C  
BRANCH  14  15
HETATM   15  N   UNL     1      -9.180   5.761  71.018  1.00  0.00    -0.149 NA 
BRANCH  15  16
HETATM   16  C   UNL     1      -8.622   5.206  72.308  1.00  0.00    -0.125 C  
HETATM   17  C   UNL     1      -7.691   6.182  73.020  1.00  0.00    -0.101 C  
HETATM   18  O   UNL     1      -8.013   7.480  72.785  1.00  0.00    -0.095 OA 
HETATM   19  O   UNL     1      -6.791   5.846  73.773  1.00  0.00    -0.078 OA 
ENDBRANCH  15  16
BRANCH  15  20
HETATM   20  C   UNL     1      -8.814   4.766  69.928  1.00  0.00    -0.090 C  
HETATM   21  C   UNL     1      -8.303   5.429  68.649  1.00  0.00    -0.093 C  
HETATM   22  O   UNL     1      -7.692   6.618  68.870  1.00  0.00    -0.105 OA 
HETATM   23  O   UNL     1      -8.384   4.924  67.543  1.00  0.00    -0.105 OA 
ENDBRANCH  15  20
ENDBRANCH  14  15
ENDBRANCH   2  14
TORSDOF 8
ENDMDL
MODEL      231
REMARK 921   NORMALIZED FREE ENERGY PREDICTED BY IDOCK:   -3.55 KCAL/MOL
REMARK 922        TOTAL FREE ENERGY PREDICTED BY IDOCK:   -6.55 KCAL/MOL
REMARK 923 INTER-LIGAND FREE ENERGY PREDICTED BY IDOCK:   -5.69 KCAL/MOL
REMARK 924 INTRA-LIGAND FREE ENERGY PREDICTED BY IDOCK:   -0.86 KCAL/MOL
REMARK 927      BINDING AFFINITY PREDICTED BY RF-SCORE:    0.00 PKD
ROOT
HETATM    1  O   UNL     1      -9.721  14.842  66.050  1.00  0.00    -0.295 OA 
HETATM    2  C   UNL     1      -9.597  14.926  67.474  1.00  0.00    -0.204 C  
HETATM    3  H   UNL     1      -9.455  13.977  65.759  1.00  0.00     0.000 HD 
ENDROOT
BRANCH   2   4
HETATM    4  C   UNL     1     -10.473  13.811  68.100  1.00  0.00    -0.249 C  
BRANCH   4   5
HETATM    5  N   UNL     1     -10.569  12.518  67.327  1.00  0.00    -0.226 NA 
BRANCH   5   6
HETATM    6  C   UNL     1     -12.001  12.356  66.873  1.00  0.00    -0.196 C  
HETATM    7  O   UNL     1     -11.143  12.856  64.679  1.00  0.00    -0.298 OA 
HETATM    8  C   UNL     1     -12.236  12.922  65.475  1.00  0.00    -0.474 C  
HETATM    9  O   UNL     1     -13.307  13.369  65.096  1.00  0.00    -0.611 OA 
ENDBRANCH   5   6
BRANCH   5  10
HETATM   10  C   UNL     1     -10.250  11.379  68.258  1.00  0.00    -0.193 C  
HETATM   11  O   UNL     1      -8.171  11.248  67.064  1.00  0.00    -0.138 OA 
HETATM   12  O   UNL     1      -8.937   9.342  68.021  1.00  0.00    -0.128 OA 
HETATM   13  C   UNL     1      -9.077  10.530  67.767  1.00  0.00    -0.138 C  
ENDBRANCH   5  10
ENDBRANCH   4   5
ENDBRANCH   2   4
BRANCH   2  14
HETATM   14  C   UNL     1     -10.033  16.345  67.952  1.00  0.00    -0.243 C  
BRANCH  14  15
HETATM   15  N   UNL     1      -9.108  17.496  67.656  1.00  0.00    -0.241 NA 
BRANCH  15  16
HETATM   16  C   UNL     1      -7.744  16.927  67.338  1.00  0.00    -0.171 C  
HETATM   17  C   UNL     1      -6.603  17.821  67.812  1.00  0.00    -0.187 C  
HETATM   18  O   UNL     1      -6.927  18.543  68.916  1.00  0.00    -0.272 OA 
HETATM   19  O   UNL     1      -5.494  17.846  67.303  1.00  0.00    -0.123 OA 
ENDBRANCH  15  16
BRANCH  15  20
HETATM   20  C   UNL     1      -9.596  18.177  66.388  1.00  0.00    -0.294 C  
HETATM   21  C   UNL     1     -10.298  19.510  66.647  1.00  0.00    -0.465 C  
HETATM   22  O   UNL     1      -9.854  20.141  67.761  1.00  0.00    -0.380 OA 
HETATM   23  O   UNL     1     -11.136  19.992  65.906  1.00  0.00    -0.163 OA 
ENDBRANCH  15  20
ENDBRANCH  14  15
ENDBRANCH   2  14
TORSDOF 8
ENDMDL
MODEL      232
REMARK 921   NORMALIZED FREE ENERGY PREDICTED BY IDOCK:   -3.54 KCAL/MOL
REMARK 922        TOTAL FREE ENERGY PREDICTED BY IDOCK:   -6.53 KCAL/MOL
REMARK 923 INTER-LIGAND FREE ENERGY PREDICTED BY IDOCK:   -7.79 KCAL/MOL
REMARK 924 INTRA-LIGAND FREE ENERGY PREDICTED BY IDOCK:    1.26 KCAL/MOL
REMARK 927      BINDING AFFINITY PREDICTED BY RF-SCORE:    0.00 PKD
ROOT
HETATM    1  O   UNL     1     -11.996  15.886  68.123  1.00  0.00    -0.306 OA 
HETATM    2  C   UNL     1     -11.004  16.078  69.138  1.00  0.00    -0.297 C  
HETATM    3  H   UNL     1     -12.021  16.647  67.556  1.00  0.00     0.000 HD 
ENDROOT
BRANCH   2   4
HETATM    4  C   UNL     1      -9.643  16.322  68.439  1.00  0.00    -0.216 C  
BRANCH   4   5
HETATM    5  N   UNL     1      -9.589  16.049  66.955  1.00  0.00    -0.217 NA 
BRANCH   5   6
HETATM    6  C   UNL     1      -8.254  16.535  66.443  1.00  0.00    -0.329 C  
HETATM    7  O   UNL     1      -8.910  18.661  67.365  1.00  0.00    -0.269 OA 
HETATM    8  C   UNL     1      -8.163  18.058  66.410  1.00  0.00    -0.255 C  
HETATM    9  O   UNL     1      -7.469  18.679  65.621  1.00  0.00    -0.496 OA 
ENDBRANCH   5   6
BRANCH   5  10
HETATM   10  C   UNL     1     -10.664  16.860  66.280  1.00  0.00    -0.096 C  
HETATM   11  O   UNL     1     -10.960  14.931  64.880  1.00  0.00    -0.381 OA 
HETATM   12  O   UNL     1     -11.510  16.945  63.998  1.00  0.00    -1.130 OA 
HETATM   13  C   UNL     1     -11.074  16.278  64.926  1.00  0.00    -0.290 C  
ENDBRANCH   5  10
ENDBRANCH   4   5
ENDBRANCH   2   4
BRANCH   2  14
HETATM   14  C   UNL     1     -10.963  14.828  70.070  1.00  0.00    -0.156 C  
BRANCH  14  15
HETATM   15  N   UNL     1     -12.044  13.793  69.897  1.00  0.00    -0.337 NA 
BRANCH  15  16
HETATM   16  C   UNL     1     -11.404  12.538  69.351  1.00  0.00    -0.210 C  
HETATM   17  C   UNL     1     -11.843  12.220  67.925  1.00  0.00    -0.293 C  
HETATM   18  O   UNL     1     -12.148  13.334  67.211  1.00  0.00    -0.357 OA 
HETATM   19  O   UNL     1     -11.860  11.098  67.446  1.00  0.00    -0.570 OA 
ENDBRANCH  15  16
BRANCH  15  20
HETATM   20  C   UNL     1     -12.579  13.438  71.275  1.00  0.00    -0.322 C  
HETATM   21  C   UNL     1     -13.473  14.523  71.876  1.00  0.00    -0.378 C  
HETATM   22  O   UNL     1     -14.123  15.258  70.942  1.00  0.00    -0.328 OA 
HETATM   23  O   UNL     1     -13.634  14.684  73.073  1.00  0.00    -0.561 OA 
ENDBRANCH  15  20
ENDBRANCH  14  15
ENDBRANCH   2  14
TORSDOF 8
ENDMDL
MODEL      233
REMARK 921   NORMALIZED FREE ENERGY PREDICTED BY IDOCK:   -3.54 KCAL/MOL
REMARK 922        TOTAL FREE ENERGY PREDICTED BY IDOCK:   -6.52 KCAL/MOL
REMARK 923 INTER-LIGAND FREE ENERGY PREDICTED BY IDOCK:   -5.51 KCAL/MOL
REMARK 924 INTRA-LIGAND FREE ENERGY PREDICTED BY IDOCK:   -1.01 KCAL/MOL
REMARK 927      BINDING AFFINITY PREDICTED BY RF-SCORE:    0.00 PKD
ROOT
HETATM    1  O   UNL     1     -10.049  13.376  69.024  1.00  0.00    -0.426 OA 
HETATM    2  C   UNL     1     -10.008  13.648  67.619  1.00  0.00    -0.239 C  
HETATM    3  H   UNL     1      -9.521  14.015  69.487  1.00  0.00     0.000 HD 
ENDROOT
BRANCH   2   4
HETATM    4  C   UNL     1     -10.522  15.093  67.395  1.00  0.00    -0.264 C  
BRANCH   4   5
HETATM    5  N   UNL     1      -9.499  16.197  67.513  1.00  0.00    -0.222 NA 
BRANCH   5   6
HETATM    6  C   UNL     1      -9.977  17.361  66.677  1.00  0.00    -0.308 C  
HETATM    7  O   UNL     1      -9.574  18.677  68.653  1.00  0.00    -0.342 OA 
HETATM    8  C   UNL     1     -10.314  18.586  67.522  1.00  0.00    -0.409 C  
HETATM    9  O   UNL     1     -11.147  19.421  67.206  1.00  0.00    -0.458 OA 
ENDBRANCH   5   6
BRANCH   5  10
HETATM   10  C   UNL     1      -8.200  15.712  66.927  1.00  0.00    -0.253 C  
HETATM   11  O   UNL     1      -7.247  16.326  69.044  1.00  0.00    -0.178 OA 
HETATM   12  O   UNL     1      -5.876  16.367  67.240  1.00  0.00    -0.147 OA 
HETATM   13  C   UNL     1      -6.984  16.185  67.724  1.00  0.00    -0.141 C  
ENDBRANCH   5  10
ENDBRANCH   4   5
ENDBRANCH   2   4
BRANCH   2  14
HETATM   14  C   UNL     1     -10.874  12.598  66.858  1.00  0.00    -0.254 C  
BRANCH  14  15
HETATM   15  N   UNL     1     -10.285  11.228  66.649  1.00  0.00    -0.221 NA 
BRANCH  15  16
HETATM   16  C   UNL     1     -10.907  10.294  67.661  1.00  0.00    -0.307 C  
HETATM   17  C   UNL     1     -10.002   9.119  68.019  1.00  0.00    -0.178 C  
HETATM   18  O   UNL     1      -8.682   9.427  67.924  1.00  0.00    -0.120 OA 
HETATM   19  O   UNL     1     -10.405   8.037  68.411  1.00  0.00    -0.204 OA 
ENDBRANCH  15  16
BRANCH  15  20
HETATM   20  C   UNL     1     -10.723  10.732  65.280  1.00  0.00    -0.083 C  
HETATM   21  C   UNL     1      -9.598  10.734  64.245  1.00  0.00    -0.283 C  
HETATM   22  O   UNL     1      -8.370  10.562  64.791  1.00  0.00    -0.170 OA 
HETATM   23  O   UNL     1      -9.780  10.826  63.044  1.00  0.00    -0.308 OA 
ENDBRANCH  15  20
ENDBRANCH  14  15
ENDBRANCH   2  14
TORSDOF 8
ENDMDL
MODEL      234
REMARK 921   NORMALIZED FREE ENERGY PREDICTED BY IDOCK:   -3.54 KCAL/MOL
REMARK 922        TOTAL FREE ENERGY PREDICTED BY IDOCK:   -6.52 KCAL/MOL
REMARK 923 INTER-LIGAND FREE ENERGY PREDICTED BY IDOCK:   -6.88 KCAL/MOL
REMARK 924 INTRA-LIGAND FREE ENERGY PREDICTED BY IDOCK:    0.36 KCAL/MOL
REMARK 927      BINDING AFFINITY PREDICTED BY RF-SCORE:    0.00 PKD
ROOT
HETATM    1  O   UNL     1      -9.688  11.871  68.853  1.00  0.00    -0.396 OA 
HETATM    2  C   UNL     1     -10.106  12.707  67.767  1.00  0.00    -0.220 C  
HETATM    3  H   UNL     1      -9.768  10.959  68.600  1.00  0.00     0.000 HD 
ENDROOT
BRANCH   2   4
HETATM    4  C   UNL     1      -9.229  12.369  66.536  1.00  0.00    -0.215 C  
BRANCH   4   5
HETATM    5  N   UNL     1      -9.960  12.044  65.256  1.00  0.00    -0.254 NA 
BRANCH   5   6
HETATM    6  C   UNL     1     -11.440  12.032  65.560  1.00  0.00    -0.313 C  
HETATM    7  O   UNL     1     -11.661  13.254  63.497  1.00  0.00    -0.436 OA 
HETATM    8  C   UNL     1     -12.216  13.036  64.712  1.00  0.00    -0.435 C  
HETATM    9  O   UNL     1     -13.250  13.575  65.075  1.00  0.00    -0.721 OA 
ENDBRANCH   5   6
BRANCH   5  10
HETATM   10  C   UNL     1      -9.569  10.657  64.820  1.00  0.00    -0.280 C  
HETATM   11  O   UNL     1      -8.878  11.711  62.776  1.00  0.00    -0.239 OA 
HETATM   12  O   UNL     1      -9.509   9.537  62.659  1.00  0.00    -0.099 OA 
HETATM   13  C   UNL     1      -9.342  10.558  63.311  1.00  0.00    -0.314 C  
ENDBRANCH   5  10
ENDBRANCH   4   5
ENDBRANCH   2   4
BRANCH   2  14
HETATM   14  C   UNL     1      -9.975  14.205  68.182  1.00  0.00    -0.232 C  
BRANCH  14  15
HETATM   15  N   UNL     1     -11.183  14.868  68.790  1.00  0.00    -0.261 NA 
BRANCH  15  16
HETATM   16  C   UNL     1     -10.768  15.466  70.114  1.00  0.00    -0.308 C  
HETATM   17  C   UNL     1     -11.721  15.109  71.251  1.00  0.00    -0.359 C  
HETATM   18  O   UNL     1     -12.317  13.902  71.074  1.00  0.00    -0.346 OA 
HETATM   19  O   UNL     1     -11.888  15.793  72.247  1.00  0.00    -0.410 OA 
ENDBRANCH  15  16
BRANCH  15  20
HETATM   20  C   UNL     1     -11.578  16.033  67.896  1.00  0.00    -0.054 C  
HETATM   21  C   UNL     1     -10.536  17.152  67.862  1.00  0.00    -0.376 C  
HETATM   22  O   UNL     1      -9.272  16.711  68.072  1.00  0.00    -0.216 OA 
HETATM   23  O   UNL     1     -10.798  18.316  67.618  1.00  0.00    -0.396 OA 
ENDBRANCH  15  20
ENDBRANCH  14  15
ENDBRANCH   2  14
TORSDOF 8
ENDMDL
MODEL      235
REMARK 921   NORMALIZED FREE ENERGY PREDICTED BY IDOCK:   -3.54 KCAL/MOL
REMARK 922        TOTAL FREE ENERGY PREDICTED BY IDOCK:   -6.52 KCAL/MOL
REMARK 923 INTER-LIGAND FREE ENERGY PREDICTED BY IDOCK:   -5.83 KCAL/MOL
REMARK 924 INTRA-LIGAND FREE ENERGY PREDICTED BY IDOCK:   -0.69 KCAL/MOL
REMARK 927      BINDING AFFINITY PREDICTED BY RF-SCORE:    0.00 PKD
ROOT
HETATM    1  O   UNL     1      -8.327  12.981  67.053  1.00  0.00    -0.293 OA 
HETATM    2  C   UNL     1      -9.594  12.622  66.489  1.00  0.00    -0.248 C  
HETATM    3  H   UNL     1      -8.265  12.639  67.937  1.00  0.00     0.000 HD 
ENDROOT
BRANCH   2   4
HETATM    4  C   UNL     1      -9.712  11.077  66.520  1.00  0.00    -0.198 C  
BRANCH   4   5
HETATM    5  N   UNL     1      -8.770  10.348  67.447  1.00  0.00    -0.125 NA 
BRANCH   5   6
HETATM    6  C   UNL     1      -8.079   9.269  66.648  1.00  0.00    -0.108 C  
HETATM    7  O   UNL     1      -6.181  10.751  66.681  1.00  0.00    -0.072 OA 
HETATM    8  C   UNL     1      -6.796   9.766  65.986  1.00  0.00    -0.094 C  
HETATM    9  O   UNL     1      -6.349   9.309  64.945  1.00  0.00    -0.065 OA 
ENDBRANCH   5   6
BRANCH   5  10
HETATM   10  C   UNL     1      -9.582   9.676  68.522  1.00  0.00    -0.145 C  
HETATM   11  O   UNL     1      -7.722  10.176  69.958  1.00  0.00    -0.170 OA 
HETATM   12  O   UNL     1      -8.993   8.378  70.497  1.00  0.00    -0.140 OA 
HETATM   13  C   UNL     1      -8.743   9.314  69.750  1.00  0.00    -0.162 C  
ENDBRANCH   5  10
ENDBRANCH   4   5
ENDBRANCH   2   4
BRANCH   2  14
HETATM   14  C   UNL     1      -9.697  13.184  65.038  1.00  0.00     0.088 C  
BRANCH  14  15
HETATM   15  N   UNL     1     -10.906  14.015  64.696  1.00  0.00    -0.413 NA 
BRANCH  15  16
HETATM   16  C   UNL     1     -12.137  13.213  65.050  1.00  0.00    -0.415 C  
HETATM   17  C   UNL     1     -12.513  12.197  63.977  1.00  0.00    -0.440 C  
HETATM   18  O   UNL     1     -11.435  11.740  63.289  1.00  0.00    -0.359 OA 
HETATM   19  O   UNL     1     -13.645  11.784  63.789  1.00  0.00    -0.321 OA 
ENDBRANCH  15  16
BRANCH  15  20
HETATM   20  C   UNL     1     -10.910  15.234  65.605  1.00  0.00    -0.363 C  
HETATM   21  C   UNL     1     -11.066  16.554  64.848  1.00  0.00    -0.190 C  
HETATM   22  O   UNL     1     -11.761  16.428  63.692  1.00  0.00    -0.933 OA 
HETATM   23  O   UNL     1     -10.656  17.625  65.260  1.00  0.00    -0.663 OA 
ENDBRANCH  15  20
ENDBRANCH  14  15
ENDBRANCH   2  14
TORSDOF 8
ENDMDL
MODEL      236
REMARK 921   NORMALIZED FREE ENERGY PREDICTED BY IDOCK:   -3.53 KCAL/MOL
REMARK 922        TOTAL FREE ENERGY PREDICTED BY IDOCK:   -6.52 KCAL/MOL
REMARK 923 INTER-LIGAND FREE ENERGY PREDICTED BY IDOCK:   -5.60 KCAL/MOL
REMARK 924 INTRA-LIGAND FREE ENERGY PREDICTED BY IDOCK:   -0.92 KCAL/MOL
REMARK 927      BINDING AFFINITY PREDICTED BY RF-SCORE:    0.00 PKD
ROOT
HETATM    1  O   UNL     1      -8.887   8.240  68.190  1.00  0.00    -0.138 OA 
HETATM    2  C   UNL     1      -9.864   8.987  68.923  1.00  0.00    -0.175 C  
HETATM    3  H   UNL     1      -8.373   7.713  68.791  1.00  0.00     0.000 HD 
ENDROOT
BRANCH   2   4
HETATM    4  C   UNL     1     -10.745   7.983  69.710  1.00  0.00    -0.231 C  
BRANCH   4   5
HETATM    5  N   UNL     1     -10.849   8.202  71.200  1.00  0.00    -0.228 NA 
BRANCH   5   6
HETATM    6  C   UNL     1     -11.093   9.674  71.434  1.00  0.00    -0.326 C  
HETATM    7  O   UNL     1     -13.175   8.961  72.413  1.00  0.00    -0.411 OA 
HETATM    8  C   UNL     1     -12.551   9.977  71.771  1.00  0.00    -0.409 C  
HETATM    9  O   UNL     1     -13.101  11.036  71.514  1.00  0.00    -0.418 OA 
ENDBRANCH   5   6
BRANCH   5  10
HETATM   10  C   UNL     1      -9.528   7.849  71.829  1.00  0.00    -0.158 C  
HETATM   11  O   UNL     1     -10.839   7.183  73.729  1.00  0.00    -0.306 OA 
HETATM   12  O   UNL     1      -8.713   7.861  74.124  1.00  0.00    -0.262 OA 
HETATM   13  C   UNL     1      -9.632   7.659  73.344  1.00  0.00    -0.288 C  
ENDBRANCH   5  10
ENDBRANCH   4   5
ENDBRANCH   2   4
BRANCH   2  14
HETATM   14  C   UNL     1     -10.708   9.851  67.936  1.00  0.00    -0.265 C  
BRANCH  14  15
HETATM   15  N   UNL     1      -9.994  10.937  67.175  1.00  0.00    -0.184 NA 
BRANCH  15  16
HETATM   16  C   UNL     1     -11.035  11.763  66.456  1.00  0.00    -0.295 C  
HETATM   17  C   UNL     1     -10.816  11.810  64.947  1.00  0.00    -0.298 C  
HETATM   18  O   UNL     1     -10.221  10.687  64.469  1.00  0.00    -0.336 OA 
HETATM   19  O   UNL     1     -11.189  12.722  64.227  1.00  0.00    -0.324 OA 
ENDBRANCH  15  16
BRANCH  15  20
HETATM   20  C   UNL     1      -9.334  11.862  68.185  1.00  0.00    -0.191 C  
HETATM   21  C   UNL     1      -7.809  11.745  68.209  1.00  0.00    -0.137 C  
HETATM   22  O   UNL     1      -7.283  11.373  67.018  1.00  0.00    -0.125 OA 
HETATM   23  O   UNL     1      -7.123  12.009  69.181  1.00  0.00    -0.096 OA 
ENDBRANCH  15  20
ENDBRANCH  14  15
ENDBRANCH   2  14
TORSDOF 8
ENDMDL
MODEL      237
REMARK 921   NORMALIZED FREE ENERGY PREDICTED BY IDOCK:   -3.53 KCAL/MOL
REMARK 922        TOTAL FREE ENERGY PREDICTED BY IDOCK:   -6.51 KCAL/MOL
REMARK 923 INTER-LIGAND FREE ENERGY PREDICTED BY IDOCK:   -5.64 KCAL/MOL
REMARK 924 INTRA-LIGAND FREE ENERGY PREDICTED BY IDOCK:   -0.87 KCAL/MOL
REMARK 927      BINDING AFFINITY PREDICTED BY RF-SCORE:    0.00 PKD
ROOT
HETATM    1  O   UNL     1     -11.275  15.365  66.852  1.00  0.00    -0.307 OA 
HETATM    2  C   UNL     1     -10.539  16.457  67.414  1.00  0.00    -0.306 C  
HETATM    3  H   UNL     1     -11.292  15.446  65.906  1.00  0.00     0.000 HD 
ENDROOT
BRANCH   2   4
HETATM    4  C   UNL     1      -9.113  16.437  66.807  1.00  0.00    -0.234 C  
BRANCH   4   5
HETATM    5  N   UNL     1      -8.297  17.697  66.964  1.00  0.00    -0.214 NA 
BRANCH   5   6
HETATM    6  C   UNL     1      -9.133  18.854  66.471  1.00  0.00    -0.327 C  
HETATM    7  O   UNL     1      -9.101  19.585  68.765  1.00  0.00    -0.368 OA 
HETATM    8  C   UNL     1      -9.807  19.613  67.611  1.00  0.00    -0.376 C  
HETATM    9  O   UNL     1     -10.866  20.210  67.495  1.00  0.00    -0.202 OA 
ENDBRANCH   5   6
BRANCH   5  10
HETATM   10  C   UNL     1      -7.084  17.595  66.078  1.00  0.00    -0.283 C  
HETATM   11  O   UNL     1      -5.952  18.785  67.831  1.00  0.00    -0.191 OA 
HETATM   12  O   UNL     1      -5.145  19.026  65.726  1.00  0.00    -0.133 OA 
HETATM   13  C   UNL     1      -5.969  18.555  66.498  1.00  0.00    -0.153 C  
ENDBRANCH   5  10
ENDBRANCH   4   5
ENDBRANCH   2   4
BRANCH   2  14
HETATM   14  C   UNL     1     -10.511  16.324  68.967  1.00  0.00    -0.276 C  
BRANCH  14  15
HETATM   15  N   UNL     1     -11.280  15.184  69.583  1.00  0.00    -0.255 NA 
BRANCH  15  16
HETATM   16  C   UNL     1     -10.421  13.943  69.499  1.00  0.00     0.232 C  
HETATM   17  C   UNL     1     -11.185  12.726  68.988  1.00  0.00    -0.264 C  
HETATM   18  O   UNL     1     -12.190  13.058  68.137  1.00  0.00    -0.226 OA 
HETATM   19  O   UNL     1     -10.894  11.572  69.256  1.00  0.00    -0.220 OA 
ENDBRANCH  15  16
BRANCH  15  20
HETATM   20  C   UNL     1     -11.460  15.483  71.063  1.00  0.00    -0.383 C  
HETATM   21  C   UNL     1     -12.912  15.381  71.530  1.00  0.00    -0.447 C  
HETATM   22  O   UNL     1     -13.645  14.499  70.809  1.00  0.00    -0.253 OA 
HETATM   23  O   UNL     1     -13.362  15.986  72.487  1.00  0.00    -0.450 OA 
ENDBRANCH  15  20
ENDBRANCH  14  15
ENDBRANCH   2  14
TORSDOF 8
ENDMDL
MODEL      238
REMARK 921   NORMALIZED FREE ENERGY PREDICTED BY IDOCK:   -3.49 KCAL/MOL
REMARK 922        TOTAL FREE ENERGY PREDICTED BY IDOCK:   -6.46 KCAL/MOL
REMARK 923 INTER-LIGAND FREE ENERGY PREDICTED BY IDOCK:   -5.50 KCAL/MOL
REMARK 924 INTRA-LIGAND FREE ENERGY PREDICTED BY IDOCK:   -0.96 KCAL/MOL
REMARK 927      BINDING AFFINITY PREDICTED BY RF-SCORE:    0.00 PKD
ROOT
HETATM    1  O   UNL     1     -10.793   7.145  66.586  1.00  0.00    -0.516 OA 
HETATM    2  C   UNL     1     -10.376   8.268  67.370  1.00  0.00    -0.280 C  
HETATM    3  H   UNL     1     -10.963   7.425  65.694  1.00  0.00     0.000 HD 
ENDROOT
BRANCH   2   4
HETATM    4  C   UNL     1      -9.114   8.875  66.706  1.00  0.00    -0.143 C  
BRANCH   4   5
HETATM    5  N   UNL     1      -9.335  10.066  65.804  1.00  0.00    -0.174 NA 
BRANCH   5   6
HETATM    6  C   UNL     1      -8.181  10.130  64.833  1.00  0.00    -0.157 C  
HETATM    7  O   UNL     1      -9.885  10.300  63.140  1.00  0.00    -0.253 OA 
HETATM    8  C   UNL     1      -8.619   9.891  63.390  1.00  0.00    -0.205 C  
HETATM    9  O   UNL     1      -7.898   9.405  62.534  1.00  0.00    -0.114 OA 
ENDBRANCH   5   6
BRANCH   5  10
HETATM   10  C   UNL     1      -9.301  11.315  66.644  1.00  0.00    -0.180 C  
HETATM   11  O   UNL     1     -11.601  11.570  65.999  1.00  0.00    -0.311 OA 
HETATM   12  O   UNL     1     -10.450  13.458  66.502  1.00  0.00    -0.276 OA 
HETATM   13  C   UNL     1     -10.484  12.243  66.364  1.00  0.00    -0.236 C  
ENDBRANCH   5  10
ENDBRANCH   4   5
ENDBRANCH   2   4
BRANCH   2  14
HETATM   14  C   UNL     1     -10.097   7.807  68.834  1.00  0.00    -0.195 C  
BRANCH  14  15
HETATM   15  N   UNL     1     -10.773   8.568  69.945  1.00  0.00    -0.229 NA 
BRANCH  15  16
HETATM   16  C   UNL     1      -9.996   8.321  71.218  1.00  0.00    -0.192 C  
HETATM   17  C   UNL     1     -10.812   7.588  72.278  1.00  0.00    -0.258 C  
HETATM   18  O   UNL     1     -11.745   6.760  71.740  1.00  0.00    -0.280 OA 
HETATM   19  O   UNL     1     -10.615   7.677  73.478  1.00  0.00    -0.343 OA 
ENDBRANCH  15  16
BRANCH  15  20
HETATM   20  C   UNL     1     -10.644  10.053  69.644  1.00  0.00    -0.252 C  
HETATM   21  C   UNL     1     -11.907  10.849  69.971  1.00  0.00    -0.347 C  
HETATM   22  O   UNL     1     -12.635  10.308  70.978  1.00  0.00    -0.329 OA 
HETATM   23  O   UNL     1     -12.211  11.895  69.425  1.00  0.00    -0.235 OA 
ENDBRANCH  15  20
ENDBRANCH  14  15
ENDBRANCH   2  14
TORSDOF 8
ENDMDL
MODEL      239
REMARK 921   NORMALIZED FREE ENERGY PREDICTED BY IDOCK:   -3.48 KCAL/MOL
REMARK 922        TOTAL FREE ENERGY PREDICTED BY IDOCK:   -6.45 KCAL/MOL
REMARK 923 INTER-LIGAND FREE ENERGY PREDICTED BY IDOCK:   -5.15 KCAL/MOL
REMARK 924 INTRA-LIGAND FREE ENERGY PREDICTED BY IDOCK:   -1.30 KCAL/MOL
REMARK 927      BINDING AFFINITY PREDICTED BY RF-SCORE:    0.00 PKD
ROOT
HETATM    1  O   UNL     1     -11.149   8.498  68.081  1.00  0.00    -0.452 OA 
HETATM    2  C   UNL     1      -9.779   8.488  67.664  1.00  0.00    -0.160 C  
HETATM    3  H   UNL     1     -11.290   7.814  68.725  1.00  0.00     0.000 HD 
ENDROOT
BRANCH   2   4
HETATM    4  C   UNL     1      -8.893   8.686  68.919  1.00  0.00    -0.138 C  
BRANCH   4   5
HETATM    5  N   UNL     1      -9.026   7.649  70.008  1.00  0.00    -0.143 NA 
BRANCH   5   6
HETATM    6  C   UNL     1      -7.882   7.843  70.974  1.00  0.00    -0.089 C  
HETATM    7  O   UNL     1      -9.542   7.502  72.685  1.00  0.00    -0.150 OA 
HETATM    8  C   UNL     1      -8.361   8.100  72.400  1.00  0.00    -0.170 C  
HETATM    9  O   UNL     1      -7.736   8.756  73.218  1.00  0.00    -0.391 OA 
ENDBRANCH   5   6
BRANCH   5  10
HETATM   10  C   UNL     1      -8.880   6.284  69.389  1.00  0.00    -0.127 C  
HETATM   11  O   UNL     1     -11.223   6.041  69.856  1.00  0.00    -0.386 OA 
HETATM   12  O   UNL     1      -9.981   4.146  69.773  1.00  0.00    -0.206 OA 
HETATM   13  C   UNL     1     -10.060   5.365  69.709  1.00  0.00    -0.249 C  
ENDBRANCH   5  10
ENDBRANCH   4   5
ENDBRANCH   2   4
BRANCH   2  14
HETATM   14  C   UNL     1      -9.548   9.611  66.606  1.00  0.00    -0.187 C  
BRANCH  14  15
HETATM   15  N   UNL     1      -9.049  10.943  67.101  1.00  0.00    -0.144 NA 
BRANCH  15  16
HETATM   16  C   UNL     1      -7.660  11.156  66.544  1.00  0.00    -0.135 C  
HETATM   17  C   UNL     1      -6.807  12.076  67.411  1.00  0.00    -0.142 C  
HETATM   18  O   UNL     1      -7.136  12.008  68.727  1.00  0.00    -0.101 OA 
HETATM   19  O   UNL     1      -5.885  12.756  66.990  1.00  0.00    -0.324 OA 
ENDBRANCH  15  16
BRANCH  15  20
HETATM   20  C   UNL     1      -9.926  12.028  66.497  1.00  0.00    -0.204 C  
HETATM   21  C   UNL     1     -11.393  11.922  66.913  1.00  0.00    -0.330 C  
HETATM   22  O   UNL     1     -11.564  11.357  68.132  1.00  0.00    -0.341 OA 
HETATM   23  O   UNL     1     -12.320  12.349  66.247  1.00  0.00    -0.577 OA 
ENDBRANCH  15  20
ENDBRANCH  14  15
ENDBRANCH   2  14
TORSDOF 8
ENDMDL
MODEL      240
REMARK 921   NORMALIZED FREE ENERGY PREDICTED BY IDOCK:   -3.48 KCAL/MOL
REMARK 922        TOTAL FREE ENERGY PREDICTED BY IDOCK:   -6.44 KCAL/MOL
REMARK 923 INTER-LIGAND FREE ENERGY PREDICTED BY IDOCK:   -5.76 KCAL/MOL
REMARK 924 INTRA-LIGAND FREE ENERGY PREDICTED BY IDOCK:   -0.68 KCAL/MOL
REMARK 927      BINDING AFFINITY PREDICTED BY RF-SCORE:    0.00 PKD
ROOT
HETATM    1  O   UNL     1      -9.172  11.008  69.400  1.00  0.00    -0.399 OA 
HETATM    2  C   UNL     1     -10.191  11.246  68.422  1.00  0.00    -0.195 C  
HETATM    3  H   UNL     1      -8.749  11.829  69.625  1.00  0.00     0.000 HD 
ENDROOT
BRANCH   2   4
HETATM    4  C   UNL     1     -11.194  12.269  69.013  1.00  0.00    -0.265 C  
BRANCH   4   5
HETATM    5  N   UNL     1     -11.453  13.509  68.191  1.00  0.00    -0.283 NA 
BRANCH   5   6
HETATM    6  C   UNL     1     -12.314  14.437  69.014  1.00  0.00    -0.095 C  
HETATM    7  O   UNL     1     -10.399  15.898  68.989  1.00  0.00    -0.208 OA 
HETATM    8  C   UNL     1     -11.502  15.540  69.688  1.00  0.00    -0.329 C  
HETATM    9  O   UNL     1     -11.820  16.070  70.741  1.00  0.00    -0.380 OA 
ENDBRANCH   5   6
BRANCH   5  10
HETATM   10  C   UNL     1     -12.239  13.116  66.968  1.00  0.00    -0.210 C  
HETATM   11  O   UNL     1     -10.951  14.805  65.845  1.00  0.00    -0.320 OA 
HETATM   12  O   UNL     1     -13.006  14.342  65.008  1.00  0.00    -0.643 OA 
HETATM   13  C   UNL     1     -12.137  14.153  65.847  1.00  0.00    -0.426 C  
ENDBRANCH   5  10
ENDBRANCH   4   5
ENDBRANCH   2   4
BRANCH   2  14
HETATM   14  C   UNL     1     -10.885   9.899  68.054  1.00  0.00    -0.243 C  
BRANCH  14  15
HETATM   15  N   UNL     1     -10.180   8.996  67.076  1.00  0.00    -0.249 NA 
BRANCH  15  16
HETATM   16  C   UNL     1      -9.124   9.812  66.367  1.00  0.00    -0.155 C  
HETATM   17  C   UNL     1      -9.568  10.285  64.986  1.00  0.00    -0.285 C  
HETATM   18  O   UNL     1     -10.910  10.476  64.905  1.00  0.00    -0.044 OA 
HETATM   19  O   UNL     1      -8.805  10.532  64.067  1.00  0.00    -0.184 OA 
ENDBRANCH  15  16
BRANCH  15  20
HETATM   20  C   UNL     1      -9.439   7.931  67.870  1.00  0.00    -0.145 C  
HETATM   21  C   UNL     1     -10.210   6.616  67.987  1.00  0.00    -0.167 C  
HETATM   22  O   UNL     1     -11.038   6.387  66.940  1.00  0.00    -0.384 OA 
HETATM   23  O   UNL     1     -10.063   5.822  68.899  1.00  0.00    -0.157 OA 
ENDBRANCH  15  20
ENDBRANCH  14  15
ENDBRANCH   2  14
TORSDOF 8
ENDMDL
MODEL      241
REMARK 921   NORMALIZED FREE ENERGY PREDICTED BY IDOCK:   -3.48 KCAL/MOL
REMARK 922        TOTAL FREE ENERGY PREDICTED BY IDOCK:   -6.44 KCAL/MOL
REMARK 923 INTER-LIGAND FREE ENERGY PREDICTED BY IDOCK:   -6.13 KCAL/MOL
REMARK 924 INTRA-LIGAND FREE ENERGY PREDICTED BY IDOCK:   -0.32 KCAL/MOL
REMARK 927      BINDING AFFINITY PREDICTED BY RF-SCORE:    0.00 PKD
ROOT
HETATM    1  O   UNL     1      -7.397  13.048  66.604  1.00  0.00    -0.178 OA 
HETATM    2  C   UNL     1      -8.162  13.998  67.354  1.00  0.00    -0.190 C  
HETATM    3  H   UNL     1      -6.904  12.496  67.200  1.00  0.00     0.000 HD 
ENDROOT
BRANCH   2   4
HETATM    4  C   UNL     1      -9.090  13.215  68.316  1.00  0.00    -0.181 C  
BRANCH   4   5
HETATM    5  N   UNL     1     -10.150  12.352  67.675  1.00  0.00    -0.196 NA 
BRANCH   5   6
HETATM    6  C   UNL     1     -11.073  11.866  68.768  1.00  0.00    -0.245 C  
HETATM    7  O   UNL     1     -12.119  14.025  68.557  1.00  0.00    -0.357 OA 
HETATM    8  C   UNL     1     -11.867  13.003  69.407  1.00  0.00    -0.322 C  
HETATM    9  O   UNL     1     -12.261  12.989  70.563  1.00  0.00    -0.357 OA 
ENDBRANCH   5   6
BRANCH   5  10
HETATM   10  C   UNL     1      -9.484  11.147  67.067  1.00  0.00    -0.177 C  
HETATM   11  O   UNL     1     -10.221  12.049  64.967  1.00  0.00    -0.263 OA 
HETATM   12  O   UNL     1      -9.941   9.803  65.089  1.00  0.00    -0.309 OA 
HETATM   13  C   UNL     1      -9.918  10.904  65.621  1.00  0.00    -0.251 C  
ENDBRANCH   5  10
ENDBRANCH   4   5
ENDBRANCH   2   4
BRANCH   2  14
HETATM   14  C   UNL     1      -8.971  14.905  66.376  1.00  0.00    -0.219 C  
BRANCH  14  15
HETATM   15  N   UNL     1      -9.865  15.956  66.978  1.00  0.00    -0.228 NA 
BRANCH  15  16
HETATM   16  C   UNL     1      -9.008  16.864  67.830  1.00  0.00    -0.225 C  
HETATM   17  C   UNL     1      -9.820  17.681  68.829  1.00  0.00    -0.334 C  
HETATM   18  O   UNL     1     -10.950  17.043  69.232  1.00  0.00    -0.214 OA 
HETATM   19  O   UNL     1      -9.472  18.762  69.276  1.00  0.00    -0.148 OA 
ENDBRANCH  15  16
BRANCH  15  20
HETATM   20  C   UNL     1     -10.409  16.815  65.847  1.00  0.00    -0.328 C  
HETATM   21  C   UNL     1     -11.304  16.044  64.877  1.00  0.00    -0.229 C  
HETATM   22  O   UNL     1     -11.947  15.001  65.457  1.00  0.00    -0.172 OA 
HETATM   23  O   UNL     1     -11.472  16.358  63.712  1.00  0.00    -1.002 OA 
ENDBRANCH  15  20
ENDBRANCH  14  15
ENDBRANCH   2  14
TORSDOF 8
ENDMDL
MODEL      242
REMARK 921   NORMALIZED FREE ENERGY PREDICTED BY IDOCK:   -3.47 KCAL/MOL
REMARK 922        TOTAL FREE ENERGY PREDICTED BY IDOCK:   -6.43 KCAL/MOL
REMARK 923 INTER-LIGAND FREE ENERGY PREDICTED BY IDOCK:   -5.78 KCAL/MOL
REMARK 924 INTRA-LIGAND FREE ENERGY PREDICTED BY IDOCK:   -0.65 KCAL/MOL
REMARK 927      BINDING AFFINITY PREDICTED BY RF-SCORE:    0.00 PKD
ROOT
HETATM    1  O   UNL     1     -11.262  15.496  67.472  1.00  0.00    -0.322 OA 
HETATM    2  C   UNL     1     -10.196  15.201  66.563  1.00  0.00    -0.276 C  
HETATM    3  H   UNL     1     -10.978  16.161  68.089  1.00  0.00     0.000 HD 
ENDROOT
BRANCH   2   4
HETATM    4  C   UNL     1      -9.793  16.517  65.850  1.00  0.00    -0.295 C  
BRANCH   4   5
HETATM    5  N   UNL     1      -8.948  17.482  66.646  1.00  0.00    -0.255 NA 
BRANCH   5   6
HETATM    6  C   UNL     1      -9.622  18.833  66.598  1.00  0.00    -0.336 C  
HETATM    7  O   UNL     1      -8.717  19.130  68.811  1.00  0.00    -0.354 OA 
HETATM    8  C   UNL     1      -9.724  19.481  67.977  1.00  0.00    -0.376 C  
HETATM    9  O   UNL     1     -10.607  20.261  68.297  1.00  0.00    -0.256 OA 
ENDBRANCH   5   6
BRANCH   5  10
HETATM   10  C   UNL     1      -7.608  17.612  65.973  1.00  0.00    -0.220 C  
HETATM   11  O   UNL     1      -6.812  16.179  67.728  1.00  0.00    -0.123 OA 
HETATM   12  O   UNL     1      -5.316  17.603  66.794  1.00  0.00    -0.129 OA 
HETATM   13  C   UNL     1      -6.454  17.163  66.871  1.00  0.00    -0.204 C  
ENDBRANCH   5  10
ENDBRANCH   4   5
ENDBRANCH   2   4
BRANCH   2  14
HETATM   14  C   UNL     1     -10.662  14.110  65.550  1.00  0.00    -0.324 C  
BRANCH  14  15
HETATM   15  N   UNL     1     -10.528  12.669  65.967  1.00  0.00    -0.263 NA 
BRANCH  15  16
HETATM   16  C   UNL     1      -9.352  12.076  65.224  1.00  0.00     0.065 C  
HETATM   17  C   UNL     1      -9.762  10.992  64.233  1.00  0.00    -0.284 C  
HETATM   18  O   UNL     1     -11.006  11.188  63.727  1.00  0.00    -0.363 OA 
HETATM   19  O   UNL     1      -9.036  10.078  63.877  1.00  0.00    -0.202 OA 
ENDBRANCH  15  16
BRANCH  15  20
HETATM   20  C   UNL     1     -10.165  12.638  67.443  1.00  0.00    -0.217 C  
HETATM   21  C   UNL     1     -11.118  11.791  68.284  1.00  0.00    -0.240 C  
HETATM   22  O   UNL     1     -11.685  10.775  67.590  1.00  0.00    -0.538 OA 
HETATM   23  O   UNL     1     -11.315  11.969  69.474  1.00  0.00    -0.267 OA 
ENDBRANCH  15  20
ENDBRANCH  14  15
ENDBRANCH   2  14
TORSDOF 8
ENDMDL
MODEL      243
REMARK 921   NORMALIZED FREE ENERGY PREDICTED BY IDOCK:   -3.47 KCAL/MOL
REMARK 922        TOTAL FREE ENERGY PREDICTED BY IDOCK:   -6.43 KCAL/MOL
REMARK 923 INTER-LIGAND FREE ENERGY PREDICTED BY IDOCK:   -5.42 KCAL/MOL
REMARK 924 INTRA-LIGAND FREE ENERGY PREDICTED BY IDOCK:   -1.01 KCAL/MOL
REMARK 927      BINDING AFFINITY PREDICTED BY RF-SCORE:    0.00 PKD
ROOT
HETATM    1  O   UNL     1      -7.994  10.532  68.220  1.00  0.00    -0.106 OA 
HETATM    2  C   UNL     1      -9.426  10.517  68.239  1.00  0.00    -0.155 C  
HETATM    3  H   UNL     1      -7.661  10.116  69.006  1.00  0.00     0.000 HD 
ENDROOT
BRANCH   2   4
HETATM    4  C   UNL     1      -9.889   9.042  68.351  1.00  0.00    -0.166 C  
BRANCH   4   5
HETATM    5  N   UNL     1      -9.930   8.453  69.740  1.00  0.00    -0.188 NA 
BRANCH   5   6
HETATM    6  C   UNL     1      -8.623   7.735  69.977  1.00  0.00    -0.140 C  
HETATM    7  O   UNL     1      -8.639   8.847  72.113  1.00  0.00    -0.381 OA 
HETATM    8  C   UNL     1      -7.844   8.317  71.154  1.00  0.00    -0.097 C  
HETATM    9  O   UNL     1      -6.627   8.288  71.242  1.00  0.00    -0.042 OA 
ENDBRANCH   5   6
BRANCH   5  10
HETATM   10  C   UNL     1     -11.034   7.430  69.793  1.00  0.00    -0.200 C  
HETATM   11  O   UNL     1     -12.002   8.856  71.466  1.00  0.00    -0.294 OA 
HETATM   12  O   UNL     1     -12.505   6.648  71.569  1.00  0.00    -0.344 OA 
HETATM   13  C   UNL     1     -11.909   7.575  71.039  1.00  0.00    -0.293 C  
ENDBRANCH   5  10
ENDBRANCH   4   5
ENDBRANCH   2   4
BRANCH   2  14
HETATM   14  C   UNL     1      -9.972  11.201  66.948  1.00  0.00    -0.198 C  
BRANCH  14  15
HETATM   15  N   UNL     1     -10.480  12.614  67.070  1.00  0.00    -0.232 NA 
BRANCH  15  16
HETATM   16  C   UNL     1     -10.916  13.072  65.697  1.00  0.00    -0.273 C  
HETATM   17  C   UNL     1     -10.504  14.509  65.392  1.00  0.00    -0.380 C  
HETATM   18  O   UNL     1      -9.358  14.870  66.026  1.00  0.00    -0.294 OA 
HETATM   19  O   UNL     1     -11.093  15.241  64.615  1.00  0.00    -0.385 OA 
ENDBRANCH  15  16
BRANCH  15  20
HETATM   20  C   UNL     1     -11.731  12.591  67.934  1.00  0.00    -0.359 C  
HETATM   21  C   UNL     1     -11.622  13.466  69.183  1.00  0.00    -0.315 C  
HETATM   22  O   UNL     1     -10.793  14.525  69.023  1.00  0.00    -0.240 OA 
HETATM   23  O   UNL     1     -12.254  13.270  70.206  1.00  0.00    -0.340 OA 
ENDBRANCH  15  20
ENDBRANCH  14  15
ENDBRANCH   2  14
TORSDOF 8
ENDMDL
MODEL      244
REMARK 921   NORMALIZED FREE ENERGY PREDICTED BY IDOCK:   -3.47 KCAL/MOL
REMARK 922        TOTAL FREE ENERGY PREDICTED BY IDOCK:   -6.42 KCAL/MOL
REMARK 923 INTER-LIGAND FREE ENERGY PREDICTED BY IDOCK:   -5.44 KCAL/MOL
REMARK 924 INTRA-LIGAND FREE ENERGY PREDICTED BY IDOCK:   -0.98 KCAL/MOL
REMARK 927      BINDING AFFINITY PREDICTED BY RF-SCORE:    0.00 PKD
ROOT
HETATM    1  O   UNL     1     -11.084  11.227  65.218  1.00  0.00    -0.196 OA 
HETATM    2  C   UNL     1      -9.831  11.427  65.882  1.00  0.00    -0.226 C  
HETATM    3  H   UNL     1     -11.184  10.308  65.001  1.00  0.00     0.000 HD 
ENDROOT
BRANCH   2   4
HETATM    4  C   UNL     1      -9.807  10.529  67.145  1.00  0.00    -0.176 C  
BRANCH   4   5
HETATM    5  N   UNL     1      -9.037   9.235  67.036  1.00  0.00    -0.129 NA 
BRANCH   5   6
HETATM    6  C   UNL     1      -7.970   9.419  65.983  1.00  0.00    -0.110 C  
HETATM    7  O   UNL     1      -6.582   8.117  67.458  1.00  0.00    -0.056 OA 
HETATM    8  C   UNL     1      -6.576   9.072  66.499  1.00  0.00    -0.067 C  
HETATM    9  O   UNL     1      -5.550   9.581  66.076  1.00  0.00    -0.046 OA 
ENDBRANCH   5   6
BRANCH   5  10
HETATM   10  C   UNL     1      -9.975   8.159  66.558  1.00  0.00    -0.232 C  
HETATM   11  O   UNL     1     -10.556   7.915  68.876  1.00  0.00    -0.211 OA 
HETATM   12  O   UNL     1     -10.793   6.091  67.551  1.00  0.00    -0.283 OA 
HETATM   13  C   UNL     1     -10.465   7.261  67.695  1.00  0.00    -0.242 C  
ENDBRANCH   5  10
ENDBRANCH   4   5
ENDBRANCH   2   4
BRANCH   2  14
HETATM   14  C   UNL     1      -9.666  12.937  66.239  1.00  0.00    -0.268 C  
BRANCH  14  15
HETATM   15  N   UNL     1     -10.908  13.707  66.604  1.00  0.00    -0.282 NA 
BRANCH  15  16
HETATM   16  C   UNL     1     -10.641  14.433  67.902  1.00  0.00    -0.240 C  
HETATM   17  C   UNL     1     -11.432  13.863  69.075  1.00  0.00    -0.299 C  
HETATM   18  O   UNL     1     -11.680  12.534  68.942  1.00  0.00    -0.287 OA 
HETATM   19  O   UNL     1     -11.756  14.504  70.061  1.00  0.00    -0.271 OA 
ENDBRANCH  15  16
BRANCH  15  20
HETATM   20  C   UNL     1     -11.123  14.779  65.548  1.00  0.00    -0.346 C  
HETATM   21  C   UNL     1     -12.163  14.393  64.496  1.00  0.00    -0.463 C  
HETATM   22  O   UNL     1     -13.110  13.546  64.966  1.00  0.00    -0.736 OA 
HETATM   23  O   UNL     1     -12.179  14.837  63.361  1.00  0.00    -0.278 OA 
ENDBRANCH  15  20
ENDBRANCH  14  15
ENDBRANCH   2  14
TORSDOF 8
ENDMDL
MODEL      245
REMARK 921   NORMALIZED FREE ENERGY PREDICTED BY IDOCK:   -3.47 KCAL/MOL
REMARK 922        TOTAL FREE ENERGY PREDICTED BY IDOCK:   -6.42 KCAL/MOL
REMARK 923 INTER-LIGAND FREE ENERGY PREDICTED BY IDOCK:   -5.00 KCAL/MOL
REMARK 924 INTRA-LIGAND FREE ENERGY PREDICTED BY IDOCK:   -1.42 KCAL/MOL
REMARK 927      BINDING AFFINITY PREDICTED BY RF-SCORE:    0.00 PKD
ROOT
HETATM    1  O   UNL     1     -10.865   9.137  68.481  1.00  0.00    -0.399 OA 
HETATM    2  C   UNL     1      -9.660   8.656  69.087  1.00  0.00    -0.163 C  
HETATM    3  H   UNL     1     -10.660   9.858  67.897  1.00  0.00     0.000 HD 
ENDROOT
BRANCH   2   4
HETATM    4  C   UNL     1      -8.691   8.226  67.956  1.00  0.00    -0.135 C  
BRANCH   4   5
HETATM    5  N   UNL     1      -9.272   8.150  66.565  1.00  0.00    -0.176 NA 
BRANCH   5   6
HETATM    6  C   UNL     1      -9.183   6.715  66.105  1.00  0.00    -0.087 C  
HETATM    7  O   UNL     1     -11.449   6.536  66.901  1.00  0.00    -0.212 OA 
HETATM    8  C   UNL     1     -10.304   5.849  66.675  1.00  0.00    -0.226 C  
HETATM    9  O   UNL     1     -10.197   4.651  66.884  1.00  0.00    -0.213 OA 
ENDBRANCH   5   6
BRANCH   5  10
HETATM   10  C   UNL     1      -8.420   8.982  65.644  1.00  0.00    -0.150 C  
HETATM   11  O   UNL     1     -10.463  10.134  65.122  1.00  0.00    -0.178 OA 
HETATM   12  O   UNL     1      -8.851  10.108  63.528  1.00  0.00    -0.188 OA 
HETATM   13  C   UNL     1      -9.251   9.778  64.636  1.00  0.00    -0.255 C  
ENDBRANCH   5  10
ENDBRANCH   4   5
ENDBRANCH   2   4
BRANCH   2  14
HETATM   14  C   UNL     1      -9.995   7.473  70.046  1.00  0.00    -0.186 C  
BRANCH  14  15
HETATM   15  N   UNL     1     -10.322   7.807  71.478  1.00  0.00    -0.192 NA 
BRANCH  15  16
HETATM   16  C   UNL     1     -11.813   7.646  71.665  1.00  0.00    -0.291 C  
HETATM   17  C   UNL     1     -12.516   8.961  71.986  1.00  0.00    -0.392 C  
HETATM   18  O   UNL     1     -11.894  10.035  71.435  1.00  0.00    -0.370 OA 
HETATM   19  O   UNL     1     -13.560   9.046  72.612  1.00  0.00    -0.465 OA 
ENDBRANCH  15  16
BRANCH  15  20
HETATM   20  C   UNL     1      -9.662   6.764  72.366  1.00  0.00    -0.154 C  
HETATM   21  C   UNL     1      -8.319   7.217  72.937  1.00  0.00    -0.106 C  
HETATM   22  O   UNL     1      -8.231   8.559  73.097  1.00  0.00    -0.368 OA 
HETATM   23  O   UNL     1      -7.430   6.453  73.269  1.00  0.00    -0.090 OA 
ENDBRANCH  15  20
ENDBRANCH  14  15
ENDBRANCH   2  14
TORSDOF 8
ENDMDL
MODEL      246
REMARK 921   NORMALIZED FREE ENERGY PREDICTED BY IDOCK:   -3.45 KCAL/MOL
REMARK 922        TOTAL FREE ENERGY PREDICTED BY IDOCK:   -6.39 KCAL/MOL
REMARK 923 INTER-LIGAND FREE ENERGY PREDICTED BY IDOCK:   -5.16 KCAL/MOL
REMARK 924 INTRA-LIGAND FREE ENERGY PREDICTED BY IDOCK:   -1.23 KCAL/MOL
REMARK 927      BINDING AFFINITY PREDICTED BY RF-SCORE:    0.00 PKD
ROOT
HETATM    1  O   UNL     1     -12.206  10.873  68.006  1.00  0.00    -0.695 OA 
HETATM    2  C   UNL     1     -10.966  11.510  68.331  1.00  0.00    -0.221 C  
HETATM    3  H   UNL     1     -12.694  11.419  67.400  1.00  0.00     0.000 HD 
ENDROOT
BRANCH   2   4
HETATM    4  C   UNL     1     -10.188  11.747  67.012  1.00  0.00    -0.214 C  
BRANCH   4   5
HETATM    5  N   UNL     1      -9.122  12.816  67.042  1.00  0.00    -0.214 NA 
BRANCH   5   6
HETATM    6  C   UNL     1      -9.455  13.831  65.974  1.00  0.00    -0.101 C  
HETATM    7  O   UNL     1      -8.949  15.468  67.667  1.00  0.00    -0.180 OA 
HETATM    8  C   UNL     1      -9.673  15.229  66.548  1.00  0.00    -0.268 C  
HETATM    9  O   UNL     1     -10.405  16.064  66.041  1.00  0.00    -0.315 OA 
ENDBRANCH   5   6
BRANCH   5  10
HETATM   10  C   UNL     1      -7.803  12.187  66.681  1.00  0.00     0.092 C  
HETATM   11  O   UNL     1      -7.051  13.028  68.802  1.00  0.00    -0.100 OA 
HETATM   12  O   UNL     1      -5.488  12.752  67.184  1.00  0.00    -0.332 OA 
HETATM   13  C   UNL     1      -6.653  12.696  67.552  1.00  0.00    -0.156 C  
ENDBRANCH   5  10
ENDBRANCH   4   5
ENDBRANCH   2   4
BRANCH   2  14
HETATM   14  C   UNL     1     -10.165  10.614  69.325  1.00  0.00    -0.213 C  
BRANCH  14  15
HETATM   15  N   UNL     1     -10.868   9.415  69.905  1.00  0.00    -0.231 NA 
BRANCH  15  16
HETATM   16  C   UNL     1      -9.857   8.300  70.035  1.00  0.00    -0.182 C  
HETATM   17  C   UNL     1     -10.497   6.951  70.347  1.00  0.00    -0.206 C  
HETATM   18  O   UNL     1     -11.749   6.835  69.833  1.00  0.00    -0.306 OA 
HETATM   19  O   UNL     1      -9.934   6.043  70.935  1.00  0.00    -0.180 OA 
ENDBRANCH  15  16
BRANCH  15  20
HETATM   20  C   UNL     1     -11.306   9.766  71.319  1.00  0.00    -0.375 C  
HETATM   21  C   UNL     1     -12.739  10.291  71.397  1.00  0.00    -0.442 C  
HETATM   22  O   UNL     1     -13.541   9.802  70.420  1.00  0.00     0.054 OA 
HETATM   23  O   UNL     1     -13.144  11.032  72.275  1.00  0.00    -0.377 OA 
ENDBRANCH  15  20
ENDBRANCH  14  15
ENDBRANCH   2  14
TORSDOF 8
ENDMDL
MODEL      247
REMARK 921   NORMALIZED FREE ENERGY PREDICTED BY IDOCK:   -3.43 KCAL/MOL
REMARK 922        TOTAL FREE ENERGY PREDICTED BY IDOCK:   -6.36 KCAL/MOL
REMARK 923 INTER-LIGAND FREE ENERGY PREDICTED BY IDOCK:   -5.48 KCAL/MOL
REMARK 924 INTRA-LIGAND FREE ENERGY PREDICTED BY IDOCK:   -0.88 KCAL/MOL
REMARK 927      BINDING AFFINITY PREDICTED BY RF-SCORE:    0.00 PKD
ROOT
HETATM    1  O   UNL     1     -10.082   9.143  65.689  1.00  0.00    -0.416 OA 
HETATM    2  C   UNL     1     -10.654   8.953  66.988  1.00  0.00    -0.209 C  
HETATM    3  H   UNL     1     -10.440   9.931  65.297  1.00  0.00     0.000 HD 
ENDROOT
BRANCH   2   4
HETATM    4  C   UNL     1     -10.346  10.212  67.837  1.00  0.00    -0.194 C  
BRANCH   4   5
HETATM    5  N   UNL     1     -10.350  11.534  67.108  1.00  0.00    -0.210 NA 
BRANCH   5   6
HETATM    6  C   UNL     1      -9.642  12.545  67.979  1.00  0.00    -0.212 C  
HETATM    7  O   UNL     1      -9.503  13.867  65.971  1.00  0.00    -0.228 OA 
HETATM    8  C   UNL     1      -8.913  13.608  67.162  1.00  0.00    -0.231 C  
HETATM    9  O   UNL     1      -7.911  14.191  67.547  1.00  0.00    -0.162 OA 
ENDBRANCH   5   6
BRANCH   5  10
HETATM   10  C   UNL     1     -11.777  11.986  66.945  1.00  0.00    -0.266 C  
HETATM   11  O   UNL     1     -11.407  11.641  64.597  1.00  0.00    -0.291 OA 
HETATM   12  O   UNL     1     -12.962  13.182  65.186  1.00  0.00    -0.695 OA 
HETATM   13  C   UNL     1     -12.112  12.361  65.501  1.00  0.00    -0.351 C  
ENDBRANCH   5  10
ENDBRANCH   4   5
ENDBRANCH   2   4
BRANCH   2  14
HETATM   14  C   UNL     1     -10.068   7.660  67.632  1.00  0.00    -0.192 C  
BRANCH  14  15
HETATM   15  N   UNL     1     -10.023   7.588  69.136  1.00  0.00    -0.175 NA 
BRANCH  15  16
HETATM   16  C   UNL     1     -11.089   6.616  69.588  1.00  0.00    -0.334 C  
HETATM   17  C   UNL     1     -11.863   7.108  70.806  1.00  0.00    -0.325 C  
HETATM   18  O   UNL     1     -11.945   8.463  70.862  1.00  0.00    -0.270 OA 
HETATM   19  O   UNL     1     -12.409   6.375  71.614  1.00  0.00    -0.312 OA 
ENDBRANCH  15  16
BRANCH  15  20
HETATM   20  C   UNL     1      -8.689   6.981  69.538  1.00  0.00    -0.134 C  
HETATM   21  C   UNL     1      -7.677   8.014  70.034  1.00  0.00    -0.088 C  
HETATM   22  O   UNL     1      -8.256   9.098  70.605  1.00  0.00    -0.156 OA 
HETATM   23  O   UNL     1      -6.469   7.865  69.974  1.00  0.00    -0.033 OA 
ENDBRANCH  15  20
ENDBRANCH  14  15
ENDBRANCH   2  14
TORSDOF 8
ENDMDL
MODEL      248
REMARK 921   NORMALIZED FREE ENERGY PREDICTED BY IDOCK:   -3.43 KCAL/MOL
REMARK 922        TOTAL FREE ENERGY PREDICTED BY IDOCK:   -6.36 KCAL/MOL
REMARK 923 INTER-LIGAND FREE ENERGY PREDICTED BY IDOCK:   -5.54 KCAL/MOL
REMARK 924 INTRA-LIGAND FREE ENERGY PREDICTED BY IDOCK:   -0.82 KCAL/MOL
REMARK 927      BINDING AFFINITY PREDICTED BY RF-SCORE:    0.00 PKD
ROOT
HETATM    1  O   UNL     1     -10.440   7.707  66.372  1.00  0.00    -0.483 OA 
HETATM    2  C   UNL     1     -10.170   8.680  67.387  1.00  0.00    -0.262 C  
HETATM    3  H   UNL     1     -10.480   8.135  65.524  1.00  0.00     0.000 HD 
ENDROOT
BRANCH   2   4
HETATM    4  C   UNL     1      -8.837   9.387  67.032  1.00  0.00    -0.127 C  
BRANCH   4   5
HETATM    5  N   UNL     1      -8.947  10.703  66.301  1.00  0.00    -0.160 NA 
BRANCH   5   6
HETATM    6  C   UNL     1      -8.742  11.810  67.308  1.00  0.00    -0.163 C  
HETATM    7  O   UNL     1      -6.429  11.702  66.645  1.00  0.00    -0.132 OA 
HETATM    8  C   UNL     1      -7.270  12.012  67.659  1.00  0.00    -0.117 C  
HETATM    9  O   UNL     1      -6.882  12.436  68.736  1.00  0.00    -0.083 OA 
ENDBRANCH   5   6
BRANCH   5  10
HETATM   10  C   UNL     1     -10.344  10.832  65.754  1.00  0.00    -0.230 C  
HETATM   11  O   UNL     1      -9.346  10.305  63.633  1.00  0.00    -0.257 OA 
HETATM   12  O   UNL     1     -11.239  11.551  63.607  1.00  0.00    -0.411 OA 
HETATM   13  C   UNL     1     -10.367  10.963  64.230  1.00  0.00    -0.368 C  
ENDBRANCH   5  10
ENDBRANCH   4   5
ENDBRANCH   2   4
BRANCH   2  14
HETATM   14  C   UNL     1     -10.103   7.977  68.778  1.00  0.00    -0.195 C  
BRANCH  14  15
HETATM   15  N   UNL     1     -10.874   8.601  69.912  1.00  0.00    -0.231 NA 
BRANCH  15  16
HETATM   16  C   UNL     1     -10.319   8.055  71.208  1.00  0.00    -0.193 C  
HETATM   17  C   UNL     1     -11.409   7.658  72.198  1.00  0.00    -0.293 C  
HETATM   18  O   UNL     1     -12.550   7.249  71.585  1.00  0.00    -0.336 OA 
HETATM   19  O   UNL     1     -11.263   7.641  73.409  1.00  0.00    -0.314 OA 
ENDBRANCH  15  16
BRANCH  15  20
HETATM   20  C   UNL     1     -10.581  10.093  69.914  1.00  0.00    -0.285 C  
HETATM   21  C   UNL     1     -11.836  10.957  69.783  1.00  0.00    -0.345 C  
HETATM   22  O   UNL     1     -12.945  10.369  70.293  1.00  0.00    -0.248 OA 
HETATM   23  O   UNL     1     -11.840  12.083  69.319  1.00  0.00    -0.303 OA 
ENDBRANCH  15  20
ENDBRANCH  14  15
ENDBRANCH   2  14
TORSDOF 8
ENDMDL
MODEL      249
REMARK 921   NORMALIZED FREE ENERGY PREDICTED BY IDOCK:   -3.42 KCAL/MOL
REMARK 922        TOTAL FREE ENERGY PREDICTED BY IDOCK:   -6.36 KCAL/MOL
REMARK 923 INTER-LIGAND FREE ENERGY PREDICTED BY IDOCK:   -7.00 KCAL/MOL
REMARK 924 INTRA-LIGAND FREE ENERGY PREDICTED BY IDOCK:    0.65 KCAL/MOL
REMARK 927      BINDING AFFINITY PREDICTED BY RF-SCORE:    0.00 PKD
ROOT
HETATM    1  O   UNL     1      -7.753  14.642  67.763  1.00  0.00    -0.127 OA 
HETATM    2  C   UNL     1      -8.998  15.048  67.184  1.00  0.00    -0.217 C  
HETATM    3  H   UNL     1      -7.901  13.913  68.355  1.00  0.00     0.000 HD 
ENDROOT
BRANCH   2   4
HETATM    4  C   UNL     1      -9.610  13.826  66.453  1.00  0.00    -0.272 C  
BRANCH   4   5
HETATM    5  N   UNL     1     -10.991  13.403  66.890  1.00  0.00    -0.281 NA 
BRANCH   5   6
HETATM    6  C   UNL     1     -11.975  14.422  66.366  1.00  0.00    -0.385 C  
HETATM    7  O   UNL     1     -12.670  12.673  64.863  1.00  0.00    -0.648 OA 
HETATM    8  C   UNL     1     -12.578  14.015  65.024  1.00  0.00    -0.390 C  
HETATM    9  O   UNL     1     -12.965  14.811  64.184  1.00  0.00    -0.550 OA 
ENDBRANCH   5   6
BRANCH   5  10
HETATM   10  C   UNL     1     -11.050  13.437  68.394  1.00  0.00    -0.273 C  
HETATM   11  O   UNL     1     -11.680  11.125  68.222  1.00  0.00    -0.440 OA 
HETATM   12  O   UNL     1     -12.407  12.265  70.042  1.00  0.00    -0.200 OA 
HETATM   13  C   UNL     1     -11.802  12.240  68.979  1.00  0.00    -0.305 C  
ENDBRANCH   5  10
ENDBRANCH   4   5
ENDBRANCH   2   4
BRANCH   2  14
HETATM   14  C   UNL     1      -8.756  16.245  66.214  1.00  0.00    -0.335 C  
BRANCH  14  15
HETATM   15  N   UNL     1      -8.000  17.434  66.748  1.00  0.00    -0.226 NA 
BRANCH  15  16
HETATM   16  C   UNL     1      -6.753  17.606  65.912  1.00  0.00    -0.215 C  
HETATM   17  C   UNL     1      -6.518  19.052  65.487  1.00  0.00    -0.271 C  
HETATM   18  O   UNL     1      -7.005  19.947  66.386  1.00  0.00    -0.213 OA 
HETATM   19  O   UNL     1      -5.905  19.382  64.486  1.00  0.00    -0.239 OA 
ENDBRANCH  15  16
BRANCH  15  20
HETATM   20  C   UNL     1      -8.849  18.673  66.515  1.00  0.00    -0.304 C  
HETATM   21  C   UNL     1      -9.847  18.946  67.640  1.00  0.00    -0.331 C  
HETATM   22  O   UNL     1      -9.430  18.490  68.846  1.00  0.00    -0.315 OA 
HETATM   23  O   UNL     1     -10.890  19.557  67.490  1.00  0.00    -0.468 OA 
ENDBRANCH  15  20
ENDBRANCH  14  15
ENDBRANCH   2  14
TORSDOF 8
ENDMDL
MODEL      250
REMARK 921   NORMALIZED FREE ENERGY PREDICTED BY IDOCK:   -3.42 KCAL/MOL
REMARK 922        TOTAL FREE ENERGY PREDICTED BY IDOCK:   -6.36 KCAL/MOL
REMARK 923 INTER-LIGAND FREE ENERGY PREDICTED BY IDOCK:   -5.38 KCAL/MOL
REMARK 924 INTRA-LIGAND FREE ENERGY PREDICTED BY IDOCK:   -0.97 KCAL/MOL
REMARK 927      BINDING AFFINITY PREDICTED BY RF-SCORE:    0.00 PKD
ROOT
HETATM    1  O   UNL     1      -7.938  12.050  67.306  1.00  0.00    -0.157 OA 
HETATM    2  C   UNL     1      -8.353  13.310  66.766  1.00  0.00     0.096 C  
HETATM    3  H   UNL     1      -7.000  11.948  67.189  1.00  0.00     0.000 HD 
ENDROOT
BRANCH   2   4
HETATM    4  C   UNL     1      -7.555  14.427  67.486  1.00  0.00    -0.193 C  
BRANCH   4   5
HETATM    5  N   UNL     1      -7.774  14.559  68.974  1.00  0.00    -0.129 NA 
BRANCH   5   6
HETATM    6  C   UNL     1      -8.285  15.954  69.243  1.00  0.00    -0.227 C  
HETATM    7  O   UNL     1     -10.296  14.851  69.979  1.00  0.00    -0.122 OA 
HETATM    8  C   UNL     1      -9.798  15.991  69.445  1.00  0.00    -0.254 C  
HETATM    9  O   UNL     1     -10.495  16.958  69.179  1.00  0.00    -0.311 OA 
ENDBRANCH   5   6
BRANCH   5  10
HETATM   10  C   UNL     1      -6.446  14.413  69.668  1.00  0.00    -0.145 C  
HETATM   11  O   UNL     1      -6.996  12.079  69.798  1.00  0.00     0.061 OA 
HETATM   12  O   UNL     1      -5.617  12.909  71.393  1.00  0.00    -0.360 OA 
HETATM   13  C   UNL     1      -6.310  13.078  70.400  1.00  0.00     0.190 C  
ENDBRANCH   5  10
ENDBRANCH   4   5
ENDBRANCH   2   4
BRANCH   2  14
HETATM   14  C   UNL     1      -9.891  13.478  66.959  1.00  0.00    -0.251 C  
BRANCH  14  15
HETATM   15  N   UNL     1     -10.729  13.689  65.725  1.00  0.00    -0.276 NA 
BRANCH  15  16
HETATM   16  C   UNL     1     -10.940  15.176  65.554  1.00  0.00    -0.365 C  
HETATM   17  C   UNL     1     -11.796  15.519  64.339  1.00  0.00    -0.219 C  
HETATM   18  O   UNL     1     -12.698  14.548  64.044  1.00  0.00    -0.759 OA 
HETATM   19  O   UNL     1     -11.731  16.574  63.730  1.00  0.00    -1.086 OA 
ENDBRANCH  15  16
BRANCH  15  20
HETATM   20  C   UNL     1      -9.921  13.228  64.523  1.00  0.00    -0.088 C  
HETATM   21  C   UNL     1     -10.207  11.782  64.118  1.00  0.00    -0.322 C  
HETATM   22  O   UNL     1     -11.464  11.380  64.425  1.00  0.00    -0.225 OA 
HETATM   23  O   UNL     1      -9.412  11.071  63.530  1.00  0.00    -0.240 OA 
ENDBRANCH  15  20
ENDBRANCH  14  15
ENDBRANCH   2  14
TORSDOF 8
ENDMDL
MODEL      251
REMARK 921   NORMALIZED FREE ENERGY PREDICTED BY IDOCK:   -3.42 KCAL/MOL
REMARK 922        TOTAL FREE ENERGY PREDICTED BY IDOCK:   -6.35 KCAL/MOL
REMARK 923 INTER-LIGAND FREE ENERGY PREDICTED BY IDOCK:   -5.71 KCAL/MOL
REMARK 924 INTRA-LIGAND FREE ENERGY PREDICTED BY IDOCK:   -0.65 KCAL/MOL
REMARK 927      BINDING AFFINITY PREDICTED BY RF-SCORE:    0.00 PKD
ROOT
HETATM    1  O   UNL     1     -10.587   7.677  66.221  1.00  0.00    -0.320 OA 
HETATM    2  C   UNL     1     -10.348   8.950  66.831  1.00  0.00    -0.262 C  
HETATM    3  H   UNL     1     -11.187   7.782  65.492  1.00  0.00     0.000 HD 
ENDROOT
BRANCH   2   4
HETATM    4  C   UNL     1      -9.779   9.902  65.749  1.00  0.00    -0.266 C  
BRANCH   4   5
HETATM    5  N   UNL     1     -10.422  11.264  65.646  1.00  0.00    -0.259 NA 
BRANCH   5   6
HETATM    6  C   UNL     1     -11.173  11.519  66.930  1.00  0.00    -0.298 C  
HETATM    7  O   UNL     1     -10.274  13.748  66.770  1.00  0.00    -0.260 OA 
HETATM    8  C   UNL     1     -10.717  12.798  67.628  1.00  0.00    -0.219 C  
HETATM    9  O   UNL     1     -10.768  12.968  68.836  1.00  0.00    -0.232 OA 
ENDBRANCH   5   6
BRANCH   5  10
HETATM   10  C   UNL     1     -11.425  11.237  64.523  1.00  0.00     0.075 C  
HETATM   11  O   UNL     1     -10.207  13.117  63.656  1.00  0.00    -0.212 OA 
HETATM   12  O   UNL     1     -12.402  12.962  63.110  1.00  0.00    -0.614 OA 
HETATM   13  C   UNL     1     -11.425  12.528  63.704  1.00  0.00    -0.493 C  
ENDBRANCH   5  10
ENDBRANCH   4   5
ENDBRANCH   2   4
BRANCH   2  14
HETATM   14  C   UNL     1      -9.363   8.778  68.029  1.00  0.00    -0.142 C  
BRANCH  14  15
HETATM   15  N   UNL     1      -9.946   8.378  69.359  1.00  0.00    -0.186 NA 
BRANCH  15  16
HETATM   16  C   UNL     1     -10.991   9.403  69.736  1.00  0.00    -0.215 C  
HETATM   17  C   UNL     1     -11.293   9.419  71.231  1.00  0.00    -0.366 C  
HETATM   18  O   UNL     1     -10.223   9.058  71.985  1.00  0.00    -0.339 OA 
HETATM   19  O   UNL     1     -12.355   9.779  71.713  1.00  0.00    -0.376 OA 
ENDBRANCH  15  16
BRANCH  15  20
HETATM   20  C   UNL     1     -10.683   7.061  69.172  1.00  0.00    -0.218 C  
HETATM   21  C   UNL     1      -9.829   5.836  69.498  1.00  0.00    -0.178 C  
HETATM   22  O   UNL     1      -8.875   6.082  70.429  1.00  0.00    -0.144 OA 
HETATM   23  O   UNL     1     -10.012   4.733  69.015  1.00  0.00    -0.180 OA 
ENDBRANCH  15  20
ENDBRANCH  14  15
ENDBRANCH   2  14
TORSDOF 8
ENDMDL
MODEL      252
REMARK 921   NORMALIZED FREE ENERGY PREDICTED BY IDOCK:   -3.41 KCAL/MOL
REMARK 922        TOTAL FREE ENERGY PREDICTED BY IDOCK:   -6.34 KCAL/MOL
REMARK 923 INTER-LIGAND FREE ENERGY PREDICTED BY IDOCK:   -5.41 KCAL/MOL
REMARK 924 INTRA-LIGAND FREE ENERGY PREDICTED BY IDOCK:   -0.94 KCAL/MOL
REMARK 927      BINDING AFFINITY PREDICTED BY RF-SCORE:    0.00 PKD
ROOT
HETATM    1  O   UNL     1     -11.707  14.609  66.765  1.00  0.00    -0.373 OA 
HETATM    2  C   UNL     1     -10.304  14.328  66.711  1.00  0.00    -0.274 C  
HETATM    3  H   UNL     1     -11.848  15.442  67.198  1.00  0.00     0.000 HD 
ENDROOT
BRANCH   2   4
HETATM    4  C   UNL     1      -9.610  15.493  65.962  1.00  0.00    -0.345 C  
BRANCH   4   5
HETATM    5  N   UNL     1      -8.856  16.487  66.812  1.00  0.00    -0.207 NA 
BRANCH   5   6
HETATM    6  C   UNL     1      -8.941  17.833  66.134  1.00  0.00    -0.094 C  
HETATM    7  O   UNL     1     -10.758  18.254  67.657  1.00  0.00    -0.419 OA 
HETATM    8  C   UNL     1     -10.249  18.559  66.440  1.00  0.00    -0.420 C  
HETATM    9  O   UNL     1     -10.777  19.356  65.681  1.00  0.00    -0.468 OA 
ENDBRANCH   5   6
BRANCH   5  10
HETATM   10  C   UNL     1      -7.407  16.082  66.851  1.00  0.00    -0.201 C  
HETATM   11  O   UNL     1      -7.412  17.021  69.062  1.00  0.00    -0.239 OA 
HETATM   12  O   UNL     1      -5.439  17.011  67.945  1.00  0.00    -0.114 OA 
HETATM   13  C   UNL     1      -6.637  16.766  67.983  1.00  0.00    -0.140 C  
ENDBRANCH   5  10
ENDBRANCH   4   5
ENDBRANCH   2   4
BRANCH   2  14
HETATM   14  C   UNL     1     -10.073  12.959  66.000  1.00  0.00    -0.285 C  
BRANCH  14  15
HETATM   15  N   UNL     1      -9.630  11.797  66.851  1.00  0.00    -0.190 NA 
BRANCH  15  16
HETATM   16  C   UNL     1     -10.465  10.596  66.469  1.00  0.00    -0.224 C  
HETATM   17  C   UNL     1     -10.390   9.471  67.496  1.00  0.00    -0.248 C  
HETATM   18  O   UNL     1     -10.183   9.928  68.758  1.00  0.00    -0.174 OA 
HETATM   19  O   UNL     1     -10.562   8.292  67.236  1.00  0.00    -0.301 OA 
ENDBRANCH  15  16
BRANCH  15  20
HETATM   20  C   UNL     1      -8.195  11.461  66.478  1.00  0.00    -0.152 C  
HETATM   21  C   UNL     1      -7.160  12.232  67.296  1.00  0.00    -0.138 C  
HETATM   22  O   UNL     1      -7.596  12.564  68.535  1.00  0.00    -0.123 OA 
HETATM   23  O   UNL     1      -6.034  12.482  66.904  1.00  0.00    -0.278 OA 
ENDBRANCH  15  20
ENDBRANCH  14  15
ENDBRANCH   2  14
TORSDOF 8
ENDMDL
MODEL      253
REMARK 921   NORMALIZED FREE ENERGY PREDICTED BY IDOCK:   -3.41 KCAL/MOL
REMARK 922        TOTAL FREE ENERGY PREDICTED BY IDOCK:   -6.34 KCAL/MOL
REMARK 923 INTER-LIGAND FREE ENERGY PREDICTED BY IDOCK:   -5.18 KCAL/MOL
REMARK 924 INTRA-LIGAND FREE ENERGY PREDICTED BY IDOCK:   -1.17 KCAL/MOL
REMARK 927      BINDING AFFINITY PREDICTED BY RF-SCORE:    0.00 PKD
ROOT
HETATM    1  O   UNL     1     -11.507  11.106  70.451  1.00  0.00    -0.421 OA 
HETATM    2  C   UNL     1     -11.322  10.623  69.116  1.00  0.00    -0.273 C  
HETATM    3  H   UNL     1     -11.331  10.406  71.069  1.00  0.00     0.000 HD 
ENDROOT
BRANCH   2   4
HETATM    4  C   UNL     1      -9.871  10.096  68.992  1.00  0.00    -0.205 C  
BRANCH   4   5
HETATM    5  N   UNL     1      -9.697   8.596  68.994  1.00  0.00    -0.170 NA 
BRANCH   5   6
HETATM    6  C   UNL     1      -9.570   8.147  70.431  1.00  0.00    -0.170 C  
HETATM    7  O   UNL     1     -11.489   6.773  69.952  1.00  0.00    -0.323 OA 
HETATM    8  C   UNL     1     -10.823   7.431  70.929  1.00  0.00    -0.240 C  
HETATM    9  O   UNL     1     -11.183   7.426  72.096  1.00  0.00    -0.242 OA 
ENDBRANCH   5   6
BRANCH   5  10
HETATM   10  C   UNL     1      -8.407   8.263  68.293  1.00  0.00    -0.132 C  
HETATM   11  O   UNL     1      -9.728   6.700  67.035  1.00  0.00    -0.143 OA 
HETATM   12  O   UNL     1      -7.526   6.226  67.290  1.00  0.00    -0.082 OA 
HETATM   13  C   UNL     1      -8.487   6.950  67.511  1.00  0.00    -0.122 C  
ENDBRANCH   5  10
ENDBRANCH   4   5
ENDBRANCH   2   4
BRANCH   2  14
HETATM   14  C   UNL     1     -11.611  11.772  68.101  1.00  0.00    -0.323 C  
BRANCH  14  15
HETATM   15  N   UNL     1     -10.632  11.970  66.974  1.00  0.00    -0.221 NA 
BRANCH  15  16
HETATM   16  C   UNL     1     -11.421  12.235  65.712  1.00  0.00    -0.367 C  
HETATM   17  C   UNL     1     -10.876  11.483  64.502  1.00  0.00    -0.327 C  
HETATM   18  O   UNL     1     -10.285  10.308  64.839  1.00  0.00    -0.327 OA 
HETATM   19  O   UNL     1     -11.008  11.854  63.348  1.00  0.00    -0.403 OA 
ENDBRANCH  15  16
BRANCH  15  20
HETATM   20  C   UNL     1      -9.837  13.234  67.258  1.00  0.00    -0.233 C  
HETATM   21  C   UNL     1      -8.342  12.979  67.454  1.00  0.00    -0.194 C  
HETATM   22  O   UNL     1      -7.890  11.899  66.772  1.00  0.00    -0.146 OA 
HETATM   23  O   UNL     1      -7.611  13.699  68.111  1.00  0.00    -0.111 OA 
ENDBRANCH  15  20
ENDBRANCH  14  15
ENDBRANCH   2  14
TORSDOF 8
ENDMDL
MODEL      254
REMARK 921   NORMALIZED FREE ENERGY PREDICTED BY IDOCK:   -3.41 KCAL/MOL
REMARK 922        TOTAL FREE ENERGY PREDICTED BY IDOCK:   -6.34 KCAL/MOL
REMARK 923 INTER-LIGAND FREE ENERGY PREDICTED BY IDOCK:   -5.17 KCAL/MOL
REMARK 924 INTRA-LIGAND FREE ENERGY PREDICTED BY IDOCK:   -1.17 KCAL/MOL
REMARK 927      BINDING AFFINITY PREDICTED BY RF-SCORE:    0.00 PKD
ROOT
HETATM    1  O   UNL     1      -9.845  11.286  69.347  1.00  0.00    -0.420 OA 
HETATM    2  C   UNL     1     -10.028  10.597  68.105  1.00  0.00    -0.158 C  
HETATM    3  H   UNL     1      -9.827  12.223  69.191  1.00  0.00     0.000 HD 
ENDROOT
BRANCH   2   4
HETATM    4  C   UNL     1     -11.347  11.101  67.467  1.00  0.00    -0.278 C  
BRANCH   4   5
HETATM    5  N   UNL     1     -11.213  11.941  66.219  1.00  0.00    -0.330 NA 
BRANCH   5   6
HETATM    6  C   UNL     1     -10.003  11.451  65.460  1.00  0.00    -0.239 C  
HETATM    7  O   UNL     1     -11.370  11.753  63.500  1.00  0.00    -0.418 OA 
HETATM    8  C   UNL     1     -10.339  11.050  64.025  1.00  0.00    -0.371 C  
HETATM    9  O   UNL     1      -9.728  10.200  63.398  1.00  0.00    -0.271 OA 
ENDBRANCH   5   6
BRANCH   5  10
HETATM   10  C   UNL     1     -10.954  13.366  66.628  1.00  0.00    -0.287 C  
HETATM   11  O   UNL     1     -12.900  13.885  65.319  1.00  0.00    -0.689 OA 
HETATM   12  O   UNL     1     -11.339  15.513  65.545  1.00  0.00    -0.230 OA 
HETATM   13  C   UNL     1     -11.719  14.372  65.767  1.00  0.00    -0.362 C  
ENDBRANCH   5  10
ENDBRANCH   4   5
ENDBRANCH   2   4
BRANCH   2  14
HETATM   14  C   UNL     1     -10.057   9.059  68.362  1.00  0.00    -0.191 C  
BRANCH  14  15
HETATM   15  N   UNL     1      -8.826   8.269  68.002  1.00  0.00    -0.135 NA 
BRANCH  15  16
HETATM   16  C   UNL     1      -7.986   9.114  67.073  1.00  0.00    -0.102 C  
HETATM   17  C   UNL     1      -7.736   8.445  65.725  1.00  0.00    -0.094 C  
HETATM   18  O   UNL     1      -8.750   7.620  65.354  1.00  0.00    -0.108 OA 
HETATM   19  O   UNL     1      -6.767   8.667  65.017  1.00  0.00    -0.067 OA 
ENDBRANCH  15  16
BRANCH  15  20
HETATM   20  C   UNL     1      -8.006   8.074  69.267  1.00  0.00    -0.116 C  
HETATM   21  C   UNL     1      -7.839   6.607  69.663  1.00  0.00    -0.115 C  
HETATM   22  O   UNL     1      -7.870   5.762  68.605  1.00  0.00    -0.095 OA 
HETATM   23  O   UNL     1      -7.643   6.230  70.804  1.00  0.00    -0.092 OA 
ENDBRANCH  15  20
ENDBRANCH  14  15
ENDBRANCH   2  14
TORSDOF 8
ENDMDL
MODEL      255
REMARK 921   NORMALIZED FREE ENERGY PREDICTED BY IDOCK:   -3.41 KCAL/MOL
REMARK 922        TOTAL FREE ENERGY PREDICTED BY IDOCK:   -6.33 KCAL/MOL
REMARK 923 INTER-LIGAND FREE ENERGY PREDICTED BY IDOCK:   -5.78 KCAL/MOL
REMARK 924 INTRA-LIGAND FREE ENERGY PREDICTED BY IDOCK:   -0.56 KCAL/MOL
REMARK 927      BINDING AFFINITY PREDICTED BY RF-SCORE:    0.00 PKD
ROOT
HETATM    1  O   UNL     1      -9.705   8.573  65.655  1.00  0.00    -0.448 OA 
HETATM    2  C   UNL     1      -9.985   9.088  66.962  1.00  0.00    -0.230 C  
HETATM    3  H   UNL     1      -9.145   7.809  65.728  1.00  0.00     0.000 HD 
ENDROOT
BRANCH   2   4
HETATM    4  C   UNL     1     -10.652   7.961  67.790  1.00  0.00    -0.175 C  
BRANCH   4   5
HETATM    5  N   UNL     1     -10.362   7.952  69.271  1.00  0.00    -0.217 NA 
BRANCH   5   6
HETATM    6  C   UNL     1      -8.889   8.228  69.456  1.00  0.00    -0.149 C  
HETATM    7  O   UNL     1      -9.570   9.392  71.452  1.00  0.00    -0.230 OA 
HETATM    8  C   UNL     1      -8.627   9.327  70.483  1.00  0.00    -0.233 C  
HETATM    9  O   UNL     1      -7.653  10.062  70.455  1.00  0.00    -0.276 OA 
ENDBRANCH   5   6
BRANCH   5  10
HETATM   10  C   UNL     1     -10.643   6.573  69.806  1.00  0.00    -0.235 C  
HETATM   11  O   UNL     1     -12.331   7.649  71.133  1.00  0.00    -0.312 OA 
HETATM   12  O   UNL     1     -11.427   5.739  71.955  1.00  0.00    -0.266 OA 
HETATM   13  C   UNL     1     -11.479   6.599  71.087  1.00  0.00    -0.320 C  
ENDBRANCH   5  10
ENDBRANCH   4   5
ENDBRANCH   2   4
BRANCH   2  14
HETATM   14  C   UNL     1     -10.904  10.343  66.842  1.00  0.00    -0.161 C  
BRANCH  14  15
HETATM   15  N   UNL     1     -10.330  11.567  66.177  1.00  0.00    -0.237 NA 
BRANCH  15  16
HETATM   16  C   UNL     1      -8.827  11.517  66.329  1.00  0.00    -0.186 C  
HETATM   17  C   UNL     1      -8.290  12.585  67.277  1.00  0.00    -0.185 C  
HETATM   18  O   UNL     1      -9.179  12.916  68.249  1.00  0.00    -0.204 OA 
HETATM   19  O   UNL     1      -7.165  13.053  67.218  1.00  0.00    -0.138 OA 
ENDBRANCH  15  16
BRANCH  15  20
HETATM   20  C   UNL     1     -10.615  11.469  64.687  1.00  0.00    -0.311 C  
HETATM   21  C   UNL     1     -11.148  12.770  64.086  1.00  0.00    -0.389 C  
HETATM   22  O   UNL     1     -10.715  13.877  64.736  1.00  0.00    -0.382 OA 
HETATM   23  O   UNL     1     -11.850  12.820  63.091  1.00  0.00    -0.493 OA 
ENDBRANCH  15  20
ENDBRANCH  14  15
ENDBRANCH   2  14
TORSDOF 8
ENDMDL
MODEL      256
REMARK 921   NORMALIZED FREE ENERGY PREDICTED BY IDOCK:   -3.38 KCAL/MOL
REMARK 922        TOTAL FREE ENERGY PREDICTED BY IDOCK:   -6.30 KCAL/MOL
REMARK 923 INTER-LIGAND FREE ENERGY PREDICTED BY IDOCK:   -5.17 KCAL/MOL
REMARK 924 INTRA-LIGAND FREE ENERGY PREDICTED BY IDOCK:   -1.12 KCAL/MOL
REMARK 927      BINDING AFFINITY PREDICTED BY RF-SCORE:    0.00 PKD
ROOT
HETATM    1  O   UNL     1     -10.598   7.464  66.629  1.00  0.00    -0.492 OA 
HETATM    2  C   UNL     1     -10.067   8.224  67.721  1.00  0.00    -0.206 C  
HETATM    3  H   UNL     1     -10.767   8.042  65.893  1.00  0.00     0.000 HD 
ENDROOT
BRANCH   2   4
HETATM    4  C   UNL     1      -8.778   8.931  67.233  1.00  0.00    -0.121 C  
BRANCH   4   5
HETATM    5  N   UNL     1      -8.708  10.424  67.442  1.00  0.00    -0.125 NA 
BRANCH   5   6
HETATM    6  C   UNL     1      -9.850  11.052  66.678  1.00  0.00    -0.200 C  
HETATM    7  O   UNL     1     -10.329  12.195  68.743  1.00  0.00    -0.215 OA 
HETATM    8  C   UNL     1     -10.871  11.716  67.599  1.00  0.00    -0.225 C  
HETATM    9  O   UNL     1     -12.056  11.832  67.327  1.00  0.00    -0.595 OA 
ENDBRANCH   5   6
BRANCH   5  10
HETATM   10  C   UNL     1      -7.423  10.932  66.846  1.00  0.00    -0.128 C  
HETATM   11  O   UNL     1      -7.014  11.862  69.023  1.00  0.00    -0.098 OA 
HETATM   12  O   UNL     1      -6.054  12.905  67.254  1.00  0.00    -0.278 OA 
HETATM   13  C   UNL     1      -6.768  12.018  67.702  1.00  0.00    -0.109 C  
ENDBRANCH   5  10
ENDBRANCH   4   5
ENDBRANCH   2   4
BRANCH   2  14
HETATM   14  C   UNL     1      -9.789   7.276  68.928  1.00  0.00    -0.158 C  
BRANCH  14  15
HETATM   15  N   UNL     1      -9.928   7.852  70.313  1.00  0.00    -0.188 NA 
BRANCH  15  16
HETATM   16  C   UNL     1     -11.371   7.701  70.738  1.00  0.00    -0.281 C  
HETATM   17  C   UNL     1     -11.901   8.920  71.485  1.00  0.00    -0.332 C  
HETATM   18  O   UNL     1     -11.303  10.075  71.093  1.00  0.00    -0.360 OA 
HETATM   19  O   UNL     1     -12.807   8.885  72.301  1.00  0.00    -0.378 OA 
ENDBRANCH  15  16
BRANCH  15  20
HETATM   20  C   UNL     1      -9.108   6.995  71.263  1.00  0.00    -0.152 C  
HETATM   21  C   UNL     1      -8.017   7.776  71.996  1.00  0.00    -0.105 C  
HETATM   22  O   UNL     1      -8.326   9.082  72.179  1.00  0.00    -0.362 OA 
HETATM   23  O   UNL     1      -6.993   7.273  72.425  1.00  0.00    -0.063 OA 
ENDBRANCH  15  20
ENDBRANCH  14  15
ENDBRANCH   2  14
TORSDOF 8
ENDMDL
MODEL      257
REMARK 921   NORMALIZED FREE ENERGY PREDICTED BY IDOCK:   -3.38 KCAL/MOL
REMARK 922        TOTAL FREE ENERGY PREDICTED BY IDOCK:   -6.29 KCAL/MOL
REMARK 923 INTER-LIGAND FREE ENERGY PREDICTED BY IDOCK:   -5.77 KCAL/MOL
REMARK 924 INTRA-LIGAND FREE ENERGY PREDICTED BY IDOCK:   -0.52 KCAL/MOL
REMARK 927      BINDING AFFINITY PREDICTED BY RF-SCORE:    0.00 PKD
ROOT
HETATM    1  O   UNL     1      -9.581  13.309  65.804  1.00  0.00    -0.455 OA 
HETATM    2  C   UNL     1      -8.895  13.355  67.060  1.00  0.00    -0.211 C  
HETATM    3  H   UNL     1     -10.104  14.095  65.698  1.00  0.00     0.000 HD 
ENDROOT
BRANCH   2   4
HETATM    4  C   UNL     1      -8.024  14.636  67.086  1.00  0.00    -0.154 C  
BRANCH   4   5
HETATM    5  N   UNL     1      -8.720  15.915  67.485  1.00  0.00    -0.175 NA 
BRANCH   5   6
HETATM    6  C   UNL     1      -9.046  16.677  66.222  1.00  0.00    -0.298 C  
HETATM    7  O   UNL     1     -11.300  15.910  66.589  1.00  0.00    -0.034 OA 
HETATM    8  C   UNL     1     -10.407  16.295  65.646  1.00  0.00    -0.363 C  
HETATM    9  O   UNL     1     -10.682  16.352  64.458  1.00  0.00    -0.648 OA 
ENDBRANCH   5   6
BRANCH   5  10
HETATM   10  C   UNL     1      -7.762  16.750  68.291  1.00  0.00    -0.187 C  
HETATM   11  O   UNL     1      -9.624  18.236  68.594  1.00  0.00    -0.321 OA 
HETATM   12  O   UNL     1      -7.550  19.145  68.683  1.00  0.00    -0.319 OA 
HETATM   13  C   UNL     1      -8.275  18.172  68.524  1.00  0.00    -0.307 C  
ENDBRANCH   5  10
ENDBRANCH   4   5
ENDBRANCH   2   4
BRANCH   2  14
HETATM   14  C   UNL     1      -8.036  12.065  67.233  1.00  0.00    -0.174 C  
BRANCH  14  15
HETATM   15  N   UNL     1      -8.592  10.969  68.105  1.00  0.00    -0.134 NA 
BRANCH  15  16
HETATM   16  C   UNL     1      -7.680  10.818  69.301  1.00  0.00    -0.129 C  
HETATM   17  C   UNL     1      -7.800   9.453  69.970  1.00  0.00    -0.132 C  
HETATM   18  O   UNL     1      -8.136   8.469  69.096  1.00  0.00    -0.113 OA 
HETATM   19  O   UNL     1      -7.560   9.242  71.148  1.00  0.00    -0.261 OA 
ENDBRANCH  15  16
BRANCH  15  20
HETATM   20  C   UNL     1      -9.936  11.432  68.643  1.00  0.00    -0.202 C  
HETATM   21  C   UNL     1     -11.127  10.758  67.962  1.00  0.00    -0.299 C  
HETATM   22  O   UNL     1     -10.846   9.514  67.504  1.00  0.00    -0.280 OA 
HETATM   23  O   UNL     1     -12.235  11.257  67.882  1.00  0.00    -0.570 OA 
ENDBRANCH  15  20
ENDBRANCH  14  15
ENDBRANCH   2  14
TORSDOF 8
ENDMDL
MODEL      258
REMARK 921   NORMALIZED FREE ENERGY PREDICTED BY IDOCK:   -3.36 KCAL/MOL
REMARK 922        TOTAL FREE ENERGY PREDICTED BY IDOCK:   -6.27 KCAL/MOL
REMARK 923 INTER-LIGAND FREE ENERGY PREDICTED BY IDOCK:   -5.10 KCAL/MOL
REMARK 924 INTRA-LIGAND FREE ENERGY PREDICTED BY IDOCK:   -1.16 KCAL/MOL
REMARK 927      BINDING AFFINITY PREDICTED BY RF-SCORE:    0.00 PKD
ROOT
HETATM    1  O   UNL     1     -12.148   6.678  69.583  1.00  0.00    -0.615 OA 
HETATM    2  C   UNL     1     -11.173   7.273  70.447  1.00  0.00    -0.276 C  
HETATM    3  H   UNL     1     -12.119   5.733  69.676  1.00  0.00     0.000 HD 
ENDROOT
BRANCH   2   4
HETATM    4  C   UNL     1     -11.481   6.826  71.898  1.00  0.00    -0.282 C  
BRANCH   4   5
HETATM    5  N   UNL     1     -10.296   6.435  72.748  1.00  0.00    -0.193 NA 
BRANCH   5   6
HETATM    6  C   UNL     1     -10.702   5.249  73.590  1.00  0.00    -0.294 C  
HETATM    7  O   UNL     1      -8.404   4.565  73.365  1.00  0.00    -0.101 OA 
HETATM    8  C   UNL     1      -9.670   4.125  73.549  1.00  0.00    -0.116 C  
HETATM    9  O   UNL     1      -9.947   2.944  73.693  1.00  0.00    -0.098 OA 
ENDBRANCH   5   6
BRANCH   5  10
HETATM   10  C   UNL     1      -9.978   7.574  73.680  1.00  0.00    -0.291 C  
HETATM   11  O   UNL     1      -8.165   8.036  72.173  1.00  0.00    -0.115 OA 
HETATM   12  O   UNL     1      -7.904   8.671  74.334  1.00  0.00    -0.380 OA 
HETATM   13  C   UNL     1      -8.573   8.138  73.460  1.00  0.00    -0.246 C  
ENDBRANCH   5  10
ENDBRANCH   4   5
ENDBRANCH   2   4
BRANCH   2  14
HETATM   14  C   UNL     1     -11.219   8.825  70.295  1.00  0.00    -0.195 C  
BRANCH  14  15
HETATM   15  N   UNL     1     -10.239   9.462  69.344  1.00  0.00    -0.198 NA 
BRANCH  15  16
HETATM   16  C   UNL     1      -9.208   8.422  68.973  1.00  0.00    -0.147 C  
HETATM   17  C   UNL     1      -7.834   9.022  68.691  1.00  0.00    -0.101 C  
HETATM   18  O   UNL     1      -7.603  10.156  69.403  1.00  0.00    -0.103 OA 
HETATM   19  O   UNL     1      -7.001   8.515  67.958  1.00  0.00    -0.072 OA 
ENDBRANCH  15  16
BRANCH  15  20
HETATM   20  C   UNL     1     -10.984   9.806  68.064  1.00  0.00    -0.180 C  
HETATM   21  C   UNL     1     -11.227  11.305  67.888  1.00  0.00    -0.290 C  
HETATM   22  O   UNL     1     -10.283  12.073  68.483  1.00  0.00    -0.215 OA 
HETATM   23  O   UNL     1     -12.144  11.772  67.236  1.00  0.00    -0.595 OA 
ENDBRANCH  15  20
ENDBRANCH  14  15
ENDBRANCH   2  14
TORSDOF 8
ENDMDL
MODEL      259
REMARK 921   NORMALIZED FREE ENERGY PREDICTED BY IDOCK:   -3.30 KCAL/MOL
REMARK 922        TOTAL FREE ENERGY PREDICTED BY IDOCK:   -6.18 KCAL/MOL
REMARK 923 INTER-LIGAND FREE ENERGY PREDICTED BY IDOCK:   -4.63 KCAL/MOL
REMARK 924 INTRA-LIGAND FREE ENERGY PREDICTED BY IDOCK:   -1.55 KCAL/MOL
REMARK 927      BINDING AFFINITY PREDICTED BY RF-SCORE:    0.00 PKD
ROOT
HETATM    1  O   UNL     1     -11.440   9.789  68.243  1.00  0.00    -0.519 OA 
HETATM    2  C   UNL     1     -11.056   9.838  66.865  1.00  0.00     0.233 C  
HETATM    3  H   UNL     1     -11.781   8.926  68.447  1.00  0.00     0.000 HD 
ENDROOT
BRANCH   2   4
HETATM    4  C   UNL     1     -10.003   8.728  66.619  1.00  0.00    -0.285 C  
BRANCH   4   5
HETATM    5  N   UNL     1      -9.022   8.472  67.738  1.00  0.00    -0.136 NA 
BRANCH   5   6
HETATM    6  C   UNL     1      -7.641   8.806  67.226  1.00  0.00    -0.089 C  
HETATM    7  O   UNL     1      -7.800  10.730  68.666  1.00  0.00    -0.106 OA 
HETATM    8  C   UNL     1      -7.239  10.247  67.532  1.00  0.00    -0.088 C  
HETATM    9  O   UNL     1      -6.469  10.898  66.844  1.00  0.00    -0.079 OA 
ENDBRANCH   5   6
BRANCH   5  10
HETATM   10  C   UNL     1      -9.047   7.004  68.069  1.00  0.00    -0.127 C  
HETATM   11  O   UNL     1     -10.597   7.625  69.795  1.00  0.00    -0.237 OA 
HETATM   12  O   UNL     1      -9.353   5.762  70.142  1.00  0.00    -0.150 OA 
HETATM   13  C   UNL     1      -9.650   6.723  69.447  1.00  0.00    -0.146 C  
ENDBRANCH   5  10
ENDBRANCH   4   5
ENDBRANCH   2   4
BRANCH   2  14
HETATM   14  C   UNL     1     -10.496  11.255  66.530  1.00  0.00    -0.253 C  
BRANCH  14  15
HETATM   15  N   UNL     1     -10.504  11.684  65.086  1.00  0.00    -0.268 NA 
BRANCH  15  16
HETATM   16  C   UNL     1     -11.115  13.065  65.014  1.00  0.00    -0.294 C  
HETATM   17  C   UNL     1     -12.161  13.194  63.912  1.00  0.00    -0.433 C  
HETATM   18  O   UNL     1     -12.805  12.025  63.661  1.00  0.00    -0.713 OA 
HETATM   19  O   UNL     1     -12.445  14.242  63.355  1.00  0.00    -0.761 OA 
ENDBRANCH  15  16
BRANCH  15  20
HETATM   20  C   UNL     1      -9.061  11.828  64.630  1.00  0.00     0.338 C  
HETATM   21  C   UNL     1      -8.572  10.654  63.782  1.00  0.00    -0.102 C  
HETATM   22  O   UNL     1      -9.564  10.050  63.084  1.00  0.00    -0.268 OA 
HETATM   23  O   UNL     1      -7.404  10.319  63.694  1.00  0.00    -0.142 OA 
ENDBRANCH  15  20
ENDBRANCH  14  15
ENDBRANCH   2  14
TORSDOF 8
ENDMDL
MODEL      260
REMARK 921   NORMALIZED FREE ENERGY PREDICTED BY IDOCK:   -3.30 KCAL/MOL
REMARK 922        TOTAL FREE ENERGY PREDICTED BY IDOCK:   -6.17 KCAL/MOL
REMARK 923 INTER-LIGAND FREE ENERGY PREDICTED BY IDOCK:   -4.76 KCAL/MOL
REMARK 924 INTRA-LIGAND FREE ENERGY PREDICTED BY IDOCK:   -1.41 KCAL/MOL
REMARK 927      BINDING AFFINITY PREDICTED BY RF-SCORE:    0.00 PKD
ROOT
HETATM    1  O   UNL     1     -10.190   7.544  66.324  1.00  0.00    -0.473 OA 
HETATM    2  C   UNL     1     -10.743   7.662  67.640  1.00  0.00    -0.175 C  
HETATM    3  H   UNL     1     -10.039   8.411  65.965  1.00  0.00     0.000 HD 
ENDROOT
BRANCH   2   4
HETATM    4  C   UNL     1      -9.754   8.482  68.506  1.00  0.00    -0.163 C  
BRANCH   4   5
HETATM    5  N   UNL     1     -10.293   9.747  69.129  1.00  0.00    -0.200 NA 
BRANCH   5   6
HETATM    6  C   UNL     1     -11.146   9.352  70.311  1.00  0.00    -0.257 C  
HETATM    7  O   UNL     1      -9.083   9.405  71.552  1.00  0.00    -0.275 OA 
HETATM    8  C   UNL     1     -10.313   8.845  71.486  1.00  0.00    -0.324 C  
HETATM    9  O   UNL     1     -10.718   8.035  72.305  1.00  0.00    -0.250 OA 
ENDBRANCH   5   6
BRANCH   5  10
HETATM   10  C   UNL     1     -11.184  10.432  68.127  1.00  0.00    -0.268 C  
HETATM   11  O   UNL     1      -9.742  12.327  68.441  1.00  0.00    -0.213 OA 
HETATM   12  O   UNL     1     -11.880  12.744  67.814  1.00  0.00    -0.348 OA 
HETATM   13  C   UNL     1     -11.002  11.950  68.122  1.00  0.00    -0.227 C  
ENDBRANCH   5  10
ENDBRANCH   4   5
ENDBRANCH   2   4
BRANCH   2  14
HETATM   14  C   UNL     1     -10.991   6.239  68.230  1.00  0.00    -0.321 C  
BRANCH  14  15
HETATM   15  N   UNL     1      -9.798   5.487  68.760  1.00  0.00    -0.142 NA 
BRANCH  15  16
HETATM   16  C   UNL     1     -10.042   5.199  70.223  1.00  0.00    -0.268 C  
HETATM   17  C   UNL     1      -8.788   5.356  71.076  1.00  0.00    -0.139 C  
HETATM   18  O   UNL     1      -7.930   6.285  70.579  1.00  0.00    -0.107 OA 
HETATM   19  O   UNL     1      -8.593   4.767  72.126  1.00  0.00    -0.117 OA 
ENDBRANCH  15  16
BRANCH  15  20
HETATM   20  C   UNL     1      -9.744   4.139  68.059  1.00  0.00    -0.094 C  
HETATM   21  C   UNL     1      -9.132   4.207  66.660  1.00  0.00    -0.135 C  
HETATM   22  O   UNL     1      -8.227   5.206  66.520  1.00  0.00    -0.108 OA 
HETATM   23  O   UNL     1      -9.384   3.415  65.769  1.00  0.00    -0.157 OA 
ENDBRANCH  15  20
ENDBRANCH  14  15
ENDBRANCH   2  14
TORSDOF 8
ENDMDL
MODEL      261
REMARK 921   NORMALIZED FREE ENERGY PREDICTED BY IDOCK:   -3.29 KCAL/MOL
REMARK 922        TOTAL FREE ENERGY PREDICTED BY IDOCK:   -6.17 KCAL/MOL
REMARK 923 INTER-LIGAND FREE ENERGY PREDICTED BY IDOCK:   -4.96 KCAL/MOL
REMARK 924 INTRA-LIGAND FREE ENERGY PREDICTED BY IDOCK:   -1.21 KCAL/MOL
REMARK 927      BINDING AFFINITY PREDICTED BY RF-SCORE:    0.00 PKD
ROOT
HETATM    1  O   UNL     1      -9.483   8.135  65.573  1.00  0.00    -0.416 OA 
HETATM    2  C   UNL     1     -10.315   8.286  66.730  1.00  0.00    -0.290 C  
HETATM    3  H   UNL     1      -9.204   8.990  65.269  1.00  0.00     0.000 HD 
ENDROOT
BRANCH   2   4
HETATM    4  C   UNL     1      -9.502   9.045  67.809  1.00  0.00    -0.141 C  
BRANCH   4   5
HETATM    5  N   UNL     1     -10.134  10.295  68.371  1.00  0.00    -0.154 NA 
BRANCH   5   6
HETATM    6  C   UNL     1      -9.054  11.344  68.494  1.00  0.00    -0.169 C  
HETATM    7  O   UNL     1     -10.421  12.630  66.985  1.00  0.00    -0.231 OA 
HETATM    8  C   UNL     1      -9.154  12.412  67.408  1.00  0.00    -0.183 C  
HETATM    9  O   UNL     1      -8.195  13.032  66.976  1.00  0.00    -0.154 OA 
ENDBRANCH   5   6
BRANCH   5  10
HETATM   10  C   UNL     1     -10.642   9.994  69.756  1.00  0.00    -0.267 C  
HETATM   11  O   UNL     1     -12.583  11.247  69.100  1.00  0.00    -0.320 OA 
HETATM   12  O   UNL     1     -12.080  11.198  71.310  1.00  0.00    -0.251 OA 
HETATM   13  C   UNL     1     -11.819  10.885  70.156  1.00  0.00    -0.353 C  
ENDBRANCH   5  10
ENDBRANCH   4   5
ENDBRANCH   2   4
BRANCH   2  14
HETATM   14  C   UNL     1     -10.774   6.881  67.229  1.00  0.00    -0.351 C  
BRANCH  14  15
HETATM   15  N   UNL     1     -10.205   6.384  68.532  1.00  0.00    -0.160 NA 
BRANCH  15  16
HETATM   16  C   UNL     1     -11.330   6.330  69.540  1.00  0.00    -0.404 C  
HETATM   17  C   UNL     1     -10.834   6.330  70.983  1.00  0.00    -0.271 C  
HETATM   18  O   UNL     1      -9.661   6.998  71.133  1.00  0.00    -0.173 OA 
HETATM   19  O   UNL     1     -11.447   5.844  71.919  1.00  0.00    -0.279 OA 
ENDBRANCH  15  16
BRANCH  15  20
HETATM   20  C   UNL     1      -9.742   4.951  68.327  1.00  0.00    -0.145 C  
HETATM   21  C   UNL     1      -8.228   4.820  68.160  1.00  0.00    -0.088 C  
HETATM   22  O   UNL     1      -7.534   5.789  68.804  1.00  0.00    -0.081 OA 
HETATM   23  O   UNL     1      -7.687   3.911  67.556  1.00  0.00    -0.074 OA 
ENDBRANCH  15  20
ENDBRANCH  14  15
ENDBRANCH   2  14
TORSDOF 8
ENDMDL
MODEL      262
REMARK 921   NORMALIZED FREE ENERGY PREDICTED BY IDOCK:   -3.26 KCAL/MOL
REMARK 922        TOTAL FREE ENERGY PREDICTED BY IDOCK:   -6.11 KCAL/MOL
REMARK 923 INTER-LIGAND FREE ENERGY PREDICTED BY IDOCK:   -7.28 KCAL/MOL
REMARK 924 INTRA-LIGAND FREE ENERGY PREDICTED BY IDOCK:    1.17 KCAL/MOL
REMARK 927      BINDING AFFINITY PREDICTED BY RF-SCORE:    0.00 PKD
ROOT
HETATM    1  O   UNL     1     -12.308  15.489  69.427  1.00  0.00    -0.572 OA 
HETATM    2  C   UNL     1     -11.456  15.249  68.302  1.00  0.00    -0.347 C  
HETATM    3  H   UNL     1     -12.830  14.714  69.601  1.00  0.00     0.000 HD 
ENDROOT
BRANCH   2   4
HETATM    4  C   UNL     1     -10.571  14.018  68.623  1.00  0.00    -0.257 C  
BRANCH   4   5
HETATM    5  N   UNL     1     -10.494  12.948  67.560  1.00  0.00    -0.222 NA 
BRANCH   5   6
HETATM    6  C   UNL     1     -11.903  12.642  67.109  1.00  0.00    -0.330 C  
HETATM    7  O   UNL     1     -10.843  11.413  65.329  1.00  0.00    -0.284 OA 
HETATM    8  C   UNL     1     -11.953  12.104  65.681  1.00  0.00    -0.208 C  
HETATM    9  O   UNL     1     -12.905  12.255  64.932  1.00  0.00    -0.628 OA 
ENDBRANCH   5   6
BRANCH   5  10
HETATM   10  C   UNL     1      -9.927  11.698  68.179  1.00  0.00    -0.195 C  
HETATM   11  O   UNL     1     -12.132  11.385  69.079  1.00  0.00    -0.363 OA 
HETATM   12  O   UNL     1     -10.403  10.487  70.237  1.00  0.00    -0.103 OA 
HETATM   13  C   UNL     1     -10.819  11.137  69.288  1.00  0.00    -0.229 C  
ENDBRANCH   5  10
ENDBRANCH   4   5
ENDBRANCH   2   4
BRANCH   2  14
HETATM   14  C   UNL     1     -10.600  16.521  68.016  1.00  0.00    -0.328 C  
BRANCH  14  15
HETATM   15  N   UNL     1     -10.512  16.996  66.589  1.00  0.00    -0.288 NA 
BRANCH  15  16
HETATM   16  C   UNL     1      -9.174  17.674  66.405  1.00  0.00    -0.244 C  
HETATM   17  C   UNL     1      -9.277  19.196  66.390  1.00  0.00    -0.343 C  
HETATM   18  O   UNL     1     -10.308  19.658  67.144  1.00  0.00    -0.396 OA 
HETATM   19  O   UNL     1      -8.488  19.932  65.820  1.00  0.00    -0.342 OA 
ENDBRANCH  15  16
BRANCH  15  20
HETATM   20  C   UNL     1     -10.502  15.773  65.686  1.00  0.00    -0.383 C  
HETATM   21  C   UNL     1     -11.403  15.917  64.459  1.00  0.00    -0.309 C  
HETATM   22  O   UNL     1     -11.545  17.200  64.049  1.00  0.00    -0.612 OA 
HETATM   23  O   UNL     1     -11.904  14.976  63.871  1.00  0.00    -0.294 OA 
ENDBRANCH  15  20
ENDBRANCH  14  15
ENDBRANCH   2  14
TORSDOF 8
ENDMDL
MODEL      263
REMARK 921   NORMALIZED FREE ENERGY PREDICTED BY IDOCK:   -3.24 KCAL/MOL
REMARK 922        TOTAL FREE ENERGY PREDICTED BY IDOCK:   -6.09 KCAL/MOL
REMARK 923 INTER-LIGAND FREE ENERGY PREDICTED BY IDOCK:   -5.81 KCAL/MOL
REMARK 924 INTRA-LIGAND FREE ENERGY PREDICTED BY IDOCK:   -0.28 KCAL/MOL
REMARK 927      BINDING AFFINITY PREDICTED BY RF-SCORE:    0.00 PKD
ROOT
HETATM    1  O   UNL     1     -12.064  15.894  68.581  1.00  0.00    -0.499 OA 
HETATM    2  C   UNL     1     -10.929  15.721  69.437  1.00  0.00    -0.296 C  
HETATM    3  H   UNL     1     -11.838  16.482  67.869  1.00  0.00     0.000 HD 
ENDROOT
BRANCH   2   4
HETATM    4  C   UNL     1      -9.761  15.170  68.581  1.00  0.00    -0.216 C  
BRANCH   4   5
HETATM    5  N   UNL     1      -8.819  16.190  67.990  1.00  0.00    -0.179 NA 
BRANCH   5   6
HETATM    6  C   UNL     1      -7.439  15.578  67.950  1.00  0.00    -0.137 C  
HETATM    7  O   UNL     1      -8.490  13.803  66.706  1.00  0.00    -0.122 OA 
HETATM    8  C   UNL     1      -7.467  14.108  67.538  1.00  0.00    -0.174 C  
HETATM    9  O   UNL     1      -6.637  13.287  67.897  1.00  0.00    -0.110 OA 
ENDBRANCH   5   6
BRANCH   5  10
HETATM   10  C   UNL     1      -8.766  17.382  68.909  1.00  0.00    -0.153 C  
HETATM   11  O   UNL     1      -9.030  18.684  66.907  1.00  0.00    -0.277 OA 
HETATM   12  O   UNL     1      -7.953  19.662  68.646  1.00  0.00    -0.343 OA 
HETATM   13  C   UNL     1      -8.514  18.691  68.158  1.00  0.00    -0.312 C  
ENDBRANCH   5  10
ENDBRANCH   4   5
ENDBRANCH   2   4
BRANCH   2  14
HETATM   14  C   UNL     1     -11.300  14.757  70.605  1.00  0.00    -0.188 C  
BRANCH  14  15
HETATM   15  N   UNL     1     -12.372  13.730  70.349  1.00  0.00    -0.351 NA 
BRANCH  15  16
HETATM   16  C   UNL     1     -11.698  12.392  70.152  1.00  0.00    -0.185 C  
HETATM   17  C   UNL     1     -11.779  11.893  68.713  1.00  0.00    -0.321 C  
HETATM   18  O   UNL     1     -11.818  12.906  67.809  1.00  0.00    -0.349 OA 
HETATM   19  O   UNL     1     -11.748  10.716  68.391  1.00  0.00    -0.406 OA 
ENDBRANCH  15  16
BRANCH  15  20
HETATM   20  C   UNL     1     -13.215  13.607  71.608  1.00  0.00    -0.367 C  
HETATM   21  C   UNL     1     -14.036  14.860  71.914  1.00  0.00    -0.488 C  
HETATM   22  O   UNL     1     -14.371  15.563  70.805  1.00  0.00    -0.284 OA 
HETATM   23  O   UNL     1     -14.402  15.175  73.032  1.00  0.00    -0.056 OA 
ENDBRANCH  15  20
ENDBRANCH  14  15
ENDBRANCH   2  14
TORSDOF 8
ENDMDL
MODEL      264
REMARK 921   NORMALIZED FREE ENERGY PREDICTED BY IDOCK:   -3.23 KCAL/MOL
REMARK 922        TOTAL FREE ENERGY PREDICTED BY IDOCK:   -6.07 KCAL/MOL
REMARK 923 INTER-LIGAND FREE ENERGY PREDICTED BY IDOCK:   -6.25 KCAL/MOL
REMARK 924 INTRA-LIGAND FREE ENERGY PREDICTED BY IDOCK:    0.18 KCAL/MOL
REMARK 927      BINDING AFFINITY PREDICTED BY RF-SCORE:    0.00 PKD
ROOT
HETATM    1  O   UNL     1      -9.356  11.871  66.537  1.00  0.00    -0.205 OA 
HETATM    2  C   UNL     1      -9.798  11.443  67.830  1.00  0.00    -0.179 C  
HETATM    3  H   UNL     1      -9.016  11.127  66.055  1.00  0.00     0.000 HD 
ENDROOT
BRANCH   2   4
HETATM    4  C   UNL     1     -10.873  10.345  67.631  1.00  0.00    -0.306 C  
BRANCH   4   5
HETATM    5  N   UNL     1     -10.466   8.933  67.979  1.00  0.00    -0.223 NA 
BRANCH   5   6
HETATM    6  C   UNL     1      -9.421   9.008  69.067  1.00  0.00    -0.155 C  
HETATM    7  O   UNL     1     -11.114   8.029  70.472  1.00  0.00    -0.251 OA 
HETATM    8  C   UNL     1     -10.016   8.822  70.460  1.00  0.00    -0.189 C  
HETATM    9  O   UNL     1      -9.543   9.314  71.472  1.00  0.00    -0.252 OA 
ENDBRANCH   5   6
BRANCH   5  10
HETATM   10  C   UNL     1      -9.826   8.307  66.769  1.00  0.00    -0.263 C  
HETATM   11  O   UNL     1     -11.269   6.441  67.220  1.00  0.00    -0.364 OA 
HETATM   12  O   UNL     1      -9.321   6.008  66.145  1.00  0.00    -0.161 OA 
HETATM   13  C   UNL     1     -10.080   6.801  66.684  1.00  0.00    -0.136 C  
ENDBRANCH   5  10
ENDBRANCH   4   5
ENDBRANCH   2   4
BRANCH   2  14
HETATM   14  C   UNL     1     -10.356  12.665  68.622  1.00  0.00    -0.177 C  
BRANCH  14  15
HETATM   15  N   UNL     1     -10.814  13.860  67.827  1.00  0.00    -0.248 NA 
BRANCH  15  16
HETATM   16  C   UNL     1     -12.162  13.531  67.226  1.00  0.00    -0.260 C  
HETATM   17  C   UNL     1     -12.222  13.796  65.725  1.00  0.00    -0.462 C  
HETATM   18  O   UNL     1     -11.019  13.638  65.117  1.00  0.00    -0.305 OA 
HETATM   19  O   UNL     1     -13.246  14.058  65.116  1.00  0.00    -0.768 OA 
ENDBRANCH  15  16
BRANCH  15  20
HETATM   20  C   UNL     1     -11.045  15.009  68.796  1.00  0.00    -0.261 C  
HETATM   21  C   UNL     1     -12.124  14.716  69.839  1.00  0.00    -0.335 C  
HETATM   22  O   UNL     1     -12.237  13.398  70.134  1.00  0.00    -0.331 OA 
HETATM   23  O   UNL     1     -12.784  15.577  70.393  1.00  0.00    -0.425 OA 
ENDBRANCH  15  20
ENDBRANCH  14  15
ENDBRANCH   2  14
TORSDOF 8
ENDMDL
MODEL      265
REMARK 921   NORMALIZED FREE ENERGY PREDICTED BY IDOCK:   -3.23 KCAL/MOL
REMARK 922        TOTAL FREE ENERGY PREDICTED BY IDOCK:   -6.07 KCAL/MOL
REMARK 923 INTER-LIGAND FREE ENERGY PREDICTED BY IDOCK:   -4.71 KCAL/MOL
REMARK 924 INTRA-LIGAND FREE ENERGY PREDICTED BY IDOCK:   -1.36 KCAL/MOL
REMARK 927      BINDING AFFINITY PREDICTED BY RF-SCORE:    0.00 PKD
ROOT
HETATM    1  O   UNL     1     -11.152   7.850  68.070  1.00  0.00    -0.457 OA 
HETATM    2  C   UNL     1     -10.427   7.112  69.060  1.00  0.00    -0.211 C  
HETATM    3  H   UNL     1     -11.697   7.256  67.567  1.00  0.00     0.000 HD 
ENDROOT
BRANCH   2   4
HETATM    4  C   UNL     1     -11.454   6.372  69.955  1.00  0.00    -0.415 C  
BRANCH   4   5
HETATM    5  N   UNL     1     -11.617   6.892  71.363  1.00  0.00    -0.281 NA 
BRANCH   5   6
HETATM    6  C   UNL     1     -11.098   5.835  72.309  1.00  0.00    -0.276 C  
HETATM    7  O   UNL     1     -10.212   7.689  73.565  1.00  0.00    -0.334 OA 
HETATM    8  C   UNL     1     -10.042   6.379  73.268  1.00  0.00    -0.200 C  
HETATM    9  O   UNL     1      -9.146   5.702  73.746  1.00  0.00    -0.127 OA 
ENDBRANCH   5   6
BRANCH   5  10
HETATM   10  C   UNL     1     -13.085   7.074  71.639  1.00  0.00    -0.330 C  
HETATM   11  O   UNL     1     -12.652   9.414  71.309  1.00  0.00    -0.316 OA 
HETATM   12  O   UNL     1     -14.386   8.862  72.661  1.00  0.00    -0.613 OA 
HETATM   13  C   UNL     1     -13.448   8.527  71.951  1.00  0.00    -0.383 C  
ENDBRANCH   5  10
ENDBRANCH   4   5
ENDBRANCH   2   4
BRANCH   2  14
HETATM   14  C   UNL     1      -9.532   8.086  69.886  1.00  0.00    -0.160 C  
BRANCH  14  15
HETATM   15  N   UNL     1      -8.043   8.019  69.668  1.00  0.00    -0.117 NA 
BRANCH  15  16
HETATM   16  C   UNL     1      -7.483   9.411  69.849  1.00  0.00    -0.100 C  
HETATM   17  C   UNL     1      -6.259   9.676  68.977  1.00  0.00    -0.041 C  
HETATM   18  O   UNL     1      -6.281   8.970  67.817  1.00  0.00    -0.050 OA 
HETATM   19  O   UNL     1      -5.383  10.480  69.250  1.00  0.00    -0.038 OA 
ENDBRANCH  15  16
BRANCH  15  20
HETATM   20  C   UNL     1      -7.444   7.167  70.776  1.00  0.00    -0.080 C  
HETATM   21  C   UNL     1      -7.258   5.702  70.380  1.00  0.00    -0.071 C  
HETATM   22  O   UNL     1      -7.053   5.528  69.052  1.00  0.00    -0.064 OA 
HETATM   23  O   UNL     1      -7.241   4.781  71.177  1.00  0.00    -0.049 OA 
ENDBRANCH  15  20
ENDBRANCH  14  15
ENDBRANCH   2  14
TORSDOF 8
ENDMDL
MODEL      266
REMARK 921   NORMALIZED FREE ENERGY PREDICTED BY IDOCK:   -3.23 KCAL/MOL
REMARK 922        TOTAL FREE ENERGY PREDICTED BY IDOCK:   -6.07 KCAL/MOL
REMARK 923 INTER-LIGAND FREE ENERGY PREDICTED BY IDOCK:   -5.04 KCAL/MOL
REMARK 924 INTRA-LIGAND FREE ENERGY PREDICTED BY IDOCK:   -1.03 KCAL/MOL
REMARK 927      BINDING AFFINITY PREDICTED BY RF-SCORE:    0.00 PKD
ROOT
HETATM    1  O   UNL     1      -8.444  10.541  69.708  1.00  0.00    -0.382 OA 
HETATM    2  C   UNL     1      -9.176   9.664  68.843  1.00  0.00    -0.147 C  
HETATM    3  H   UNL     1      -8.598  10.296  70.613  1.00  0.00     0.000 HD 
ENDROOT
BRANCH   2   4
HETATM    4  C   UNL     1      -8.721   8.212  69.135  1.00  0.00    -0.140 C  
BRANCH   4   5
HETATM    5  N   UNL     1      -9.797   7.241  69.559  1.00  0.00    -0.162 NA 
BRANCH   5   6
HETATM    6  C   UNL     1     -10.607   6.886  68.335  1.00  0.00    -0.210 C  
HETATM    7  O   UNL     1      -9.294   4.867  68.308  1.00  0.00    -0.118 OA 
HETATM    8  C   UNL     1      -9.988   5.739  67.539  1.00  0.00    -0.148 C  
HETATM    9  O   UNL     1     -10.120   5.600  66.334  1.00  0.00    -0.172 OA 
ENDBRANCH   5   6
BRANCH   5  10
HETATM   10  C   UNL     1     -10.713   7.936  70.531  1.00  0.00    -0.233 C  
HETATM   11  O   UNL     1     -10.959   5.769  71.538  1.00  0.00    -0.262 OA 
HETATM   12  O   UNL     1     -12.681   7.224  71.775  1.00  0.00    -0.332 OA 
HETATM   13  C   UNL     1     -11.575   6.956  71.327  1.00  0.00    -0.310 C  
ENDBRANCH   5  10
ENDBRANCH   4   5
ENDBRANCH   2   4
BRANCH   2  14
HETATM   14  C   UNL     1      -8.922  10.065  67.358  1.00  0.00    -0.131 C  
BRANCH  14  15
HETATM   15  N   UNL     1      -9.963  10.916  66.678  1.00  0.00    -0.201 NA 
BRANCH  15  16
HETATM   16  C   UNL     1     -10.108  10.427  65.256  1.00  0.00    -0.300 C  
HETATM   17  C   UNL     1     -10.657  11.494  64.314  1.00  0.00    -0.347 C  
HETATM   18  O   UNL     1     -10.314  12.753  64.693  1.00  0.00    -0.324 OA 
HETATM   19  O   UNL     1     -11.282  11.254  63.294  1.00  0.00    -0.238 OA 
ENDBRANCH  15  16
BRANCH  15  20
HETATM   20  C   UNL     1     -11.298  10.660  67.360  1.00  0.00    -0.105 C  
HETATM   21  C   UNL     1     -11.771  11.829  68.224  1.00  0.00    -0.310 C  
HETATM   22  O   UNL     1     -11.325  13.032  67.788  1.00  0.00    -0.260 OA 
HETATM   23  O   UNL     1     -12.517  11.708  69.180  1.00  0.00    -0.208 OA 
ENDBRANCH  15  20
ENDBRANCH  14  15
ENDBRANCH   2  14
TORSDOF 8
ENDMDL
MODEL      267
REMARK 921   NORMALIZED FREE ENERGY PREDICTED BY IDOCK:   -3.20 KCAL/MOL
REMARK 922        TOTAL FREE ENERGY PREDICTED BY IDOCK:   -6.03 KCAL/MOL
REMARK 923 INTER-LIGAND FREE ENERGY PREDICTED BY IDOCK:   -6.22 KCAL/MOL
REMARK 924 INTRA-LIGAND FREE ENERGY PREDICTED BY IDOCK:    0.19 KCAL/MOL
REMARK 927      BINDING AFFINITY PREDICTED BY RF-SCORE:    0.00 PKD
ROOT
HETATM    1  O   UNL     1      -8.219  14.898  69.475  1.00  0.00    -0.366 OA 
HETATM    2  C   UNL     1      -7.759  14.375  68.224  1.00  0.00    -0.129 C  
HETATM    3  H   UNL     1      -7.618  15.568  69.780  1.00  0.00     0.000 HD 
ENDROOT
BRANCH   2   4
HETATM    4  C   UNL     1      -7.651  15.553  67.222  1.00  0.00    -0.218 C  
BRANCH   4   5
HETATM    5  N   UNL     1      -7.856  16.938  67.786  1.00  0.00    -0.176 NA 
BRANCH   5   6
HETATM    6  C   UNL     1      -8.899  17.631  66.943  1.00  0.00    -0.246 C  
HETATM    7  O   UNL     1      -9.184  19.073  68.851  1.00  0.00    -0.347 OA 
HETATM    8  C   UNL     1      -9.802  18.545  67.768  1.00  0.00    -0.312 C  
HETATM    9  O   UNL     1     -10.958  18.802  67.474  1.00  0.00    -0.407 OA 
ENDBRANCH   5   6
BRANCH   5  10
HETATM   10  C   UNL     1      -6.568  17.706  67.648  1.00  0.00    -0.174 C  
HETATM   11  O   UNL     1      -6.177  17.068  69.931  1.00  0.00    -0.230 OA 
HETATM   12  O   UNL     1      -5.210  18.988  69.211  1.00  0.00    -0.189 OA 
HETATM   13  C   UNL     1      -5.923  18.017  69.000  1.00  0.00    -0.217 C  
ENDBRANCH   5  10
ENDBRANCH   4   5
ENDBRANCH   2   4
BRANCH   2  14
HETATM   14  C   UNL     1      -8.745  13.275  67.724  1.00  0.00    -0.194 C  
BRANCH  14  15
HETATM   15  N   UNL     1     -10.049  13.730  67.122  1.00  0.00    -0.239 NA 
BRANCH  15  16
HETATM   16  C   UNL     1     -10.245  12.987  65.821  1.00  0.00    -0.290 C  
HETATM   17  C   UNL     1     -10.910  13.840  64.745  1.00  0.00    -0.401 C  
HETATM   18  O   UNL     1     -10.621  15.161  64.872  1.00  0.00    -0.411 OA 
HETATM   19  O   UNL     1     -11.576  13.390  63.827  1.00  0.00    -0.390 OA 
ENDBRANCH  15  16
BRANCH  15  20
HETATM   20  C   UNL     1     -11.172  13.285  68.045  1.00  0.00    -0.276 C  
HETATM   21  C   UNL     1     -11.357  11.768  68.088  1.00  0.00    -0.284 C  
HETATM   22  O   UNL     1     -10.213  11.083  67.850  1.00  0.00    -0.175 OA 
HETATM   23  O   UNL     1     -12.411  11.220  68.360  1.00  0.00    -0.545 OA 
ENDBRANCH  15  20
ENDBRANCH  14  15
ENDBRANCH   2  14
TORSDOF 8
ENDMDL
MODEL      268
REMARK 921   NORMALIZED FREE ENERGY PREDICTED BY IDOCK:   -3.20 KCAL/MOL
REMARK 922        TOTAL FREE ENERGY PREDICTED BY IDOCK:   -6.03 KCAL/MOL
REMARK 923 INTER-LIGAND FREE ENERGY PREDICTED BY IDOCK:   -5.16 KCAL/MOL
REMARK 924 INTRA-LIGAND FREE ENERGY PREDICTED BY IDOCK:   -0.86 KCAL/MOL
REMARK 927      BINDING AFFINITY PREDICTED BY RF-SCORE:    0.00 PKD
ROOT
HETATM    1  O   UNL     1     -12.407  10.637  68.794  1.00  0.00    -0.814 OA 
HETATM    2  C   UNL     1     -11.383  11.302  68.046  1.00  0.00    -0.304 C  
HETATM    3  H   UNL     1     -12.676   9.850  68.335  1.00  0.00     0.000 HD 
ENDROOT
BRANCH   2   4
HETATM    4  C   UNL     1     -10.206  10.312  67.857  1.00  0.00    -0.183 C  
BRANCH   4   5
HETATM    5  N   UNL     1      -8.931  10.633  68.599  1.00  0.00    -0.162 NA 
BRANCH   5   6
HETATM    6  C   UNL     1      -7.901  11.065  67.583  1.00  0.00    -0.114 C  
HETATM    7  O   UNL     1      -7.172  12.606  69.283  1.00  0.00     0.010 OA 
HETATM    8  C   UNL     1      -7.242  12.392  67.948  1.00  0.00    -0.110 C  
HETATM    9  O   UNL     1      -6.797  13.178  67.127  1.00  0.00    -0.107 OA 
ENDBRANCH   5   6
BRANCH   5  10
HETATM   10  C   UNL     1      -8.430   9.375  69.257  1.00  0.00    -0.141 C  
HETATM   11  O   UNL     1      -9.972   9.919  71.016  1.00  0.00    -0.061 OA 
HETATM   12  O   UNL     1      -8.146   8.700  71.579  1.00  0.00    -0.132 OA 
HETATM   13  C   UNL     1      -8.802   9.299  70.738  1.00  0.00    -0.225 C  
ENDBRANCH   5  10
ENDBRANCH   4   5
ENDBRANCH   2   4
BRANCH   2  14
HETATM   14  C   UNL     1     -10.941  12.594  68.799  1.00  0.00    -0.249 C  
BRANCH  14  15
HETATM   15  N   UNL     1     -11.618  13.886  68.424  1.00  0.00    -0.311 NA 
BRANCH  15  16
HETATM   16  C   UNL     1     -12.526  13.612  67.247  1.00  0.00     0.032 C  
HETATM   17  C   UNL     1     -11.991  14.184  65.939  1.00  0.00    -0.409 C  
HETATM   18  O   UNL     1     -10.634  14.231  65.904  1.00  0.00    -0.286 OA 
HETATM   19  O   UNL     1     -12.692  14.508  64.994  1.00  0.00    -0.525 OA 
ENDBRANCH  15  16
BRANCH  15  20
HETATM   20  C   UNL     1     -12.521  14.296  69.577  1.00  0.00    -0.128 C  
HETATM   21  C   UNL     1     -11.817  15.169  70.616  1.00  0.00    -0.325 C  
HETATM   22  O   UNL     1     -10.813  15.915  70.096  1.00  0.00    -0.309 OA 
HETATM   23  O   UNL     1     -12.153  15.236  71.785  1.00  0.00    -0.311 OA 
ENDBRANCH  15  20
ENDBRANCH  14  15
ENDBRANCH   2  14
TORSDOF 8
ENDMDL
MODEL      269
REMARK 921   NORMALIZED FREE ENERGY PREDICTED BY IDOCK:   -3.20 KCAL/MOL
REMARK 922        TOTAL FREE ENERGY PREDICTED BY IDOCK:   -6.02 KCAL/MOL
REMARK 923 INTER-LIGAND FREE ENERGY PREDICTED BY IDOCK:   -4.95 KCAL/MOL
REMARK 924 INTRA-LIGAND FREE ENERGY PREDICTED BY IDOCK:   -1.07 KCAL/MOL
REMARK 927      BINDING AFFINITY PREDICTED BY RF-SCORE:    0.00 PKD
ROOT
HETATM    1  O   UNL     1     -12.339   8.212  70.740  1.00  0.00    -0.497 OA 
HETATM    2  C   UNL     1     -11.053   7.587  70.667  1.00  0.00    -0.265 C  
HETATM    3  H   UNL     1     -12.330   9.018  70.237  1.00  0.00     0.000 HD 
ENDROOT
BRANCH   2   4
HETATM    4  C   UNL     1     -10.727   7.332  69.173  1.00  0.00    -0.185 C  
BRANCH   4   5
HETATM    5  N   UNL     1      -9.864   8.363  68.487  1.00  0.00    -0.168 NA 
BRANCH   5   6
HETATM    6  C   UNL     1     -10.760   9.208  67.613  1.00  0.00    -0.189 C  
HETATM    7  O   UNL     1     -10.175  11.003  69.109  1.00  0.00    -0.210 OA 
HETATM    8  C   UNL     1     -11.130  10.536  68.271  1.00  0.00    -0.284 C  
HETATM    9  O   UNL     1     -12.169  11.136  68.049  1.00  0.00    -0.584 OA 
ENDBRANCH   5   6
BRANCH   5  10
HETATM   10  C   UNL     1      -8.888   7.649  67.590  1.00  0.00    -0.125 C  
HETATM   11  O   UNL     1      -7.312   9.308  68.321  1.00  0.00    -0.077 OA 
HETATM   12  O   UNL     1      -6.974   8.387  66.277  1.00  0.00    -0.071 OA 
HETATM   13  C   UNL     1      -7.640   8.484  67.298  1.00  0.00    -0.097 C  
ENDBRANCH   5  10
ENDBRANCH   4   5
ENDBRANCH   2   4
BRANCH   2  14
HETATM   14  C   UNL     1     -11.068   6.264  71.492  1.00  0.00    -0.281 C  
BRANCH  14  15
HETATM   15  N   UNL     1     -10.117   6.157  72.655  1.00  0.00    -0.180 NA 
BRANCH  15  16
HETATM   16  C   UNL     1     -10.006   7.523  73.293  1.00  0.00    -0.313 C  
HETATM   17  C   UNL     1      -8.569   8.032  73.359  1.00  0.00    -0.246 C  
HETATM   18  O   UNL     1      -7.801   7.563  72.342  1.00  0.00    -0.092 OA 
HETATM   19  O   UNL     1      -8.160   8.825  74.190  1.00  0.00    -0.355 OA 
ENDBRANCH  15  16
BRANCH  15  20
HETATM   20  C   UNL     1     -10.748   5.246  73.696  1.00  0.00    -0.294 C  
HETATM   21  C   UNL     1     -10.305   3.788  73.573  1.00  0.00    -0.160 C  
HETATM   22  O   UNL     1      -9.063   3.648  73.051  1.00  0.00    -0.098 OA 
HETATM   23  O   UNL     1     -10.972   2.841  73.953  1.00  0.00    -0.186 OA 
ENDBRANCH  15  20
ENDBRANCH  14  15
ENDBRANCH   2  14
TORSDOF 8
ENDMDL
MODEL      270
REMARK 921   NORMALIZED FREE ENERGY PREDICTED BY IDOCK:   -3.20 KCAL/MOL
REMARK 922        TOTAL FREE ENERGY PREDICTED BY IDOCK:   -6.02 KCAL/MOL
REMARK 923 INTER-LIGAND FREE ENERGY PREDICTED BY IDOCK:   -4.80 KCAL/MOL
REMARK 924 INTRA-LIGAND FREE ENERGY PREDICTED BY IDOCK:   -1.23 KCAL/MOL
REMARK 927      BINDING AFFINITY PREDICTED BY RF-SCORE:    0.00 PKD
ROOT
HETATM    1  O   UNL     1      -6.936   5.576  70.026  1.00  0.00    -0.057 OA 
HETATM    2  C   UNL     1      -8.344   5.688  69.787  1.00  0.00    -0.107 C  
HETATM    3  H   UNL     1      -6.468   5.639  69.201  1.00  0.00     0.000 HD 
ENDROOT
BRANCH   2   4
HETATM    4  C   UNL     1      -8.605   7.040  69.076  1.00  0.00    -0.129 C  
BRANCH   4   5
HETATM    5  N   UNL     1      -9.330   6.976  67.754  1.00  0.00    -0.126 NA 
BRANCH   5   6
HETATM    6  C   UNL     1     -10.588   7.802  67.876  1.00  0.00    -0.156 C  
HETATM    7  O   UNL     1      -9.751   8.984  65.951  1.00  0.00    -0.271 OA 
HETATM    8  C   UNL     1     -10.521   9.091  67.060  1.00  0.00    -0.246 C  
HETATM    9  O   UNL     1     -11.119  10.113  67.356  1.00  0.00    -0.283 OA 
ENDBRANCH   5   6
BRANCH   5  10
HETATM   10  C   UNL     1      -9.738   5.550  67.499  1.00  0.00    -0.128 C  
HETATM   11  O   UNL     1      -8.821   5.888  65.306  1.00  0.00    -0.124 OA 
HETATM   12  O   UNL     1     -10.471   4.348  65.512  1.00  0.00    -0.265 OA 
HETATM   13  C   UNL     1      -9.747   5.198  66.011  1.00  0.00    -0.165 C  
ENDBRANCH   5  10
ENDBRANCH   4   5
ENDBRANCH   2   4
BRANCH   2  14
HETATM   14  C   UNL     1      -9.112   5.585  71.141  1.00  0.00    -0.142 C  
BRANCH  14  15
HETATM   15  N   UNL     1     -10.051   6.708  71.496  1.00  0.00    -0.183 NA 
BRANCH  15  16
HETATM   16  C   UNL     1     -11.463   6.234  71.236  1.00  0.00    -0.291 C  
HETATM   17  C   UNL     1     -12.496   7.348  71.365  1.00  0.00    -0.368 C  
HETATM   18  O   UNL     1     -11.993   8.568  71.042  1.00  0.00    -0.284 OA 
HETATM   19  O   UNL     1     -13.666   7.169  71.660  1.00  0.00    -0.376 OA 
ENDBRANCH  15  16
BRANCH  15  20
HETATM   20  C   UNL     1      -9.948   6.950  72.993  1.00  0.00    -0.187 C  
HETATM   21  C   UNL     1      -8.889   7.987  73.368  1.00  0.00    -0.269 C  
HETATM   22  O   UNL     1      -8.683   8.914  72.402  1.00  0.00    -0.400 OA 
HETATM   23  O   UNL     1      -8.319   8.017  74.445  1.00  0.00    -0.241 OA 
ENDBRANCH  15  20
ENDBRANCH  14  15
ENDBRANCH   2  14
TORSDOF 8
ENDMDL
MODEL      271
REMARK 921   NORMALIZED FREE ENERGY PREDICTED BY IDOCK:   -3.19 KCAL/MOL
REMARK 922        TOTAL FREE ENERGY PREDICTED BY IDOCK:   -6.02 KCAL/MOL
REMARK 923 INTER-LIGAND FREE ENERGY PREDICTED BY IDOCK:   -4.94 KCAL/MOL
REMARK 924 INTRA-LIGAND FREE ENERGY PREDICTED BY IDOCK:   -1.07 KCAL/MOL
REMARK 927      BINDING AFFINITY PREDICTED BY RF-SCORE:    0.00 PKD
ROOT
HETATM    1  O   UNL     1      -7.144   8.931  69.504  1.00  0.00    -0.056 OA 
HETATM    2  C   UNL     1      -8.459   9.456  69.294  1.00  0.00    -0.141 C  
HETATM    3  H   UNL     1      -6.630   9.036  68.711  1.00  0.00     0.000 HD 
ENDROOT
BRANCH   2   4
HETATM    4  C   UNL     1      -8.322  10.946  68.888  1.00  0.00    -0.139 C  
BRANCH   4   5
HETATM    5  N   UNL     1      -9.069  11.378  67.649  1.00  0.00    -0.152 NA 
BRANCH   5   6
HETATM    6  C   UNL     1      -8.244  10.978  66.449  1.00  0.00    -0.166 C  
HETATM    7  O   UNL     1     -10.274   9.955  65.655  1.00  0.00    -0.269 OA 
HETATM    8  C   UNL     1      -8.922   9.898  65.610  1.00  0.00    -0.171 C  
HETATM    9  O   UNL     1      -8.315   9.078  64.940  1.00  0.00    -0.150 OA 
ENDBRANCH   5   6
BRANCH   5  10
HETATM   10  C   UNL     1      -9.176  12.879  67.654  1.00  0.00    -0.193 C  
HETATM   11  O   UNL     1     -11.465  12.518  67.022  1.00  0.00    -0.313 OA 
HETATM   12  O   UNL     1     -10.505  14.466  66.371  1.00  0.00    -0.285 OA 
HETATM   13  C   UNL     1     -10.427  13.381  66.930  1.00  0.00    -0.273 C  
ENDBRANCH   5  10
ENDBRANCH   4   5
ENDBRANCH   2   4
BRANCH   2  14
HETATM   14  C   UNL     1      -9.303   9.284  70.594  1.00  0.00    -0.270 C  
BRANCH  14  15
HETATM   15  N   UNL     1     -10.539   8.427  70.514  1.00  0.00    -0.211 NA 
BRANCH  15  16
HETATM   16  C   UNL     1     -11.726   9.287  70.883  1.00  0.00    -0.296 C  
HETATM   17  C   UNL     1     -12.833   8.503  71.580  1.00  0.00    -0.338 C  
HETATM   18  O   UNL     1     -12.359   7.451  72.296  1.00  0.00    -0.235 OA 
HETATM   19  O   UNL     1     -14.013   8.814  71.558  1.00  0.00    -0.388 OA 
ENDBRANCH  15  16
BRANCH  15  20
HETATM   20  C   UNL     1     -10.737   8.021  69.062  1.00  0.00    -0.088 C  
HETATM   21  C   UNL     1     -10.747   6.507  68.852  1.00  0.00    -0.273 C  
HETATM   22  O   UNL     1     -11.193   5.820  69.932  1.00  0.00    -0.346 OA 
HETATM   23  O   UNL     1     -10.438   5.965  67.806  1.00  0.00    -0.191 OA 
ENDBRANCH  15  20
ENDBRANCH  14  15
ENDBRANCH   2  14
TORSDOF 8
ENDMDL
MODEL      272
REMARK 921   NORMALIZED FREE ENERGY PREDICTED BY IDOCK:   -3.19 KCAL/MOL
REMARK 922        TOTAL FREE ENERGY PREDICTED BY IDOCK:   -6.01 KCAL/MOL
REMARK 923 INTER-LIGAND FREE ENERGY PREDICTED BY IDOCK:   -6.29 KCAL/MOL
REMARK 924 INTRA-LIGAND FREE ENERGY PREDICTED BY IDOCK:    0.28 KCAL/MOL
REMARK 927      BINDING AFFINITY PREDICTED BY RF-SCORE:    0.00 PKD
ROOT
HETATM    1  O   UNL     1      -9.614  12.155  68.787  1.00  0.00    -0.384 OA 
HETATM    2  C   UNL     1     -10.881  11.551  68.503  1.00  0.00    -0.215 C  
HETATM    3  H   UNL     1      -9.193  11.692  69.502  1.00  0.00     0.000 HD 
ENDROOT
BRANCH   2   4
HETATM    4  C   UNL     1     -10.634  10.060  68.159  1.00  0.00    -0.227 C  
BRANCH   4   5
HETATM    5  N   UNL     1     -10.138   9.183  69.283  1.00  0.00    -0.187 NA 
BRANCH   5   6
HETATM    6  C   UNL     1      -8.851   8.534  68.830  1.00  0.00    -0.139 C  
HETATM    7  O   UNL     1      -7.802   9.949  70.472  1.00  0.00    -0.246 OA 
HETATM    8  C   UNL     1      -7.616   9.299  69.299  1.00  0.00    -0.080 C  
HETATM    9  O   UNL     1      -6.555   9.309  68.697  1.00  0.00    -0.053 OA 
ENDBRANCH   5   6
BRANCH   5  10
HETATM   10  C   UNL     1     -11.146   8.089  69.519  1.00  0.00     0.037 C  
HETATM   11  O   UNL     1     -11.036   8.760  71.823  1.00  0.00    -0.294 OA 
HETATM   12  O   UNL     1     -11.595   6.605  71.396  1.00  0.00    -0.283 OA 
HETATM   13  C   UNL     1     -11.270   7.714  70.996  1.00  0.00    -0.267 C  
ENDBRANCH   5  10
ENDBRANCH   4   5
ENDBRANCH   2   4
BRANCH   2  14
HETATM   14  C   UNL     1     -11.571  12.311  67.330  1.00  0.00    -0.357 C  
BRANCH  14  15
HETATM   15  N   UNL     1     -10.719  12.684  66.144  1.00  0.00    -0.264 NA 
BRANCH  15  16
HETATM   16  C   UNL     1     -11.134  11.813  64.981  1.00  0.00    -0.284 C  
HETATM   17  C   UNL     1      -9.952  11.135  64.295  1.00  0.00    -0.306 C  
HETATM   18  O   UNL     1      -8.924  10.890  65.148  1.00  0.00    -0.197 OA 
HETATM   19  O   UNL     1      -9.943  10.788  63.126  1.00  0.00    -0.330 OA 
ENDBRANCH  15  16
BRANCH  15  20
HETATM   20  C   UNL     1     -11.058  14.114  65.753  1.00  0.00    -0.309 C  
HETATM   21  C   UNL     1     -12.281  14.219  64.841  1.00  0.00    -0.440 C  
HETATM   22  O   UNL     1     -13.175  13.219  65.028  1.00  0.00    -0.698 OA 
HETATM   23  O   UNL     1     -12.468  15.135  64.060  1.00  0.00    -0.771 OA 
ENDBRANCH  15  20
ENDBRANCH  14  15
ENDBRANCH   2  14
TORSDOF 8
ENDMDL
MODEL      273
REMARK 921   NORMALIZED FREE ENERGY PREDICTED BY IDOCK:   -3.18 KCAL/MOL
REMARK 922        TOTAL FREE ENERGY PREDICTED BY IDOCK:   -6.01 KCAL/MOL
REMARK 923 INTER-LIGAND FREE ENERGY PREDICTED BY IDOCK:   -4.99 KCAL/MOL
REMARK 924 INTRA-LIGAND FREE ENERGY PREDICTED BY IDOCK:   -1.02 KCAL/MOL
REMARK 927      BINDING AFFINITY PREDICTED BY RF-SCORE:    0.00 PKD
ROOT
HETATM    1  O   UNL     1      -8.546  10.319  69.820  1.00  0.00    -0.322 OA 
HETATM    2  C   UNL     1      -8.995   9.659  68.632  1.00  0.00    -0.129 C  
HETATM    3  H   UNL     1      -8.668   9.745  70.568  1.00  0.00     0.000 HD 
ENDROOT
BRANCH   2   4
HETATM    4  C   UNL     1      -8.196   8.339  68.484  1.00  0.00    -0.131 C  
BRANCH   4   5
HETATM    5  N   UNL     1      -8.993   7.059  68.552  1.00  0.00    -0.124 NA 
BRANCH   5   6
HETATM    6  C   UNL     1      -8.282   6.122  69.500  1.00  0.00    -0.116 C  
HETATM    7  O   UNL     1     -10.472   5.723  70.418  1.00  0.00    -0.232 OA 
HETATM    8  C   UNL     1      -9.147   5.738  70.697  1.00  0.00    -0.151 C  
HETATM    9  O   UNL     1      -8.697   5.445  71.794  1.00  0.00    -0.133 OA 
ENDBRANCH   5   6
BRANCH   5  10
HETATM   10  C   UNL     1      -8.992   6.421  67.188  1.00  0.00    -0.109 C  
HETATM   11  O   UNL     1     -11.377   6.684  67.284  1.00  0.00    -0.324 OA 
HETATM   12  O   UNL     1     -10.572   4.992  66.008  1.00  0.00    -0.285 OA 
HETATM   13  C   UNL     1     -10.378   5.930  66.769  1.00  0.00    -0.244 C  
ENDBRANCH   5  10
ENDBRANCH   4   5
ENDBRANCH   2   4
BRANCH   2  14
HETATM   14  C   UNL     1      -8.794  10.600  67.405  1.00  0.00    -0.132 C  
BRANCH  14  15
HETATM   15  N   UNL     1      -9.809  11.692  67.190  1.00  0.00    -0.188 NA 
BRANCH  15  16
HETATM   16  C   UNL     1      -9.789  12.067  65.726  1.00  0.00    -0.242 C  
HETATM   17  C   UNL     1     -10.109  13.538  65.485  1.00  0.00    -0.268 C  
HETATM   18  O   UNL     1      -9.722  14.334  66.516  1.00  0.00    -0.269 OA 
HETATM   19  O   UNL     1     -10.598  13.975  64.457  1.00  0.00    -0.416 OA 
ENDBRANCH  15  16
BRANCH  15  20
HETATM   20  C   UNL     1     -11.188  11.114  67.467  1.00  0.00    -0.301 C  
HETATM   21  C   UNL     1     -11.838  11.676  68.732  1.00  0.00    -0.325 C  
HETATM   22  O   UNL     1     -11.438  12.937  69.024  1.00  0.00    -0.270 OA 
HETATM   23  O   UNL     1     -12.673  11.079  69.388  1.00  0.00    -0.279 OA 
ENDBRANCH  15  20
ENDBRANCH  14  15
ENDBRANCH   2  14
TORSDOF 8
ENDMDL
MODEL      274
REMARK 921   NORMALIZED FREE ENERGY PREDICTED BY IDOCK:   -3.18 KCAL/MOL
REMARK 922        TOTAL FREE ENERGY PREDICTED BY IDOCK:   -6.00 KCAL/MOL
REMARK 923 INTER-LIGAND FREE ENERGY PREDICTED BY IDOCK:   -6.69 KCAL/MOL
REMARK 924 INTRA-LIGAND FREE ENERGY PREDICTED BY IDOCK:    0.69 KCAL/MOL
REMARK 927      BINDING AFFINITY PREDICTED BY RF-SCORE:    0.00 PKD
ROOT
HETATM    1  O   UNL     1     -10.789  16.851  68.477  1.00  0.00    -0.353 OA 
HETATM    2  C   UNL     1     -10.653  16.120  67.253  1.00  0.00    -0.305 C  
HETATM    3  H   UNL     1     -11.612  16.623  68.893  1.00  0.00     0.000 HD 
ENDROOT
BRANCH   2   4
HETATM    4  C   UNL     1     -10.735  14.609  67.584  1.00  0.00    -0.271 C  
BRANCH   4   5
HETATM    5  N   UNL     1     -11.171  13.697  66.463  1.00  0.00    -0.305 NA 
BRANCH   5   6
HETATM    6  C   UNL     1      -9.947  12.979  65.947  1.00  0.00    -0.267 C  
HETATM    7  O   UNL     1     -11.014  10.990  66.786  1.00  0.00    -0.267 OA 
HETATM    8  C   UNL     1      -9.820  11.565  66.508  1.00  0.00    -0.202 C  
HETATM    9  O   UNL     1      -8.755  10.992  66.670  1.00  0.00    -0.150 OA 
ENDBRANCH   5   6
BRANCH   5  10
HETATM   10  C   UNL     1     -11.716  14.542  65.342  1.00  0.00    -0.354 C  
HETATM   11  O   UNL     1     -13.158  12.673  64.901  1.00  0.00    -0.850 OA 
HETATM   12  O   UNL     1     -12.644  14.020  63.152  1.00  0.00    -0.733 OA 
HETATM   13  C   UNL     1     -12.528  13.727  64.334  1.00  0.00    -0.270 C  
ENDBRANCH   5  10
ENDBRANCH   4   5
ENDBRANCH   2   4
BRANCH   2  14
HETATM   14  C   UNL     1      -9.302  16.494  66.569  1.00  0.00    -0.269 C  
BRANCH  14  15
HETATM   15  N   UNL     1      -8.089  16.632  67.452  1.00  0.00    -0.162 NA 
BRANCH  15  16
HETATM   16  C   UNL     1      -8.402  17.659  68.516  1.00  0.00    -0.291 C  
HETATM   17  C   UNL     1      -7.554  18.921  68.391  1.00  0.00    -0.308 C  
HETATM   18  O   UNL     1      -7.198  19.186  67.107  1.00  0.00    -0.208 OA 
HETATM   19  O   UNL     1      -7.275  19.655  69.324  1.00  0.00    -0.360 OA 
ENDBRANCH  15  16
BRANCH  15  20
HETATM   20  C   UNL     1      -7.882  15.312  68.177  1.00  0.00    -0.120 C  
HETATM   21  C   UNL     1      -6.614  14.575  67.745  1.00  0.00    -0.172 C  
HETATM   22  O   UNL     1      -5.631  15.407  67.323  1.00  0.00    -0.337 OA 
HETATM   23  O   UNL     1      -6.471  13.368  67.820  1.00  0.00    -0.134 OA 
ENDBRANCH  15  20
ENDBRANCH  14  15
ENDBRANCH   2  14
TORSDOF 8
ENDMDL
MODEL      275
REMARK 921   NORMALIZED FREE ENERGY PREDICTED BY IDOCK:   -3.17 KCAL/MOL
REMARK 922        TOTAL FREE ENERGY PREDICTED BY IDOCK:   -5.99 KCAL/MOL
REMARK 923 INTER-LIGAND FREE ENERGY PREDICTED BY IDOCK:   -4.64 KCAL/MOL
REMARK 924 INTRA-LIGAND FREE ENERGY PREDICTED BY IDOCK:   -1.35 KCAL/MOL
REMARK 927      BINDING AFFINITY PREDICTED BY RF-SCORE:    0.00 PKD
ROOT
HETATM    1  O   UNL     1     -11.602   6.472  68.926  1.00  0.00    -0.606 OA 
HETATM    2  C   UNL     1     -10.995   7.247  67.886  1.00  0.00    -0.040 C  
HETATM    3  H   UNL     1     -12.342   5.992  68.574  1.00  0.00     0.000 HD 
ENDROOT
BRANCH   2   4
HETATM    4  C   UNL     1     -10.570   6.280  66.753  1.00  0.00    -0.265 C  
BRANCH   4   5
HETATM    5  N   UNL     1      -9.262   5.551  66.946  1.00  0.00    -0.117 NA 
BRANCH   5   6
HETATM    6  C   UNL     1      -8.411   5.794  65.722  1.00  0.00    -0.143 C  
HETATM    7  O   UNL     1      -6.768   6.610  67.282  1.00  0.00    -0.058 OA 
HETATM    8  C   UNL     1      -7.224   6.708  66.011  1.00  0.00    -0.071 C  
HETATM    9  O   UNL     1      -6.712   7.440  65.178  1.00  0.00    -0.043 OA 
ENDBRANCH   5   6
BRANCH   5  10
HETATM   10  C   UNL     1      -9.545   4.074  67.023  1.00  0.00    -0.201 C  
HETATM   11  O   UNL     1      -9.459   4.385  69.403  1.00  0.00    -0.147 OA 
HETATM   12  O   UNL     1      -8.922   2.332  68.607  1.00  0.00    -0.093 OA 
HETATM   13  C   UNL     1      -9.254   3.492  68.407  1.00  0.00    -0.168 C  
ENDBRANCH   5  10
ENDBRANCH   4   5
ENDBRANCH   2   4
BRANCH   2  14
HETATM   14  C   UNL     1      -9.780   8.036  68.465  1.00  0.00    -0.159 C  
BRANCH  14  15
HETATM   15  N   UNL     1     -10.044   8.987  69.603  1.00  0.00    -0.190 NA 
BRANCH  15  16
HETATM   16  C   UNL     1      -8.811   9.021  70.476  1.00  0.00    -0.208 C  
HETATM   17  C   UNL     1      -9.064   8.483  71.881  1.00  0.00    -0.244 C  
HETATM   18  O   UNL     1     -10.035   7.535  71.911  1.00  0.00    -0.169 OA 
HETATM   19  O   UNL     1      -8.426   8.813  72.867  1.00  0.00    -0.409 OA 
ENDBRANCH  15  16
BRANCH  15  20
HETATM   20  C   UNL     1     -10.199  10.383  69.022  1.00  0.00    -0.217 C  
HETATM   21  C   UNL     1     -11.613  10.946  69.164  1.00  0.00    -0.319 C  
HETATM   22  O   UNL     1     -12.275  10.462  70.242  1.00  0.00    -0.284 OA 
HETATM   23  O   UNL     1     -12.088  11.785  68.419  1.00  0.00    -0.490 OA 
ENDBRANCH  15  20
ENDBRANCH  14  15
ENDBRANCH   2  14
TORSDOF 8
ENDMDL
MODEL      276
REMARK 921   NORMALIZED FREE ENERGY PREDICTED BY IDOCK:   -3.17 KCAL/MOL
REMARK 922        TOTAL FREE ENERGY PREDICTED BY IDOCK:   -5.99 KCAL/MOL
REMARK 923 INTER-LIGAND FREE ENERGY PREDICTED BY IDOCK:   -4.99 KCAL/MOL
REMARK 924 INTRA-LIGAND FREE ENERGY PREDICTED BY IDOCK:   -1.00 KCAL/MOL
REMARK 927      BINDING AFFINITY PREDICTED BY RF-SCORE:    0.00 PKD
ROOT
HETATM    1  O   UNL     1      -9.855   6.819  65.949  1.00  0.00    -0.384 OA 
HETATM    2  C   UNL     1     -10.063   7.514  67.183  1.00  0.00    -0.247 C  
HETATM    3  H   UNL     1      -9.541   5.940  66.128  1.00  0.00     0.000 HD 
ENDROOT
BRANCH   2   4
HETATM    4  C   UNL     1     -11.075   6.700  68.029  1.00  0.00    -0.205 C  
BRANCH   4   5
HETATM    5  N   UNL     1     -10.728   6.499  69.484  1.00  0.00    -0.243 NA 
BRANCH   5   6
HETATM    6  C   UNL     1     -11.022   7.788  70.212  1.00  0.00    -0.247 C  
HETATM    7  O   UNL     1     -12.226   6.395  71.764  1.00  0.00    -0.342 OA 
HETATM    8  C   UNL     1     -12.147   7.638  71.233  1.00  0.00    -0.314 C  
HETATM    9  O   UNL     1     -12.891   8.548  71.562  1.00  0.00    -0.320 OA 
ENDBRANCH   5   6
BRANCH   5  10
HETATM   10  C   UNL     1      -9.249   6.236  69.592  1.00  0.00    -0.141 C  
HETATM   11  O   UNL     1      -9.893   4.238  70.759  1.00  0.00    -0.195 OA 
HETATM   12  O   UNL     1      -7.865   5.121  71.257  1.00  0.00    -0.100 OA 
HETATM   13  C   UNL     1      -8.918   5.168  70.635  1.00  0.00    -0.132 C  
ENDBRANCH   5  10
ENDBRANCH   4   5
ENDBRANCH   2   4
BRANCH   2  14
HETATM   14  C   UNL     1     -10.578   8.956  66.889  1.00  0.00    -0.184 C  
BRANCH  14  15
HETATM   15  N   UNL     1      -9.707   9.850  66.045  1.00  0.00    -0.228 NA 
BRANCH  15  16
HETATM   16  C   UNL     1     -10.483  11.113  65.750  1.00  0.00    -0.246 C  
HETATM   17  C   UNL     1     -10.290  11.607  64.320  1.00  0.00    -0.322 C  
HETATM   18  O   UNL     1     -10.049  10.597  63.445  1.00  0.00    -0.317 OA 
HETATM   19  O   UNL     1     -10.401  12.773  63.976  1.00  0.00    -0.415 OA 
ENDBRANCH  15  16
BRANCH  15  20
HETATM   20  C   UNL     1      -8.510  10.267  66.884  1.00  0.00    -0.126 C  
HETATM   21  C   UNL     1      -7.168   9.910  66.245  1.00  0.00    -0.102 C  
HETATM   22  O   UNL     1      -7.211   9.881  64.891  1.00  0.00    -0.123 OA 
HETATM   23  O   UNL     1      -6.143   9.721  66.877  1.00  0.00    -0.061 OA 
ENDBRANCH  15  20
ENDBRANCH  14  15
ENDBRANCH   2  14
TORSDOF 8
ENDMDL
MODEL      277
REMARK 921   NORMALIZED FREE ENERGY PREDICTED BY IDOCK:   -3.17 KCAL/MOL
REMARK 922        TOTAL FREE ENERGY PREDICTED BY IDOCK:   -5.99 KCAL/MOL
REMARK 923 INTER-LIGAND FREE ENERGY PREDICTED BY IDOCK:   -5.15 KCAL/MOL
REMARK 924 INTRA-LIGAND FREE ENERGY PREDICTED BY IDOCK:   -0.83 KCAL/MOL
REMARK 927      BINDING AFFINITY PREDICTED BY RF-SCORE:    0.00 PKD
ROOT
HETATM    1  O   UNL     1      -8.404  10.596  69.584  1.00  0.00    -0.370 OA 
HETATM    2  C   UNL     1      -8.852   9.679  68.579  1.00  0.00    -0.124 C  
HETATM    3  H   UNL     1      -8.496  10.197  70.442  1.00  0.00     0.000 HD 
ENDROOT
BRANCH   2   4
HETATM    4  C   UNL     1      -8.013   8.382  68.705  1.00  0.00    -0.120 C  
BRANCH   4   5
HETATM    5  N   UNL     1      -8.713   7.091  68.354  1.00  0.00    -0.125 NA 
BRANCH   5   6
HETATM    6  C   UNL     1      -9.423   6.599  69.592  1.00  0.00    -0.142 C  
HETATM    7  O   UNL     1     -11.273   6.175  68.109  1.00  0.00    -0.314 OA 
HETATM    8  C   UNL     1     -10.930   6.468  69.386  1.00  0.00    -0.337 C  
HETATM    9  O   UNL     1     -11.751   6.588  70.281  1.00  0.00    -0.404 OA 
ENDBRANCH   5   6
BRANCH   5  10
HETATM   10  C   UNL     1      -7.672   6.069  67.983  1.00  0.00    -0.101 C  
HETATM   11  O   UNL     1      -8.660   6.152  65.795  1.00  0.00    -0.145 OA 
HETATM   12  O   UNL     1      -7.633   4.222  66.395  1.00  0.00    -0.087 OA 
HETATM   13  C   UNL     1      -7.989   5.361  66.664  1.00  0.00    -0.105 C  
ENDBRANCH   5  10
ENDBRANCH   4   5
ENDBRANCH   2   4
BRANCH   2  14
HETATM   14  C   UNL     1      -8.702  10.334  67.172  1.00  0.00    -0.129 C  
BRANCH  14  15
HETATM   15  N   UNL     1      -9.858  11.150  66.656  1.00  0.00    -0.194 NA 
BRANCH  15  16
HETATM   16  C   UNL     1     -10.192  10.658  65.266  1.00  0.00    -0.282 C  
HETATM   17  C   UNL     1     -10.791  11.745  64.380  1.00  0.00    -0.334 C  
HETATM   18  O   UNL     1     -10.343  12.987  64.699  1.00  0.00    -0.347 OA 
HETATM   19  O   UNL     1     -11.541  11.530  63.442  1.00  0.00    -0.363 OA 
ENDBRANCH  15  16
BRANCH  15  20
HETATM   20  C   UNL     1     -11.071  10.847  67.522  1.00  0.00    -0.310 C  
HETATM   21  C   UNL     1     -11.323  11.899  68.602  1.00  0.00    -0.276 C  
HETATM   22  O   UNL     1     -10.889  13.135  68.256  1.00  0.00    -0.236 OA 
HETATM   23  O   UNL     1     -11.902  11.672  69.649  1.00  0.00    -0.304 OA 
ENDBRANCH  15  20
ENDBRANCH  14  15
ENDBRANCH   2  14
TORSDOF 8
ENDMDL
MODEL      278
REMARK 921   NORMALIZED FREE ENERGY PREDICTED BY IDOCK:   -3.17 KCAL/MOL
REMARK 922        TOTAL FREE ENERGY PREDICTED BY IDOCK:   -5.98 KCAL/MOL
REMARK 923 INTER-LIGAND FREE ENERGY PREDICTED BY IDOCK:   -4.99 KCAL/MOL
REMARK 924 INTRA-LIGAND FREE ENERGY PREDICTED BY IDOCK:   -0.99 KCAL/MOL
REMARK 927      BINDING AFFINITY PREDICTED BY RF-SCORE:    0.00 PKD
ROOT
HETATM    1  O   UNL     1     -10.840   9.141  67.415  1.00  0.00    -0.410 OA 
HETATM    2  C   UNL     1     -10.837  10.279  68.285  1.00  0.00    -0.255 C  
HETATM    3  H   UNL     1     -11.282   9.363  66.604  1.00  0.00     0.000 HD 
ENDROOT
BRANCH   2   4
HETATM    4  C   UNL     1     -10.136  11.447  67.547  1.00  0.00    -0.183 C  
BRANCH   4   5
HETATM    5  N   UNL     1     -11.017  12.590  67.105  1.00  0.00    -0.253 NA 
BRANCH   5   6
HETATM    6  C   UNL     1     -12.022  12.850  68.203  1.00  0.00    -0.261 C  
HETATM    7  O   UNL     1     -11.195  15.111  68.140  1.00  0.00    -0.292 OA 
HETATM    8  C   UNL     1     -11.765  14.169  68.927  1.00  0.00    -0.334 C  
HETATM    9  O   UNL     1     -12.064  14.372  70.093  1.00  0.00    -0.294 OA 
ENDBRANCH   5   6
BRANCH   5  10
HETATM   10  C   UNL     1     -11.777  12.163  65.878  1.00  0.00    -0.328 C  
HETATM   11  O   UNL     1      -9.686  12.443  64.730  1.00  0.00    -0.120 OA 
HETATM   12  O   UNL     1     -11.580  12.710  63.513  1.00  0.00    -0.465 OA 
HETATM   13  C   UNL     1     -11.030  12.486  64.583  1.00  0.00    -0.310 C  
ENDBRANCH   5  10
ENDBRANCH   4   5
ENDBRANCH   2   4
BRANCH   2  14
HETATM   14  C   UNL     1     -10.112   9.915  69.617  1.00  0.00    -0.230 C  
BRANCH  14  15
HETATM   15  N   UNL     1      -9.038   8.859  69.560  1.00  0.00    -0.144 NA 
BRANCH  15  16
HETATM   16  C   UNL     1      -7.778   9.444  70.156  1.00  0.00    -0.136 C  
HETATM   17  C   UNL     1      -6.612   9.465  69.174  1.00  0.00    -0.049 C  
HETATM   18  O   UNL     1      -7.016   9.592  67.884  1.00  0.00    -0.077 OA 
HETATM   19  O   UNL     1      -5.437   9.437  69.503  1.00  0.00    -0.034 OA 
ENDBRANCH  15  16
BRANCH  15  20
HETATM   20  C   UNL     1      -9.455   7.716  70.472  1.00  0.00    -0.164 C  
HETATM   21  C   UNL     1     -10.325   6.670  69.774  1.00  0.00    -0.193 C  
HETATM   22  O   UNL     1     -10.079   6.571  68.445  1.00  0.00    -0.145 OA 
HETATM   23  O   UNL     1     -11.123   5.955  70.353  1.00  0.00    -0.315 OA 
ENDBRANCH  15  20
ENDBRANCH  14  15
ENDBRANCH   2  14
TORSDOF 8
ENDMDL
MODEL      279
REMARK 921   NORMALIZED FREE ENERGY PREDICTED BY IDOCK:   -3.13 KCAL/MOL
REMARK 922        TOTAL FREE ENERGY PREDICTED BY IDOCK:   -5.93 KCAL/MOL
REMARK 923 INTER-LIGAND FREE ENERGY PREDICTED BY IDOCK:   -5.95 KCAL/MOL
REMARK 924 INTRA-LIGAND FREE ENERGY PREDICTED BY IDOCK:    0.02 KCAL/MOL
REMARK 927      BINDING AFFINITY PREDICTED BY RF-SCORE:    0.00 PKD
ROOT
HETATM    1  O   UNL     1      -8.433  15.514  66.151  1.00  0.00    -0.395 OA 
HETATM    2  C   UNL     1      -9.787  15.512  66.617  1.00  0.00    -0.254 C  
HETATM    3  H   UNL     1      -8.149  16.409  66.003  1.00  0.00     0.000 HD 
ENDROOT
BRANCH   2   4
HETATM    4  C   UNL     1      -9.850  16.360  67.912  1.00  0.00    -0.238 C  
BRANCH   4   5
HETATM    5  N   UNL     1      -9.189  17.716  67.862  1.00  0.00    -0.262 NA 
BRANCH   5   6
HETATM    6  C   UNL     1      -9.260  18.213  66.438  1.00  0.00    -0.255 C  
HETATM    7  O   UNL     1     -10.602  19.995  67.346  1.00  0.00    -0.386 OA 
HETATM    8  C   UNL     1     -10.358  19.256  66.239  1.00  0.00    -0.480 C  
HETATM    9  O   UNL     1     -10.945  19.430  65.183  1.00  0.00    -0.430 OA 
ENDBRANCH   5   6
BRANCH   5  10
HETATM   10  C   UNL     1      -7.736  17.554  68.220  1.00  0.00    -0.247 C  
HETATM   11  O   UNL     1      -7.990  19.652  69.362  1.00  0.00    -0.208 OA 
HETATM   12  O   UNL     1      -5.920  19.132  68.598  1.00  0.00    -0.210 OA 
HETATM   13  C   UNL     1      -7.105  18.856  68.718  1.00  0.00    -0.311 C  
ENDBRANCH   5  10
ENDBRANCH   4   5
ENDBRANCH   2   4
BRANCH   2  14
HETATM   14  C   UNL     1     -10.252  14.044  66.861  1.00  0.00    -0.260 C  
BRANCH  14  15
HETATM   15  N   UNL     1      -9.770  13.358  68.112  1.00  0.00    -0.222 NA 
BRANCH  15  16
HETATM   16  C   UNL     1     -10.780  12.296  68.481  1.00  0.00    -0.237 C  
HETATM   17  C   UNL     1     -11.565  12.637  69.743  1.00  0.00    -0.214 C  
HETATM   18  O   UNL     1     -11.714  13.975  69.922  1.00  0.00    -0.281 OA 
HETATM   19  O   UNL     1     -12.065  11.808  70.485  1.00  0.00    -0.363 OA 
ENDBRANCH  15  16
BRANCH  15  20
HETATM   20  C   UNL     1      -8.479  12.626  67.779  1.00  0.00    -0.172 C  
HETATM   21  C   UNL     1      -7.226  13.470  68.015  1.00  0.00    -0.125 C  
HETATM   22  O   UNL     1      -7.379  14.394  68.993  1.00  0.00    -0.123 OA 
HETATM   23  O   UNL     1      -6.173  13.301  67.425  1.00  0.00    -0.277 OA 
ENDBRANCH  15  20
ENDBRANCH  14  15
ENDBRANCH   2  14
TORSDOF 8
ENDMDL
MODEL      280
REMARK 921   NORMALIZED FREE ENERGY PREDICTED BY IDOCK:   -3.13 KCAL/MOL
REMARK 922        TOTAL FREE ENERGY PREDICTED BY IDOCK:   -5.93 KCAL/MOL
REMARK 923 INTER-LIGAND FREE ENERGY PREDICTED BY IDOCK:   -4.92 KCAL/MOL
REMARK 924 INTRA-LIGAND FREE ENERGY PREDICTED BY IDOCK:   -1.00 KCAL/MOL
REMARK 927      BINDING AFFINITY PREDICTED BY RF-SCORE:    0.00 PKD
ROOT
HETATM    1  O   UNL     1      -7.101   8.319  69.731  1.00  0.00    -0.054 OA 
HETATM    2  C   UNL     1      -8.363   8.991  69.822  1.00  0.00    -0.129 C  
HETATM    3  H   UNL     1      -6.733   8.451  68.865  1.00  0.00     0.000 HD 
ENDROOT
BRANCH   2   4
HETATM    4  C   UNL     1      -8.130  10.492  69.517  1.00  0.00    -0.094 C  
BRANCH   4   5
HETATM    5  N   UNL     1      -9.101  11.144  68.562  1.00  0.00    -0.171 NA 
BRANCH   5   6
HETATM    6  C   UNL     1      -9.247  10.239  67.362  1.00  0.00    -0.141 C  
HETATM    7  O   UNL     1     -11.613  10.419  67.776  1.00  0.00    -0.405 OA 
HETATM    8  C   UNL     1     -10.643   9.628  67.261  1.00  0.00    -0.247 C  
HETATM    9  O   UNL     1     -10.874   8.546  66.744  1.00  0.00    -0.153 OA 
ENDBRANCH   5   6
BRANCH   5  10
HETATM   10  C   UNL     1      -8.507  12.444  68.088  1.00  0.00    -0.180 C  
HETATM   11  O   UNL     1     -10.660  13.380  68.593  1.00  0.00    -0.245 OA 
HETATM   12  O   UNL     1      -9.438  14.403  66.981  1.00  0.00    -0.229 OA 
HETATM   13  C   UNL     1      -9.571  13.504  67.800  1.00  0.00    -0.219 C  
ENDBRANCH   5  10
ENDBRANCH   4   5
ENDBRANCH   2   4
BRANCH   2  14
HETATM   14  C   UNL     1      -8.968   8.773  71.243  1.00  0.00    -0.231 C  
BRANCH  14  15
HETATM   15  N   UNL     1     -10.101   7.789  71.375  1.00  0.00    -0.181 NA 
BRANCH  15  16
HETATM   16  C   UNL     1      -9.520   6.469  71.828  1.00  0.00    -0.152 C  
HETATM   17  C   UNL     1     -10.022   5.287  71.005  1.00  0.00    -0.201 C  
HETATM   18  O   UNL     1     -10.320   5.629  69.725  1.00  0.00    -0.229 OA 
HETATM   19  O   UNL     1     -10.091   4.142  71.421  1.00  0.00    -0.173 OA 
ENDBRANCH  15  16
BRANCH  15  20
HETATM   20  C   UNL     1     -11.010   8.267  72.496  1.00  0.00    -0.354 C  
HETATM   21  C   UNL     1     -12.482   8.341  72.093  1.00  0.00    -0.352 C  
HETATM   22  O   UNL     1     -12.818   7.449  71.130  1.00  0.00    -0.326 OA 
HETATM   23  O   UNL     1     -13.293   9.085  72.615  1.00  0.00    -0.458 OA 
ENDBRANCH  15  20
ENDBRANCH  14  15
ENDBRANCH   2  14
TORSDOF 8
ENDMDL
MODEL      281
REMARK 921   NORMALIZED FREE ENERGY PREDICTED BY IDOCK:   -3.11 KCAL/MOL
REMARK 922        TOTAL FREE ENERGY PREDICTED BY IDOCK:   -5.90 KCAL/MOL
REMARK 923 INTER-LIGAND FREE ENERGY PREDICTED BY IDOCK:   -4.68 KCAL/MOL
REMARK 924 INTRA-LIGAND FREE ENERGY PREDICTED BY IDOCK:   -1.22 KCAL/MOL
REMARK 927      BINDING AFFINITY PREDICTED BY RF-SCORE:    0.00 PKD
ROOT
HETATM    1  O   UNL     1     -10.705   7.728  68.473  1.00  0.00    -0.359 OA 
HETATM    2  C   UNL     1     -10.538   6.882  69.617  1.00  0.00    -0.231 C  
HETATM    3  H   UNL     1     -10.001   7.568  67.854  1.00  0.00     0.000 HD 
ENDROOT
BRANCH   2   4
HETATM    4  C   UNL     1     -10.521   5.412  69.129  1.00  0.00    -0.207 C  
BRANCH   4   5
HETATM    5  N   UNL     1      -9.396   4.545  69.641  1.00  0.00    -0.134 NA 
BRANCH   5   6
HETATM    6  C   UNL     1      -9.357   3.292  68.799  1.00  0.00    -0.168 C  
HETATM    7  O   UNL     1      -7.136   4.011  68.207  1.00  0.00    -0.053 OA 
HETATM    8  C   UNL     1      -8.213   3.307  67.787  1.00  0.00    -0.080 C  
HETATM    9  O   UNL     1      -8.248   2.723  66.715  1.00  0.00    -0.082 OA 
ENDBRANCH   5   6
BRANCH   5  10
HETATM   10  C   UNL     1      -9.712   4.138  71.056  1.00  0.00    -0.190 C  
HETATM   11  O   UNL     1      -7.491   4.900  71.559  1.00  0.00    -0.077 OA 
HETATM   12  O   UNL     1      -8.359   3.286  72.893  1.00  0.00    -0.078 OA 
HETATM   13  C   UNL     1      -8.461   4.033  71.930  1.00  0.00    -0.099 C  
ENDBRANCH   5  10
ENDBRANCH   4   5
ENDBRANCH   2   4
BRANCH   2  14
HETATM   14  C   UNL     1     -11.692   7.145  70.632  1.00  0.00    -0.307 C  
BRANCH  14  15
HETATM   15  N   UNL     1     -11.358   7.912  71.885  1.00  0.00    -0.262 NA 
BRANCH  15  16
HETATM   16  C   UNL     1      -9.882   7.735  72.159  1.00  0.00    -0.187 C  
HETATM   17  C   UNL     1      -9.593   7.308  73.594  1.00  0.00    -0.269 C  
HETATM   18  O   UNL     1     -10.597   6.570  74.134  1.00  0.00    -0.293 OA 
HETATM   19  O   UNL     1      -8.550   7.542  74.183  1.00  0.00    -0.194 OA 
ENDBRANCH  15  16
BRANCH  15  20
HETATM   20  C   UNL     1     -11.569   9.390  71.601  1.00  0.00    -0.396 C  
HETATM   21  C   UNL     1     -12.989   9.869  71.903  1.00  0.00    -0.448 C  
HETATM   22  O   UNL     1     -13.595   9.160  72.885  1.00  0.00    -0.348 OA 
HETATM   23  O   UNL     1     -13.513  10.825  71.358  1.00  0.00    -0.216 OA 
ENDBRANCH  15  20
ENDBRANCH  14  15
ENDBRANCH   2  14
TORSDOF 8
ENDMDL
MODEL      282
REMARK 921   NORMALIZED FREE ENERGY PREDICTED BY IDOCK:   -3.11 KCAL/MOL
REMARK 922        TOTAL FREE ENERGY PREDICTED BY IDOCK:   -5.90 KCAL/MOL
REMARK 923 INTER-LIGAND FREE ENERGY PREDICTED BY IDOCK:   -6.56 KCAL/MOL
REMARK 924 INTRA-LIGAND FREE ENERGY PREDICTED BY IDOCK:    0.66 KCAL/MOL
REMARK 927      BINDING AFFINITY PREDICTED BY RF-SCORE:    0.00 PKD
ROOT
HETATM    1  O   UNL     1      -9.945  15.075  64.359  1.00  0.00    -0.292 OA 
HETATM    2  C   UNL     1     -10.098  15.374  65.751  1.00  0.00    -0.363 C  
HETATM    3  H   UNL     1      -9.645  14.179  64.258  1.00  0.00     0.000 HD 
ENDROOT
BRANCH   2   4
HETATM    4  C   UNL     1     -11.100  14.358  66.354  1.00  0.00    -0.326 C  
BRANCH   4   5
HETATM    5  N   UNL     1     -10.816  12.898  66.095  1.00  0.00    -0.276 NA 
BRANCH   5   6
HETATM    6  C   UNL     1     -12.073  12.273  65.540  1.00  0.00    -0.257 C  
HETATM    7  O   UNL     1     -10.874  12.219  63.452  1.00  0.00    -0.449 OA 
HETATM    8  C   UNL     1     -12.104  12.286  64.013  1.00  0.00    -0.471 C  
HETATM    9  O   UNL     1     -13.132  12.326  63.356  1.00  0.00    -0.727 OA 
ENDBRANCH   5   6
BRANCH   5  10
HETATM   10  C   UNL     1     -10.512  12.229  67.410  1.00  0.00    -0.210 C  
HETATM   11  O   UNL     1      -8.838  11.023  66.181  1.00  0.00    -0.179 OA 
HETATM   12  O   UNL     1      -9.710  10.010  68.012  1.00  0.00    -0.138 OA 
HETATM   13  C   UNL     1      -9.674  10.961  67.243  1.00  0.00    -0.165 C  
ENDBRANCH   5  10
ENDBRANCH   4   5
ENDBRANCH   2   4
BRANCH   2  14
HETATM   14  C   UNL     1     -10.591  16.845  65.918  1.00  0.00    -0.233 C  
BRANCH  14  15
HETATM   15  N   UNL     1      -9.725  17.784  66.717  1.00  0.00    -0.295 NA 
BRANCH  15  16
HETATM   16  C   UNL     1     -10.380  17.986  68.064  1.00  0.00    -0.387 C  
HETATM   17  C   UNL     1     -10.082  16.856  69.044  1.00  0.00    -0.292 C  
HETATM   18  O   UNL     1      -8.873  16.278  68.825  1.00  0.00    -0.219 OA 
HETATM   19  O   UNL     1     -10.813  16.540  69.969  1.00  0.00    -0.344 OA 
ENDBRANCH  15  16
BRANCH  15  20
HETATM   20  C   UNL     1      -8.399  17.089  66.983  1.00  0.00    -0.203 C  
HETATM   21  C   UNL     1      -7.211  17.773  66.307  1.00  0.00    -0.296 C  
HETATM   22  O   UNL     1      -7.384  19.106  66.141  1.00  0.00    -0.249 OA 
HETATM   23  O   UNL     1      -6.184  17.196  65.993  1.00  0.00    -0.187 OA 
ENDBRANCH  15  20
ENDBRANCH  14  15
ENDBRANCH   2  14
TORSDOF 8
ENDMDL
MODEL      283
REMARK 921   NORMALIZED FREE ENERGY PREDICTED BY IDOCK:   -3.09 KCAL/MOL
REMARK 922        TOTAL FREE ENERGY PREDICTED BY IDOCK:   -5.87 KCAL/MOL
REMARK 923 INTER-LIGAND FREE ENERGY PREDICTED BY IDOCK:   -4.54 KCAL/MOL
REMARK 924 INTRA-LIGAND FREE ENERGY PREDICTED BY IDOCK:   -1.32 KCAL/MOL
REMARK 927      BINDING AFFINITY PREDICTED BY RF-SCORE:    0.00 PKD
ROOT
HETATM    1  O   UNL     1      -6.633   8.701  66.674  1.00  0.00    -0.059 OA 
HETATM    2  C   UNL     1      -7.608   8.775  67.721  1.00  0.00    -0.097 C  
HETATM    3  H   UNL     1      -5.792   8.455  67.040  1.00  0.00     0.000 HD 
ENDROOT
BRANCH   2   4
HETATM    4  C   UNL     1      -7.665   7.394  68.422  1.00  0.00    -0.120 C  
BRANCH   4   5
HETATM    5  N   UNL     1      -8.505   6.334  67.752  1.00  0.00    -0.117 NA 
BRANCH   5   6
HETATM    6  C   UNL     1      -9.374   5.696  68.810  1.00  0.00    -0.123 C  
HETATM    7  O   UNL     1     -11.218   6.495  67.482  1.00  0.00    -0.343 OA 
HETATM    8  C   UNL     1     -10.824   6.169  68.736  1.00  0.00    -0.336 C  
HETATM    9  O   UNL     1     -11.570   6.225  69.700  1.00  0.00    -0.430 OA 
ENDBRANCH   5   6
BRANCH   5  10
HETATM   10  C   UNL     1      -7.589   5.270  67.207  1.00  0.00    -0.092 C  
HETATM   11  O   UNL     1      -9.021   5.307  65.279  1.00  0.00    -0.160 OA 
HETATM   12  O   UNL     1      -7.928   3.371  65.721  1.00  0.00    -0.091 OA 
HETATM   13  C   UNL     1      -8.196   4.528  66.015  1.00  0.00    -0.110 C  
ENDBRANCH   5  10
ENDBRANCH   4   5
ENDBRANCH   2   4
BRANCH   2  14
HETATM   14  C   UNL     1      -8.989   9.180  67.120  1.00  0.00    -0.123 C  
BRANCH  14  15
HETATM   15  N   UNL     1      -9.676  10.388  67.702  1.00  0.00    -0.166 NA 
BRANCH  15  16
HETATM   16  C   UNL     1     -10.551   9.921  68.843  1.00  0.00    -0.218 C  
HETATM   17  C   UNL     1     -11.690  10.887  69.150  1.00  0.00    -0.326 C  
HETATM   18  O   UNL     1     -12.108  11.569  68.053  1.00  0.00    -0.617 OA 
HETATM   19  O   UNL     1     -12.220  10.997  70.244  1.00  0.00    -0.312 OA 
ENDBRANCH  15  16
BRANCH  15  20
HETATM   20  C   UNL     1      -8.611  11.283  68.315  1.00  0.00    -0.153 C  
HETATM   21  C   UNL     1      -8.334  12.544  67.496  1.00  0.00    -0.175 C  
HETATM   22  O   UNL     1      -9.408  12.966  66.786  1.00  0.00    -0.232 OA 
HETATM   23  O   UNL     1      -7.276  13.147  67.514  1.00  0.00    -0.146 OA 
ENDBRANCH  15  20
ENDBRANCH  14  15
ENDBRANCH   2  14
TORSDOF 8
ENDMDL
MODEL      284
REMARK 921   NORMALIZED FREE ENERGY PREDICTED BY IDOCK:   -3.07 KCAL/MOL
REMARK 922        TOTAL FREE ENERGY PREDICTED BY IDOCK:   -5.84 KCAL/MOL
REMARK 923 INTER-LIGAND FREE ENERGY PREDICTED BY IDOCK:   -4.99 KCAL/MOL
REMARK 924 INTRA-LIGAND FREE ENERGY PREDICTED BY IDOCK:   -0.85 KCAL/MOL
REMARK 927      BINDING AFFINITY PREDICTED BY RF-SCORE:    0.00 PKD
ROOT
HETATM    1  O   UNL     1      -9.811   6.781  69.012  1.00  0.00    -0.147 OA 
HETATM    2  C   UNL     1     -10.507   8.027  69.127  1.00  0.00    -0.208 C  
HETATM    3  H   UNL     1      -9.495   6.675  68.123  1.00  0.00     0.000 HD 
ENDROOT
BRANCH   2   4
HETATM    4  C   UNL     1      -9.531   9.161  68.723  1.00  0.00    -0.147 C  
BRANCH   4   5
HETATM    5  N   UNL     1     -10.037  10.155  67.706  1.00  0.00    -0.171 NA 
BRANCH   5   6
HETATM    6  C   UNL     1      -9.070  10.164  66.546  1.00  0.00    -0.144 C  
HETATM    7  O   UNL     1     -10.904  11.092  65.292  1.00  0.00    -0.242 OA 
HETATM    8  C   UNL     1      -9.771  10.357  65.204  1.00  0.00    -0.291 C  
HETATM    9  O   UNL     1      -9.346   9.918  64.147  1.00  0.00    -0.266 OA 
ENDBRANCH   5   6
BRANCH   5  10
HETATM   10  C   UNL     1     -10.022  11.526  68.328  1.00  0.00    -0.202 C  
HETATM   11  O   UNL     1     -12.380  11.191  68.639  1.00  0.00    -0.549 OA 
HETATM   12  O   UNL     1     -11.655  13.330  68.440  1.00  0.00    -0.292 OA 
HETATM   13  C   UNL     1     -11.422  12.129  68.453  1.00  0.00    -0.304 C  
ENDBRANCH   5  10
ENDBRANCH   4   5
ENDBRANCH   2   4
BRANCH   2  14
HETATM   14  C   UNL     1     -11.027   8.202  70.587  1.00  0.00    -0.244 C  
BRANCH  14  15
HETATM   15  N   UNL     1     -10.256   7.521  71.688  1.00  0.00    -0.185 NA 
BRANCH  15  16
HETATM   16  C   UNL     1      -9.436   8.573  72.400  1.00  0.00    -0.280 C  
HETATM   17  C   UNL     1      -8.098   8.042  72.902  1.00  0.00    -0.161 C  
HETATM   18  O   UNL     1      -7.608   7.040  72.126  1.00  0.00    -0.089 OA 
HETATM   19  O   UNL     1      -7.491   8.501  73.856  1.00  0.00    -0.321 OA 
ENDBRANCH  15  16
BRANCH  15  20
HETATM   20  C   UNL     1     -11.256   6.993  72.704  1.00  0.00    -0.272 C  
HETATM   21  C   UNL     1     -11.395   5.471  72.683  1.00  0.00    -0.291 C  
HETATM   22  O   UNL     1     -10.267   4.836  72.281  1.00  0.00    -0.181 OA 
HETATM   23  O   UNL     1     -12.396   4.876  73.039  1.00  0.00    -0.005 OA 
ENDBRANCH  15  20
ENDBRANCH  14  15
ENDBRANCH   2  14
TORSDOF 8
ENDMDL
MODEL      285
REMARK 921   NORMALIZED FREE ENERGY PREDICTED BY IDOCK:   -3.06 KCAL/MOL
REMARK 922        TOTAL FREE ENERGY PREDICTED BY IDOCK:   -5.83 KCAL/MOL
REMARK 923 INTER-LIGAND FREE ENERGY PREDICTED BY IDOCK:   -6.65 KCAL/MOL
REMARK 924 INTRA-LIGAND FREE ENERGY PREDICTED BY IDOCK:    0.82 KCAL/MOL
REMARK 927      BINDING AFFINITY PREDICTED BY RF-SCORE:    0.00 PKD
ROOT
HETATM    1  O   UNL     1      -9.068  14.652  69.133  1.00  0.00    -0.337 OA 
HETATM    2  C   UNL     1      -9.922  13.959  68.216  1.00  0.00    -0.238 C  
HETATM    3  H   UNL     1      -8.426  14.048  69.486  1.00  0.00     0.000 HD 
ENDROOT
BRANCH   2   4
HETATM    4  C   UNL     1      -9.035  13.343  67.104  1.00  0.00    -0.226 C  
BRANCH   4   5
HETATM    5  N   UNL     1      -8.964  11.836  67.057  1.00  0.00    -0.180 NA 
BRANCH   5   6
HETATM    6  C   UNL     1     -10.087  11.348  66.172  1.00  0.00    -0.231 C  
HETATM    7  O   UNL     1      -8.328  10.619  64.697  1.00  0.00    -0.149 OA 
HETATM    8  C   UNL     1      -9.616  11.033  64.755  1.00  0.00    -0.248 C  
HETATM    9  O   UNL     1     -10.330  11.118  63.768  1.00  0.00    -0.333 OA 
ENDBRANCH   5   6
BRANCH   5  10
HETATM   10  C   UNL     1      -9.206  11.301  68.444  1.00  0.00    -0.178 C  
HETATM   11  O   UNL     1      -6.824  10.998  68.525  1.00  0.00    -0.059 OA 
HETATM   12  O   UNL     1      -8.088   9.621  69.807  1.00  0.00    -0.119 OA 
HETATM   13  C   UNL     1      -8.004  10.530  68.993  1.00  0.00    -0.136 C  
ENDBRANCH   5  10
ENDBRANCH   4   5
ENDBRANCH   2   4
BRANCH   2  14
HETATM   14  C   UNL     1     -10.978  14.949  67.635  1.00  0.00    -0.300 C  
BRANCH  14  15
HETATM   15  N   UNL     1     -10.663  15.609  66.318  1.00  0.00    -0.309 NA 
BRANCH  15  16
HETATM   16  C   UNL     1      -9.167  15.811  66.244  1.00  0.00    -0.333 C  
HETATM   17  C   UNL     1      -8.767  17.283  66.231  1.00  0.00    -0.224 C  
HETATM   18  O   UNL     1      -9.645  18.070  66.906  1.00  0.00    -0.275 OA 
HETATM   19  O   UNL     1      -7.741  17.711  65.730  1.00  0.00    -0.540 OA 
ENDBRANCH  15  16
BRANCH  15  20
HETATM   20  C   UNL     1     -11.021  14.635  65.207  1.00  0.00    -0.367 C  
HETATM   21  C   UNL     1     -11.929  15.242  64.137  1.00  0.00    -0.130 C  
HETATM   22  O   UNL     1     -11.764  16.579  63.992  1.00  0.00    -1.111 OA 
HETATM   23  O   UNL     1     -12.689  14.590  63.443  1.00  0.00    -0.627 OA 
ENDBRANCH  15  20
ENDBRANCH  14  15
ENDBRANCH   2  14
TORSDOF 8
ENDMDL
MODEL      286
REMARK 921   NORMALIZED FREE ENERGY PREDICTED BY IDOCK:   -3.05 KCAL/MOL
REMARK 922        TOTAL FREE ENERGY PREDICTED BY IDOCK:   -5.81 KCAL/MOL
REMARK 923 INTER-LIGAND FREE ENERGY PREDICTED BY IDOCK:   -6.36 KCAL/MOL
REMARK 924 INTRA-LIGAND FREE ENERGY PREDICTED BY IDOCK:    0.55 KCAL/MOL
REMARK 927      BINDING AFFINITY PREDICTED BY RF-SCORE:    0.00 PKD
ROOT
HETATM    1  O   UNL     1      -9.431  17.322  65.585  1.00  0.00    -0.515 OA 
HETATM    2  C   UNL     1      -9.992  16.286  66.399  1.00  0.00    -0.300 C  
HETATM    3  H   UNL     1      -9.736  18.168  65.892  1.00  0.00     0.000 HD 
ENDROOT
BRANCH   2   4
HETATM    4  C   UNL     1      -9.577  16.553  67.868  1.00  0.00    -0.233 C  
BRANCH   4   5
HETATM    5  N   UNL     1      -8.099  16.708  68.133  1.00  0.00    -0.180 NA 
BRANCH   5   6
HETATM    6  C   UNL     1      -7.725  18.142  67.843  1.00  0.00    -0.235 C  
HETATM    7  O   UNL     1      -6.243  17.919  69.728  1.00  0.00    -0.243 OA 
HETATM    8  C   UNL     1      -6.977  18.795  69.003  1.00  0.00    -0.295 C  
HETATM    9  O   UNL     1      -7.012  19.991  69.244  1.00  0.00    -0.297 OA 
ENDBRANCH   5   6
BRANCH   5  10
HETATM   10  C   UNL     1      -7.345  15.832  67.167  1.00  0.00    -0.222 C  
HETATM   11  O   UNL     1      -6.865  14.472  69.088  1.00  0.00    -0.108 OA 
HETATM   12  O   UNL     1      -5.374  14.417  67.380  1.00  0.00    -0.334 OA 
HETATM   13  C   UNL     1      -6.405  14.854  67.874  1.00  0.00    -0.159 C  
ENDBRANCH   5  10
ENDBRANCH   4   5
ENDBRANCH   2   4
BRANCH   2  14
HETATM   14  C   UNL     1      -9.490  14.898  65.896  1.00  0.00    -0.254 C  
BRANCH  14  15
HETATM   15  N   UNL     1     -10.329  13.691  66.229  1.00  0.00    -0.287 NA 
BRANCH  15  16
HETATM   16  C   UNL     1     -11.052  13.266  64.971  1.00  0.00    -0.309 C  
HETATM   17  C   UNL     1     -12.563  13.170  65.160  1.00  0.00    -0.465 C  
HETATM   18  O   UNL     1     -13.031  14.039  66.093  1.00  0.00    -0.302 OA 
HETATM   19  O   UNL     1     -13.291  12.443  64.505  1.00  0.00    -0.800 OA 
ENDBRANCH  15  16
BRANCH  15  20
HETATM   20  C   UNL     1      -9.390  12.552  66.591  1.00  0.00    -0.236 C  
HETATM   21  C   UNL     1      -9.501  12.116  68.052  1.00  0.00    -0.201 C  
HETATM   22  O   UNL     1     -10.732  12.322  68.579  1.00  0.00    -0.223 OA 
HETATM   23  O   UNL     1      -8.597  11.586  68.673  1.00  0.00    -0.158 OA 
ENDBRANCH  15  20
ENDBRANCH  14  15
ENDBRANCH   2  14
TORSDOF 8
ENDMDL
MODEL      287
REMARK 921   NORMALIZED FREE ENERGY PREDICTED BY IDOCK:   -3.05 KCAL/MOL
REMARK 922        TOTAL FREE ENERGY PREDICTED BY IDOCK:   -5.80 KCAL/MOL
REMARK 923 INTER-LIGAND FREE ENERGY PREDICTED BY IDOCK:   -4.71 KCAL/MOL
REMARK 924 INTRA-LIGAND FREE ENERGY PREDICTED BY IDOCK:   -1.10 KCAL/MOL
REMARK 927      BINDING AFFINITY PREDICTED BY RF-SCORE:    0.00 PKD
ROOT
HETATM    1  O   UNL     1      -6.626   7.911  69.898  1.00  0.00    -0.036 OA 
HETATM    2  C   UNL     1      -7.828   8.381  69.276  1.00  0.00    -0.104 C  
HETATM    3  H   UNL     1      -6.227   7.242  69.353  1.00  0.00     0.000 HD 
ENDROOT
BRANCH   2   4
HETATM    4  C   UNL     1      -7.462   8.922  67.871  1.00  0.00    -0.092 C  
BRANCH   4   5
HETATM    5  N   UNL     1      -8.376   8.524  66.737  1.00  0.00    -0.108 NA 
BRANCH   5   6
HETATM    6  C   UNL     1      -8.034   7.107  66.343  1.00  0.00    -0.112 C  
HETATM    7  O   UNL     1     -10.403   6.708  66.521  1.00  0.00    -0.154 OA 
HETATM    8  C   UNL     1      -9.179   6.135  66.615  1.00  0.00    -0.144 C  
HETATM    9  O   UNL     1      -9.019   4.951  66.868  1.00  0.00    -0.110 OA 
ENDBRANCH   5   6
BRANCH   5  10
HETATM   10  C   UNL     1      -8.088   9.412  65.556  1.00  0.00    -0.116 C  
HETATM   11  O   UNL     1     -10.408  10.017  65.699  1.00  0.00    -0.233 OA 
HETATM   12  O   UNL     1      -9.423  10.163  63.663  1.00  0.00    -0.282 OA 
HETATM   13  C   UNL     1      -9.361   9.884  64.852  1.00  0.00    -0.268 C  
ENDBRANCH   5  10
ENDBRANCH   4   5
ENDBRANCH   2   4
BRANCH   2  14
HETATM   14  C   UNL     1      -8.482   9.479  70.170  1.00  0.00    -0.205 C  
BRANCH  14  15
HETATM   15  N   UNL     1      -9.971   9.675  70.055  1.00  0.00    -0.232 NA 
BRANCH  15  16
HETATM   16  C   UNL     1     -10.220  10.771  69.044  1.00  0.00    -0.213 C  
HETATM   17  C   UNL     1     -11.675  11.225  69.006  1.00  0.00    -0.342 C  
HETATM   18  O   UNL     1     -12.296  11.093  70.207  1.00  0.00    -0.309 OA 
HETATM   19  O   UNL     1     -12.216  11.714  68.029  1.00  0.00    -0.551 OA 
ENDBRANCH  15  16
BRANCH  15  20
HETATM   20  C   UNL     1     -10.568   8.406  69.468  1.00  0.00    -0.213 C  
HETATM   21  C   UNL     1     -11.266   7.528  70.508  1.00  0.00    -0.269 C  
HETATM   22  O   UNL     1     -11.774   8.232  71.548  1.00  0.00    -0.271 OA 
HETATM   23  O   UNL     1     -11.404   6.323  70.396  1.00  0.00    -0.345 OA 
ENDBRANCH  15  20
ENDBRANCH  14  15
ENDBRANCH   2  14
TORSDOF 8
ENDMDL
MODEL      288
REMARK 921   NORMALIZED FREE ENERGY PREDICTED BY IDOCK:   -3.04 KCAL/MOL
REMARK 922        TOTAL FREE ENERGY PREDICTED BY IDOCK:   -5.79 KCAL/MOL
REMARK 923 INTER-LIGAND FREE ENERGY PREDICTED BY IDOCK:   -4.55 KCAL/MOL
REMARK 924 INTRA-LIGAND FREE ENERGY PREDICTED BY IDOCK:   -1.24 KCAL/MOL
REMARK 927      BINDING AFFINITY PREDICTED BY RF-SCORE:    0.00 PKD
ROOT
HETATM    1  O   UNL     1      -7.525   8.422  67.681  1.00  0.00    -0.091 OA 
HETATM    2  C   UNL     1      -7.391   8.709  69.078  1.00  0.00    -0.077 C  
HETATM    3  H   UNL     1      -7.114   7.588  67.487  1.00  0.00     0.000 HD 
ENDROOT
BRANCH   2   4
HETATM    4  C   UNL     1      -8.041   7.547  69.871  1.00  0.00    -0.129 C  
BRANCH   4   5
HETATM    5  N   UNL     1      -9.444   7.158  69.468  1.00  0.00    -0.151 NA 
BRANCH   5   6
HETATM    6  C   UNL     1     -10.139   6.606  70.689  1.00  0.00    -0.184 C  
HETATM    7  O   UNL     1     -11.528   8.567  70.530  1.00  0.00    -0.260 OA 
HETATM    8  C   UNL     1     -11.017   7.646  71.381  1.00  0.00    -0.231 C  
HETATM    9  O   UNL     1     -11.260   7.642  72.577  1.00  0.00    -0.293 OA 
ENDBRANCH   5   6
BRANCH   5  10
HETATM   10  C   UNL     1      -9.360   6.055  68.447  1.00  0.00    -0.119 C  
HETATM   11  O   UNL     1     -10.766   7.464  67.103  1.00  0.00    -0.323 OA 
HETATM   12  O   UNL     1     -10.896   5.229  66.747  1.00  0.00    -0.232 OA 
HETATM   13  C   UNL     1     -10.429   6.179  67.360  1.00  0.00    -0.247 C  
ENDBRANCH   5  10
ENDBRANCH   4   5
ENDBRANCH   2   4
BRANCH   2  14
HETATM   14  C   UNL     1      -8.066  10.078  69.396  1.00  0.00    -0.149 C  
BRANCH  14  15
HETATM   15  N   UNL     1      -8.789  10.777  68.275  1.00  0.00    -0.133 NA 
BRANCH  15  16
HETATM   16  C   UNL     1     -10.172  11.138  68.766  1.00  0.00    -0.206 C  
HETATM   17  C   UNL     1     -11.169  11.347  67.630  1.00  0.00    -0.283 C  
HETATM   18  O   UNL     1     -10.883  10.593  66.537  1.00  0.00    -0.199 OA 
HETATM   19  O   UNL     1     -12.156  12.061  67.706  1.00  0.00    -0.537 OA 
ENDBRANCH  15  16
BRANCH  15  20
HETATM   20  C   UNL     1      -8.073  12.090  68.000  1.00  0.00    -0.153 C  
HETATM   21  C   UNL     1      -6.864  11.941  67.077  1.00  0.00    -0.122 C  
HETATM   22  O   UNL     1      -6.980  10.908  66.207  1.00  0.00    -0.130 OA 
HETATM   23  O   UNL     1      -5.911  12.700  67.078  1.00  0.00    -0.301 OA 
ENDBRANCH  15  20
ENDBRANCH  14  15
ENDBRANCH   2  14
TORSDOF 8
ENDMDL
MODEL      289
REMARK 921   NORMALIZED FREE ENERGY PREDICTED BY IDOCK:   -3.03 KCAL/MOL
REMARK 922        TOTAL FREE ENERGY PREDICTED BY IDOCK:   -5.78 KCAL/MOL
REMARK 923 INTER-LIGAND FREE ENERGY PREDICTED BY IDOCK:   -6.30 KCAL/MOL
REMARK 924 INTRA-LIGAND FREE ENERGY PREDICTED BY IDOCK:    0.52 KCAL/MOL
REMARK 927      BINDING AFFINITY PREDICTED BY RF-SCORE:    0.00 PKD
ROOT
HETATM    1  O   UNL     1      -9.251  11.662  68.962  1.00  0.00    -0.393 OA 
HETATM    2  C   UNL     1     -10.641  11.314  68.957  1.00  0.00    -0.208 C  
HETATM    3  H   UNL     1      -8.812  11.205  69.670  1.00  0.00     0.000 HD 
ENDROOT
BRANCH   2   4
HETATM    4  C   UNL     1     -10.750   9.776  68.808  1.00  0.00    -0.215 C  
BRANCH   4   5
HETATM    5  N   UNL     1     -10.835   8.980  70.088  1.00  0.00    -0.234 NA 
BRANCH   5   6
HETATM    6  C   UNL     1     -11.690   9.757  71.060  1.00  0.00    -0.370 C  
HETATM    7  O   UNL     1     -12.704   7.627  71.549  1.00  0.00    -0.327 OA 
HETATM    8  C   UNL     1     -12.910   8.965  71.524  1.00  0.00    -0.334 C  
HETATM    9  O   UNL     1     -13.963   9.480  71.866  1.00  0.00    -0.284 OA 
ENDBRANCH   5   6
BRANCH   5  10
HETATM   10  C   UNL     1      -9.454   8.870  70.677  1.00  0.00    -0.214 C  
HETATM   11  O   UNL     1      -9.820   6.498  70.584  1.00  0.00    -0.182 OA 
HETATM   12  O   UNL     1      -8.394   7.266  72.171  1.00  0.00    -0.104 OA 
HETATM   13  C   UNL     1      -9.167   7.481  71.248  1.00  0.00    -0.149 C  
ENDBRANCH   5  10
ENDBRANCH   4   5
ENDBRANCH   2   4
BRANCH   2  14
HETATM   14  C   UNL     1     -11.362  12.063  67.795  1.00  0.00    -0.303 C  
BRANCH  14  15
HETATM   15  N   UNL     1     -11.979  13.402  68.105  1.00  0.00    -0.348 NA 
BRANCH  15  16
HETATM   16  C   UNL     1     -11.018  14.165  68.987  1.00  0.00    -0.261 C  
HETATM   17  C   UNL     1     -11.721  14.966  70.078  1.00  0.00    -0.294 C  
HETATM   18  O   UNL     1     -12.886  14.394  70.478  1.00  0.00    -0.351 OA 
HETATM   19  O   UNL     1     -11.266  15.975  70.590  1.00  0.00    -0.354 OA 
ENDBRANCH  15  16
BRANCH  15  20
HETATM   20  C   UNL     1     -12.084  14.184  66.805  1.00  0.00    -0.442 C  
HETATM   21  C   UNL     1     -10.728  14.612  66.244  1.00  0.00    -0.316 C  
HETATM   22  O   UNL     1      -9.721  13.770  66.580  1.00  0.00    -0.271 OA 
HETATM   23  O   UNL     1     -10.567  15.580  65.522  1.00  0.00    -0.343 OA 
ENDBRANCH  15  20
ENDBRANCH  14  15
ENDBRANCH   2  14
TORSDOF 8
ENDMDL
MODEL      290
REMARK 921   NORMALIZED FREE ENERGY PREDICTED BY IDOCK:   -3.02 KCAL/MOL
REMARK 922        TOTAL FREE ENERGY PREDICTED BY IDOCK:   -5.77 KCAL/MOL
REMARK 923 INTER-LIGAND FREE ENERGY PREDICTED BY IDOCK:   -5.04 KCAL/MOL
REMARK 924 INTRA-LIGAND FREE ENERGY PREDICTED BY IDOCK:   -0.72 KCAL/MOL
REMARK 927      BINDING AFFINITY PREDICTED BY RF-SCORE:    0.00 PKD
ROOT
HETATM    1  O   UNL     1      -9.901   7.287  66.197  1.00  0.00    -0.430 OA 
HETATM    2  C   UNL     1      -9.891   8.419  67.074  1.00  0.00    -0.230 C  
HETATM    3  H   UNL     1      -9.361   6.597  66.563  1.00  0.00     0.000 HD 
ENDROOT
BRANCH   2   4
HETATM    4  C   UNL     1     -10.407   7.957  68.460  1.00  0.00    -0.200 C  
BRANCH   4   5
HETATM    5  N   UNL     1      -9.828   8.661  69.663  1.00  0.00    -0.183 NA 
BRANCH   5   6
HETATM    6  C   UNL     1     -10.963   8.963  70.613  1.00  0.00    -0.241 C  
HETATM    7  O   UNL     1      -9.380   8.425  72.346  1.00  0.00    -0.242 OA 
HETATM    8  C   UNL     1     -10.694   8.445  72.024  1.00  0.00    -0.317 C  
HETATM    9  O   UNL     1     -11.573   8.106  72.801  1.00  0.00    -0.411 OA 
ENDBRANCH   5   6
BRANCH   5  10
HETATM   10  C   UNL     1      -9.244   9.974  69.214  1.00  0.00    -0.203 C  
HETATM   11  O   UNL     1      -7.129   8.839  69.319  1.00  0.00    -0.060 OA 
HETATM   12  O   UNL     1      -7.116  11.085  69.624  1.00  0.00    -0.133 OA 
HETATM   13  C   UNL     1      -7.731  10.046  69.428  1.00  0.00    -0.129 C  
ENDBRANCH   5  10
ENDBRANCH   4   5
ENDBRANCH   2   4
BRANCH   2  14
HETATM   14  C   UNL     1     -10.778   9.553  66.473  1.00  0.00     0.039 C  
BRANCH  14  15
HETATM   15  N   UNL     1     -10.151  10.454  65.441  1.00  0.00    -0.290 NA 
BRANCH  15  16
HETATM   16  C   UNL     1     -10.569  11.874  65.748  1.00  0.00    -0.267 C  
HETATM   17  C   UNL     1     -10.730  12.729  64.496  1.00  0.00    -0.358 C  
HETATM   18  O   UNL     1     -11.111  12.004  63.412  1.00  0.00    -0.410 OA 
HETATM   19  O   UNL     1     -10.599  13.942  64.471  1.00  0.00    -0.424 OA 
ENDBRANCH  15  16
BRANCH  15  20
HETATM   20  C   UNL     1      -8.643  10.400  65.623  1.00  0.00    -0.167 C  
HETATM   21  C   UNL     1      -7.910   9.779  64.434  1.00  0.00    -0.137 C  
HETATM   22  O   UNL     1      -8.557   9.954  63.256  1.00  0.00    -0.167 OA 
HETATM   23  O   UNL     1      -6.828   9.226  64.517  1.00  0.00    -0.085 OA 
ENDBRANCH  15  20
ENDBRANCH  14  15
ENDBRANCH   2  14
TORSDOF 8
ENDMDL
MODEL      291
REMARK 921   NORMALIZED FREE ENERGY PREDICTED BY IDOCK:   -3.02 KCAL/MOL
REMARK 922        TOTAL FREE ENERGY PREDICTED BY IDOCK:   -5.77 KCAL/MOL
REMARK 923 INTER-LIGAND FREE ENERGY PREDICTED BY IDOCK:   -5.47 KCAL/MOL
REMARK 924 INTRA-LIGAND FREE ENERGY PREDICTED BY IDOCK:   -0.30 KCAL/MOL
REMARK 927      BINDING AFFINITY PREDICTED BY RF-SCORE:    0.00 PKD
ROOT
HETATM    1  O   UNL     1     -12.445  10.741  68.843  1.00  0.00    -0.782 OA 
HETATM    2  C   UNL     1     -11.408  11.313  68.038  1.00  0.00    -0.304 C  
HETATM    3  H   UNL     1     -12.782   9.960  68.420  1.00  0.00     0.000 HD 
ENDROOT
BRANCH   2   4
HETATM    4  C   UNL     1     -10.306  10.241  67.842  1.00  0.00    -0.196 C  
BRANCH   4   5
HETATM    5  N   UNL     1      -8.895  10.749  67.674  1.00  0.00    -0.132 NA 
BRANCH   5   6
HETATM    6  C   UNL     1      -8.187   9.836  66.701  1.00  0.00    -0.120 C  
HETATM    7  O   UNL     1      -9.079  11.294  65.005  1.00  0.00    -0.173 OA 
HETATM    8  C   UNL     1      -8.666  10.031  65.265  1.00  0.00    -0.163 C  
HETATM    9  O   UNL     1      -8.657   9.149  64.421  1.00  0.00    -0.186 OA 
ENDBRANCH   5   6
BRANCH   5  10
HETATM   10  C   UNL     1      -8.188  10.646  68.999  1.00  0.00    -0.151 C  
HETATM   11  O   UNL     1      -7.902  13.023  68.804  1.00  0.00    -0.081 OA 
HETATM   12  O   UNL     1      -6.361  11.891  70.022  1.00  0.00    -0.144 OA 
HETATM   13  C   UNL     1      -7.366  11.895  69.324  1.00  0.00     0.094 C  
ENDBRANCH   5  10
ENDBRANCH   4   5
ENDBRANCH   2   4
BRANCH   2  14
HETATM   14  C   UNL     1     -10.855  12.594  68.734  1.00  0.00    -0.231 C  
BRANCH  14  15
HETATM   15  N   UNL     1     -11.446  13.919  68.327  1.00  0.00    -0.291 NA 
BRANCH  15  16
HETATM   16  C   UNL     1     -11.168  14.912  69.432  1.00  0.00    -0.283 C  
HETATM   17  C   UNL     1     -12.356  15.104  70.369  1.00  0.00    -0.363 C  
HETATM   18  O   UNL     1     -13.124  13.989  70.475  1.00  0.00    -0.234 OA 
HETATM   19  O   UNL     1     -12.566  16.120  71.011  1.00  0.00    -0.263 OA 
ENDBRANCH  15  16
BRANCH  15  20
HETATM   20  C   UNL     1     -10.690  14.414  67.103  1.00  0.00    -0.283 C  
HETATM   21  C   UNL     1     -11.391  14.087  65.785  1.00  0.00    -0.312 C  
HETATM   22  O   UNL     1     -12.739  14.006  65.901  1.00  0.00    -0.495 OA 
HETATM   23  O   UNL     1     -10.812  13.962  64.720  1.00  0.00    -0.376 OA 
ENDBRANCH  15  20
ENDBRANCH  14  15
ENDBRANCH   2  14
TORSDOF 8
ENDMDL
MODEL      292
REMARK 921   NORMALIZED FREE ENERGY PREDICTED BY IDOCK:   -3.01 KCAL/MOL
REMARK 922        TOTAL FREE ENERGY PREDICTED BY IDOCK:   -5.76 KCAL/MOL
REMARK 923 INTER-LIGAND FREE ENERGY PREDICTED BY IDOCK:   -4.91 KCAL/MOL
REMARK 924 INTRA-LIGAND FREE ENERGY PREDICTED BY IDOCK:   -0.85 KCAL/MOL
REMARK 927      BINDING AFFINITY PREDICTED BY RF-SCORE:    0.00 PKD
ROOT
HETATM    1  O   UNL     1     -12.053  11.875  66.563  1.00  0.00    -0.568 OA 
HETATM    2  C   UNL     1     -10.727  11.553  66.997  1.00  0.00    -0.259 C  
HETATM    3  H   UNL     1     -12.223  11.460  65.726  1.00  0.00     0.000 HD 
ENDROOT
BRANCH   2   4
HETATM    4  C   UNL     1     -10.612  10.010  67.083  1.00  0.00    -0.232 C  
BRANCH   4   5
HETATM    5  N   UNL     1      -9.312   9.404  66.612  1.00  0.00    -0.154 NA 
BRANCH   5   6
HETATM    6  C   UNL     1      -8.460   9.133  67.830  1.00  0.00    -0.117 C  
HETATM    7  O   UNL     1      -8.348   6.878  66.991  1.00  0.00    -0.118 OA 
HETATM    8  C   UNL     1      -8.303   7.640  68.109  1.00  0.00    -0.124 C  
HETATM    9  O   UNL     1      -8.127   7.173  69.223  1.00  0.00    -0.117 OA 
ENDBRANCH   5   6
BRANCH   5  10
HETATM   10  C   UNL     1      -8.591  10.418  65.764  1.00  0.00    -0.164 C  
HETATM   11  O   UNL     1      -8.642   8.729  64.057  1.00  0.00    -0.156 OA 
HETATM   12  O   UNL     1      -6.952  10.237  63.972  1.00  0.00    -0.121 OA 
HETATM   13  C   UNL     1      -7.951   9.795  64.522  1.00  0.00    -0.144 C  
ENDBRANCH   5  10
ENDBRANCH   4   5
ENDBRANCH   2   4
BRANCH   2  14
HETATM   14  C   UNL     1     -10.449  12.234  68.372  1.00  0.00    -0.233 C  
BRANCH  14  15
HETATM   15  N   UNL     1     -10.725  13.710  68.488  1.00  0.00    -0.250 NA 
BRANCH  15  16
HETATM   16  C   UNL     1     -11.564  13.931  69.726  1.00  0.00    -0.270 C  
HETATM   17  C   UNL     1     -11.927  15.397  69.942  1.00  0.00    -0.359 C  
HETATM   18  O   UNL     1     -12.027  16.089  68.778  1.00  0.00    -0.340 OA 
HETATM   19  O   UNL     1     -12.168  15.890  71.031  1.00  0.00    -0.404 OA 
ENDBRANCH  15  16
BRANCH  15  20
HETATM   20  C   UNL     1      -9.402  14.418  68.733  1.00  0.00    -0.150 C  
HETATM   21  C   UNL     1      -8.702  14.858  67.447  1.00  0.00    -0.194 C  
HETATM   22  O   UNL     1      -9.562  15.120  66.433  1.00  0.00    -0.247 OA 
HETATM   23  O   UNL     1      -7.498  15.011  67.347  1.00  0.00    -0.183 OA 
ENDBRANCH  15  20
ENDBRANCH  14  15
ENDBRANCH   2  14
TORSDOF 8
ENDMDL
MODEL      293
REMARK 921   NORMALIZED FREE ENERGY PREDICTED BY IDOCK:   -3.01 KCAL/MOL
REMARK 922        TOTAL FREE ENERGY PREDICTED BY IDOCK:   -5.75 KCAL/MOL
REMARK 923 INTER-LIGAND FREE ENERGY PREDICTED BY IDOCK:   -6.15 KCAL/MOL
REMARK 924 INTRA-LIGAND FREE ENERGY PREDICTED BY IDOCK:    0.40 KCAL/MOL
REMARK 927      BINDING AFFINITY PREDICTED BY RF-SCORE:    0.00 PKD
ROOT
HETATM    1  O   UNL     1     -10.321  11.805  65.374  1.00  0.00    -0.247 OA 
HETATM    2  C   UNL     1     -10.335  12.191  66.753  1.00  0.00    -0.213 C  
HETATM    3  H   UNL     1     -10.849  12.412  64.869  1.00  0.00     0.000 HD 
ENDROOT
BRANCH   2   4
HETATM    4  C   UNL     1      -9.798  13.642  66.850  1.00  0.00    -0.261 C  
BRANCH   4   5
HETATM    5  N   UNL     1     -10.811  14.715  67.170  1.00  0.00    -0.296 NA 
BRANCH   5   6
HETATM    6  C   UNL     1     -11.854  14.705  66.078  1.00  0.00    -0.276 C  
HETATM    7  O   UNL     1     -10.053  15.400  64.638  1.00  0.00    -0.178 OA 
HETATM    8  C   UNL     1     -11.393  15.446  64.825  1.00  0.00    -0.376 C  
HETATM    9  O   UNL     1     -12.152  16.007  64.050  1.00  0.00    -0.810 OA 
ENDBRANCH   5   6
BRANCH   5  10
HETATM   10  C   UNL     1     -10.120  16.052  67.134  1.00  0.00    -0.270 C  
HETATM   11  O   UNL     1     -11.256  16.469  69.209  1.00  0.00    -0.296 OA 
HETATM   12  O   UNL     1     -10.725  18.269  67.937  1.00  0.00    -0.397 OA 
HETATM   13  C   UNL     1     -10.739  17.058  68.106  1.00  0.00    -0.374 C  
ENDBRANCH   5  10
ENDBRANCH   4   5
ENDBRANCH   2   4
BRANCH   2  14
HETATM   14  C   UNL     1      -9.469  11.194  67.582  1.00  0.00    -0.166 C  
BRANCH  14  15
HETATM   15  N   UNL     1     -10.192  10.201  68.454  1.00  0.00    -0.162 NA 
BRANCH  15  16
HETATM   16  C   UNL     1     -11.255  10.947  69.227  1.00  0.00    -0.265 C  
HETATM   17  C   UNL     1     -11.470  10.390  70.630  1.00  0.00    -0.349 C  
HETATM   18  O   UNL     1     -10.343   9.841  71.153  1.00  0.00    -0.248 OA 
HETATM   19  O   UNL     1     -12.516  10.480  71.251  1.00  0.00    -0.354 OA 
ENDBRANCH  15  16
BRANCH  15  20
HETATM   20  C   UNL     1     -10.924   9.225  67.547  1.00  0.00     0.023 C  
HETATM   21  C   UNL     1     -10.308   7.826  67.540  1.00  0.00    -0.264 C  
HETATM   22  O   UNL     1      -9.686   7.509  68.701  1.00  0.00    -0.150 OA 
HETATM   23  O   UNL     1     -10.407   7.045  66.610  1.00  0.00    -0.218 OA 
ENDBRANCH  15  20
ENDBRANCH  14  15
ENDBRANCH   2  14
TORSDOF 8
ENDMDL
MODEL      294
REMARK 921   NORMALIZED FREE ENERGY PREDICTED BY IDOCK:   -3.01 KCAL/MOL
REMARK 922        TOTAL FREE ENERGY PREDICTED BY IDOCK:   -5.75 KCAL/MOL
REMARK 923 INTER-LIGAND FREE ENERGY PREDICTED BY IDOCK:   -4.44 KCAL/MOL
REMARK 924 INTRA-LIGAND FREE ENERGY PREDICTED BY IDOCK:   -1.32 KCAL/MOL
REMARK 927      BINDING AFFINITY PREDICTED BY RF-SCORE:    0.00 PKD
ROOT
HETATM    1  O   UNL     1     -11.303   9.448  68.243  1.00  0.00    -0.495 OA 
HETATM    2  C   UNL     1     -10.294   9.000  69.155  1.00  0.00    -0.219 C  
HETATM    3  H   UNL     1     -10.943  10.119  67.675  1.00  0.00     0.000 HD 
ENDROOT
BRANCH   2   4
HETATM    4  C   UNL     1      -9.097   8.471  68.324  1.00  0.00    -0.138 C  
BRANCH   4   5
HETATM    5  N   UNL     1      -9.355   8.215  66.859  1.00  0.00    -0.162 NA 
BRANCH   5   6
HETATM    6  C   UNL     1      -9.136   6.744  66.601  1.00  0.00    -0.146 C  
HETATM    7  O   UNL     1     -11.478   6.517  67.113  1.00  0.00    -0.221 OA 
HETATM    8  C   UNL     1     -10.282   5.883  67.126  1.00  0.00    -0.203 C  
HETATM    9  O   UNL     1     -10.148   4.728  67.499  1.00  0.00    -0.162 OA 
ENDBRANCH   5   6
BRANCH   5  10
HETATM   10  C   UNL     1      -8.339   8.980  66.053  1.00  0.00    -0.123 C  
HETATM   11  O   UNL     1     -10.240  10.008  65.005  1.00  0.00    -0.280 OA 
HETATM   12  O   UNL     1      -8.331   9.877  63.789  1.00  0.00    -0.144 OA 
HETATM   13  C   UNL     1      -8.949   9.646  64.819  1.00  0.00    -0.225 C  
ENDBRANCH   5  10
ENDBRANCH   4   5
ENDBRANCH   2   4
BRANCH   2  14
HETATM   14  C   UNL     1     -10.886   7.898  70.087  1.00  0.00    -0.243 C  
BRANCH  14  15
HETATM   15  N   UNL     1      -9.948   7.231  71.060  1.00  0.00    -0.188 NA 
BRANCH  15  16
HETATM   16  C   UNL     1     -10.120   7.898  72.405  1.00  0.00    -0.248 C  
HETATM   17  C   UNL     1      -8.794   8.313  73.034  1.00  0.00    -0.232 C  
HETATM   18  O   UNL     1      -7.847   8.617  72.109  1.00  0.00    -0.265 OA 
HETATM   19  O   UNL     1      -8.610   8.427  74.235  1.00  0.00    -0.121 OA 
ENDBRANCH  15  16
BRANCH  15  20
HETATM   20  C   UNL     1     -10.401   5.790  71.234  1.00  0.00    -0.223 C  
HETATM   21  C   UNL     1      -9.273   4.774  71.051  1.00  0.00    -0.141 C  
HETATM   22  O   UNL     1      -8.053   5.264  71.380  1.00  0.00    -0.110 OA 
HETATM   23  O   UNL     1      -9.448   3.622  70.696  1.00  0.00    -0.145 OA 
ENDBRANCH  15  20
ENDBRANCH  14  15
ENDBRANCH   2  14
TORSDOF 8
ENDMDL
MODEL      295
REMARK 921   NORMALIZED FREE ENERGY PREDICTED BY IDOCK:   -2.98 KCAL/MOL
REMARK 922        TOTAL FREE ENERGY PREDICTED BY IDOCK:   -5.70 KCAL/MOL
REMARK 923 INTER-LIGAND FREE ENERGY PREDICTED BY IDOCK:   -4.66 KCAL/MOL
REMARK 924 INTRA-LIGAND FREE ENERGY PREDICTED BY IDOCK:   -1.04 KCAL/MOL
REMARK 927      BINDING AFFINITY PREDICTED BY RF-SCORE:    0.00 PKD
ROOT
HETATM    1  O   UNL     1     -12.070  11.545  68.158  1.00  0.00    -0.604 OA 
HETATM    2  C   UNL     1     -10.892  11.428  67.352  1.00  0.00    -0.254 C  
HETATM    3  H   UNL     1     -12.745  10.970  67.819  1.00  0.00     0.000 HD 
ENDROOT
BRANCH   2   4
HETATM    4  C   UNL     1     -10.446   9.944  67.365  1.00  0.00    -0.267 C  
BRANCH   4   5
HETATM    5  N   UNL     1      -9.820   9.441  68.644  1.00  0.00    -0.159 NA 
BRANCH   5   6
HETATM    6  C   UNL     1      -8.367   9.142  68.360  1.00  0.00    -0.120 C  
HETATM    7  O   UNL     1      -7.979   9.956  70.594  1.00  0.00    -0.257 OA 
HETATM    8  C   UNL     1      -7.429   9.806  69.366  1.00  0.00    -0.099 C  
HETATM    9  O   UNL     1      -6.286  10.147  69.105  1.00  0.00    -0.043 OA 
ENDBRANCH   5   6
BRANCH   5  10
HETATM   10  C   UNL     1     -10.489   8.148  69.028  1.00  0.00    -0.198 C  
HETATM   11  O   UNL     1     -11.753   9.491  70.566  1.00  0.00    -0.265 OA 
HETATM   12  O   UNL     1     -11.443   7.311  71.106  1.00  0.00    -0.265 OA 
HETATM   13  C   UNL     1     -11.254   8.253  70.348  1.00  0.00    -0.219 C  
ENDBRANCH   5  10
ENDBRANCH   4   5
ENDBRANCH   2   4
BRANCH   2  14
HETATM   14  C   UNL     1      -9.783  12.373  67.908  1.00  0.00    -0.204 C  
BRANCH  14  15
HETATM   15  N   UNL     1     -10.114  13.837  68.035  1.00  0.00    -0.238 NA 
BRANCH  15  16
HETATM   16  C   UNL     1     -10.728  14.059  69.398  1.00  0.00    -0.052 C  
HETATM   17  C   UNL     1     -11.870  15.070  69.377  1.00  0.00    -0.329 C  
HETATM   18  O   UNL     1     -12.533  15.087  68.192  1.00  0.00     0.123 OA 
HETATM   19  O   UNL     1     -12.202  15.750  70.334  1.00  0.00    -0.392 OA 
ENDBRANCH  15  16
BRANCH  15  20
HETATM   20  C   UNL     1      -8.808  14.617  68.020  1.00  0.00    -0.169 C  
HETATM   21  C   UNL     1      -8.667  15.538  66.809  1.00  0.00    -0.267 C  
HETATM   22  O   UNL     1      -9.855  15.979  66.330  1.00  0.00    -0.268 OA 
HETATM   23  O   UNL     1      -7.596  15.890  66.345  1.00  0.00    -0.114 OA 
ENDBRANCH  15  20
ENDBRANCH  14  15
ENDBRANCH   2  14
TORSDOF 8
ENDMDL
MODEL      296
REMARK 921   NORMALIZED FREE ENERGY PREDICTED BY IDOCK:   -2.97 KCAL/MOL
REMARK 922        TOTAL FREE ENERGY PREDICTED BY IDOCK:   -5.70 KCAL/MOL
REMARK 923 INTER-LIGAND FREE ENERGY PREDICTED BY IDOCK:   -6.12 KCAL/MOL
REMARK 924 INTRA-LIGAND FREE ENERGY PREDICTED BY IDOCK:    0.42 KCAL/MOL
REMARK 927      BINDING AFFINITY PREDICTED BY RF-SCORE:    0.00 PKD
ROOT
HETATM    1  O   UNL     1      -9.196  12.004  68.224  1.00  0.00    -0.189 OA 
HETATM    2  C   UNL     1      -9.855  11.722  66.984  1.00  0.00    -0.197 C  
HETATM    3  H   UNL     1      -8.781  12.857  68.176  1.00  0.00     0.000 HD 
ENDROOT
BRANCH   2   4
HETATM    4  C   UNL     1     -10.884  12.851  66.720  1.00  0.00    -0.267 C  
BRANCH   4   5
HETATM    5  N   UNL     1     -10.491  13.896  65.705  1.00  0.00    -0.300 NA 
BRANCH   5   6
HETATM    6  C   UNL     1     -11.139  15.200  66.109  1.00  0.00    -0.311 C  
HETATM    7  O   UNL     1      -9.026  16.193  65.516  1.00  0.00    -0.304 OA 
HETATM    8  C   UNL     1     -10.120  16.320  66.303  1.00  0.00    -0.324 C  
HETATM    9  O   UNL     1     -10.280  17.256  67.071  1.00  0.00    -0.303 OA 
ENDBRANCH   5   6
BRANCH   5  10
HETATM   10  C   UNL     1     -11.054  13.499  64.366  1.00  0.00    -0.380 C  
HETATM   11  O   UNL     1     -13.193  13.624  65.453  1.00  0.00    -0.678 OA 
HETATM   12  O   UNL     1     -13.008  12.213  63.688  1.00  0.00    -0.780 OA 
HETATM   13  C   UNL     1     -12.503  13.018  64.458  1.00  0.00    -0.363 C  
ENDBRANCH   5  10
ENDBRANCH   4   5
ENDBRANCH   2   4
BRANCH   2  14
HETATM   14  C   UNL     1     -10.536  10.322  67.062  1.00  0.00    -0.244 C  
BRANCH  14  15
HETATM   15  N   UNL     1      -9.688   9.158  67.505  1.00  0.00    -0.153 NA 
BRANCH  15  16
HETATM   16  C   UNL     1     -10.524   8.296  68.423  1.00  0.00    -0.162 C  
HETATM   17  C   UNL     1     -10.331   8.637  69.897  1.00  0.00    -0.209 C  
HETATM   18  O   UNL     1     -10.022   9.945  70.095  1.00  0.00    -0.249 OA 
HETATM   19  O   UNL     1     -10.497   7.847  70.811  1.00  0.00    -0.206 OA 
ENDBRANCH  15  16
BRANCH  15  20
HETATM   20  C   UNL     1      -9.378   8.310  66.282  1.00  0.00    -0.204 C  
HETATM   21  C   UNL     1      -7.979   8.551  65.716  1.00  0.00    -0.107 C  
HETATM   22  O   UNL     1      -7.082   8.942  66.654  1.00  0.00    -0.082 OA 
HETATM   23  O   UNL     1      -7.676   8.364  64.551  1.00  0.00    -0.106 OA 
ENDBRANCH  15  20
ENDBRANCH  14  15
ENDBRANCH   2  14
TORSDOF 8
ENDMDL
MODEL      297
REMARK 921   NORMALIZED FREE ENERGY PREDICTED BY IDOCK:   -2.95 KCAL/MOL
REMARK 922        TOTAL FREE ENERGY PREDICTED BY IDOCK:   -5.67 KCAL/MOL
REMARK 923 INTER-LIGAND FREE ENERGY PREDICTED BY IDOCK:   -6.19 KCAL/MOL
REMARK 924 INTRA-LIGAND FREE ENERGY PREDICTED BY IDOCK:    0.52 KCAL/MOL
REMARK 927      BINDING AFFINITY PREDICTED BY RF-SCORE:    0.00 PKD
ROOT
HETATM    1  O   UNL     1     -10.540  10.654  62.989  1.00  0.00    -0.648 OA 
HETATM    2  C   UNL     1     -10.575  11.232  64.298  1.00  0.00    -0.358 C  
HETATM    3  H   UNL     1     -11.317  10.911  62.507  1.00  0.00     0.000 HD 
ENDROOT
BRANCH   2   4
HETATM    4  C   UNL     1     -10.675  12.771  64.141  1.00  0.00    -0.412 C  
BRANCH   4   5
HETATM    5  N   UNL     1     -10.693  13.578  65.416  1.00  0.00    -0.295 NA 
BRANCH   5   6
HETATM    6  C   UNL     1     -11.915  13.170  66.205  1.00  0.00    -0.422 C  
HETATM    7  O   UNL     1     -10.384  12.908  68.045  1.00  0.00    -0.215 OA 
HETATM    8  C   UNL     1     -11.556  12.482  67.520  1.00  0.00    -0.361 C  
HETATM    9  O   UNL     1     -12.263  11.648  68.064  1.00  0.00    -0.551 OA 
ENDBRANCH   5   6
BRANCH   5  10
HETATM   10  C   UNL     1     -10.842  15.033  65.060  1.00  0.00    -0.422 C  
HETATM   11  O   UNL     1      -8.910  15.364  66.448  1.00  0.00    -0.290 OA 
HETATM   12  O   UNL     1     -10.348  17.104  66.242  1.00  0.00    -0.327 OA 
HETATM   13  C   UNL     1     -10.039  15.949  65.985  1.00  0.00    -0.337 C  
ENDBRANCH   5  10
ENDBRANCH   4   5
ENDBRANCH   2   4
BRANCH   2  14
HETATM   14  C   UNL     1      -9.298  10.811  65.089  1.00  0.00    -0.217 C  
BRANCH  14  15
HETATM   15  N   UNL     1      -9.005   9.338  65.205  1.00  0.00    -0.204 NA 
BRANCH  15  16
HETATM   16  C   UNL     1      -8.026   8.971  64.114  1.00  0.00    -0.144 C  
HETATM   17  C   UNL     1      -6.826   9.910  64.052  1.00  0.00    -0.126 C  
HETATM   18  O   UNL     1      -6.508  10.433  65.264  1.00  0.00    -0.120 OA 
HETATM   19  O   UNL     1      -6.175  10.126  63.043  1.00  0.00    -0.124 OA 
ENDBRANCH  15  16
BRANCH  15  20
HETATM   20  C   UNL     1      -8.285   9.105  66.524  1.00  0.00    -0.111 C  
HETATM   21  C   UNL     1      -9.182   8.503  67.606  1.00  0.00    -0.134 C  
HETATM   22  O   UNL     1     -10.182   7.738  67.107  1.00  0.00    -0.234 OA 
HETATM   23  O   UNL     1      -8.994   8.647  68.801  1.00  0.00    -0.138 OA 
ENDBRANCH  15  20
ENDBRANCH  14  15
ENDBRANCH   2  14
TORSDOF 8
ENDMDL
MODEL      298
REMARK 921   NORMALIZED FREE ENERGY PREDICTED BY IDOCK:   -2.94 KCAL/MOL
REMARK 922        TOTAL FREE ENERGY PREDICTED BY IDOCK:   -5.65 KCAL/MOL
REMARK 923 INTER-LIGAND FREE ENERGY PREDICTED BY IDOCK:   -4.02 KCAL/MOL
REMARK 924 INTRA-LIGAND FREE ENERGY PREDICTED BY IDOCK:   -1.63 KCAL/MOL
REMARK 927      BINDING AFFINITY PREDICTED BY RF-SCORE:    0.00 PKD
ROOT
HETATM    1  O   UNL     1     -11.756   9.770  68.505  1.00  0.00    -0.384 OA 
HETATM    2  C   UNL     1     -10.537   9.229  69.026  1.00  0.00    -0.205 C  
HETATM    3  H   UNL     1     -11.787  10.704  68.676  1.00  0.00     0.000 HD 
ENDROOT
BRANCH   2   4
HETATM    4  C   UNL     1      -9.356   9.977  68.358  1.00  0.00    -0.138 C  
BRANCH   4   5
HETATM    5  N   UNL     1      -9.696  10.856  67.178  1.00  0.00    -0.172 NA 
BRANCH   5   6
HETATM    6  C   UNL     1      -8.719  10.541  66.071  1.00  0.00    -0.164 C  
HETATM    7  O   UNL     1     -10.623  10.758  64.612  1.00  0.00    -0.328 OA 
HETATM    8  C   UNL     1      -9.419  10.160  64.768  1.00  0.00    -0.295 C  
HETATM    9  O   UNL     1      -8.936   9.413  63.932  1.00  0.00    -0.216 OA 
ENDBRANCH   5   6
BRANCH   5  10
HETATM   10  C   UNL     1      -9.492  12.293  67.577  1.00  0.00    -0.182 C  
HETATM   11  O   UNL     1     -11.880  12.473  67.398  1.00  0.00    -0.386 OA 
HETATM   12  O   UNL     1     -10.671  14.358  67.051  1.00  0.00    -0.279 OA 
HETATM   13  C   UNL     1     -10.720  13.160  67.294  1.00  0.00    -0.254 C  
ENDBRANCH   5  10
ENDBRANCH   4   5
ENDBRANCH   2   4
BRANCH   2  14
HETATM   14  C   UNL     1     -10.485   7.696  68.747  1.00  0.00    -0.189 C  
BRANCH  14  15
HETATM   15  N   UNL     1      -9.137   7.081  68.475  1.00  0.00    -0.132 NA 
BRANCH  15  16
HETATM   16  C   UNL     1      -8.726   6.299  69.701  1.00  0.00    -0.136 C  
HETATM   17  C   UNL     1      -7.301   6.605  70.150  1.00  0.00    -0.085 C  
HETATM   18  O   UNL     1      -6.918   7.873  69.849  1.00  0.00    -0.048 OA 
HETATM   19  O   UNL     1      -6.595   5.827  70.770  1.00  0.00    -0.044 OA 
ENDBRANCH  15  16
BRANCH  15  20
HETATM   20  C   UNL     1      -9.300   6.068  67.353  1.00  0.00    -0.111 C  
HETATM   21  C   UNL     1      -8.560   6.457  66.073  1.00  0.00    -0.147 C  
HETATM   22  O   UNL     1      -7.458   7.213  66.301  1.00  0.00    -0.083 OA 
HETATM   23  O   UNL     1      -8.888   6.086  64.960  1.00  0.00    -0.043 OA 
ENDBRANCH  15  20
ENDBRANCH  14  15
ENDBRANCH   2  14
TORSDOF 8
ENDMDL
MODEL      299
REMARK 921   NORMALIZED FREE ENERGY PREDICTED BY IDOCK:   -2.92 KCAL/MOL
REMARK 922        TOTAL FREE ENERGY PREDICTED BY IDOCK:   -5.62 KCAL/MOL
REMARK 923 INTER-LIGAND FREE ENERGY PREDICTED BY IDOCK:   -5.66 KCAL/MOL
REMARK 924 INTRA-LIGAND FREE ENERGY PREDICTED BY IDOCK:    0.04 KCAL/MOL
REMARK 927      BINDING AFFINITY PREDICTED BY RF-SCORE:    0.00 PKD
ROOT
HETATM    1  O   UNL     1      -8.594  13.428  66.440  1.00  0.00    -0.422 OA 
HETATM    2  C   UNL     1      -9.065  14.780  66.495  1.00  0.00    -0.260 C  
HETATM    3  H   UNL     1      -7.645  13.424  66.393  1.00  0.00     0.000 HD 
ENDROOT
BRANCH   2   4
HETATM    4  C   UNL     1      -8.422  15.462  67.730  1.00  0.00    -0.150 C  
BRANCH   4   5
HETATM    5  N   UNL     1      -6.916  15.419  67.815  1.00  0.00    -0.146 NA 
BRANCH   5   6
HETATM    6  C   UNL     1      -6.541  14.426  68.889  1.00  0.00    -0.094 C  
HETATM    7  O   UNL     1      -5.524  13.183  67.094  1.00  0.00    -0.342 OA 
HETATM    8  C   UNL     1      -6.105  13.081  68.312  1.00  0.00    -0.086 C  
HETATM    9  O   UNL     1      -6.240  12.017  68.895  1.00  0.00    -0.062 OA 
ENDBRANCH   5   6
BRANCH   5  10
HETATM   10  C   UNL     1      -6.422  16.774  68.249  1.00  0.00    -0.141 C  
HETATM   11  O   UNL     1      -6.706  17.393  65.946  1.00  0.00    -0.210 OA 
HETATM   12  O   UNL     1      -5.144  18.523  67.137  1.00  0.00    -0.132 OA 
HETATM   13  C   UNL     1      -5.996  17.649  67.069  1.00  0.00    -0.144 C  
ENDBRANCH   5  10
ENDBRANCH   4   5
ENDBRANCH   2   4
BRANCH   2  14
HETATM   14  C   UNL     1     -10.622  14.787  66.572  1.00  0.00    -0.299 C  
BRANCH  14  15
HETATM   15  N   UNL     1     -11.347  15.943  65.934  1.00  0.00     0.075 NA 
BRANCH  15  16
HETATM   16  C   UNL     1     -10.393  17.114  65.873  1.00  0.00    -0.284 C  
HETATM   17  C   UNL     1     -10.616  18.120  66.997  1.00  0.00    -0.328 C  
HETATM   18  O   UNL     1     -11.098  17.543  68.129  1.00  0.00    -0.233 OA 
HETATM   19  O   UNL     1     -10.336  19.305  66.924  1.00  0.00    -0.366 OA 
ENDBRANCH  15  16
BRANCH  15  20
HETATM   20  C   UNL     1     -11.657  15.566  64.494  1.00  0.00    -0.283 C  
HETATM   21  C   UNL     1     -12.524  14.312  64.369  1.00  0.00    -0.300 C  
HETATM   22  O   UNL     1     -13.345  14.123  65.429  1.00  0.00    -0.705 OA 
HETATM   23  O   UNL     1     -12.522  13.581  63.395  1.00  0.00    -0.750 OA 
ENDBRANCH  15  20
ENDBRANCH  14  15
ENDBRANCH   2  14
TORSDOF 8
ENDMDL
MODEL      300
REMARK 921   NORMALIZED FREE ENERGY PREDICTED BY IDOCK:   -2.91 KCAL/MOL
REMARK 922        TOTAL FREE ENERGY PREDICTED BY IDOCK:   -5.61 KCAL/MOL
REMARK 923 INTER-LIGAND FREE ENERGY PREDICTED BY IDOCK:   -6.09 KCAL/MOL
REMARK 924 INTRA-LIGAND FREE ENERGY PREDICTED BY IDOCK:    0.49 KCAL/MOL
REMARK 927      BINDING AFFINITY PREDICTED BY RF-SCORE:    0.00 PKD
ROOT
HETATM    1  O   UNL     1      -7.822  15.648  66.466  1.00  0.00    -0.265 OA 
HETATM    2  C   UNL     1      -9.221  15.931  66.351  1.00  0.00    -0.309 C  
HETATM    3  H   UNL     1      -7.691  14.708  66.518  1.00  0.00     0.000 HD 
ENDROOT
BRANCH   2   4
HETATM    4  C   UNL     1      -9.757  15.202  65.093  1.00  0.00    -0.008 C  
BRANCH   4   5
HETATM    5  N   UNL     1     -10.494  13.906  65.328  1.00  0.00    -0.349 NA 
BRANCH   5   6
HETATM    6  C   UNL     1      -9.480  12.787  65.307  1.00  0.00     0.238 C  
HETATM    7  O   UNL     1      -9.952  12.594  67.661  1.00  0.00    -0.208 OA 
HETATM    8  C   UNL     1      -9.011  12.399  66.707  1.00  0.00    -0.205 C  
HETATM    9  O   UNL     1      -7.908  11.935  66.949  1.00  0.00    -0.160 OA 
ENDBRANCH   5   6
BRANCH   5  10
HETATM   10  C   UNL     1     -11.448  13.683  64.185  1.00  0.00    -0.329 C  
HETATM   11  O   UNL     1     -12.769  12.476  65.787  1.00  0.00    -0.455 OA 
HETATM   12  O   UNL     1     -12.977  11.877  63.610  1.00  0.00    -0.692 OA 
HETATM   13  C   UNL     1     -12.460  12.572  64.473  1.00  0.00    -0.459 C  
ENDBRANCH   5  10
ENDBRANCH   4   5
ENDBRANCH   2   4
BRANCH   2  14
HETATM   14  C   UNL     1      -9.435  17.473  66.265  1.00  0.00    -0.219 C  
BRANCH  14  15
HETATM   15  N   UNL     1      -8.391  18.358  66.894  1.00  0.00    -0.246 NA 
BRANCH  15  16
HETATM   16  C   UNL     1      -8.451  19.706  66.211  1.00  0.00    -0.360 C  
HETATM   17  C   UNL     1      -7.158  20.060  65.483  1.00  0.00    -0.310 C  
HETATM   18  O   UNL     1      -6.497  18.964  65.028  1.00  0.00    -0.440 OA 
HETATM   19  O   UNL     1      -6.780  21.200  65.270  1.00  0.00    -0.042 OA 
ENDBRANCH  15  16
BRANCH  15  20
HETATM   20  C   UNL     1      -8.785  18.593  68.343  1.00  0.00    -0.333 C  
HETATM   21  C   UNL     1     -10.161  19.242  68.500  1.00  0.00    -0.430 C  
HETATM   22  O   UNL     1     -11.012  18.942  67.489  1.00  0.00    -0.422 OA 
HETATM   23  O   UNL     1     -10.487  19.917  69.460  1.00  0.00    -0.093 OA 
ENDBRANCH  15  20
ENDBRANCH  14  15
ENDBRANCH   2  14
TORSDOF 8
ENDMDL
MODEL      301
REMARK 921   NORMALIZED FREE ENERGY PREDICTED BY IDOCK:   -2.91 KCAL/MOL
REMARK 922        TOTAL FREE ENERGY PREDICTED BY IDOCK:   -5.60 KCAL/MOL
REMARK 923 INTER-LIGAND FREE ENERGY PREDICTED BY IDOCK:   -4.15 KCAL/MOL
REMARK 924 INTRA-LIGAND FREE ENERGY PREDICTED BY IDOCK:   -1.46 KCAL/MOL
REMARK 927      BINDING AFFINITY PREDICTED BY RF-SCORE:    0.00 PKD
ROOT
HETATM    1  O   UNL     1     -11.594   6.224  70.718  1.00  0.00    -0.344 OA 
HETATM    2  C   UNL     1     -10.784   7.405  70.697  1.00  0.00    -0.229 C  
HETATM    3  H   UNL     1     -12.411   6.392  70.264  1.00  0.00     0.000 HD 
ENDROOT
BRANCH   2   4
HETATM    4  C   UNL     1     -10.552   7.803  69.217  1.00  0.00    -0.192 C  
BRANCH   4   5
HETATM    5  N   UNL     1     -10.504   9.282  68.917  1.00  0.00    -0.214 NA 
BRANCH   5   6
HETATM    6  C   UNL     1      -9.061   9.720  68.982  1.00  0.00    -0.157 C  
HETATM    7  O   UNL     1      -9.173   9.729  66.576  1.00  0.00    -0.148 OA 
HETATM    8  C   UNL     1      -8.348   9.577  67.639  1.00  0.00    -0.125 C  
HETATM    9  O   UNL     1      -7.150   9.373  67.525  1.00  0.00    -0.077 OA 
ENDBRANCH   5   6
BRANCH   5  10
HETATM   10  C   UNL     1     -11.256  10.014  69.997  1.00  0.00    -0.288 C  
HETATM   11  O   UNL     1     -12.273  11.225  68.189  1.00  0.00    -0.622 OA 
HETATM   12  O   UNL     1     -12.122  12.282  70.188  1.00  0.00    -0.327 OA 
HETATM   13  C   UNL     1     -11.906  11.302  69.489  1.00  0.00    -0.357 C  
ENDBRANCH   5  10
ENDBRANCH   4   5
ENDBRANCH   2   4
BRANCH   2  14
HETATM   14  C   UNL     1      -9.441   7.130  71.442  1.00  0.00    -0.161 C  
BRANCH  14  15
HETATM   15  N   UNL     1      -8.544   6.054  70.886  1.00  0.00    -0.130 NA 
BRANCH  15  16
HETATM   16  C   UNL     1      -7.252   6.706  70.448  1.00  0.00    -0.080 C  
HETATM   17  C   UNL     1      -6.813   6.274  69.053  1.00  0.00    -0.066 C  
HETATM   18  O   UNL     1      -7.862   5.962  68.247  1.00  0.00    -0.102 OA 
HETATM   19  O   UNL     1      -5.655   6.267  68.669  1.00  0.00    -0.010 OA 
ENDBRANCH  15  16
BRANCH  15  20
HETATM   20  C   UNL     1      -8.186   5.109  72.022  1.00  0.00    -0.117 C  
HETATM   21  C   UNL     1      -9.276   4.080  72.321  1.00  0.00    -0.121 C  
HETATM   22  O   UNL     1     -10.024   3.763  71.236  1.00  0.00    -0.175 OA 
HETATM   23  O   UNL     1      -9.430   3.551  73.407  1.00  0.00    -0.103 OA 
ENDBRANCH  15  20
ENDBRANCH  14  15
ENDBRANCH   2  14
TORSDOF 8
ENDMDL
MODEL      302
REMARK 921   NORMALIZED FREE ENERGY PREDICTED BY IDOCK:   -2.90 KCAL/MOL
REMARK 922        TOTAL FREE ENERGY PREDICTED BY IDOCK:   -5.59 KCAL/MOL
REMARK 923 INTER-LIGAND FREE ENERGY PREDICTED BY IDOCK:   -4.54 KCAL/MOL
REMARK 924 INTRA-LIGAND FREE ENERGY PREDICTED BY IDOCK:   -1.05 KCAL/MOL
REMARK 927      BINDING AFFINITY PREDICTED BY RF-SCORE:    0.00 PKD
ROOT
HETATM    1  O   UNL     1      -8.340  13.742  66.430  1.00  0.00    -0.286 OA 
HETATM    2  C   UNL     1      -8.539  12.638  67.321  1.00  0.00    -0.196 C  
HETATM    3  H   UNL     1      -9.177  14.144  66.231  1.00  0.00     0.000 HD 
ENDROOT
BRANCH   2   4
HETATM    4  C   UNL     1      -9.240  13.172  68.596  1.00  0.00     0.029 C  
BRANCH   4   5
HETATM    5  N   UNL     1     -10.536  13.918  68.389  1.00  0.00    -0.249 NA 
BRANCH   5   6
HETATM    6  C   UNL     1     -11.299  13.891  69.692  1.00  0.00    -0.200 C  
HETATM    7  O   UNL     1     -12.084  16.072  69.038  1.00  0.00    -0.293 OA 
HETATM    8  C   UNL     1     -11.812  15.271  70.096  1.00  0.00    -0.323 C  
HETATM    9  O   UNL     1     -11.988  15.618  71.253  1.00  0.00    -0.338 OA 
ENDBRANCH   5   6
BRANCH   5  10
HETATM   10  C   UNL     1     -11.354  13.182  67.362  1.00  0.00    -0.306 C  
HETATM   11  O   UNL     1     -11.021  15.129  65.994  1.00  0.00    -0.331 OA 
HETATM   12  O   UNL     1     -12.892  13.905  65.617  1.00  0.00    -0.541 OA 
HETATM   13  C   UNL     1     -11.863  14.100  66.249  1.00  0.00    -0.411 C  
ENDBRANCH   5  10
ENDBRANCH   4   5
ENDBRANCH   2   4
BRANCH   2  14
HETATM   14  C   UNL     1      -7.164  11.977  67.648  1.00  0.00    -0.117 C  
BRANCH  14  15
HETATM   15  N   UNL     1      -7.098  10.472  67.651  1.00  0.00    -0.083 NA 
BRANCH  15  16
HETATM   16  C   UNL     1      -6.430  10.033  66.368  1.00  0.00    -0.075 C  
HETATM   17  C   UNL     1      -7.301   9.100  65.534  1.00  0.00    -0.089 C  
HETATM   18  O   UNL     1      -8.628   9.336  65.701  1.00  0.00    -0.137 OA 
HETATM   19  O   UNL     1      -6.866   8.273  64.750  1.00  0.00    -0.066 OA 
ENDBRANCH  15  16
BRANCH  15  20
HETATM   20  C   UNL     1      -6.178  10.045  68.784  1.00  0.00    -0.040 C  
HETATM   21  C   UNL     1      -6.908   9.834  70.110  1.00  0.00    -0.109 C  
HETATM   22  O   UNL     1      -8.199   9.454  69.956  1.00  0.00    -0.124 OA 
HETATM   23  O   UNL     1      -6.377   9.942  71.202  1.00  0.00    -0.253 OA 
ENDBRANCH  15  20
ENDBRANCH  14  15
ENDBRANCH   2  14
TORSDOF 8
ENDMDL
MODEL      303
REMARK 921   NORMALIZED FREE ENERGY PREDICTED BY IDOCK:   -2.89 KCAL/MOL
REMARK 922        TOTAL FREE ENERGY PREDICTED BY IDOCK:   -5.58 KCAL/MOL
REMARK 923 INTER-LIGAND FREE ENERGY PREDICTED BY IDOCK:   -6.04 KCAL/MOL
REMARK 924 INTRA-LIGAND FREE ENERGY PREDICTED BY IDOCK:    0.46 KCAL/MOL
REMARK 927      BINDING AFFINITY PREDICTED BY RF-SCORE:    0.00 PKD
ROOT
HETATM    1  O   UNL     1      -8.510  13.247  69.107  1.00  0.00    -0.273 OA 
HETATM    2  C   UNL     1      -8.967  12.859  67.807  1.00  0.00    -0.191 C  
HETATM    3  H   UNL     1      -8.549  12.500  69.694  1.00  0.00     0.000 HD 
ENDROOT
BRANCH   2   4
HETATM    4  C   UNL     1      -8.076  11.690  67.314  1.00  0.00    -0.160 C  
BRANCH   4   5
HETATM    5  N   UNL     1      -8.793  10.441  66.863  1.00  0.00    -0.133 NA 
BRANCH   5   6
HETATM    6  C   UNL     1      -9.518  10.761  65.577  1.00  0.00    -0.210 C  
HETATM    7  O   UNL     1      -8.362   8.843  64.692  1.00  0.00    -0.155 OA 
HETATM    8  C   UNL     1      -8.919  10.036  64.375  1.00  0.00    -0.231 C  
HETATM    9  O   UNL     1      -8.956  10.468  63.234  1.00  0.00    -0.186 OA 
ENDBRANCH   5   6
BRANCH   5  10
HETATM   10  C   UNL     1      -9.828  10.083  67.897  1.00  0.00    -0.145 C  
HETATM   11  O   UNL     1      -8.410   8.205  68.376  1.00  0.00    -0.124 OA 
HETATM   12  O   UNL     1     -10.623   7.969  68.807  1.00  0.00    -0.195 OA 
HETATM   13  C   UNL     1      -9.690   8.642  68.392  1.00  0.00    -0.162 C  
ENDBRANCH   5  10
ENDBRANCH   4   5
ENDBRANCH   2   4
BRANCH   2  14
HETATM   14  C   UNL     1      -8.903  14.084  66.845  1.00  0.00    -0.194 C  
BRANCH  14  15
HETATM   15  N   UNL     1     -10.068  15.039  66.854  1.00  0.00    -0.245 NA 
BRANCH  15  16
HETATM   16  C   UNL     1     -10.113  15.732  65.511  1.00  0.00    -0.351 C  
HETATM   17  C   UNL     1     -10.646  17.158  65.597  1.00  0.00    -0.179 C  
HETATM   18  O   UNL     1     -10.371  17.749  66.789  1.00  0.00    -0.338 OA 
HETATM   19  O   UNL     1     -11.201  17.740  64.679  1.00  0.00    -0.764 OA 
ENDBRANCH  15  16
BRANCH  15  20
HETATM   20  C   UNL     1     -11.345  14.221  66.959  1.00  0.00    -0.341 C  
HETATM   21  C   UNL     1     -11.932  13.837  65.601  1.00  0.00    -0.388 C  
HETATM   22  O   UNL     1     -10.997  13.718  64.628  1.00  0.00    -0.367 OA 
HETATM   23  O   UNL     1     -13.114  13.605  65.412  1.00  0.00    -0.704 OA 
ENDBRANCH  15  20
ENDBRANCH  14  15
ENDBRANCH   2  14
TORSDOF 8
ENDMDL
MODEL      304
REMARK 921   NORMALIZED FREE ENERGY PREDICTED BY IDOCK:   -2.87 KCAL/MOL
REMARK 922        TOTAL FREE ENERGY PREDICTED BY IDOCK:   -5.55 KCAL/MOL
REMARK 923 INTER-LIGAND FREE ENERGY PREDICTED BY IDOCK:   -5.71 KCAL/MOL
REMARK 924 INTRA-LIGAND FREE ENERGY PREDICTED BY IDOCK:    0.16 KCAL/MOL
REMARK 927      BINDING AFFINITY PREDICTED BY RF-SCORE:    0.00 PKD
ROOT
HETATM    1  O   UNL     1     -12.350  11.555  68.284  1.00  0.00    -0.468 OA 
HETATM    2  C   UNL     1     -11.036  11.395  67.737  1.00  0.00    -0.247 C  
HETATM    3  H   UNL     1     -12.643  10.729  68.652  1.00  0.00     0.000 HD 
ENDROOT
BRANCH   2   4
HETATM    4  C   UNL     1     -10.101  10.902  68.870  1.00  0.00    -0.198 C  
BRANCH   4   5
HETATM    5  N   UNL     1      -9.779   9.427  68.884  1.00  0.00    -0.160 NA 
BRANCH   5   6
HETATM    6  C   UNL     1     -10.225   8.844  67.564  1.00  0.00    -0.248 C  
HETATM    7  O   UNL     1      -7.959   8.045  67.388  1.00  0.00    -0.117 OA 
HETATM    8  C   UNL     1      -9.048   8.431  66.683  1.00  0.00    -0.164 C  
HETATM    9  O   UNL     1      -9.085   8.421  65.462  1.00  0.00    -0.152 OA 
ENDBRANCH   5   6
BRANCH   5  10
HETATM   10  C   UNL     1     -10.586   8.771  69.972  1.00  0.00    -0.223 C  
HETATM   11  O   UNL     1      -8.554   7.603  70.499  1.00  0.00    -0.134 OA 
HETATM   12  O   UNL     1     -10.505   6.575  71.022  1.00  0.00    -0.213 OA 
HETATM   13  C   UNL     1      -9.904   7.524  70.538  1.00  0.00    -0.183 C  
ENDBRANCH   5  10
ENDBRANCH   4   5
ENDBRANCH   2   4
BRANCH   2  14
HETATM   14  C   UNL     1     -10.554  12.749  67.134  1.00  0.00    -0.237 C  
BRANCH  14  15
HETATM   15  N   UNL     1     -11.438  13.953  67.328  1.00  0.00    -0.326 NA 
BRANCH  15  16
HETATM   16  C   UNL     1     -10.832  14.805  68.420  1.00  0.00    -0.245 C  
HETATM   17  C   UNL     1     -11.753  14.970  69.624  1.00  0.00    -0.321 C  
HETATM   18  O   UNL     1     -12.570  13.901  69.809  1.00  0.00    -0.262 OA 
HETATM   19  O   UNL     1     -11.725  15.924  70.385  1.00  0.00    -0.333 OA 
ENDBRANCH  15  16
BRANCH  15  20
HETATM   20  C   UNL     1     -11.387  14.784  66.056  1.00  0.00    -0.332 C  
HETATM   21  C   UNL     1     -10.247  15.802  66.042  1.00  0.00    -0.333 C  
HETATM   22  O   UNL     1      -9.176  15.415  66.776  1.00  0.00    -0.216 OA 
HETATM   23  O   UNL     1     -10.267  16.836  65.397  1.00  0.00    -0.599 OA 
ENDBRANCH  15  20
ENDBRANCH  14  15
ENDBRANCH   2  14
TORSDOF 8
ENDMDL
MODEL      305
REMARK 921   NORMALIZED FREE ENERGY PREDICTED BY IDOCK:   -2.87 KCAL/MOL
REMARK 922        TOTAL FREE ENERGY PREDICTED BY IDOCK:   -5.54 KCAL/MOL
REMARK 923 INTER-LIGAND FREE ENERGY PREDICTED BY IDOCK:   -5.79 KCAL/MOL
REMARK 924 INTRA-LIGAND FREE ENERGY PREDICTED BY IDOCK:    0.25 KCAL/MOL
REMARK 927      BINDING AFFINITY PREDICTED BY RF-SCORE:    0.00 PKD
ROOT
HETATM    1  O   UNL     1      -9.857  13.726  69.111  1.00  0.00    -0.418 OA 
HETATM    2  C   UNL     1      -9.776  14.089  67.728  1.00  0.00    -0.228 C  
HETATM    3  H   UNL     1      -9.212  14.216  69.606  1.00  0.00     0.000 HD 
ENDROOT
BRANCH   2   4
HETATM    4  C   UNL     1     -10.005  15.618  67.619  1.00  0.00    -0.237 C  
BRANCH   4   5
HETATM    5  N   UNL     1      -8.968  16.501  68.270  1.00  0.00    -0.207 NA 
BRANCH   5   6
HETATM    6  C   UNL     1      -9.241  17.925  67.844  1.00  0.00    -0.263 C  
HETATM    7  O   UNL     1      -9.151  17.051  65.602  1.00  0.00    -0.500 OA 
HETATM    8  C   UNL     1      -8.956  18.154  66.362  1.00  0.00    -0.239 C  
HETATM    9  O   UNL     1      -8.610  19.228  65.896  1.00  0.00    -0.445 OA 
ENDBRANCH   5   6
BRANCH   5  10
HETATM   10  C   UNL     1      -7.612  16.116  67.743  1.00  0.00    -0.138 C  
HETATM   11  O   UNL     1      -7.289  15.095  69.893  1.00  0.00    -0.188 OA 
HETATM   12  O   UNL     1      -5.437  15.801  68.794  1.00  0.00    -0.101 OA 
HETATM   13  C   UNL     1      -6.653  15.682  68.854  1.00  0.00    -0.116 C  
ENDBRANCH   5  10
ENDBRANCH   4   5
ENDBRANCH   2   4
BRANCH   2  14
HETATM   14  C   UNL     1     -10.835  13.283  66.915  1.00  0.00    -0.276 C  
BRANCH  14  15
HETATM   15  N   UNL     1     -10.329  12.267  65.925  1.00  0.00    -0.246 NA 
BRANCH  15  16
HETATM   16  C   UNL     1      -9.526  11.236  66.685  1.00  0.00    -0.186 C  
HETATM   17  C   UNL     1      -8.804  10.253  65.770  1.00  0.00    -0.161 C  
HETATM   18  O   UNL     1      -8.466  10.802  64.575  1.00  0.00    -0.124 OA 
HETATM   19  O   UNL     1      -8.499   9.115  66.089  1.00  0.00    -0.122 OA 
ENDBRANCH  15  16
BRANCH  15  20
HETATM   20  C   UNL     1     -11.529  11.536  65.346  1.00  0.00    -0.009 C  
HETATM   21  C   UNL     1     -12.062  12.169  64.060  1.00  0.00    -0.443 C  
HETATM   22  O   UNL     1     -11.107  12.809  63.344  1.00  0.00    -0.408 OA 
HETATM   23  O   UNL     1     -13.215  12.068  63.681  1.00  0.00    -0.737 OA 
ENDBRANCH  15  20
ENDBRANCH  14  15
ENDBRANCH   2  14
TORSDOF 8
ENDMDL
MODEL      306
REMARK 921   NORMALIZED FREE ENERGY PREDICTED BY IDOCK:   -2.85 KCAL/MOL
REMARK 922        TOTAL FREE ENERGY PREDICTED BY IDOCK:   -5.52 KCAL/MOL
REMARK 923 INTER-LIGAND FREE ENERGY PREDICTED BY IDOCK:   -5.49 KCAL/MOL
REMARK 924 INTRA-LIGAND FREE ENERGY PREDICTED BY IDOCK:   -0.03 KCAL/MOL
REMARK 927      BINDING AFFINITY PREDICTED BY RF-SCORE:    0.00 PKD
ROOT
HETATM    1  O   UNL     1      -8.259  14.756  69.210  1.00  0.00    -0.281 OA 
HETATM    2  C   UNL     1      -8.158  14.395  67.827  1.00  0.00    -0.168 C  
HETATM    3  H   UNL     1      -8.242  15.702  69.293  1.00  0.00     0.000 HD 
ENDROOT
BRANCH   2   4
HETATM    4  C   UNL     1      -9.334  15.062  67.070  1.00  0.00    -0.224 C  
BRANCH   4   5
HETATM    5  N   UNL     1     -10.068  16.161  67.800  1.00  0.00    -0.245 NA 
BRANCH   5   6
HETATM    6  C   UNL     1     -11.484  15.694  68.037  1.00  0.00    -0.291 C  
HETATM    7  O   UNL     1     -10.834  15.564  70.352  1.00  0.00    -0.305 OA 
HETATM    8  C   UNL     1     -11.665  15.056  69.412  1.00  0.00    -0.326 C  
HETATM    9  O   UNL     1     -12.492  14.191  69.655  1.00  0.00    -0.310 OA 
ENDBRANCH   5   6
BRANCH   5  10
HETATM   10  C   UNL     1     -10.126  17.373  66.908  1.00  0.00    -0.314 C  
HETATM   11  O   UNL     1      -9.650  18.618  68.906  1.00  0.00    -0.340 OA 
HETATM   12  O   UNL     1     -10.800  19.685  67.269  1.00  0.00    -0.474 OA 
HETATM   13  C   UNL     1     -10.255  18.677  67.697  1.00  0.00    -0.384 C  
ENDBRANCH   5  10
ENDBRANCH   4   5
ENDBRANCH   2   4
BRANCH   2  14
HETATM   14  C   UNL     1      -8.185  12.842  67.690  1.00  0.00    -0.175 C  
BRANCH  14  15
HETATM   15  N   UNL     1      -9.506  12.194  67.363  1.00  0.00    -0.176 NA 
BRANCH  15  16
HETATM   16  C   UNL     1      -9.232  11.005  66.470  1.00  0.00    -0.171 C  
HETATM   17  C   UNL     1      -9.767  11.192  65.054  1.00  0.00    -0.253 C  
HETATM   18  O   UNL     1      -9.778  12.493  64.666  1.00  0.00    -0.092 OA 
HETATM   19  O   UNL     1     -10.090  10.275  64.317  1.00  0.00    -0.310 OA 
ENDBRANCH  15  16
BRANCH  15  20
HETATM   20  C   UNL     1     -10.088  11.638  68.653  1.00  0.00    -0.198 C  
HETATM   21  C   UNL     1      -9.191  10.600  69.326  1.00  0.00    -0.104 C  
HETATM   22  O   UNL     1      -7.874  10.786  69.071  1.00  0.00    -0.122 OA 
HETATM   23  O   UNL     1      -9.604   9.721  70.062  1.00  0.00    -0.224 OA 
ENDBRANCH  15  20
ENDBRANCH  14  15
ENDBRANCH   2  14
TORSDOF 8
ENDMDL
MODEL      307
REMARK 921   NORMALIZED FREE ENERGY PREDICTED BY IDOCK:   -2.85 KCAL/MOL
REMARK 922        TOTAL FREE ENERGY PREDICTED BY IDOCK:   -5.52 KCAL/MOL
REMARK 923 INTER-LIGAND FREE ENERGY PREDICTED BY IDOCK:   -4.65 KCAL/MOL
REMARK 924 INTRA-LIGAND FREE ENERGY PREDICTED BY IDOCK:   -0.86 KCAL/MOL
REMARK 927      BINDING AFFINITY PREDICTED BY RF-SCORE:    0.00 PKD
ROOT
HETATM    1  O   UNL     1     -10.783  17.555  69.827  1.00  0.00    -0.270 OA 
HETATM    2  C   UNL     1      -9.711  17.802  68.910  1.00  0.00    -0.262 C  
HETATM    3  H   UNL     1     -11.107  18.381  70.166  1.00  0.00     0.000 HD 
ENDROOT
BRANCH   2   4
HETATM    4  C   UNL     1     -10.247  18.720  67.782  1.00  0.00    -0.394 C  
BRANCH   4   5
HETATM    5  N   UNL     1      -9.741  18.438  66.388  1.00  0.00    -0.362 NA 
BRANCH   5   6
HETATM    6  C   UNL     1      -8.874  19.601  65.966  1.00  0.00    -0.246 C  
HETATM    7  O   UNL     1      -7.146  17.945  65.695  1.00  0.00    -0.485 OA 
HETATM    8  C   UNL     1      -7.388  19.249  65.966  1.00  0.00    -0.279 C  
HETATM    9  O   UNL     1      -6.498  20.062  66.163  1.00  0.00    -0.193 OA 
ENDBRANCH   5   6
BRANCH   5  10
HETATM   10  C   UNL     1     -10.919  18.381  65.453  1.00  0.00     0.487 C  
HETATM   11  O   UNL     1     -10.842  16.009  65.821  1.00  0.00    -0.305 OA 
HETATM   12  O   UNL     1     -11.705  16.723  63.851  1.00  0.00    -1.076 OA 
HETATM   13  C   UNL     1     -11.187  16.968  64.932  1.00  0.00     0.260 C  
ENDBRANCH   5  10
ENDBRANCH   4   5
ENDBRANCH   2   4
BRANCH   2  14
HETATM   14  C   UNL     1      -9.178  16.446  68.353  1.00  0.00    -0.217 C  
BRANCH  14  15
HETATM   15  N   UNL     1      -9.257  15.243  69.255  1.00  0.00    -0.233 NA 
BRANCH  15  16
HETATM   16  C   UNL     1     -10.531  14.498  68.928  1.00  0.00    -0.246 C  
HETATM   17  C   UNL     1     -11.402  14.245  70.154  1.00  0.00    -0.129 C  
HETATM   18  O   UNL     1     -11.263  15.208  71.102  1.00  0.00    -0.323 OA 
HETATM   19  O   UNL     1     -12.190  13.319  70.257  1.00  0.00    -0.340 OA 
ENDBRANCH  15  16
BRANCH  15  20
HETATM   20  C   UNL     1      -8.110  14.311  68.897  1.00  0.00    -0.063 C  
HETATM   21  C   UNL     1      -6.767  14.753  69.478  1.00  0.00    -0.160 C  
HETATM   22  O   UNL     1      -6.887  15.449  70.634  1.00  0.00     0.264 OA 
HETATM   23  O   UNL     1      -5.688  14.467  68.988  1.00  0.00    -0.083 OA 
ENDBRANCH  15  20
ENDBRANCH  14  15
ENDBRANCH   2  14
TORSDOF 8
ENDMDL
MODEL      308
REMARK 921   NORMALIZED FREE ENERGY PREDICTED BY IDOCK:   -2.82 KCAL/MOL
REMARK 922        TOTAL FREE ENERGY PREDICTED BY IDOCK:   -5.47 KCAL/MOL
REMARK 923 INTER-LIGAND FREE ENERGY PREDICTED BY IDOCK:   -5.69 KCAL/MOL
REMARK 924 INTRA-LIGAND FREE ENERGY PREDICTED BY IDOCK:    0.22 KCAL/MOL
REMARK 927      BINDING AFFINITY PREDICTED BY RF-SCORE:    0.00 PKD
ROOT
HETATM    1  O   UNL     1     -12.338  10.418  68.370  1.00  0.00    -0.514 OA 
HETATM    2  C   UNL     1     -11.106   9.688  68.377  1.00  0.00    -0.037 C  
HETATM    3  H   UNL     1     -13.066   9.814  68.466  1.00  0.00     0.000 HD 
ENDROOT
BRANCH   2   4
HETATM    4  C   UNL     1     -11.026   8.893  69.704  1.00  0.00    -0.123 C  
BRANCH   4   5
HETATM    5  N   UNL     1     -10.626   9.672  70.934  1.00  0.00    -0.320 NA 
BRANCH   5   6
HETATM    6  C   UNL     1      -9.843   8.746  71.834  1.00  0.00    -0.324 C  
HETATM    7  O   UNL     1      -7.899   9.778  70.855  1.00  0.00    -0.299 OA 
HETATM    8  C   UNL     1      -8.373   8.648  71.431  1.00  0.00    -0.168 C  
HETATM    9  O   UNL     1      -7.680   7.663  71.628  1.00  0.00    -0.081 OA 
ENDBRANCH   5   6
BRANCH   5  10
HETATM   10  C   UNL     1     -11.874  10.081  71.669  1.00  0.00    -0.235 C  
HETATM   11  O   UNL     1     -12.055   7.756  72.246  1.00  0.00    -0.311 OA 
HETATM   12  O   UNL     1     -13.978   8.953  72.149  1.00  0.00    -0.427 OA 
HETATM   13  C   UNL     1     -12.763   8.888  72.025  1.00  0.00    -0.394 C  
ENDBRANCH   5  10
ENDBRANCH   4   5
ENDBRANCH   2   4
BRANCH   2  14
HETATM   14  C   UNL     1      -9.912  10.680  68.221  1.00  0.00    -0.158 C  
BRANCH  14  15
HETATM   15  N   UNL     1      -9.805  11.443  66.927  1.00  0.00    -0.191 NA 
BRANCH  15  16
HETATM   16  C   UNL     1     -10.049  12.904  67.227  1.00  0.00    -0.231 C  
HETATM   17  C   UNL     1     -11.251  13.471  66.478  1.00  0.00    -0.306 C  
HETATM   18  O   UNL     1     -12.207  12.537  66.239  1.00  0.00    -0.600 OA 
HETATM   19  O   UNL     1     -11.381  14.647  66.179  1.00  0.00    -0.344 OA 
ENDBRANCH  15  16
BRANCH  15  20
HETATM   20  C   UNL     1      -8.370  11.339  66.437  1.00  0.00    -0.159 C  
HETATM   21  C   UNL     1      -8.112  10.103  65.575  1.00  0.00    -0.147 C  
HETATM   22  O   UNL     1      -9.209   9.684  64.899  1.00  0.00    -0.229 OA 
HETATM   23  O   UNL     1      -7.021   9.572  65.458  1.00  0.00    -0.084 OA 
ENDBRANCH  15  20
ENDBRANCH  14  15
ENDBRANCH   2  14
TORSDOF 8
ENDMDL
MODEL      309
REMARK 921   NORMALIZED FREE ENERGY PREDICTED BY IDOCK:   -2.81 KCAL/MOL
REMARK 922        TOTAL FREE ENERGY PREDICTED BY IDOCK:   -5.45 KCAL/MOL
REMARK 923 INTER-LIGAND FREE ENERGY PREDICTED BY IDOCK:   -4.45 KCAL/MOL
REMARK 924 INTRA-LIGAND FREE ENERGY PREDICTED BY IDOCK:   -1.00 KCAL/MOL
REMARK 927      BINDING AFFINITY PREDICTED BY RF-SCORE:    0.00 PKD
ROOT
HETATM    1  O   UNL     1      -7.266   5.528  70.486  1.00  0.00    -0.065 OA 
HETATM    2  C   UNL     1      -8.272   6.546  70.523  1.00  0.00    -0.118 C  
HETATM    3  H   UNL     1      -7.401   4.921  71.204  1.00  0.00     0.000 HD 
ENDROOT
BRANCH   2   4
HETATM    4  C   UNL     1      -9.657   5.855  70.444  1.00  0.00    -0.168 C  
BRANCH   4   5
HETATM    5  N   UNL     1     -10.712   6.349  71.404  1.00  0.00    -0.237 NA 
BRANCH   5   6
HETATM    6  C   UNL     1     -11.124   5.186  72.276  1.00  0.00    -0.107 C  
HETATM    7  O   UNL     1     -10.413   6.578  74.108  1.00  0.00    -0.337 OA 
HETATM    8  C   UNL     1     -10.573   5.299  73.695  1.00  0.00    -0.279 C  
HETATM    9  O   UNL     1     -10.322   4.337  74.404  1.00  0.00    -0.203 OA 
ENDBRANCH   5   6
BRANCH   5  10
HETATM   10  C   UNL     1     -11.917   6.779  70.611  1.00  0.00    -0.362 C  
HETATM   11  O   UNL     1     -12.276   8.352  72.391  1.00  0.00    -0.369 OA 
HETATM   12  O   UNL     1     -14.099   7.664  71.233  1.00  0.00    -0.361 OA 
HETATM   13  C   UNL     1     -12.894   7.617  71.438  1.00  0.00    -0.319 C  
ENDBRANCH   5  10
ENDBRANCH   4   5
ENDBRANCH   2   4
BRANCH   2  14
HETATM   14  C   UNL     1      -8.050   7.542  69.344  1.00  0.00    -0.128 C  
BRANCH  14  15
HETATM   15  N   UNL     1      -9.111   7.605  68.277  1.00  0.00    -0.137 NA 
BRANCH  15  16
HETATM   16  C   UNL     1      -9.003   8.948  67.592  1.00  0.00    -0.134 C  
HETATM   17  C   UNL     1     -10.360   9.590  67.325  1.00  0.00    -0.255 C  
HETATM   18  O   UNL     1     -11.295   9.239  68.246  1.00  0.00     0.150 OA 
HETATM   19  O   UNL     1     -10.579  10.385  66.426  1.00  0.00    -0.206 OA 
ENDBRANCH  15  16
BRANCH  15  20
HETATM   20  C   UNL     1      -8.783   6.558  67.225  1.00  0.00    -0.110 C  
HETATM   21  C   UNL     1      -9.938   5.596  66.946  1.00  0.00    -0.174 C  
HETATM   22  O   UNL     1     -11.157   6.148  67.156  1.00  0.00    -0.333 OA 
HETATM   23  O   UNL     1      -9.790   4.462  66.526  1.00  0.00    -0.199 OA 
ENDBRANCH  15  20
ENDBRANCH  14  15
ENDBRANCH   2  14
TORSDOF 8
ENDMDL
MODEL      310
REMARK 921   NORMALIZED FREE ENERGY PREDICTED BY IDOCK:   -2.81 KCAL/MOL
REMARK 922        TOTAL FREE ENERGY PREDICTED BY IDOCK:   -5.45 KCAL/MOL
REMARK 923 INTER-LIGAND FREE ENERGY PREDICTED BY IDOCK:   -4.68 KCAL/MOL
REMARK 924 INTRA-LIGAND FREE ENERGY PREDICTED BY IDOCK:   -0.77 KCAL/MOL
REMARK 927      BINDING AFFINITY PREDICTED BY RF-SCORE:    0.00 PKD
ROOT
HETATM    1  O   UNL     1     -12.281   8.779  70.358  1.00  0.00    -0.471 OA 
HETATM    2  C   UNL     1     -11.163   8.064  70.895  1.00  0.00    -0.266 C  
HETATM    3  H   UNL     1     -12.042   9.690  70.227  1.00  0.00     0.000 HD 
ENDROOT
BRANCH   2   4
HETATM    4  C   UNL     1      -9.978   8.214  69.908  1.00  0.00    -0.190 C  
BRANCH   4   5
HETATM    5  N   UNL     1     -10.264   8.947  68.619  1.00  0.00    -0.196 NA 
BRANCH   5   6
HETATM    6  C   UNL     1      -9.399   8.339  67.540  1.00  0.00    -0.140 C  
HETATM    7  O   UNL     1     -11.258   6.851  67.180  1.00  0.00    -0.352 OA 
HETATM    8  C   UNL     1      -9.914   6.977  67.080  1.00  0.00    -0.210 C  
HETATM    9  O   UNL     1      -9.195   6.094  66.640  1.00  0.00    -0.136 OA 
ENDBRANCH   5   6
BRANCH   5  10
HETATM   10  C   UNL     1      -9.850  10.385  68.784  1.00  0.00    -0.185 C  
HETATM   11  O   UNL     1     -12.136  10.894  68.254  1.00  0.00    -0.562 OA 
HETATM   12  O   UNL     1     -10.581  12.465  67.751  1.00  0.00    -0.210 OA 
HETATM   13  C   UNL     1     -10.868  11.360  68.190  1.00  0.00    -0.213 C  
ENDBRANCH   5  10
ENDBRANCH   4   5
ENDBRANCH   2   4
BRANCH   2  14
HETATM   14  C   UNL     1     -11.554   6.570  71.110  1.00  0.00    -0.335 C  
BRANCH  14  15
HETATM   15  N   UNL     1     -10.490   5.637  71.627  1.00  0.00    -0.222 NA 
BRANCH  15  16
HETATM   16  C   UNL     1     -11.141   4.679  72.597  1.00  0.00    -0.064 C  
HETATM   17  C   UNL     1     -10.251   4.344  73.789  1.00  0.00    -0.174 C  
HETATM   18  O   UNL     1      -9.411   5.361  74.117  1.00  0.00    -0.131 OA 
HETATM   19  O   UNL     1     -10.321   3.308  74.429  1.00  0.00    -0.161 OA 
ENDBRANCH  15  16
BRANCH  15  20
HETATM   20  C   UNL     1      -9.993   4.798  70.460  1.00  0.00    -0.236 C  
HETATM   21  C   UNL     1      -8.473   4.638  70.432  1.00  0.00    -0.079 C  
HETATM   22  O   UNL     1      -7.907   4.694  71.662  1.00  0.00    -0.091 OA 
HETATM   23  O   UNL     1      -7.832   4.427  69.418  1.00  0.00    -0.058 OA 
ENDBRANCH  15  20
ENDBRANCH  14  15
ENDBRANCH   2  14
TORSDOF 8
ENDMDL
MODEL      311
REMARK 921   NORMALIZED FREE ENERGY PREDICTED BY IDOCK:   -2.80 KCAL/MOL
REMARK 922        TOTAL FREE ENERGY PREDICTED BY IDOCK:   -5.44 KCAL/MOL
REMARK 923 INTER-LIGAND FREE ENERGY PREDICTED BY IDOCK:   -4.57 KCAL/MOL
REMARK 924 INTRA-LIGAND FREE ENERGY PREDICTED BY IDOCK:   -0.87 KCAL/MOL
REMARK 927      BINDING AFFINITY PREDICTED BY RF-SCORE:    0.00 PKD
ROOT
HETATM    1  O   UNL     1     -12.265  11.695  68.145  1.00  0.00    -0.537 OA 
HETATM    2  C   UNL     1     -10.980  11.554  67.527  1.00  0.00    -0.255 C  
HETATM    3  H   UNL     1     -12.897  11.149  67.692  1.00  0.00     0.000 HD 
ENDROOT
BRANCH   2   4
HETATM    4  C   UNL     1     -10.587  10.056  67.574  1.00  0.00    -0.280 C  
BRANCH   4   5
HETATM    5  N   UNL     1      -9.398   9.646  66.739  1.00  0.00    -0.148 NA 
BRANCH   5   6
HETATM    6  C   UNL     1      -9.888   9.382  65.335  1.00  0.00    -0.089 C  
HETATM    7  O   UNL     1      -7.911  10.570  64.644  1.00  0.00    -0.113 OA 
HETATM    8  C   UNL     1      -9.180  10.250  64.298  1.00  0.00    -0.257 C  
HETATM    9  O   UNL     1      -9.689  10.603  63.246  1.00  0.00    -0.304 OA 
ENDBRANCH   5   6
BRANCH   5  10
HETATM   10  C   UNL     1      -8.852   8.354  67.286  1.00  0.00    -0.130 C  
HETATM   11  O   UNL     1      -6.891   9.638  67.810  1.00  0.00    -0.076 OA 
HETATM   12  O   UNL     1      -6.608   7.419  67.441  1.00  0.00    -0.057 OA 
HETATM   13  C   UNL     1      -7.337   8.400  67.496  1.00  0.00    -0.093 C  
ENDBRANCH   5  10
ENDBRANCH   4   5
ENDBRANCH   2   4
BRANCH   2  14
HETATM   14  C   UNL     1      -9.943  12.451  68.271  1.00  0.00    -0.224 C  
BRANCH  14  15
HETATM   15  N   UNL     1     -10.230  13.928  68.352  1.00  0.00    -0.239 NA 
BRANCH  15  16
HETATM   16  C   UNL     1     -10.845  14.209  69.704  1.00  0.00    -0.019 C  
HETATM   17  C   UNL     1     -11.620  15.522  69.742  1.00  0.00    -0.334 C  
HETATM   18  O   UNL     1     -12.158  15.847  68.538  1.00  0.00    -0.208 OA 
HETATM   19  O   UNL     1     -11.798  16.185  70.750  1.00  0.00    -0.369 OA 
ENDBRANCH  15  16
BRANCH  15  20
HETATM   20  C   UNL     1      -8.901  14.666  68.322  1.00  0.00    -0.176 C  
HETATM   21  C   UNL     1      -8.684  15.471  67.041  1.00  0.00    -0.231 C  
HETATM   22  O   UNL     1      -9.838  15.900  66.476  1.00  0.00    -0.236 OA 
HETATM   23  O   UNL     1      -7.586  15.750  66.593  1.00  0.00    -0.196 OA 
ENDBRANCH  15  20
ENDBRANCH  14  15
ENDBRANCH   2  14
TORSDOF 8
ENDMDL
MODEL      312
REMARK 921   NORMALIZED FREE ENERGY PREDICTED BY IDOCK:   -2.79 KCAL/MOL
REMARK 922        TOTAL FREE ENERGY PREDICTED BY IDOCK:   -5.43 KCAL/MOL
REMARK 923 INTER-LIGAND FREE ENERGY PREDICTED BY IDOCK:   -7.24 KCAL/MOL
REMARK 924 INTRA-LIGAND FREE ENERGY PREDICTED BY IDOCK:    1.81 KCAL/MOL
REMARK 927      BINDING AFFINITY PREDICTED BY RF-SCORE:    0.00 PKD
ROOT
HETATM    1  O   UNL     1      -9.685  12.515  68.386  1.00  0.00    -0.221 OA 
HETATM    2  C   UNL     1     -11.075  12.174  68.367  1.00  0.00    -0.245 C  
HETATM    3  H   UNL     1      -9.331  12.358  69.254  1.00  0.00     0.000 HD 
ENDROOT
BRANCH   2   4
HETATM    4  C   UNL     1     -11.211  10.688  68.786  1.00  0.00    -0.279 C  
BRANCH   4   5
HETATM    5  N   UNL     1     -11.182  10.401  70.268  1.00  0.00    -0.304 NA 
BRANCH   5   6
HETATM    6  C   UNL     1      -9.904   9.655  70.570  1.00  0.00    -0.231 C  
HETATM    7  O   UNL     1     -10.767   7.987  69.062  1.00  0.00    -0.190 OA 
HETATM    8  C   UNL     1      -9.966   8.193  70.134  1.00  0.00    -0.187 C  
HETATM    9  O   UNL     1      -9.340   7.297  70.676  1.00  0.00    -0.158 OA 
ENDBRANCH   5   6
BRANCH   5  10
HETATM   10  C   UNL     1     -12.335   9.493  70.603  1.00  0.00    -0.080 C  
HETATM   11  O   UNL     1     -13.146  11.336  71.913  1.00  0.00    -0.493 OA 
HETATM   12  O   UNL     1     -13.761   9.253  72.562  1.00  0.00    -0.467 OA 
HETATM   13  C   UNL     1     -13.141   9.987  71.805  1.00  0.00    -0.457 C  
ENDBRANCH   5  10
ENDBRANCH   4   5
ENDBRANCH   2   4
BRANCH   2  14
HETATM   14  C   UNL     1     -11.656  12.431  66.942  1.00  0.00    -0.370 C  
BRANCH  14  15
HETATM   15  N   UNL     1     -10.676  12.596  65.810  1.00  0.00    -0.263 NA 
BRANCH  15  16
HETATM   16  C   UNL     1     -11.026  11.586  64.741  1.00  0.00    -0.273 C  
HETATM   17  C   UNL     1      -9.797  10.946  64.104  1.00  0.00    -0.314 C  
HETATM   18  O   UNL     1      -8.746  10.867  64.959  1.00  0.00    -0.179 OA 
HETATM   19  O   UNL     1      -9.769  10.491  62.972  1.00  0.00    -0.320 OA 
ENDBRANCH  15  16
BRANCH  15  20
HETATM   20  C   UNL     1     -10.896  13.968  65.195  1.00  0.00    -0.369 C  
HETATM   21  C   UNL     1     -12.254  14.114  64.507  1.00  0.00    -0.445 C  
HETATM   22  O   UNL     1     -13.215  13.329  65.050  1.00  0.00    -0.698 OA 
HETATM   23  O   UNL     1     -12.473  14.893  63.596  1.00  0.00    -0.699 OA 
ENDBRANCH  15  20
ENDBRANCH  14  15
ENDBRANCH   2  14
TORSDOF 8
ENDMDL
MODEL      313
REMARK 921   NORMALIZED FREE ENERGY PREDICTED BY IDOCK:   -2.79 KCAL/MOL
REMARK 922        TOTAL FREE ENERGY PREDICTED BY IDOCK:   -5.43 KCAL/MOL
REMARK 923 INTER-LIGAND FREE ENERGY PREDICTED BY IDOCK:   -5.73 KCAL/MOL
REMARK 924 INTRA-LIGAND FREE ENERGY PREDICTED BY IDOCK:    0.30 KCAL/MOL
REMARK 927      BINDING AFFINITY PREDICTED BY RF-SCORE:    0.00 PKD
ROOT
HETATM    1  O   UNL     1     -12.496  10.687  68.831  1.00  0.00    -0.791 OA 
HETATM    2  C   UNL     1     -11.481  11.211  67.967  1.00  0.00    -0.293 C  
HETATM    3  H   UNL     1     -13.030  10.063  68.352  1.00  0.00     0.000 HD 
ENDROOT
BRANCH   2   4
HETATM    4  C   UNL     1     -10.643  10.022  67.434  1.00  0.00    -0.271 C  
BRANCH   4   5
HETATM    5  N   UNL     1      -9.685   9.383  68.410  1.00  0.00    -0.146 NA 
BRANCH   5   6
HETATM    6  C   UNL     1      -8.307   9.414  67.794  1.00  0.00    -0.115 C  
HETATM    7  O   UNL     1      -7.656  10.551  69.815  1.00  0.00    -0.151 OA 
HETATM    8  C   UNL     1      -7.376  10.397  68.499  1.00  0.00    -0.086 C  
HETATM    9  O   UNL     1      -6.451  10.973  67.946  1.00  0.00    -0.060 OA 
ENDBRANCH   5   6
BRANCH   5  10
HETATM   10  C   UNL     1     -10.075   7.940  68.589  1.00  0.00    -0.197 C  
HETATM   11  O   UNL     1      -9.722   7.759  66.221  1.00  0.00    -0.176 OA 
HETATM   12  O   UNL     1     -11.203   6.322  67.160  1.00  0.00    -0.334 OA 
HETATM   13  C   UNL     1     -10.420   7.257  67.265  1.00  0.00    -0.310 C  
ENDBRANCH   5  10
ENDBRANCH   4   5
ENDBRANCH   2   4
BRANCH   2  14
HETATM   14  C   UNL     1     -10.605  12.234  68.752  1.00  0.00    -0.194 C  
BRANCH  14  15
HETATM   15  N   UNL     1     -10.885  13.699  68.540  1.00  0.00    -0.250 NA 
BRANCH  15  16
HETATM   16  C   UNL     1     -11.174  13.910  67.071  1.00  0.00    -0.313 C  
HETATM   17  C   UNL     1     -10.571  15.201  66.528  1.00  0.00    -0.304 C  
HETATM   18  O   UNL     1      -9.433  15.561  67.175  1.00  0.00    -0.209 OA 
HETATM   19  O   UNL     1     -11.016  15.818  65.574  1.00  0.00    -0.322 OA 
ENDBRANCH  15  16
BRANCH  15  20
HETATM   20  C   UNL     1     -12.165  14.046  69.284  1.00  0.00    -0.278 C  
HETATM   21  C   UNL     1     -11.920  14.781  70.602  1.00  0.00    -0.309 C  
HETATM   22  O   UNL     1     -10.783  15.519  70.599  1.00  0.00    -0.325 OA 
HETATM   23  O   UNL     1     -12.688  14.756  71.547  1.00  0.00    -0.297 OA 
ENDBRANCH  15  20
ENDBRANCH  14  15
ENDBRANCH   2  14
TORSDOF 8
ENDMDL
MODEL      314
REMARK 921   NORMALIZED FREE ENERGY PREDICTED BY IDOCK:   -2.78 KCAL/MOL
REMARK 922        TOTAL FREE ENERGY PREDICTED BY IDOCK:   -5.42 KCAL/MOL
REMARK 923 INTER-LIGAND FREE ENERGY PREDICTED BY IDOCK:   -4.57 KCAL/MOL
REMARK 924 INTRA-LIGAND FREE ENERGY PREDICTED BY IDOCK:   -0.85 KCAL/MOL
REMARK 927      BINDING AFFINITY PREDICTED BY RF-SCORE:    0.00 PKD
ROOT
HETATM    1  O   UNL     1      -8.820   5.969  70.521  1.00  0.00    -0.142 OA 
HETATM    2  C   UNL     1      -9.899   6.681  69.905  1.00  0.00    -0.167 C  
HETATM    3  H   UNL     1      -8.463   6.487  71.233  1.00  0.00     0.000 HD 
ENDROOT
BRANCH   2   4
HETATM    4  C   UNL     1     -10.962   6.977  70.994  1.00  0.00    -0.251 C  
BRANCH   4   5
HETATM    5  N   UNL     1     -11.639   8.324  70.924  1.00  0.00    -0.277 NA 
BRANCH   5   6
HETATM    6  C   UNL     1     -10.590   9.351  70.571  1.00  0.00    -0.271 C  
HETATM    7  O   UNL     1     -12.408  10.549  69.541  1.00  0.00    -0.191 OA 
HETATM    8  C   UNL     1     -11.072  10.333  69.506  1.00  0.00    -0.262 C  
HETATM    9  O   UNL     1     -10.330  10.893  68.714  1.00  0.00    -0.181 OA 
ENDBRANCH   5   6
BRANCH   5  10
HETATM   10  C   UNL     1     -12.173   8.662  72.290  1.00  0.00    -0.378 C  
HETATM   11  O   UNL     1     -14.290   7.925  71.426  1.00  0.00    -0.413 OA 
HETATM   12  O   UNL     1     -14.330   9.460  73.093  1.00  0.00    -0.186 OA 
HETATM   13  C   UNL     1     -13.700   8.755  72.317  1.00  0.00    -0.440 C  
ENDBRANCH   5  10
ENDBRANCH   4   5
ENDBRANCH   2   4
BRANCH   2  14
HETATM   14  C   UNL     1     -10.485   5.830  68.737  1.00  0.00    -0.242 C  
BRANCH  14  15
HETATM   15  N   UNL     1      -9.628   5.645  67.512  1.00  0.00    -0.114 NA 
BRANCH  15  16
HETATM   16  C   UNL     1      -9.983   4.312  66.893  1.00  0.00    -0.142 C  
HETATM   17  C   UNL     1      -8.875   3.275  67.043  1.00  0.00    -0.138 C  
HETATM   18  O   UNL     1      -8.134   3.459  68.166  1.00  0.00    -0.073 OA 
HETATM   19  O   UNL     1      -8.704   2.338  66.280  1.00  0.00    -0.111 OA 
ENDBRANCH  15  16
BRANCH  15  20
HETATM   20  C   UNL     1     -10.021   6.708  66.498  1.00  0.00    -0.084 C  
HETATM   21  C   UNL     1      -9.214   7.999  66.631  1.00  0.00    -0.180 C  
HETATM   22  O   UNL     1      -7.968   7.803  67.126  1.00  0.00    -0.113 OA 
HETATM   23  O   UNL     1      -9.620   9.093  66.280  1.00  0.00    -0.211 OA 
ENDBRANCH  15  20
ENDBRANCH  14  15
ENDBRANCH   2  14
TORSDOF 8
ENDMDL
MODEL      315
REMARK 921   NORMALIZED FREE ENERGY PREDICTED BY IDOCK:   -2.78 KCAL/MOL
REMARK 922        TOTAL FREE ENERGY PREDICTED BY IDOCK:   -5.41 KCAL/MOL
REMARK 923 INTER-LIGAND FREE ENERGY PREDICTED BY IDOCK:   -4.14 KCAL/MOL
REMARK 924 INTRA-LIGAND FREE ENERGY PREDICTED BY IDOCK:   -1.28 KCAL/MOL
REMARK 927      BINDING AFFINITY PREDICTED BY RF-SCORE:    0.00 PKD
ROOT
HETATM    1  O   UNL     1     -11.331   7.316  69.118  1.00  0.00    -0.454 OA 
HETATM    2  C   UNL     1     -10.453   8.086  68.289  1.00  0.00    -0.161 C  
HETATM    3  H   UNL     1     -11.458   7.762  69.947  1.00  0.00     0.000 HD 
ENDROOT
BRANCH   2   4
HETATM    4  C   UNL     1     -11.082   9.489  68.099  1.00  0.00     0.006 C  
BRANCH   4   5
HETATM    5  N   UNL     1     -10.508  10.604  68.940  1.00  0.00    -0.198 NA 
BRANCH   5   6
HETATM    6  C   UNL     1     -11.604  11.110  69.847  1.00  0.00    -0.337 C  
HETATM    7  O   UNL     1     -10.708   9.553  71.452  1.00  0.00    -0.346 OA 
HETATM    8  C   UNL     1     -11.829  10.200  71.052  1.00  0.00    -0.383 C  
HETATM    9  O   UNL     1     -12.902  10.080  71.622  1.00  0.00    -0.370 OA 
ENDBRANCH   5   6
BRANCH   5  10
HETATM   10  C   UNL     1     -10.107  11.734  68.029  1.00  0.00    -0.192 C  
HETATM   11  O   UNL     1      -7.901  11.405  68.922  1.00  0.00    -0.138 OA 
HETATM   12  O   UNL     1      -8.418  13.482  68.176  1.00  0.00    -0.157 OA 
HETATM   13  C   UNL     1      -8.742  12.322  68.390  1.00  0.00    -0.139 C  
ENDBRANCH   5  10
ENDBRANCH   4   5
ENDBRANCH   2   4
BRANCH   2  14
HETATM   14  C   UNL     1     -10.245   7.353  66.928  1.00  0.00    -0.276 C  
BRANCH  14  15
HETATM   15  N   UNL     1      -8.835   7.227  66.413  1.00  0.00    -0.144 NA 
BRANCH  15  16
HETATM   16  C   UNL     1      -8.711   5.892  65.715  1.00  0.00    -0.151 C  
HETATM   17  C   UNL     1      -7.605   5.018  66.299  1.00  0.00    -0.087 C  
HETATM   18  O   UNL     1      -7.399   5.248  67.621  1.00  0.00    -0.074 OA 
HETATM   19  O   UNL     1      -7.009   4.158  65.673  1.00  0.00    -0.059 OA 
ENDBRANCH  15  16
BRANCH  15  20
HETATM   20  C   UNL     1      -8.628   8.291  65.346  1.00  0.00    -0.151 C  
HETATM   21  C   UNL     1      -7.720   9.434  65.797  1.00  0.00    -0.099 C  
HETATM   22  O   UNL     1      -6.806   9.057  66.723  1.00  0.00    -0.078 OA 
HETATM   23  O   UNL     1      -7.769  10.562  65.339  1.00  0.00    -0.149 OA 
ENDBRANCH  15  20
ENDBRANCH  14  15
ENDBRANCH   2  14
TORSDOF 8
ENDMDL
MODEL      316
REMARK 921   NORMALIZED FREE ENERGY PREDICTED BY IDOCK:   -2.77 KCAL/MOL
REMARK 922        TOTAL FREE ENERGY PREDICTED BY IDOCK:   -5.40 KCAL/MOL
REMARK 923 INTER-LIGAND FREE ENERGY PREDICTED BY IDOCK:   -4.22 KCAL/MOL
REMARK 924 INTRA-LIGAND FREE ENERGY PREDICTED BY IDOCK:   -1.18 KCAL/MOL
REMARK 927      BINDING AFFINITY PREDICTED BY RF-SCORE:    0.00 PKD
ROOT
HETATM    1  O   UNL     1     -11.137   8.783  67.658  1.00  0.00    -0.480 OA 
HETATM    2  C   UNL     1     -10.123   7.922  68.188  1.00  0.00    -0.191 C  
HETATM    3  H   UNL     1     -10.731   9.476  67.151  1.00  0.00     0.000 HD 
ENDROOT
BRANCH   2   4
HETATM    4  C   UNL     1      -9.299   7.362  67.000  1.00  0.00    -0.149 C  
BRANCH   4   5
HETATM    5  N   UNL     1      -8.812   5.939  67.130  1.00  0.00    -0.108 NA 
BRANCH   5   6
HETATM    6  C   UNL     1      -7.311   5.948  66.966  1.00  0.00    -0.076 C  
HETATM    7  O   UNL     1      -7.265   5.209  69.258  1.00  0.00    -0.055 OA 
HETATM    8  C   UNL     1      -6.578   5.881  68.304  1.00  0.00    -0.052 C  
HETATM    9  O   UNL     1      -5.473   6.361  68.497  1.00  0.00    -0.010 OA 
ENDBRANCH   5   6
BRANCH   5  10
HETATM   10  C   UNL     1      -9.393   5.129  66.002  1.00  0.00    -0.158 C  
HETATM   11  O   UNL     1      -9.654   3.398  67.646  1.00  0.00    -0.205 OA 
HETATM   12  O   UNL     1      -9.410   2.749  65.488  1.00  0.00    -0.140 OA 
HETATM   13  C   UNL     1      -9.464   3.636  66.328  1.00  0.00    -0.165 C  
ENDBRANCH   5  10
ENDBRANCH   4   5
ENDBRANCH   2   4
BRANCH   2  14
HETATM   14  C   UNL     1     -10.788   6.784  69.021  1.00  0.00    -0.249 C  
BRANCH  14  15
HETATM   15  N   UNL     1     -10.814   6.941  70.519  1.00  0.00    -0.242 NA 
BRANCH  15  16
HETATM   16  C   UNL     1     -12.258   7.075  70.948  1.00  0.00    -0.342 C  
HETATM   17  C   UNL     1     -12.621   8.494  71.374  1.00  0.00    -0.283 C  
HETATM   18  O   UNL     1     -11.892   9.438  70.725  1.00  0.00    -0.276 OA 
HETATM   19  O   UNL     1     -13.511   8.767  72.162  1.00  0.00    -0.373 OA 
ENDBRANCH  15  16
BRANCH  15  20
HETATM   20  C   UNL     1     -10.301   5.650  71.136  1.00  0.00    -0.232 C  
HETATM   21  C   UNL     1      -9.471   5.870  72.401  1.00  0.00    -0.146 C  
HETATM   22  O   UNL     1      -9.823   6.986  73.084  1.00  0.00    -0.168 OA 
HETATM   23  O   UNL     1      -8.613   5.100  72.793  1.00  0.00    -0.119 OA 
ENDBRANCH  15  20
ENDBRANCH  14  15
ENDBRANCH   2  14
TORSDOF 8
ENDMDL
MODEL      317
REMARK 921   NORMALIZED FREE ENERGY PREDICTED BY IDOCK:   -2.77 KCAL/MOL
REMARK 922        TOTAL FREE ENERGY PREDICTED BY IDOCK:   -5.40 KCAL/MOL
REMARK 923 INTER-LIGAND FREE ENERGY PREDICTED BY IDOCK:   -4.20 KCAL/MOL
REMARK 924 INTRA-LIGAND FREE ENERGY PREDICTED BY IDOCK:   -1.20 KCAL/MOL
REMARK 927      BINDING AFFINITY PREDICTED BY RF-SCORE:    0.00 PKD
ROOT
HETATM    1  O   UNL     1     -10.927   7.765  67.182  1.00  0.00    -0.515 OA 
HETATM    2  C   UNL     1     -10.963   6.768  68.210  1.00  0.00    -0.197 C  
HETATM    3  H   UNL     1     -11.232   8.594  67.532  1.00  0.00     0.000 HD 
ENDROOT
BRANCH   2   4
HETATM    4  C   UNL     1     -10.080   7.259  69.385  1.00  0.00    -0.183 C  
BRANCH   4   5
HETATM    5  N   UNL     1     -10.754   7.375  70.731  1.00  0.00    -0.228 NA 
BRANCH   5   6
HETATM    6  C   UNL     1      -9.927   6.602  71.731  1.00  0.00    -0.175 C  
HETATM    7  O   UNL     1      -9.071   8.759  72.376  1.00  0.00    -0.366 OA 
HETATM    8  C   UNL     1      -8.788   7.437  72.313  1.00  0.00    -0.124 C  
HETATM    9  O   UNL     1      -7.735   6.964  72.709  1.00  0.00    -0.093 OA 
ENDBRANCH   5   6
BRANCH   5  10
HETATM   10  C   UNL     1     -12.106   6.717  70.647  1.00  0.00    -0.314 C  
HETATM   11  O   UNL     1     -12.957   8.827  71.419  1.00  0.00    -0.320 OA 
HETATM   12  O   UNL     1     -14.173   6.978  71.908  1.00  0.00    -0.343 OA 
HETATM   13  C   UNL     1     -13.183   7.493  71.407  1.00  0.00    -0.316 C  
ENDBRANCH   5  10
ENDBRANCH   4   5
ENDBRANCH   2   4
BRANCH   2  14
HETATM   14  C   UNL     1     -10.462   5.408  67.635  1.00  0.00    -0.150 C  
BRANCH  14  15
HETATM   15  N   UNL     1      -9.036   5.014  67.919  1.00  0.00    -0.106 NA 
BRANCH  15  16
HETATM   16  C   UNL     1      -9.059   3.816  68.841  1.00  0.00    -0.142 C  
HETATM   17  C   UNL     1      -7.818   3.723  69.723  1.00  0.00    -0.051 C  
HETATM   18  O   UNL     1      -7.288   4.940  70.012  1.00  0.00    -0.053 OA 
HETATM   19  O   UNL     1      -7.379   2.681  70.181  1.00  0.00    -0.040 OA 
ENDBRANCH  15  16
BRANCH  15  20
HETATM   20  C   UNL     1      -8.410   4.542  66.616  1.00  0.00    -0.106 C  
HETATM   21  C   UNL     1      -8.352   5.629  65.543  1.00  0.00    -0.139 C  
HETATM   22  O   UNL     1      -8.262   6.881  66.054  1.00  0.00    -0.112 OA 
HETATM   23  O   UNL     1      -8.333   5.402  64.346  1.00  0.00    -0.133 OA 
ENDBRANCH  15  20
ENDBRANCH  14  15
ENDBRANCH   2  14
TORSDOF 8
ENDMDL
MODEL      318
REMARK 921   NORMALIZED FREE ENERGY PREDICTED BY IDOCK:   -2.77 KCAL/MOL
REMARK 922        TOTAL FREE ENERGY PREDICTED BY IDOCK:   -5.40 KCAL/MOL
REMARK 923 INTER-LIGAND FREE ENERGY PREDICTED BY IDOCK:   -5.75 KCAL/MOL
REMARK 924 INTRA-LIGAND FREE ENERGY PREDICTED BY IDOCK:    0.36 KCAL/MOL
REMARK 927      BINDING AFFINITY PREDICTED BY RF-SCORE:    0.00 PKD
ROOT
HETATM    1  O   UNL     1     -12.650  10.799  68.682  1.00  0.00    -0.669 OA 
HETATM    2  C   UNL     1     -11.651  11.767  68.345  1.00  0.00    -0.318 C  
HETATM    3  H   UNL     1     -12.918  10.332  67.899  1.00  0.00     0.000 HD 
ENDROOT
BRANCH   2   4
HETATM    4  C   UNL     1     -10.464  11.021  67.683  1.00  0.00    -0.204 C  
BRANCH   4   5
HETATM    5  N   UNL     1     -10.401   9.529  67.902  1.00  0.00    -0.213 NA 
BRANCH   5   6
HETATM    6  C   UNL     1      -9.294   9.253  68.892  1.00  0.00    -0.150 C  
HETATM    7  O   UNL     1     -10.868   7.745  69.916  1.00  0.00    -0.247 OA 
HETATM    8  C   UNL     1      -9.797   8.541  70.145  1.00  0.00    -0.178 C  
HETATM    9  O   UNL     1      -9.277   8.653  71.244  1.00  0.00    -0.178 OA 
ENDBRANCH   5   6
BRANCH   5  10
HETATM   10  C   UNL     1     -10.029   8.869  66.601  1.00  0.00    -0.276 C  
HETATM   11  O   UNL     1      -8.048  10.224  66.712  1.00  0.00    -0.117 OA 
HETATM   12  O   UNL     1      -8.767   9.607  64.652  1.00  0.00    -0.173 OA 
HETATM   13  C   UNL     1      -8.908   9.609  65.867  1.00  0.00    -0.153 C  
ENDBRANCH   5  10
ENDBRANCH   4   5
ENDBRANCH   2   4
BRANCH   2  14
HETATM   14  C   UNL     1     -11.211  12.533  69.630  1.00  0.00    -0.020 C  
BRANCH  14  15
HETATM   15  N   UNL     1     -11.546  13.999  69.717  1.00  0.00    -0.283 NA 
BRANCH  15  16
HETATM   16  C   UNL     1     -11.841  14.493  68.319  1.00  0.00    -0.312 C  
HETATM   17  C   UNL     1     -10.685  15.281  67.712  1.00  0.00    -0.286 C  
HETATM   18  O   UNL     1      -9.474  14.875  68.175  1.00  0.00    -0.194 OA 
HETATM   19  O   UNL     1     -10.815  16.141  66.856  1.00  0.00    -0.282 OA 
ENDBRANCH  15  16
BRANCH  15  20
HETATM   20  C   UNL     1     -12.839  14.140  70.504  1.00  0.00    -0.247 C  
HETATM   21  C   UNL     1     -12.619  14.283  72.010  1.00  0.00    -0.298 C  
HETATM   22  O   UNL     1     -11.435  14.863  72.325  1.00  0.00    -0.301 OA 
HETATM   23  O   UNL     1     -13.441  13.961  72.850  1.00  0.00    -0.653 OA 
ENDBRANCH  15  20
ENDBRANCH  14  15
ENDBRANCH   2  14
TORSDOF 8
ENDMDL
MODEL      319
REMARK 921   NORMALIZED FREE ENERGY PREDICTED BY IDOCK:   -2.76 KCAL/MOL
REMARK 922        TOTAL FREE ENERGY PREDICTED BY IDOCK:   -5.39 KCAL/MOL
REMARK 923 INTER-LIGAND FREE ENERGY PREDICTED BY IDOCK:   -4.28 KCAL/MOL
REMARK 924 INTRA-LIGAND FREE ENERGY PREDICTED BY IDOCK:   -1.11 KCAL/MOL
REMARK 927      BINDING AFFINITY PREDICTED BY RF-SCORE:    0.00 PKD
ROOT
HETATM    1  O   UNL     1      -7.347   8.310  67.367  1.00  0.00    -0.089 OA 
HETATM    2  C   UNL     1      -8.014   8.566  68.608  1.00  0.00    -0.116 C  
HETATM    3  H   UNL     1      -7.154   7.383  67.296  1.00  0.00     0.000 HD 
ENDROOT
BRANCH   2   4
HETATM    4  C   UNL     1      -9.300   7.703  68.649  1.00  0.00    -0.147 C  
BRANCH   4   5
HETATM    5  N   UNL     1      -9.641   7.065  69.974  1.00  0.00    -0.164 NA 
BRANCH   5   6
HETATM    6  C   UNL     1     -10.313   5.743  69.692  1.00  0.00    -0.260 C  
HETATM    7  O   UNL     1      -8.086   4.830  69.776  1.00  0.00    -0.068 OA 
HETATM    8  C   UNL     1      -9.323   4.669  69.248  1.00  0.00    -0.142 C  
HETATM    9  O   UNL     1      -9.613   3.740  68.512  1.00  0.00    -0.162 OA 
ENDBRANCH   5   6
BRANCH   5  10
HETATM   10  C   UNL     1     -10.635   7.943  70.687  1.00  0.00    -0.219 C  
HETATM   11  O   UNL     1      -9.422   7.361  72.676  1.00  0.00    -0.142 OA 
HETATM   12  O   UNL     1     -11.611   7.897  72.917  1.00  0.00    -0.383 OA 
HETATM   13  C   UNL     1     -10.636   7.721  72.200  1.00  0.00    -0.240 C  
ENDBRANCH   5  10
ENDBRANCH   4   5
ENDBRANCH   2   4
BRANCH   2  14
HETATM   14  C   UNL     1      -8.331  10.089  68.725  1.00  0.00    -0.121 C  
BRANCH  14  15
HETATM   15  N   UNL     1      -8.755  10.811  67.473  1.00  0.00    -0.125 NA 
BRANCH  15  16
HETATM   16  C   UNL     1     -10.182  11.273  67.662  1.00  0.00    -0.181 C  
HETATM   17  C   UNL     1     -10.946  11.394  66.348  1.00  0.00    -0.260 C  
HETATM   18  O   UNL     1     -10.511  10.516  65.407  1.00  0.00    -0.244 OA 
HETATM   19  O   UNL     1     -11.889  12.147  66.169  1.00  0.00    -0.543 OA 
ENDBRANCH  15  16
BRANCH  15  20
HETATM   20  C   UNL     1      -7.909  12.068  67.346  1.00  0.00    -0.162 C  
HETATM   21  C   UNL     1      -6.520  11.807  66.764  1.00  0.00    -0.069 C  
HETATM   22  O   UNL     1      -6.482  10.742  65.927  1.00  0.00    -0.125 OA 
HETATM   23  O   UNL     1      -5.550  12.511  66.981  1.00  0.00    -0.322 OA 
ENDBRANCH  15  20
ENDBRANCH  14  15
ENDBRANCH   2  14
TORSDOF 8
ENDMDL
MODEL      320
REMARK 921   NORMALIZED FREE ENERGY PREDICTED BY IDOCK:   -2.76 KCAL/MOL
REMARK 922        TOTAL FREE ENERGY PREDICTED BY IDOCK:   -5.38 KCAL/MOL
REMARK 923 INTER-LIGAND FREE ENERGY PREDICTED BY IDOCK:   -4.18 KCAL/MOL
REMARK 924 INTRA-LIGAND FREE ENERGY PREDICTED BY IDOCK:   -1.21 KCAL/MOL
REMARK 927      BINDING AFFINITY PREDICTED BY RF-SCORE:    0.00 PKD
ROOT
HETATM    1  O   UNL     1     -11.927   8.238  70.387  1.00  0.00    -0.480 OA 
HETATM    2  C   UNL     1     -10.832   7.405  69.988  1.00  0.00    -0.252 C  
HETATM    3  H   UNL     1     -11.792   9.119  70.059  1.00  0.00     0.000 HD 
ENDROOT
BRANCH   2   4
HETATM    4  C   UNL     1     -10.744   7.437  68.441  1.00  0.00    -0.096 C  
BRANCH   4   5
HETATM    5  N   UNL     1      -9.811   8.462  67.841  1.00  0.00    -0.162 NA 
BRANCH   5   6
HETATM    6  C   UNL     1     -10.654   9.497  67.136  1.00  0.00    -0.225 C  
HETATM    7  O   UNL     1     -10.167  10.888  69.041  1.00  0.00    -0.198 OA 
HETATM    8  C   UNL     1     -11.068  10.640  68.061  1.00  0.00    -0.301 C  
HETATM    9  O   UNL     1     -12.093  11.287  67.923  1.00  0.00    -0.634 OA 
ENDBRANCH   5   6
BRANCH   5  10
HETATM   10  C   UNL     1      -8.956   7.782  66.805  1.00  0.00    -0.139 C  
HETATM   11  O   UNL     1      -7.114   8.370  68.230  1.00  0.00    -0.081 OA 
HETATM   12  O   UNL     1      -6.680   8.141  66.017  1.00  0.00    -0.052 OA 
HETATM   13  C   UNL     1      -7.474   8.130  66.948  1.00  0.00    -0.091 C  
ENDBRANCH   5  10
ENDBRANCH   4   5
ENDBRANCH   2   4
BRANCH   2  14
HETATM   14  C   UNL     1     -11.054   5.959  70.528  1.00  0.00    -0.277 C  
BRANCH  14  15
HETATM   15  N   UNL     1      -9.833   5.162  70.907  1.00  0.00    -0.187 NA 
BRANCH  15  16
HETATM   16  C   UNL     1      -9.965   4.772  72.361  1.00  0.00    -0.174 C  
HETATM   17  C   UNL     1      -8.620   4.677  73.074  1.00  0.00    -0.113 C  
HETATM   18  O   UNL     1      -7.693   5.525  72.558  1.00  0.00    -0.099 OA 
HETATM   19  O   UNL     1      -8.406   3.970  74.045  1.00  0.00    -0.090 OA 
ENDBRANCH  15  16
BRANCH  15  20
HETATM   20  C   UNL     1      -9.852   3.867  70.110  1.00  0.00    -0.092 C  
HETATM   21  C   UNL     1      -9.167   3.982  68.748  1.00  0.00    -0.151 C  
HETATM   22  O   UNL     1      -8.180   4.910  68.723  1.00  0.00    -0.083 OA 
HETATM   23  O   UNL     1      -9.437   3.279  67.791  1.00  0.00    -0.200 OA 
ENDBRANCH  15  20
ENDBRANCH  14  15
ENDBRANCH   2  14
TORSDOF 8
ENDMDL
MODEL      321
REMARK 921   NORMALIZED FREE ENERGY PREDICTED BY IDOCK:   -2.75 KCAL/MOL
REMARK 922        TOTAL FREE ENERGY PREDICTED BY IDOCK:   -5.37 KCAL/MOL
REMARK 923 INTER-LIGAND FREE ENERGY PREDICTED BY IDOCK:   -6.09 KCAL/MOL
REMARK 924 INTRA-LIGAND FREE ENERGY PREDICTED BY IDOCK:    0.73 KCAL/MOL
REMARK 927      BINDING AFFINITY PREDICTED BY RF-SCORE:    0.00 PKD
ROOT
HETATM    1  O   UNL     1      -9.080  11.641  68.773  1.00  0.00    -0.338 OA 
HETATM    2  C   UNL     1     -10.492  11.409  68.811  1.00  0.00    -0.204 C  
HETATM    3  H   UNL     1      -8.684  11.328  69.578  1.00  0.00     0.000 HD 
ENDROOT
BRANCH   2   4
HETATM    4  C   UNL     1     -10.724   9.890  69.016  1.00  0.00    -0.222 C  
BRANCH   4   5
HETATM    5  N   UNL     1     -10.642   9.382  70.436  1.00  0.00    -0.240 NA 
BRANCH   5   6
HETATM    6  C   UNL     1      -9.570   8.320  70.485  1.00  0.00    -0.167 C  
HETATM    7  O   UNL     1      -9.386   8.909  72.813  1.00  0.00    -0.227 OA 
HETATM    8  C   UNL     1      -8.715   8.414  71.747  1.00  0.00    -0.180 C  
HETATM    9  O   UNL     1      -7.549   8.056  71.805  1.00  0.00    -0.073 OA 
ENDBRANCH   5   6
BRANCH   5  10
HETATM   10  C   UNL     1     -11.953   8.730  70.787  1.00  0.00    -0.133 C  
HETATM   11  O   UNL     1     -12.544  10.871  71.700  1.00  0.00    -0.375 OA 
HETATM   12  O   UNL     1     -13.546   9.048  72.601  1.00  0.00    -0.465 OA 
HETATM   13  C   UNL     1     -12.756   9.539  71.807  1.00  0.00    -0.404 C  
ENDBRANCH   5  10
ENDBRANCH   4   5
ENDBRANCH   2   4
BRANCH   2  14
HETATM   14  C   UNL     1     -11.141  11.922  67.489  1.00  0.00    -0.273 C  
BRANCH  14  15
HETATM   15  N   UNL     1     -11.864  13.243  67.535  1.00  0.00    -0.361 NA 
BRANCH  15  16
HETATM   16  C   UNL     1     -11.024  14.205  68.343  1.00  0.00    -0.254 C  
HETATM   17  C   UNL     1     -11.799  14.857  69.483  1.00  0.00    -0.325 C  
HETATM   18  O   UNL     1     -12.785  14.059  69.969  1.00  0.00    -0.276 OA 
HETATM   19  O   UNL     1     -11.532  15.947  69.960  1.00  0.00    -0.313 OA 
ENDBRANCH  15  16
BRANCH  15  20
HETATM   20  C   UNL     1     -11.915  13.800  66.121  1.00  0.00    -0.418 C  
HETATM   21  C   UNL     1     -10.576  13.717  65.388  1.00  0.00    -0.322 C  
HETATM   22  O   UNL     1      -9.802  12.686  65.803  1.00  0.00    -0.264 OA 
HETATM   23  O   UNL     1     -10.250  14.466  64.484  1.00  0.00    -0.262 OA 
ENDBRANCH  15  20
ENDBRANCH  14  15
ENDBRANCH   2  14
TORSDOF 8
ENDMDL
MODEL      322
REMARK 921   NORMALIZED FREE ENERGY PREDICTED BY IDOCK:   -2.74 KCAL/MOL
REMARK 922        TOTAL FREE ENERGY PREDICTED BY IDOCK:   -5.36 KCAL/MOL
REMARK 923 INTER-LIGAND FREE ENERGY PREDICTED BY IDOCK:   -6.65 KCAL/MOL
REMARK 924 INTRA-LIGAND FREE ENERGY PREDICTED BY IDOCK:    1.29 KCAL/MOL
REMARK 927      BINDING AFFINITY PREDICTED BY RF-SCORE:    0.00 PKD
ROOT
HETATM    1  O   UNL     1     -11.372  14.787  66.977  1.00  0.00    -0.338 OA 
HETATM    2  C   UNL     1     -10.916  15.718  67.965  1.00  0.00    -0.330 C  
HETATM    3  H   UNL     1     -11.567  15.250  66.171  1.00  0.00     0.000 HD 
ENDROOT
BRANCH   2   4
HETATM    4  C   UNL     1      -9.670  16.445  67.401  1.00  0.00    -0.238 C  
BRANCH   4   5
HETATM    5  N   UNL     1      -9.449  17.864  67.868  1.00  0.00    -0.266 NA 
BRANCH   5   6
HETATM    6  C   UNL     1     -10.627  18.690  67.410  1.00  0.00    -0.441 C  
HETATM    7  O   UNL     1     -10.294  17.609  65.284  1.00  0.00    -0.554 OA 
HETATM    8  C   UNL     1     -10.756  18.728  65.889  1.00  0.00    -0.264 C  
HETATM    9  O   UNL     1     -11.250  19.660  65.274  1.00  0.00    -0.340 OA 
ENDBRANCH   5   6
BRANCH   5  10
HETATM   10  C   UNL     1      -8.217  18.405  67.191  1.00  0.00    -0.245 C  
HETATM   11  O   UNL     1      -7.876  19.625  69.232  1.00  0.00    -0.290 OA 
HETATM   12  O   UNL     1      -7.025  20.523  67.332  1.00  0.00    -0.272 OA 
HETATM   13  C   UNL     1      -7.654  19.639  67.897  1.00  0.00    -0.296 C  
ENDBRANCH   5  10
ENDBRANCH   4   5
ENDBRANCH   2   4
BRANCH   2  14
HETATM   14  C   UNL     1     -10.595  14.958  69.289  1.00  0.00    -0.243 C  
BRANCH  14  15
HETATM   15  N   UNL     1     -11.751  14.360  70.047  1.00  0.00    -0.283 NA 
BRANCH  15  16
HETATM   16  C   UNL     1     -11.701  12.860  69.865  1.00  0.00    -0.254 C  
HETATM   17  C   UNL     1     -12.567  12.111  70.873  1.00  0.00    -0.247 C  
HETATM   18  O   UNL     1     -13.649  12.830  71.270  1.00  0.00     0.068 OA 
HETATM   19  O   UNL     1     -12.358  10.967  71.241  1.00  0.00    -0.358 OA 
ENDBRANCH  15  16
BRANCH  15  20
HETATM   20  C   UNL     1     -11.527  14.621  71.528  1.00  0.00    -0.003 C  
HETATM   21  C   UNL     1     -12.397  15.750  72.083  1.00  0.00    -0.456 C  
HETATM   22  O   UNL     1     -13.573  15.892  71.425  1.00  0.00    -0.475 OA 
HETATM   23  O   UNL     1     -12.096  16.425  73.051  1.00  0.00    -0.523 OA 
ENDBRANCH  15  20
ENDBRANCH  14  15
ENDBRANCH   2  14
TORSDOF 8
ENDMDL
MODEL      323
REMARK 921   NORMALIZED FREE ENERGY PREDICTED BY IDOCK:   -2.73 KCAL/MOL
REMARK 922        TOTAL FREE ENERGY PREDICTED BY IDOCK:   -5.34 KCAL/MOL
REMARK 923 INTER-LIGAND FREE ENERGY PREDICTED BY IDOCK:   -6.99 KCAL/MOL
REMARK 924 INTRA-LIGAND FREE ENERGY PREDICTED BY IDOCK:    1.64 KCAL/MOL
REMARK 927      BINDING AFFINITY PREDICTED BY RF-SCORE:    0.00 PKD
ROOT
HETATM    1  O   UNL     1      -9.945  13.034  69.059  1.00  0.00    -0.420 OA 
HETATM    2  C   UNL     1     -11.221  12.409  68.882  1.00  0.00    -0.280 C  
HETATM    3  H   UNL     1      -9.576  13.248  68.210  1.00  0.00     0.000 HD 
ENDROOT
BRANCH   2   4
HETATM    4  C   UNL     1     -12.127  13.384  68.087  1.00  0.00    -0.232 C  
BRANCH   4   5
HETATM    5  N   UNL     1     -11.983  14.852  68.410  1.00  0.00    -0.268 NA 
BRANCH   5   6
HETATM    6  C   UNL     1     -11.067  15.464  67.377  1.00  0.00    -0.311 C  
HETATM    7  O   UNL     1     -12.547  14.454  65.769  1.00  0.00    -0.397 OA 
HETATM    8  C   UNL     1     -11.277  14.870  65.987  1.00  0.00    -0.327 C  
HETATM    9  O   UNL     1     -10.401  14.798  65.140  1.00  0.00    -0.384 OA 
ENDBRANCH   5   6
BRANCH   5  10
HETATM   10  C   UNL     1     -11.314  14.983  69.753  1.00  0.00    -0.283 C  
HETATM   11  O   UNL     1     -13.498  15.579  70.557  1.00  0.00    -0.361 OA 
HETATM   12  O   UNL     1     -11.715  16.405  71.689  1.00  0.00    -0.465 OA 
HETATM   13  C   UNL     1     -12.171  15.749  70.762  1.00  0.00    -0.399 C  
ENDBRANCH   5  10
ENDBRANCH   4   5
ENDBRANCH   2   4
BRANCH   2  14
HETATM   14  C   UNL     1     -11.828  12.057  70.275  1.00  0.00    -0.270 C  
BRANCH  14  15
HETATM   15  N   UNL     1     -11.648  10.649  70.778  1.00  0.00    -0.332 NA 
BRANCH  15  16
HETATM   16  C   UNL     1     -13.018  10.086  71.083  1.00  0.00    -0.387 C  
HETATM   17  C   UNL     1     -12.960   8.764  71.842  1.00  0.00    -0.376 C  
HETATM   18  O   UNL     1     -11.863   8.664  72.636  1.00  0.00    -0.334 OA 
HETATM   19  O   UNL     1     -13.830   7.910  71.800  1.00  0.00    -0.363 OA 
ENDBRANCH  15  16
BRANCH  15  20
HETATM   20  C   UNL     1     -11.083   9.813  69.641  1.00  0.00    -0.217 C  
HETATM   21  C   UNL     1      -9.597   9.492  69.805  1.00  0.00    -0.216 C  
HETATM   22  O   UNL     1      -9.203   9.434  71.100  1.00  0.00    -0.230 OA 
HETATM   23  O   UNL     1      -8.846   9.258  68.875  1.00  0.00    -0.132 OA 
ENDBRANCH  15  20
ENDBRANCH  14  15
ENDBRANCH   2  14
TORSDOF 8
ENDMDL
MODEL      324
REMARK 921   NORMALIZED FREE ENERGY PREDICTED BY IDOCK:   -2.73 KCAL/MOL
REMARK 922        TOTAL FREE ENERGY PREDICTED BY IDOCK:   -5.33 KCAL/MOL
REMARK 923 INTER-LIGAND FREE ENERGY PREDICTED BY IDOCK:   -4.72 KCAL/MOL
REMARK 924 INTRA-LIGAND FREE ENERGY PREDICTED BY IDOCK:   -0.61 KCAL/MOL
REMARK 927      BINDING AFFINITY PREDICTED BY RF-SCORE:    0.00 PKD
ROOT
HETATM    1  O   UNL     1      -9.596   5.074  70.967  1.00  0.00    -0.153 OA 
HETATM    2  C   UNL     1     -10.161   6.091  70.132  1.00  0.00    -0.194 C  
HETATM    3  H   UNL     1      -9.307   5.460  71.786  1.00  0.00     0.000 HD 
ENDROOT
BRANCH   2   4
HETATM    4  C   UNL     1     -11.331   6.751  70.903  1.00  0.00    -0.315 C  
BRANCH   4   5
HETATM    5  N   UNL     1     -11.197   8.226  71.198  1.00  0.00    -0.252 NA 
BRANCH   5   6
HETATM    6  C   UNL     1     -10.209   8.383  72.330  1.00  0.00    -0.326 C  
HETATM    7  O   UNL     1      -8.864   9.559  70.716  1.00  0.00    -0.210 OA 
HETATM    8  C   UNL     1      -8.827   8.808  71.842  1.00  0.00    -0.154 C  
HETATM    9  O   UNL     1      -7.788   8.526  72.417  1.00  0.00    -0.250 OA 
ENDBRANCH   5   6
BRANCH   5  10
HETATM   10  C   UNL     1     -12.528   8.742  71.674  1.00  0.00    -0.339 C  
HETATM   11  O   UNL     1     -12.001  10.702  70.390  1.00  0.00    -0.286 OA 
HETATM   12  O   UNL     1     -13.378  10.970  72.171  1.00  0.00    -0.451 OA 
HETATM   13  C   UNL     1     -12.679  10.251  71.470  1.00  0.00    -0.452 C  
ENDBRANCH   5  10
ENDBRANCH   4   5
ENDBRANCH   2   4
BRANCH   2  14
HETATM   14  C   UNL     1     -10.635   5.457  68.788  1.00  0.00    -0.109 C  
BRANCH  14  15
HETATM   15  N   UNL     1      -9.682   5.503  67.621  1.00  0.00    -0.123 NA 
BRANCH  15  16
HETATM   16  C   UNL     1     -10.495   5.383  66.352  1.00  0.00    -0.267 C  
HETATM   17  C   UNL     1     -10.092   4.183  65.502  1.00  0.00    -0.187 C  
HETATM   18  O   UNL     1      -9.620   3.149  66.245  1.00  0.00    -0.093 OA 
HETATM   19  O   UNL     1     -10.236   4.120  64.292  1.00  0.00    -0.178 OA 
ENDBRANCH  15  16
BRANCH  15  20
HETATM   20  C   UNL     1      -9.040   6.881  67.593  1.00  0.00    -0.118 C  
HETATM   21  C   UNL     1      -7.705   6.943  68.335  1.00  0.00    -0.116 C  
HETATM   22  O   UNL     1      -7.041   5.762  68.340  1.00  0.00    -0.072 OA 
HETATM   23  O   UNL     1      -7.250   7.959  68.830  1.00  0.00    -0.076 OA 
ENDBRANCH  15  20
ENDBRANCH  14  15
ENDBRANCH   2  14
TORSDOF 8
ENDMDL
MODEL      325
REMARK 921   NORMALIZED FREE ENERGY PREDICTED BY IDOCK:   -2.73 KCAL/MOL
REMARK 922        TOTAL FREE ENERGY PREDICTED BY IDOCK:   -5.33 KCAL/MOL
REMARK 923 INTER-LIGAND FREE ENERGY PREDICTED BY IDOCK:   -4.33 KCAL/MOL
REMARK 924 INTRA-LIGAND FREE ENERGY PREDICTED BY IDOCK:   -1.01 KCAL/MOL
REMARK 927      BINDING AFFINITY PREDICTED BY RF-SCORE:    0.00 PKD
ROOT
HETATM    1  O   UNL     1      -9.900   8.231  65.974  1.00  0.00    -0.461 OA 
HETATM    2  C   UNL     1     -10.411   7.784  67.235  1.00  0.00    -0.322 C  
HETATM    3  H   UNL     1      -9.680   9.153  66.030  1.00  0.00     0.000 HD 
ENDROOT
BRANCH   2   4
HETATM    4  C   UNL     1      -9.333   8.056  68.314  1.00  0.00    -0.140 C  
BRANCH   4   5
HETATM    5  N   UNL     1      -9.606   9.195  69.267  1.00  0.00    -0.157 NA 
BRANCH   5   6
HETATM    6  C   UNL     1      -8.430   9.303  70.208  1.00  0.00    -0.203 C  
HETATM    7  O   UNL     1      -7.962  11.364  69.053  1.00  0.00    -0.115 OA 
HETATM    8  C   UNL     1      -7.410  10.341  69.748  1.00  0.00    -0.165 C  
HETATM    9  O   UNL     1      -6.217  10.278  69.998  1.00  0.00    -0.062 OA 
ENDBRANCH   5   6
BRANCH   5  10
HETATM   10  C   UNL     1     -10.821   8.851  70.088  1.00  0.00    -0.231 C  
HETATM   11  O   UNL     1     -11.348  11.188  69.921  1.00  0.00    -0.273 OA 
HETATM   12  O   UNL     1     -12.128  10.077  71.736  1.00  0.00    -0.373 OA 
HETATM   13  C   UNL     1     -11.489  10.086  70.693  1.00  0.00    -0.345 C  
ENDBRANCH   5  10
ENDBRANCH   4   5
ENDBRANCH   2   4
BRANCH   2  14
HETATM   14  C   UNL     1     -10.772   6.269  67.145  1.00  0.00    -0.359 C  
BRANCH  14  15
HETATM   15  N   UNL     1      -9.682   5.316  66.731  1.00  0.00    -0.146 NA 
BRANCH  15  16
HETATM   16  C   UNL     1      -9.315   4.478  67.934  1.00  0.00    -0.140 C  
HETATM   17  C   UNL     1      -7.810   4.277  68.081  1.00  0.00    -0.079 C  
HETATM   18  O   UNL     1      -7.093   5.319  67.588  1.00  0.00    -0.064 OA 
HETATM   19  O   UNL     1      -7.296   3.321  68.637  1.00  0.00    -0.049 OA 
ENDBRANCH  15  16
BRANCH  15  20
HETATM   20  C   UNL     1     -10.260   4.359  65.700  1.00  0.00    -0.238 C  
HETATM   21  C   UNL     1      -9.480   4.341  64.385  1.00  0.00    -0.149 C  
HETATM   22  O   UNL     1      -8.166   4.637  64.539  1.00  0.00    -0.100 OA 
HETATM   23  O   UNL     1      -9.968   4.040  63.311  1.00  0.00    -0.156 OA 
ENDBRANCH  15  20
ENDBRANCH  14  15
ENDBRANCH   2  14
TORSDOF 8
ENDMDL
MODEL      326
REMARK 921   NORMALIZED FREE ENERGY PREDICTED BY IDOCK:   -2.72 KCAL/MOL
REMARK 922        TOTAL FREE ENERGY PREDICTED BY IDOCK:   -5.33 KCAL/MOL
REMARK 923 INTER-LIGAND FREE ENERGY PREDICTED BY IDOCK:   -4.34 KCAL/MOL
REMARK 924 INTRA-LIGAND FREE ENERGY PREDICTED BY IDOCK:   -0.99 KCAL/MOL
REMARK 927      BINDING AFFINITY PREDICTED BY RF-SCORE:    0.00 PKD
ROOT
HETATM    1  O   UNL     1      -8.924  10.463  70.294  1.00  0.00    -0.239 OA 
HETATM    2  C   UNL     1      -9.133   9.973  68.965  1.00  0.00    -0.171 C  
HETATM    3  H   UNL     1      -8.605   9.759  70.846  1.00  0.00     0.000 HD 
ENDROOT
BRANCH   2   4
HETATM    4  C   UNL     1      -7.790   9.399  68.449  1.00  0.00    -0.090 C  
BRANCH   4   5
HETATM    5  N   UNL     1      -7.807   7.964  67.980  1.00  0.00    -0.124 NA 
BRANCH   5   6
HETATM    6  C   UNL     1      -9.185   7.406  68.247  1.00  0.00    -0.137 C  
HETATM    7  O   UNL     1      -9.067   6.592  65.983  1.00  0.00    -0.151 OA 
HETATM    8  C   UNL     1      -9.906   6.998  66.965  1.00  0.00    -0.183 C  
HETATM    9  O   UNL     1     -11.120   7.008  66.836  1.00  0.00    -0.359 OA 
ENDBRANCH   5   6
BRANCH   5  10
HETATM   10  C   UNL     1      -6.825   7.178  68.807  1.00  0.00    -0.076 C  
HETATM   11  O   UNL     1      -5.609   6.916  66.752  1.00  0.00    -0.017 OA 
HETATM   12  O   UNL     1      -5.354   5.299  68.320  1.00  0.00    -0.007 OA 
HETATM   13  C   UNL     1      -5.871   6.344  67.950  1.00  0.00    -0.016 C  
ENDBRANCH   5  10
ENDBRANCH   4   5
ENDBRANCH   2   4
BRANCH   2  14
HETATM   14  C   UNL     1      -9.657  11.129  68.059  1.00  0.00    -0.176 C  
BRANCH  14  15
HETATM   15  N   UNL     1     -10.767  11.992  68.601  1.00  0.00    -0.230 NA 
BRANCH  15  16
HETATM   16  C   UNL     1     -11.164  12.973  67.522  1.00  0.00    -0.284 C  
HETATM   17  C   UNL     1     -10.933  14.425  67.926  1.00  0.00    -0.262 C  
HETATM   18  O   UNL     1      -9.896  14.570  68.791  1.00  0.00    -0.224 OA 
HETATM   19  O   UNL     1     -11.562  15.370  67.479  1.00  0.00    -0.294 OA 
ENDBRANCH  15  16
BRANCH  15  20
HETATM   20  C   UNL     1     -11.977  11.104  68.843  1.00  0.00    -0.298 C  
HETATM   21  C   UNL     1     -12.456  11.114  70.295  1.00  0.00    -0.274 C  
HETATM   22  O   UNL     1     -12.188  12.276  70.938  1.00  0.00    -0.353 OA 
HETATM   23  O   UNL     1     -13.065  10.196  70.815  1.00  0.00    -0.369 OA 
ENDBRANCH  15  20
ENDBRANCH  14  15
ENDBRANCH   2  14
TORSDOF 8
ENDMDL
MODEL      327
REMARK 921   NORMALIZED FREE ENERGY PREDICTED BY IDOCK:   -2.71 KCAL/MOL
REMARK 922        TOTAL FREE ENERGY PREDICTED BY IDOCK:   -5.31 KCAL/MOL
REMARK 923 INTER-LIGAND FREE ENERGY PREDICTED BY IDOCK:   -5.66 KCAL/MOL
REMARK 924 INTRA-LIGAND FREE ENERGY PREDICTED BY IDOCK:    0.36 KCAL/MOL
REMARK 927      BINDING AFFINITY PREDICTED BY RF-SCORE:    0.00 PKD
ROOT
HETATM    1  O   UNL     1      -8.842  11.983  66.457  1.00  0.00    -0.208 OA 
HETATM    2  C   UNL     1      -8.923  13.404  66.611  1.00  0.00    -0.122 C  
HETATM    3  H   UNL     1      -8.033  11.757  66.014  1.00  0.00     0.000 HD 
ENDROOT
BRANCH   2   4
HETATM    4  C   UNL     1      -7.679  13.872  67.407  1.00  0.00    -0.148 C  
BRANCH   4   5
HETATM    5  N   UNL     1      -7.749  13.737  68.909  1.00  0.00    -0.074 NA 
BRANCH   5   6
HETATM    6  C   UNL     1      -7.702  15.126  69.500  1.00  0.00    -0.197 C  
HETATM    7  O   UNL     1      -5.636  15.349  68.282  1.00  0.00    -0.103 OA 
HETATM    8  C   UNL     1      -6.322  15.767  69.372  1.00  0.00    -0.154 C  
HETATM    9  O   UNL     1      -5.882  16.594  70.155  1.00  0.00    -0.217 OA 
ENDBRANCH   5   6
BRANCH   5  10
HETATM   10  C   UNL     1      -6.528  12.994  69.380  1.00  0.00    -0.094 C  
HETATM   11  O   UNL     1      -7.865  11.020  69.096  1.00  0.00    -0.136 OA 
HETATM   12  O   UNL     1      -6.205  10.933  70.637  1.00  0.00    -0.289 OA 
HETATM   13  C   UNL     1      -6.840  11.556  69.798  1.00  0.00     0.013 C  
ENDBRANCH   5  10
ENDBRANCH   4   5
ENDBRANCH   2   4
BRANCH   2  14
HETATM   14  C   UNL     1     -10.252  13.775  67.340  1.00  0.00    -0.252 C  
BRANCH  14  15
HETATM   15  N   UNL     1     -11.010  14.975  66.837  1.00  0.00    -0.320 NA 
BRANCH  15  16
HETATM   16  C   UNL     1     -10.188  16.207  67.141  1.00  0.00    -0.281 C  
HETATM   17  C   UNL     1     -10.714  16.992  68.338  1.00  0.00    -0.361 C  
HETATM   18  O   UNL     1     -11.329  16.200  69.253  1.00  0.00    -0.330 OA 
HETATM   19  O   UNL     1     -10.549  18.190  68.499  1.00  0.00    -0.296 OA 
ENDBRANCH  15  16
BRANCH  15  20
HETATM   20  C   UNL     1     -11.096  14.877  65.323  1.00  0.00    -0.378 C  
HETATM   21  C   UNL     1     -12.270  14.028  64.835  1.00  0.00    -0.437 C  
HETATM   22  O   UNL     1     -13.324  14.034  65.687  1.00  0.00    -0.636 OA 
HETATM   23  O   UNL     1     -12.287  13.444  63.766  1.00  0.00    -0.644 OA 
ENDBRANCH  15  20
ENDBRANCH  14  15
ENDBRANCH   2  14
TORSDOF 8
ENDMDL
MODEL      328
REMARK 921   NORMALIZED FREE ENERGY PREDICTED BY IDOCK:   -2.69 KCAL/MOL
REMARK 922        TOTAL FREE ENERGY PREDICTED BY IDOCK:   -5.27 KCAL/MOL
REMARK 923 INTER-LIGAND FREE ENERGY PREDICTED BY IDOCK:   -5.73 KCAL/MOL
REMARK 924 INTRA-LIGAND FREE ENERGY PREDICTED BY IDOCK:    0.46 KCAL/MOL
REMARK 927      BINDING AFFINITY PREDICTED BY RF-SCORE:    0.00 PKD
ROOT
HETATM    1  O   UNL     1      -7.431  15.472  66.273  1.00  0.00    -0.077 OA 
HETATM    2  C   UNL     1      -8.837  15.429  66.542  1.00  0.00    -0.312 C  
HETATM    3  H   UNL     1      -7.256  16.123  65.604  1.00  0.00     0.000 HD 
ENDROOT
BRANCH   2   4
HETATM    4  C   UNL     1      -9.285  16.845  66.983  1.00  0.00    -0.234 C  
BRANCH   4   5
HETATM    5  N   UNL     1      -8.265  17.948  66.843  1.00  0.00    -0.229 NA 
BRANCH   5   6
HETATM    6  C   UNL     1      -7.929  18.446  68.229  1.00  0.00    -0.300 C  
HETATM    7  O   UNL     1      -5.673  18.600  67.402  1.00  0.00    -0.154 OA 
HETATM    8  C   UNL     1      -6.429  18.420  68.510  1.00  0.00    -0.224 C  
HETATM    9  O   UNL     1      -5.950  18.277  69.624  1.00  0.00    -0.236 OA 
ENDBRANCH   5   6
BRANCH   5  10
HETATM   10  C   UNL     1      -8.892  19.088  66.085  1.00  0.00    -0.183 C  
HETATM   11  O   UNL     1     -10.225  19.404  68.058  1.00  0.00    -0.379 OA 
HETATM   12  O   UNL     1     -11.119  20.072  66.085  1.00  0.00    -0.151 OA 
HETATM   13  C   UNL     1     -10.204  19.560  66.714  1.00  0.00    -0.435 C  
ENDBRANCH   5  10
ENDBRANCH   4   5
ENDBRANCH   2   4
BRANCH   2  14
HETATM   14  C   UNL     1      -9.125  14.360  67.641  1.00  0.00    -0.194 C  
BRANCH  14  15
HETATM   15  N   UNL     1     -10.055  13.229  67.286  1.00  0.00    -0.232 NA 
BRANCH  15  16
HETATM   16  C   UNL     1     -10.638  13.515  65.921  1.00  0.00    -0.284 C  
HETATM   17  C   UNL     1     -12.132  13.819  65.966  1.00  0.00    -0.436 C  
HETATM   18  O   UNL     1     -12.513  14.400  67.132  1.00  0.00    -0.234 OA 
HETATM   19  O   UNL     1     -12.899  13.627  65.037  1.00  0.00    -0.690 OA 
ENDBRANCH  15  16
BRANCH  15  20
HETATM   20  C   UNL     1      -9.224  11.964  67.143  1.00  0.00    -0.183 C  
HETATM   21  C   UNL     1      -9.821  10.760  67.871  1.00  0.00    -0.167 C  
HETATM   22  O   UNL     1     -11.171  10.810  67.969  1.00  0.00    -0.269 OA 
HETATM   23  O   UNL     1      -9.164   9.819  68.279  1.00  0.00    -0.129 OA 
ENDBRANCH  15  20
ENDBRANCH  14  15
ENDBRANCH   2  14
TORSDOF 8
ENDMDL
MODEL      329
REMARK 921   NORMALIZED FREE ENERGY PREDICTED BY IDOCK:   -2.66 KCAL/MOL
REMARK 922        TOTAL FREE ENERGY PREDICTED BY IDOCK:   -5.24 KCAL/MOL
REMARK 923 INTER-LIGAND FREE ENERGY PREDICTED BY IDOCK:   -5.24 KCAL/MOL
REMARK 924 INTRA-LIGAND FREE ENERGY PREDICTED BY IDOCK:    0.00 KCAL/MOL
REMARK 927      BINDING AFFINITY PREDICTED BY RF-SCORE:    0.00 PKD
ROOT
HETATM    1  O   UNL     1     -10.040  13.786  64.912  1.00  0.00    -0.551 OA 
HETATM    2  C   UNL     1      -9.841  13.090  66.148  1.00  0.00    -0.273 C  
HETATM    3  H   UNL     1     -10.344  14.668  65.090  1.00  0.00     0.000 HD 
ENDROOT
BRANCH   2   4
HETATM    4  C   UNL     1      -8.820  13.893  66.992  1.00  0.00    -0.218 C  
BRANCH   4   5
HETATM    5  N   UNL     1      -9.223  15.294  67.383  1.00  0.00    -0.192 NA 
BRANCH   5   6
HETATM    6  C   UNL     1      -8.033  16.197  67.160  1.00  0.00    -0.199 C  
HETATM    7  O   UNL     1      -9.671  17.867  66.587  1.00  0.00    -0.292 OA 
HETATM    8  C   UNL     1      -8.397  17.458  66.380  1.00  0.00    -0.267 C  
HETATM    9  O   UNL     1      -7.617  18.060  65.659  1.00  0.00    -0.545 OA 
ENDBRANCH   5   6
BRANCH   5  10
HETATM   10  C   UNL     1      -9.541  15.308  68.855  1.00  0.00    -0.220 C  
HETATM   11  O   UNL     1     -11.831  15.113  68.157  1.00  0.00    -0.333 OA 
HETATM   12  O   UNL     1     -11.437  16.122  70.149  1.00  0.00    -0.340 OA 
HETATM   13  C   UNL     1     -11.020  15.583  69.133  1.00  0.00    -0.259 C  
ENDBRANCH   5  10
ENDBRANCH   4   5
ENDBRANCH   2   4
BRANCH   2  14
HETATM   14  C   UNL     1      -9.342  11.641  65.856  1.00  0.00    -0.218 C  
BRANCH  14  15
HETATM   15  N   UNL     1      -8.940  10.792  67.033  1.00  0.00    -0.141 NA 
BRANCH  15  16
HETATM   16  C   UNL     1      -7.472  11.032  67.300  1.00  0.00    -0.107 C  
HETATM   17  C   UNL     1      -6.873  10.021  68.273  1.00  0.00    -0.063 C  
HETATM   18  O   UNL     1      -7.484   8.810  68.212  1.00  0.00    -0.089 OA 
HETATM   19  O   UNL     1      -5.909  10.244  68.987  1.00  0.00    -0.038 OA 
ENDBRANCH  15  16
BRANCH  15  20
HETATM   20  C   UNL     1      -9.689  11.299  68.256  1.00  0.00    -0.198 C  
HETATM   21  C   UNL     1     -11.093  10.712  68.394  1.00  0.00    -0.272 C  
HETATM   22  O   UNL     1     -11.211   9.475  67.853  1.00  0.00    -0.097 OA 
HETATM   23  O   UNL     1     -12.007  11.268  68.976  1.00  0.00    -0.332 OA 
ENDBRANCH  15  20
ENDBRANCH  14  15
ENDBRANCH   2  14
TORSDOF 8
ENDMDL
MODEL      330
REMARK 921   NORMALIZED FREE ENERGY PREDICTED BY IDOCK:   -2.65 KCAL/MOL
REMARK 922        TOTAL FREE ENERGY PREDICTED BY IDOCK:   -5.22 KCAL/MOL
REMARK 923 INTER-LIGAND FREE ENERGY PREDICTED BY IDOCK:   -5.12 KCAL/MOL
REMARK 924 INTRA-LIGAND FREE ENERGY PREDICTED BY IDOCK:   -0.10 KCAL/MOL
REMARK 927      BINDING AFFINITY PREDICTED BY RF-SCORE:    0.00 PKD
ROOT
HETATM    1  O   UNL     1     -10.597  10.822  70.063  1.00  0.00    -0.450 OA 
HETATM    2  C   UNL     1     -11.161  10.100  68.962  1.00  0.00    -0.205 C  
HETATM    3  H   UNL     1     -10.633  10.285  70.847  1.00  0.00     0.000 HD 
ENDROOT
BRANCH   2   4
HETATM    4  C   UNL     1     -10.365   8.781  68.795  1.00  0.00    -0.213 C  
BRANCH   4   5
HETATM    5  N   UNL     1     -10.704   7.664  69.753  1.00  0.00    -0.245 NA 
BRANCH   5   6
HETATM    6  C   UNL     1      -9.471   7.367  70.572  1.00  0.00    -0.161 C  
HETATM    7  O   UNL     1     -10.531   8.704  72.272  1.00  0.00    -0.330 OA 
HETATM    8  C   UNL     1      -9.339   8.289  71.782  1.00  0.00    -0.202 C  
HETATM    9  O   UNL     1      -8.271   8.605  72.282  1.00  0.00    -0.314 OA 
ENDBRANCH   5   6
BRANCH   5  10
HETATM   10  C   UNL     1     -11.033   6.432  68.953  1.00  0.00    -0.346 C  
HETATM   11  O   UNL     1      -8.957   6.855  67.822  1.00  0.00    -0.119 OA 
HETATM   12  O   UNL     1     -10.560   5.746  66.665  1.00  0.00    -0.268 OA 
HETATM   13  C   UNL     1     -10.189   6.313  67.683  1.00  0.00    -0.169 C  
ENDBRANCH   5  10
ENDBRANCH   4   5
ENDBRANCH   2   4
BRANCH   2  14
HETATM   14  C   UNL     1     -11.101  10.981  67.677  1.00  0.00    -0.300 C  
BRANCH  14  15
HETATM   15  N   UNL     1     -10.138  12.140  67.669  1.00  0.00    -0.196 NA 
BRANCH  15  16
HETATM   16  C   UNL     1      -8.952  11.753  66.816  1.00  0.00    -0.196 C  
HETATM   17  C   UNL     1      -7.656  11.650  67.613  1.00  0.00    -0.128 C  
HETATM   18  O   UNL     1      -7.864  11.280  68.903  1.00  0.00    -0.136 OA 
HETATM   19  O   UNL     1      -6.544  11.815  67.139  1.00  0.00    -0.117 OA 
ENDBRANCH  15  16
BRANCH  15  20
HETATM   20  C   UNL     1     -10.813  13.306  66.965  1.00  0.00    -0.269 C  
HETATM   21  C   UNL     1     -10.793  14.600  67.780  1.00  0.00    -0.267 C  
HETATM   22  O   UNL     1      -9.729  14.689  68.615  1.00  0.00    -0.211 OA 
HETATM   23  O   UNL     1     -11.615  15.490  67.661  1.00  0.00    -0.274 OA 
ENDBRANCH  15  20
ENDBRANCH  14  15
ENDBRANCH   2  14
TORSDOF 8
ENDMDL
MODEL      331
REMARK 921   NORMALIZED FREE ENERGY PREDICTED BY IDOCK:   -2.65 KCAL/MOL
REMARK 922        TOTAL FREE ENERGY PREDICTED BY IDOCK:   -5.21 KCAL/MOL
REMARK 923 INTER-LIGAND FREE ENERGY PREDICTED BY IDOCK:   -3.89 KCAL/MOL
REMARK 924 INTRA-LIGAND FREE ENERGY PREDICTED BY IDOCK:   -1.33 KCAL/MOL
REMARK 927      BINDING AFFINITY PREDICTED BY RF-SCORE:    0.00 PKD
ROOT
HETATM    1  O   UNL     1      -7.056   4.215  68.686  1.00  0.00    -0.053 OA 
HETATM    2  C   UNL     1      -7.776   5.450  68.612  1.00  0.00    -0.084 C  
HETATM    3  H   UNL     1      -6.162   4.384  68.961  1.00  0.00     0.000 HD 
ENDROOT
BRANCH   2   4
HETATM    4  C   UNL     1      -7.718   6.124  70.006  1.00  0.00    -0.097 C  
BRANCH   4   5
HETATM    5  N   UNL     1      -8.871   5.841  70.939  1.00  0.00    -0.139 NA 
BRANCH   5   6
HETATM    6  C   UNL     1      -9.455   7.166  71.368  1.00  0.00    -0.161 C  
HETATM    7  O   UNL     1     -11.562   6.222  70.684  1.00  0.00    -0.353 OA 
HETATM    8  C   UNL     1     -10.872   7.376  70.840  1.00  0.00    -0.240 C  
HETATM    9  O   UNL     1     -11.352   8.473  70.603  1.00  0.00    -0.259 OA 
ENDBRANCH   5   6
BRANCH   5  10
HETATM   10  C   UNL     1      -8.334   5.156  72.168  1.00  0.00    -0.125 C  
HETATM   11  O   UNL     1      -9.501   3.221  71.353  1.00  0.00    -0.127 OA 
HETATM   12  O   UNL     1      -9.181   3.372  73.592  1.00  0.00    -0.092 OA 
HETATM   13  C   UNL     1      -9.058   3.843  72.470  1.00  0.00    -0.109 C  
ENDBRANCH   5  10
ENDBRANCH   4   5
ENDBRANCH   2   4
BRANCH   2  14
HETATM   14  C   UNL     1      -9.243   5.172  68.161  1.00  0.00    -0.116 C  
BRANCH  14  15
HETATM   15  N   UNL     1      -9.651   5.638  66.788  1.00  0.00    -0.139 NA 
BRANCH  15  16
HETATM   16  C   UNL     1     -10.290   4.471  66.071  1.00  0.00    -0.243 C  
HETATM   17  C   UNL     1      -9.962   4.438  64.582  1.00  0.00    -0.060 C  
HETATM   18  O   UNL     1      -8.747   4.976  64.301  1.00  0.00    -0.144 OA 
HETATM   19  O   UNL     1     -10.675   3.927  63.733  1.00  0.00    -0.253 OA 
ENDBRANCH  15  16
BRANCH  15  20
HETATM   20  C   UNL     1     -10.736   6.690  66.951  1.00  0.00    -0.331 C  
HETATM   21  C   UNL     1     -10.203   8.122  66.914  1.00  0.00    -0.316 C  
HETATM   22  O   UNL     1      -9.081   8.256  66.166  1.00  0.00    -0.173 OA 
HETATM   23  O   UNL     1     -10.754   9.066  67.453  1.00  0.00    -0.271 OA 
ENDBRANCH  15  20
ENDBRANCH  14  15
ENDBRANCH   2  14
TORSDOF 8
ENDMDL
MODEL      332
REMARK 921   NORMALIZED FREE ENERGY PREDICTED BY IDOCK:   -2.64 KCAL/MOL
REMARK 922        TOTAL FREE ENERGY PREDICTED BY IDOCK:   -5.21 KCAL/MOL
REMARK 923 INTER-LIGAND FREE ENERGY PREDICTED BY IDOCK:   -3.95 KCAL/MOL
REMARK 924 INTRA-LIGAND FREE ENERGY PREDICTED BY IDOCK:   -1.26 KCAL/MOL
REMARK 927      BINDING AFFINITY PREDICTED BY RF-SCORE:    0.00 PKD
ROOT
HETATM    1  O   UNL     1      -8.528   9.044  66.830  1.00  0.00    -0.117 OA 
HETATM    2  C   UNL     1      -8.740   8.831  68.230  1.00  0.00    -0.135 C  
HETATM    3  H   UNL     1      -7.611   9.234  66.673  1.00  0.00     0.000 HD 
ENDROOT
BRANCH   2   4
HETATM    4  C   UNL     1      -7.824   7.666  68.683  1.00  0.00    -0.121 C  
BRANCH   4   5
HETATM    5  N   UNL     1      -8.142   6.301  68.122  1.00  0.00    -0.114 NA 
BRANCH   5   6
HETATM    6  C   UNL     1      -8.320   5.354  69.285  1.00  0.00    -0.096 C  
HETATM    7  O   UNL     1     -10.243   4.558  68.072  1.00  0.00    -0.028 OA 
HETATM    8  C   UNL     1      -9.705   4.711  69.305  1.00  0.00    -0.196 C  
HETATM    9  O   UNL     1     -10.268   4.344  70.325  1.00  0.00    -0.180 OA 
ENDBRANCH   5   6
BRANCH   5  10
HETATM   10  C   UNL     1      -6.961   5.826  67.318  1.00  0.00    -0.065 C  
HETATM   11  O   UNL     1      -8.328   6.303  65.402  1.00  0.00    -0.144 OA 
HETATM   12  O   UNL     1      -6.744   4.698  65.171  1.00  0.00    -0.046 OA 
HETATM   13  C   UNL     1      -7.325   5.521  65.864  1.00  0.00    -0.077 C  
ENDBRANCH   5  10
ENDBRANCH   4   5
ENDBRANCH   2   4
BRANCH   2  14
HETATM   14  C   UNL     1     -10.247   8.518  68.488  1.00  0.00    -0.198 C  
BRANCH  14  15
HETATM   15  N   UNL     1     -10.900   9.170  69.679  1.00  0.00    -0.223 NA 
BRANCH  15  16
HETATM   16  C   UNL     1     -10.379   8.491  70.925  1.00  0.00    -0.199 C  
HETATM   17  C   UNL     1     -11.477   8.191  71.940  1.00  0.00    -0.299 C  
HETATM   18  O   UNL     1     -12.683   7.969  71.356  1.00  0.00    -0.316 OA 
HETATM   19  O   UNL     1     -11.293   8.094  73.142  1.00  0.00    -0.247 OA 
ENDBRANCH  15  16
BRANCH  15  20
HETATM   20  C   UNL     1     -10.424  10.613  69.745  1.00  0.00    -0.143 C  
HETATM   21  C   UNL     1     -11.146  11.534  68.761  1.00  0.00    -0.233 C  
HETATM   22  O   UNL     1     -12.408  11.131  68.478  1.00  0.00    -0.561 OA 
HETATM   23  O   UNL     1     -10.664  12.559  68.312  1.00  0.00    -0.213 OA 
ENDBRANCH  15  20
ENDBRANCH  14  15
ENDBRANCH   2  14
TORSDOF 8
ENDMDL
MODEL      333
REMARK 921   NORMALIZED FREE ENERGY PREDICTED BY IDOCK:   -2.62 KCAL/MOL
REMARK 922        TOTAL FREE ENERGY PREDICTED BY IDOCK:   -5.18 KCAL/MOL
REMARK 923 INTER-LIGAND FREE ENERGY PREDICTED BY IDOCK:   -4.22 KCAL/MOL
REMARK 924 INTRA-LIGAND FREE ENERGY PREDICTED BY IDOCK:   -0.96 KCAL/MOL
REMARK 927      BINDING AFFINITY PREDICTED BY RF-SCORE:    0.00 PKD
ROOT
HETATM    1  O   UNL     1      -9.720   7.189  65.731  1.00  0.00    -0.335 OA 
HETATM    2  C   UNL     1      -9.952   7.837  66.987  1.00  0.00    -0.244 C  
HETATM    3  H   UNL     1      -9.266   6.367  65.876  1.00  0.00     0.000 HD 
ENDROOT
BRANCH   2   4
HETATM    4  C   UNL     1     -10.775   6.873  67.879  1.00  0.00    -0.232 C  
BRANCH   4   5
HETATM    5  N   UNL     1     -10.328   6.737  69.314  1.00  0.00    -0.190 NA 
BRANCH   5   6
HETATM    6  C   UNL     1     -10.935   5.470  69.869  1.00  0.00    -0.122 C  
HETATM    7  O   UNL     1      -8.680   4.920  70.511  1.00  0.00    -0.104 OA 
HETATM    8  C   UNL     1      -9.884   4.404  70.168  1.00  0.00    -0.217 C  
HETATM    9  O   UNL     1     -10.104   3.204  70.129  1.00  0.00     0.230 OA 
ENDBRANCH   5   6
BRANCH   5  10
HETATM   10  C   UNL     1     -10.884   7.895  70.100  1.00  0.00    -0.243 C  
HETATM   11  O   UNL     1      -8.668   8.083  71.008  1.00  0.00    -0.127 OA 
HETATM   12  O   UNL     1     -10.380   8.822  72.295  1.00  0.00    -0.325 OA 
HETATM   13  C   UNL     1      -9.978   8.303  71.263  1.00  0.00    -0.192 C  
ENDBRANCH   5  10
ENDBRANCH   4   5
ENDBRANCH   2   4
BRANCH   2  14
HETATM   14  C   UNL     1     -10.696   9.186  66.748  1.00  0.00    -0.038 C  
BRANCH  14  15
HETATM   15  N   UNL     1     -10.049  10.185  65.825  1.00  0.00    -0.268 NA 
BRANCH  15  16
HETATM   16  C   UNL     1     -10.803  11.489  65.948  1.00  0.00    -0.260 C  
HETATM   17  C   UNL     1     -10.837  12.280  64.644  1.00  0.00    -0.308 C  
HETATM   18  O   UNL     1     -10.800  11.481  63.546  1.00  0.00    -0.392 OA 
HETATM   19  O   UNL     1     -10.950  13.493  64.580  1.00  0.00    -0.361 OA 
ENDBRANCH  15  16
BRANCH  15  20
HETATM   20  C   UNL     1      -8.641  10.453  66.334  1.00  0.00    -0.132 C  
HETATM   21  C   UNL     1      -7.549   9.981  65.373  1.00  0.00    -0.138 C  
HETATM   22  O   UNL     1      -7.936   9.997  64.075  1.00  0.00    -0.143 OA 
HETATM   23  O   UNL     1      -6.425   9.670  65.724  1.00  0.00    -0.074 OA 
ENDBRANCH  15  20
ENDBRANCH  14  15
ENDBRANCH   2  14
TORSDOF 8
ENDMDL
MODEL      334
REMARK 921   NORMALIZED FREE ENERGY PREDICTED BY IDOCK:   -2.61 KCAL/MOL
REMARK 922        TOTAL FREE ENERGY PREDICTED BY IDOCK:   -5.16 KCAL/MOL
REMARK 923 INTER-LIGAND FREE ENERGY PREDICTED BY IDOCK:   -4.53 KCAL/MOL
REMARK 924 INTRA-LIGAND FREE ENERGY PREDICTED BY IDOCK:   -0.63 KCAL/MOL
REMARK 927      BINDING AFFINITY PREDICTED BY RF-SCORE:    0.00 PKD
ROOT
HETATM    1  O   UNL     1     -10.792   7.458  66.845  1.00  0.00    -0.453 OA 
HETATM    2  C   UNL     1     -10.544   8.195  68.048  1.00  0.00    -0.126 C  
HETATM    3  H   UNL     1     -10.596   8.003  66.093  1.00  0.00     0.000 HD 
ENDROOT
BRANCH   2   4
HETATM    4  C   UNL     1      -9.063   8.650  68.035  1.00  0.00    -0.140 C  
BRANCH   4   5
HETATM    5  N   UNL     1      -8.814  10.128  67.859  1.00  0.00    -0.125 NA 
BRANCH   5   6
HETATM    6  C   UNL     1      -9.971  10.702  67.075  1.00  0.00    -0.202 C  
HETATM    7  O   UNL     1      -9.529  12.726  68.303  1.00  0.00    -0.214 OA 
HETATM    8  C   UNL     1     -10.488  12.008  67.672  1.00  0.00    -0.205 C  
HETATM    9  O   UNL     1     -11.644  12.389  67.573  1.00  0.00    -0.325 OA 
ENDBRANCH   5   6
BRANCH   5  10
HETATM   10  C   UNL     1      -7.566  10.309  67.035  1.00  0.00    -0.099 C  
HETATM   11  O   UNL     1      -6.594  11.158  69.060  1.00  0.00    -0.062 OA 
HETATM   12  O   UNL     1      -5.735  11.912  67.102  1.00  0.00    -0.112 OA 
HETATM   13  C   UNL     1      -6.546  11.227  67.710  1.00  0.00    -0.068 C  
ENDBRANCH   5  10
ENDBRANCH   4   5
ENDBRANCH   2   4
BRANCH   2  14
HETATM   14  C   UNL     1     -10.867   7.300  69.284  1.00  0.00    -0.159 C  
BRANCH  14  15
HETATM   15  N   UNL     1     -10.868   7.958  70.639  1.00  0.00    -0.233 NA 
BRANCH  15  16
HETATM   16  C   UNL     1      -9.502   7.756  71.256  1.00  0.00    -0.153 C  
HETATM   17  C   UNL     1      -9.569   7.322  72.716  1.00  0.00    -0.158 C  
HETATM   18  O   UNL     1     -10.684   6.600  72.998  1.00  0.00    -0.238 OA 
HETATM   19  O   UNL     1      -8.692   7.538  73.537  1.00  0.00    -0.154 OA 
ENDBRANCH  15  16
BRANCH  15  20
HETATM   20  C   UNL     1     -11.031   9.455  70.435  1.00  0.00    -0.266 C  
HETATM   21  C   UNL     1     -12.323  10.012  71.033  1.00  0.00    -0.360 C  
HETATM   22  O   UNL     1     -12.762   9.309  72.105  1.00  0.00    -0.377 OA 
HETATM   23  O   UNL     1     -12.881  11.016  70.629  1.00  0.00    -0.295 OA 
ENDBRANCH  15  20
ENDBRANCH  14  15
ENDBRANCH   2  14
TORSDOF 8
ENDMDL
MODEL      335
REMARK 921   NORMALIZED FREE ENERGY PREDICTED BY IDOCK:   -2.59 KCAL/MOL
REMARK 922        TOTAL FREE ENERGY PREDICTED BY IDOCK:   -5.13 KCAL/MOL
REMARK 923 INTER-LIGAND FREE ENERGY PREDICTED BY IDOCK:   -5.15 KCAL/MOL
REMARK 924 INTRA-LIGAND FREE ENERGY PREDICTED BY IDOCK:    0.01 KCAL/MOL
REMARK 927      BINDING AFFINITY PREDICTED BY RF-SCORE:    0.00 PKD
ROOT
HETATM    1  O   UNL     1      -8.582  13.739  68.745  1.00  0.00    -0.332 OA 
HETATM    2  C   UNL     1      -8.338  13.261  67.417  1.00  0.00    -0.192 C  
HETATM    3  H   UNL     1      -8.236  14.620  68.833  1.00  0.00     0.000 HD 
ENDROOT
BRANCH   2   4
HETATM    4  C   UNL     1      -9.003  14.245  66.422  1.00  0.00    -0.061 C  
BRANCH   4   5
HETATM    5  N   UNL     1     -10.250  14.947  66.901  1.00  0.00    -0.251 NA 
BRANCH   5   6
HETATM    6  C   UNL     1     -11.375  14.585  65.960  1.00  0.00    -0.341 C  
HETATM    7  O   UNL     1     -12.025  13.021  67.672  1.00  0.00    -0.353 OA 
HETATM    8  C   UNL     1     -12.054  13.272  66.342  1.00  0.00    -0.394 C  
HETATM    9  O   UNL     1     -12.594  12.529  65.538  1.00  0.00    -0.642 OA 
ENDBRANCH   5   6
BRANCH   5  10
HETATM   10  C   UNL     1     -10.031  16.433  66.805  1.00  0.00    -0.272 C  
HETATM   11  O   UNL     1      -9.582  16.317  69.162  1.00  0.00    -0.244 OA 
HETATM   12  O   UNL     1     -10.379  18.279  68.355  1.00  0.00    -0.372 OA 
HETATM   13  C   UNL     1     -10.042  17.118  68.173  1.00  0.00    -0.311 C  
ENDBRANCH   5  10
ENDBRANCH   4   5
ENDBRANCH   2   4
BRANCH   2  14
HETATM   14  C   UNL     1      -8.905  11.815  67.271  1.00  0.00    -0.167 C  
BRANCH  14  15
HETATM   15  N   UNL     1      -9.126  11.023  68.533  1.00  0.00    -0.168 NA 
BRANCH  15  16
HETATM   16  C   UNL     1     -10.184   9.981  68.250  1.00  0.00    -0.173 C  
HETATM   17  C   UNL     1     -10.825   9.426  69.518  1.00  0.00    -0.213 C  
HETATM   18  O   UNL     1     -10.848  10.330  70.531  1.00  0.00    -0.301 OA 
HETATM   19  O   UNL     1     -11.325   8.317  69.605  1.00  0.00     0.005 OA 
ENDBRANCH  15  16
BRANCH  15  20
HETATM   20  C   UNL     1      -7.845  10.262  68.840  1.00  0.00    -0.106 C  
HETATM   21  C   UNL     1      -7.533   9.164  67.823  1.00  0.00    -0.085 C  
HETATM   22  O   UNL     1      -8.017   9.429  66.585  1.00  0.00    -0.107 OA 
HETATM   23  O   UNL     1      -6.872   8.173  68.076  1.00  0.00    -0.069 OA 
ENDBRANCH  15  20
ENDBRANCH  14  15
ENDBRANCH   2  14
TORSDOF 8
ENDMDL
MODEL      336
REMARK 921   NORMALIZED FREE ENERGY PREDICTED BY IDOCK:   -2.59 KCAL/MOL
REMARK 922        TOTAL FREE ENERGY PREDICTED BY IDOCK:   -5.13 KCAL/MOL
REMARK 923 INTER-LIGAND FREE ENERGY PREDICTED BY IDOCK:   -5.30 KCAL/MOL
REMARK 924 INTRA-LIGAND FREE ENERGY PREDICTED BY IDOCK:    0.17 KCAL/MOL
REMARK 927      BINDING AFFINITY PREDICTED BY RF-SCORE:    0.00 PKD
ROOT
HETATM    1  O   UNL     1      -7.979  12.289  69.140  1.00  0.00    -0.336 OA 
HETATM    2  C   UNL     1      -8.617  11.828  67.944  1.00  0.00    -0.156 C  
HETATM    3  H   UNL     1      -7.484  11.578  69.530  1.00  0.00     0.000 HD 
ENDROOT
BRANCH   2   4
HETATM    4  C   UNL     1      -7.520  11.297  66.988  1.00  0.00    -0.139 C  
BRANCH   4   5
HETATM    5  N   UNL     1      -7.106   9.856  67.173  1.00  0.00    -0.085 NA 
BRANCH   5   6
HETATM    6  C   UNL     1      -6.843   9.272  65.805  1.00  0.00    -0.084 C  
HETATM    7  O   UNL     1      -9.242   9.196  65.605  1.00  0.00    -0.210 OA 
HETATM    8  C   UNL     1      -8.085   8.621  65.202  1.00  0.00    -0.143 C  
HETATM    9  O   UNL     1      -8.047   7.690  64.413  1.00  0.00    -0.138 OA 
ENDBRANCH   5   6
BRANCH   5  10
HETATM   10  C   UNL     1      -8.258   9.102  67.782  1.00  0.00    -0.109 C  
HETATM   11  O   UNL     1      -7.074   9.367  69.855  1.00  0.00    -0.059 OA 
HETATM   12  O   UNL     1      -8.445   7.572  69.667  1.00  0.00    -0.133 OA 
HETATM   13  C   UNL     1      -7.939   8.573  69.181  1.00  0.00    -0.112 C  
ENDBRANCH   5  10
ENDBRANCH   4   5
ENDBRANCH   2   4
BRANCH   2  14
HETATM   14  C   UNL     1      -9.430  12.995  67.303  1.00  0.00    -0.224 C  
BRANCH  14  15
HETATM   15  N   UNL     1     -10.897  12.767  67.051  1.00  0.00    -0.253 NA 
BRANCH  15  16
HETATM   16  C   UNL     1     -11.059  12.320  65.616  1.00  0.00    -0.317 C  
HETATM   17  C   UNL     1     -12.389  12.752  65.007  1.00  0.00    -0.499 C  
HETATM   18  O   UNL     1     -12.856  13.911  65.537  1.00  0.00    -0.609 OA 
HETATM   19  O   UNL     1     -12.949  12.164  64.096  1.00  0.00    -0.664 OA 
ENDBRANCH  15  16
BRANCH  15  20
HETATM   20  C   UNL     1     -11.347  11.602  67.918  1.00  0.00    -0.299 C  
HETATM   21  C   UNL     1     -11.893  12.034  69.279  1.00  0.00    -0.318 C  
HETATM   22  O   UNL     1     -12.451  13.269  69.264  1.00  0.00    -0.102 OA 
HETATM   23  O   UNL     1     -11.880  11.327  70.272  1.00  0.00    -0.317 OA 
ENDBRANCH  15  20
ENDBRANCH  14  15
ENDBRANCH   2  14
TORSDOF 8
ENDMDL
MODEL      337
REMARK 921   NORMALIZED FREE ENERGY PREDICTED BY IDOCK:   -2.58 KCAL/MOL
REMARK 922        TOTAL FREE ENERGY PREDICTED BY IDOCK:   -5.12 KCAL/MOL
REMARK 923 INTER-LIGAND FREE ENERGY PREDICTED BY IDOCK:   -5.53 KCAL/MOL
REMARK 924 INTRA-LIGAND FREE ENERGY PREDICTED BY IDOCK:    0.41 KCAL/MOL
REMARK 927      BINDING AFFINITY PREDICTED BY RF-SCORE:    0.00 PKD
ROOT
HETATM    1  O   UNL     1      -8.491  13.266  69.138  1.00  0.00    -0.273 OA 
HETATM    2  C   UNL     1      -8.872  13.025  67.778  1.00  0.00    -0.188 C  
HETATM    3  H   UNL     1      -8.556  12.458  69.633  1.00  0.00     0.000 HD 
ENDROOT
BRANCH   2   4
HETATM    4  C   UNL     1      -7.945  11.922  67.208  1.00  0.00    -0.171 C  
BRANCH   4   5
HETATM    5  N   UNL     1      -8.623  10.768  66.509  1.00  0.00    -0.145 NA 
BRANCH   5   6
HETATM    6  C   UNL     1      -7.605   9.664  66.346  1.00  0.00    -0.101 C  
HETATM    7  O   UNL     1      -9.223   8.287  67.480  1.00  0.00    -0.136 OA 
HETATM    8  C   UNL     1      -7.903   8.461  67.237  1.00  0.00    -0.098 C  
HETATM    9  O   UNL     1      -7.044   7.709  67.671  1.00  0.00    -0.080 OA 
ENDBRANCH   5   6
BRANCH   5  10
HETATM   10  C   UNL     1      -9.038  11.218  65.134  1.00  0.00    -0.100 C  
HETATM   11  O   UNL     1     -11.281  11.068  65.981  1.00  0.00    -0.078 OA 
HETATM   12  O   UNL     1     -10.994  10.781  63.750  1.00  0.00    -0.026 OA 
HETATM   13  C   UNL     1     -10.524  10.979  64.862  1.00  0.00    -0.303 C  
ENDBRANCH   5  10
ENDBRANCH   4   5
ENDBRANCH   2   4
BRANCH   2  14
HETATM   14  C   UNL     1      -8.766  14.351  66.964  1.00  0.00    -0.223 C  
BRANCH  14  15
HETATM   15  N   UNL     1      -9.921  15.315  67.048  1.00  0.00    -0.232 NA 
BRANCH  15  16
HETATM   16  C   UNL     1      -9.917  16.157  65.793  1.00  0.00    -0.340 C  
HETATM   17  C   UNL     1     -10.441  17.570  66.025  1.00  0.00    -0.274 C  
HETATM   18  O   UNL     1     -10.200  18.017  67.285  1.00  0.00    -0.333 OA 
HETATM   19  O   UNL     1     -10.962  18.259  65.164  1.00  0.00    -0.628 OA 
ENDBRANCH  15  16
BRANCH  15  20
HETATM   20  C   UNL     1     -11.209  14.508  67.021  1.00  0.00    -0.337 C  
HETATM   21  C   UNL     1     -11.769  14.306  65.613  1.00  0.00    -0.358 C  
HETATM   22  O   UNL     1     -10.812  14.299  64.653  1.00  0.00    -0.401 OA 
HETATM   23  O   UNL     1     -12.948  14.117  65.371  1.00  0.00    -0.706 OA 
ENDBRANCH  15  20
ENDBRANCH  14  15
ENDBRANCH   2  14
TORSDOF 8
ENDMDL
MODEL      338
REMARK 921   NORMALIZED FREE ENERGY PREDICTED BY IDOCK:   -2.57 KCAL/MOL
REMARK 922        TOTAL FREE ENERGY PREDICTED BY IDOCK:   -5.11 KCAL/MOL
REMARK 923 INTER-LIGAND FREE ENERGY PREDICTED BY IDOCK:   -3.71 KCAL/MOL
REMARK 924 INTRA-LIGAND FREE ENERGY PREDICTED BY IDOCK:   -1.40 KCAL/MOL
REMARK 927      BINDING AFFINITY PREDICTED BY RF-SCORE:    0.00 PKD
ROOT
HETATM    1  O   UNL     1     -10.774   6.157  68.779  1.00  0.00    -0.243 OA 
HETATM    2  C   UNL     1     -10.093   6.354  67.535  1.00  0.00    -0.155 C  
HETATM    3  H   UNL     1     -10.526   6.841  69.389  1.00  0.00     0.000 HD 
ENDROOT
BRANCH   2   4
HETATM    4  C   UNL     1     -10.462   7.762  67.003  1.00  0.00    -0.349 C  
BRANCH   4   5
HETATM    5  N   UNL     1      -9.608   8.909  67.487  1.00  0.00    -0.140 NA 
BRANCH   5   6
HETATM    6  C   UNL     1     -10.494   9.846  68.273  1.00  0.00    -0.210 C  
HETATM    7  O   UNL     1      -9.658   8.680  70.207  1.00  0.00    -0.163 OA 
HETATM    8  C   UNL     1     -10.706   9.378  69.710  1.00  0.00    -0.234 C  
HETATM    9  O   UNL     1     -11.707   9.626  70.364  1.00  0.00    -0.257 OA 
ENDBRANCH   5   6
BRANCH   5  10
HETATM   10  C   UNL     1      -9.093   9.661  66.288  1.00  0.00    -0.160 C  
HETATM   11  O   UNL     1      -6.935   8.843  66.954  1.00  0.00    -0.076 OA 
HETATM   12  O   UNL     1      -6.993  10.793  65.799  1.00  0.00    -0.122 OA 
HETATM   13  C   UNL     1      -7.576   9.855  66.325  1.00  0.00    -0.102 C  
ENDBRANCH   5  10
ENDBRANCH   4   5
ENDBRANCH   2   4
BRANCH   2  14
HETATM   14  C   UNL     1     -10.500   5.230  66.534  1.00  0.00    -0.298 C  
BRANCH  14  15
HETATM   15  N   UNL     1      -9.565   4.945  65.387  1.00  0.00    -0.138 NA 
BRANCH  15  16
HETATM   16  C   UNL     1      -8.149   5.120  65.887  1.00  0.00    -0.109 C  
HETATM   17  C   UNL     1      -7.305   6.008  64.979  1.00  0.00    -0.073 C  
HETATM   18  O   UNL     1      -8.042   6.947  64.332  1.00  0.00    -0.120 OA 
HETATM   19  O   UNL     1      -6.090   5.935  64.885  1.00  0.00    -0.024 OA 
ENDBRANCH  15  16
BRANCH  15  20
HETATM   20  C   UNL     1      -9.712   3.478  65.014  1.00  0.00    -0.142 C  
HETATM   21  C   UNL     1     -10.341   3.263  63.638  1.00  0.00    -0.223 C  
HETATM   22  O   UNL     1     -10.096   4.277  62.773  1.00  0.00    -0.140 OA 
HETATM   23  O   UNL     1     -10.958   2.261  63.323  1.00  0.00    -0.228 OA 
ENDBRANCH  15  20
ENDBRANCH  14  15
ENDBRANCH   2  14
TORSDOF 8
ENDMDL
MODEL      339
REMARK 921   NORMALIZED FREE ENERGY PREDICTED BY IDOCK:   -2.57 KCAL/MOL
REMARK 922        TOTAL FREE ENERGY PREDICTED BY IDOCK:   -5.10 KCAL/MOL
REMARK 923 INTER-LIGAND FREE ENERGY PREDICTED BY IDOCK:   -5.53 KCAL/MOL
REMARK 924 INTRA-LIGAND FREE ENERGY PREDICTED BY IDOCK:    0.42 KCAL/MOL
REMARK 927      BINDING AFFINITY PREDICTED BY RF-SCORE:    0.00 PKD
ROOT
HETATM    1  O   UNL     1     -10.481   4.905  69.887  1.00  0.00    -0.238 OA 
HETATM    2  C   UNL     1     -10.511   6.336  69.931  1.00  0.00    -0.227 C  
HETATM    3  H   UNL     1     -10.567   4.558  70.768  1.00  0.00     0.000 HD 
ENDROOT
BRANCH   2   4
HETATM    4  C   UNL     1     -11.843   6.768  70.594  1.00  0.00    -0.387 C  
BRANCH   4   5
HETATM    5  N   UNL     1     -11.748   7.333  71.991  1.00  0.00    -0.284 NA 
BRANCH   5   6
HETATM    6  C   UNL     1     -11.656   8.836  71.876  1.00  0.00    -0.361 C  
HETATM    7  O   UNL     1     -13.977   8.819  72.520  1.00  0.00    -0.428 OA 
HETATM    8  C   UNL     1     -13.029   9.503  71.836  1.00  0.00    -0.425 C  
HETATM    9  O   UNL     1     -13.254  10.559  71.268  1.00  0.00    -0.365 OA 
ENDBRANCH   5   6
BRANCH   5  10
HETATM   10  C   UNL     1     -10.473   6.841  72.621  1.00  0.00    -0.213 C  
HETATM   11  O   UNL     1     -11.726   4.856  73.131  1.00  0.00    -0.315 OA 
HETATM   12  O   UNL     1      -9.995   5.370  74.501  1.00  0.00    -0.198 OA 
HETATM   13  C   UNL     1     -10.697   5.636  73.536  1.00  0.00    -0.275 C  
ENDBRANCH   5  10
ENDBRANCH   4   5
ENDBRANCH   2   4
BRANCH   2  14
HETATM   14  C   UNL     1     -10.369   6.905  68.486  1.00  0.00    -0.186 C  
BRANCH  14  15
HETATM   15  N   UNL     1      -9.312   6.300  67.599  1.00  0.00    -0.117 NA 
BRANCH  15  16
HETATM   16  C   UNL     1     -10.009   5.611  66.448  1.00  0.00    -0.152 C  
HETATM   17  C   UNL     1      -9.710   4.117  66.383  1.00  0.00    -0.208 C  
HETATM   18  O   UNL     1      -9.468   3.577  67.605  1.00  0.00    -0.197 OA 
HETATM   19  O   UNL     1      -9.745   3.454  65.359  1.00  0.00    -0.143 OA 
ENDBRANCH  15  16
BRANCH  15  20
HETATM   20  C   UNL     1      -8.501   7.435  66.994  1.00  0.00    -0.118 C  
HETATM   21  C   UNL     1      -9.356   8.465  66.256  1.00  0.00    -0.219 C  
HETATM   22  O   UNL     1     -10.613   8.570  66.752  1.00  0.00    -0.283 OA 
HETATM   23  O   UNL     1      -8.944   9.165  65.349  1.00  0.00    -0.187 OA 
ENDBRANCH  15  20
ENDBRANCH  14  15
ENDBRANCH   2  14
TORSDOF 8
ENDMDL
MODEL      340
REMARK 921   NORMALIZED FREE ENERGY PREDICTED BY IDOCK:   -2.56 KCAL/MOL
REMARK 922        TOTAL FREE ENERGY PREDICTED BY IDOCK:   -5.09 KCAL/MOL
REMARK 923 INTER-LIGAND FREE ENERGY PREDICTED BY IDOCK:   -5.54 KCAL/MOL
REMARK 924 INTRA-LIGAND FREE ENERGY PREDICTED BY IDOCK:    0.45 KCAL/MOL
REMARK 927      BINDING AFFINITY PREDICTED BY RF-SCORE:    0.00 PKD
ROOT
HETATM    1  O   UNL     1      -8.464  14.506  69.487  1.00  0.00    -0.381 OA 
HETATM    2  C   UNL     1      -7.923  14.445  68.163  1.00  0.00    -0.136 C  
HETATM    3  H   UNL     1      -7.786  14.779  70.095  1.00  0.00     0.000 HD 
ENDROOT
BRANCH   2   4
HETATM    4  C   UNL     1      -7.360  15.845  67.809  1.00  0.00    -0.144 C  
BRANCH   4   5
HETATM    5  N   UNL     1      -8.273  17.021  68.058  1.00  0.00    -0.200 NA 
BRANCH   5   6
HETATM    6  C   UNL     1      -8.605  17.639  66.720  1.00  0.00    -0.255 C  
HETATM    7  O   UNL     1     -10.896  17.465  67.442  1.00  0.00    -0.290 OA 
HETATM    8  C   UNL     1     -10.081  17.492  66.361  1.00  0.00    -0.345 C  
HETATM    9  O   UNL     1     -10.498  17.431  65.215  1.00  0.00    -0.654 OA 
ENDBRANCH   5   6
BRANCH   5  10
HETATM   10  C   UNL     1      -7.524  18.047  68.865  1.00  0.00    -0.227 C  
HETATM   11  O   UNL     1      -5.926  17.998  67.073  1.00  0.00    -0.133 OA 
HETATM   12  O   UNL     1      -5.160  18.567  69.129  1.00  0.00    -0.186 OA 
HETATM   13  C   UNL     1      -6.077  18.218  68.399  1.00  0.00    -0.193 C  
ENDBRANCH   5  10
ENDBRANCH   4   5
ENDBRANCH   2   4
BRANCH   2  14
HETATM   14  C   UNL     1      -9.035  13.997  67.166  1.00  0.00    -0.232 C  
BRANCH  14  15
HETATM   15  N   UNL     1      -8.969  12.589  66.634  1.00  0.00    -0.204 NA 
BRANCH  15  16
HETATM   16  C   UNL     1      -8.027  11.803  67.515  1.00  0.00    -0.148 C  
HETATM   17  C   UNL     1      -7.508  10.534  66.845  1.00  0.00    -0.110 C  
HETATM   18  O   UNL     1      -7.424  10.652  65.495  1.00  0.00    -0.138 OA 
HETATM   19  O   UNL     1      -7.143   9.539  67.450  1.00  0.00    -0.084 OA 
ENDBRANCH  15  16
BRANCH  15  20
HETATM   20  C   UNL     1     -10.343  11.959  66.802  1.00  0.00    -0.209 C  
HETATM   21  C   UNL     1     -11.321  12.331  65.688  1.00  0.00    -0.350 C  
HETATM   22  O   UNL     1     -10.712  12.593  64.507  1.00  0.00    -0.303 OA 
HETATM   23  O   UNL     1     -12.532  12.343  65.824  1.00  0.00    -0.615 OA 
ENDBRANCH  15  20
ENDBRANCH  14  15
ENDBRANCH   2  14
TORSDOF 8
ENDMDL
MODEL      341
REMARK 921   NORMALIZED FREE ENERGY PREDICTED BY IDOCK:   -2.56 KCAL/MOL
REMARK 922        TOTAL FREE ENERGY PREDICTED BY IDOCK:   -5.08 KCAL/MOL
REMARK 923 INTER-LIGAND FREE ENERGY PREDICTED BY IDOCK:   -4.21 KCAL/MOL
REMARK 924 INTRA-LIGAND FREE ENERGY PREDICTED BY IDOCK:   -0.88 KCAL/MOL
REMARK 927      BINDING AFFINITY PREDICTED BY RF-SCORE:    0.00 PKD
ROOT
HETATM    1  O   UNL     1     -11.718   7.670  71.397  1.00  0.00    -0.269 OA 
HETATM    2  C   UNL     1     -10.493   7.200  70.824  1.00  0.00    -0.212 C  
HETATM    3  H   UNL     1     -11.552   8.458  71.900  1.00  0.00     0.000 HD 
ENDROOT
BRANCH   2   4
HETATM    4  C   UNL     1      -9.907   8.334  69.945  1.00  0.00    -0.186 C  
BRANCH   4   5
HETATM    5  N   UNL     1     -10.880   9.386  69.468  1.00  0.00    -0.232 NA 
BRANCH   5   6
HETATM    6  C   UNL     1     -10.396   9.888  68.128  1.00  0.00    -0.195 C  
HETATM    7  O   UNL     1     -11.142   7.756  67.292  1.00  0.00    -0.118 OA 
HETATM    8  C   UNL     1     -10.264   8.768  67.099  1.00  0.00    -0.276 C  
HETATM    9  O   UNL     1      -9.466   8.787  66.175  1.00  0.00    -0.218 OA 
ENDBRANCH   5   6
BRANCH   5  10
HETATM   10  C   UNL     1     -10.847  10.541  70.432  1.00  0.00    -0.101 C  
HETATM   11  O   UNL     1     -13.198  10.127  70.697  1.00  0.00    -0.336 OA 
HETATM   12  O   UNL     1     -12.472  12.243  71.059  1.00  0.00    -0.370 OA 
HETATM   13  C   UNL     1     -12.242  11.083  70.746  1.00  0.00    -0.380 C  
ENDBRANCH   5  10
ENDBRANCH   4   5
ENDBRANCH   2   4
BRANCH   2  14
HETATM   14  C   UNL     1     -10.766   5.906  69.998  1.00  0.00    -0.326 C  
BRANCH  14  15
HETATM   15  N   UNL     1      -9.593   5.009  69.699  1.00  0.00    -0.153 NA 
BRANCH  15  16
HETATM   16  C   UNL     1      -9.719   3.775  70.563  1.00  0.00    -0.160 C  
HETATM   17  C   UNL     1      -8.565   3.621  71.549  1.00  0.00    -0.084 C  
HETATM   18  O   UNL     1      -8.044   4.814  71.936  1.00  0.00    -0.104 OA 
HETATM   19  O   UNL     1      -8.185   2.552  71.999  1.00  0.00    -0.056 OA 
ENDBRANCH  15  16
BRANCH  15  20
HETATM   20  C   UNL     1      -9.715   4.540  68.258  1.00  0.00    -0.123 C  
HETATM   21  C   UNL     1      -8.664   5.150  67.331  1.00  0.00    -0.103 C  
HETATM   22  O   UNL     1      -7.507   5.461  67.965  1.00  0.00    -0.075 OA 
HETATM   23  O   UNL     1      -8.820   5.297  66.132  1.00  0.00    -0.127 OA 
ENDBRANCH  15  20
ENDBRANCH  14  15
ENDBRANCH   2  14
TORSDOF 8
ENDMDL
MODEL      342
REMARK 921   NORMALIZED FREE ENERGY PREDICTED BY IDOCK:   -2.55 KCAL/MOL
REMARK 922        TOTAL FREE ENERGY PREDICTED BY IDOCK:   -5.08 KCAL/MOL
REMARK 923 INTER-LIGAND FREE ENERGY PREDICTED BY IDOCK:   -3.92 KCAL/MOL
REMARK 924 INTRA-LIGAND FREE ENERGY PREDICTED BY IDOCK:   -1.16 KCAL/MOL
REMARK 927      BINDING AFFINITY PREDICTED BY RF-SCORE:    0.00 PKD
ROOT
HETATM    1  O   UNL     1     -11.027   7.781  66.857  1.00  0.00    -0.443 OA 
HETATM    2  C   UNL     1     -10.869   6.533  67.541  1.00  0.00    -0.352 C  
HETATM    3  H   UNL     1     -11.172   8.474  67.491  1.00  0.00     0.000 HD 
ENDROOT
BRANCH   2   4
HETATM    4  C   UNL     1      -9.681   6.671  68.526  1.00  0.00    -0.131 C  
BRANCH   4   5
HETATM    5  N   UNL     1     -10.017   6.621  69.997  1.00  0.00    -0.172 NA 
BRANCH   5   6
HETATM    6  C   UNL     1      -9.180   5.531  70.625  1.00  0.00    -0.150 C  
HETATM    7  O   UNL     1      -7.692   7.320  71.246  1.00  0.00    -0.086 OA 
HETATM    8  C   UNL     1      -7.765   6.000  70.953  1.00  0.00    -0.098 C  
HETATM    9  O   UNL     1      -6.794   5.261  70.977  1.00  0.00    -0.044 OA 
ENDBRANCH   5   6
BRANCH   5  10
HETATM   10  C   UNL     1     -11.464   6.233  70.145  1.00  0.00    -0.382 C  
HETATM   11  O   UNL     1     -11.788   8.498  70.876  1.00  0.00    -0.281 OA 
HETATM   12  O   UNL     1     -13.239   6.940  71.655  1.00  0.00    -0.354 OA 
HETATM   13  C   UNL     1     -12.256   7.233  70.989  1.00  0.00    -0.313 C  
ENDBRANCH   5  10
ENDBRANCH   4   5
ENDBRANCH   2   4
BRANCH   2  14
HETATM   14  C   UNL     1     -10.632   5.395  66.500  1.00  0.00    -0.289 C  
BRANCH  14  15
HETATM   15  N   UNL     1      -9.226   4.878  66.341  1.00  0.00    -0.132 NA 
BRANCH  15  16
HETATM   16  C   UNL     1      -9.303   3.387  66.107  1.00  0.00    -0.143 C  
HETATM   17  C   UNL     1      -8.015   2.661  66.483  1.00  0.00    -0.081 C  
HETATM   18  O   UNL     1      -7.343   3.275  67.491  1.00  0.00    -0.057 OA 
HETATM   19  O   UNL     1      -7.651   1.607  65.987  1.00  0.00    -0.060 OA 
ENDBRANCH  15  16
BRANCH  15  20
HETATM   20  C   UNL     1      -8.644   5.484  65.074  1.00  0.00    -0.128 C  
HETATM   21  C   UNL     1      -7.568   6.536  65.344  1.00  0.00    -0.089 C  
HETATM   22  O   UNL     1      -6.894   6.327  66.501  1.00  0.00    -0.058 OA 
HETATM   23  O   UNL     1      -7.298   7.443  64.577  1.00  0.00    -0.075 OA 
ENDBRANCH  15  20
ENDBRANCH  14  15
ENDBRANCH   2  14
TORSDOF 8
ENDMDL
MODEL      343
REMARK 921   NORMALIZED FREE ENERGY PREDICTED BY IDOCK:   -2.54 KCAL/MOL
REMARK 922        TOTAL FREE ENERGY PREDICTED BY IDOCK:   -5.07 KCAL/MOL
REMARK 923 INTER-LIGAND FREE ENERGY PREDICTED BY IDOCK:   -5.26 KCAL/MOL
REMARK 924 INTRA-LIGAND FREE ENERGY PREDICTED BY IDOCK:    0.20 KCAL/MOL
REMARK 927      BINDING AFFINITY PREDICTED BY RF-SCORE:    0.00 PKD
ROOT
HETATM    1  O   UNL     1     -12.359  11.051  68.258  1.00  0.00    -0.717 OA 
HETATM    2  C   UNL     1     -11.319  10.067  68.306  1.00  0.00    -0.049 C  
HETATM    3  H   UNL     1     -12.830  11.056  69.083  1.00  0.00     0.000 HD 
ENDROOT
BRANCH   2   4
HETATM    4  C   UNL     1     -10.391  10.408  69.499  1.00  0.00    -0.237 C  
BRANCH   4   5
HETATM    5  N   UNL     1     -10.136   9.300  70.491  1.00  0.00    -0.235 NA 
BRANCH   5   6
HETATM    6  C   UNL     1      -8.769   8.725  70.202  1.00  0.00    -0.149 C  
HETATM    7  O   UNL     1      -8.439   8.855  72.584  1.00  0.00    -0.388 OA 
HETATM    8  C   UNL     1      -7.814   8.871  71.383  1.00  0.00    -0.097 C  
HETATM    9  O   UNL     1      -6.602   8.968  71.268  1.00  0.00    -0.077 OA 
ENDBRANCH   5   6
BRANCH   5  10
HETATM   10  C   UNL     1     -11.150   8.211  70.264  1.00  0.00    -0.221 C  
HETATM   11  O   UNL     1     -12.012   8.841  72.416  1.00  0.00    -0.359 OA 
HETATM   12  O   UNL     1     -12.343   6.698  71.755  1.00  0.00    -0.345 OA 
HETATM   13  C   UNL     1     -11.880   7.811  71.548  1.00  0.00    -0.293 C  
ENDBRANCH   5  10
ENDBRANCH   4   5
ENDBRANCH   2   4
BRANCH   2  14
HETATM   14  C   UNL     1     -10.546  10.059  66.951  1.00  0.00    -0.192 C  
BRANCH  14  15
HETATM   15  N   UNL     1      -9.426  11.053  66.782  1.00  0.00    -0.179 NA 
BRANCH  15  16
HETATM   16  C   UNL     1      -8.358  10.410  65.927  1.00  0.00    -0.152 C  
HETATM   17  C   UNL     1      -6.952  10.619  66.479  1.00  0.00    -0.125 C  
HETATM   18  O   UNL     1      -6.931  10.726  67.832  1.00  0.00    -0.072 OA 
HETATM   19  O   UNL     1      -5.941  10.625  65.796  1.00  0.00    -0.116 OA 
ENDBRANCH  15  16
BRANCH  15  20
HETATM   20  C   UNL     1      -9.961  12.233  65.986  1.00  0.00    -0.252 C  
HETATM   21  C   UNL     1     -10.183  11.916  64.507  1.00  0.00    -0.282 C  
HETATM   22  O   UNL     1     -10.472  10.613  64.277  1.00  0.00    -0.349 OA 
HETATM   23  O   UNL     1     -10.158  12.753  63.623  1.00  0.00    -0.378 OA 
ENDBRANCH  15  20
ENDBRANCH  14  15
ENDBRANCH   2  14
TORSDOF 8
ENDMDL
MODEL      344
REMARK 921   NORMALIZED FREE ENERGY PREDICTED BY IDOCK:   -2.54 KCAL/MOL
REMARK 922        TOTAL FREE ENERGY PREDICTED BY IDOCK:   -5.06 KCAL/MOL
REMARK 923 INTER-LIGAND FREE ENERGY PREDICTED BY IDOCK:   -3.79 KCAL/MOL
REMARK 924 INTRA-LIGAND FREE ENERGY PREDICTED BY IDOCK:   -1.27 KCAL/MOL
REMARK 927      BINDING AFFINITY PREDICTED BY RF-SCORE:    0.00 PKD
ROOT
HETATM    1  O   UNL     1     -10.452   8.198  66.381  1.00  0.00    -0.432 OA 
HETATM    2  C   UNL     1     -10.360   7.185  67.390  1.00  0.00    -0.254 C  
HETATM    3  H   UNL     1     -10.674   9.029  66.785  1.00  0.00     0.000 HD 
ENDROOT
BRANCH   2   4
HETATM    4  C   UNL     1      -9.293   7.630  68.421  1.00  0.00    -0.146 C  
BRANCH   4   5
HETATM    5  N   UNL     1      -9.745   7.729  69.858  1.00  0.00    -0.175 NA 
BRANCH   5   6
HETATM    6  C   UNL     1      -9.654   9.178  70.273  1.00  0.00    -0.213 C  
HETATM    7  O   UNL     1     -12.029   9.006  70.637  1.00  0.00    -0.226 OA 
HETATM    8  C   UNL     1     -11.021   9.855  70.325  1.00  0.00    -0.309 C  
HETATM    9  O   UNL     1     -11.195  11.048  70.132  1.00  0.00    -0.270 OA 
ENDBRANCH   5   6
BRANCH   5  10
HETATM   10  C   UNL     1      -8.788   6.944  70.716  1.00  0.00    -0.150 C  
HETATM   11  O   UNL     1     -10.759   6.133  71.822  1.00  0.00    -0.226 OA 
HETATM   12  O   UNL     1      -8.844   6.199  73.034  1.00  0.00    -0.126 OA 
HETATM   13  C   UNL     1      -9.445   6.409  71.989  1.00  0.00    -0.151 C  
ENDBRANCH   5  10
ENDBRANCH   4   5
ENDBRANCH   2   4
BRANCH   2  14
HETATM   14  C   UNL     1      -9.995   5.821  66.728  1.00  0.00    -0.175 C  
BRANCH  14  15
HETATM   15  N   UNL     1      -8.940   4.981  67.398  1.00  0.00    -0.109 NA 
BRANCH  15  16
HETATM   16  C   UNL     1      -9.376   3.536  67.319  1.00  0.00    -0.205 C  
HETATM   17  C   UNL     1      -9.292   2.816  68.661  1.00  0.00    -0.176 C  
HETATM   18  O   UNL     1      -9.486   3.650  69.715  1.00  0.00    -0.168 OA 
HETATM   19  O   UNL     1      -9.133   1.613  68.786  1.00  0.00    -0.096 OA 
ENDBRANCH  15  16
BRANCH  15  20
HETATM   20  C   UNL     1      -7.663   5.090  66.581  1.00  0.00    -0.092 C  
HETATM   21  C   UNL     1      -6.441   5.474  67.415  1.00  0.00    -0.051 C  
HETATM   22  O   UNL     1      -6.521   5.060  68.703  1.00  0.00    -0.034 OA 
HETATM   23  O   UNL     1      -5.464   6.046  66.965  1.00  0.00    -0.008 OA 
ENDBRANCH  15  20
ENDBRANCH  14  15
ENDBRANCH   2  14
TORSDOF 8
ENDMDL
MODEL      345
REMARK 921   NORMALIZED FREE ENERGY PREDICTED BY IDOCK:   -2.52 KCAL/MOL
REMARK 922        TOTAL FREE ENERGY PREDICTED BY IDOCK:   -5.04 KCAL/MOL
REMARK 923 INTER-LIGAND FREE ENERGY PREDICTED BY IDOCK:   -3.80 KCAL/MOL
REMARK 924 INTRA-LIGAND FREE ENERGY PREDICTED BY IDOCK:   -1.23 KCAL/MOL
REMARK 927      BINDING AFFINITY PREDICTED BY RF-SCORE:    0.00 PKD
ROOT
HETATM    1  O   UNL     1      -6.787   9.361  66.501  1.00  0.00    -0.081 OA 
HETATM    2  C   UNL     1      -7.758  10.001  67.337  1.00  0.00    -0.095 C  
HETATM    3  H   UNL     1      -6.317   8.707  67.004  1.00  0.00     0.000 HD 
ENDROOT
BRANCH   2   4
HETATM    4  C   UNL     1      -8.706   8.908  67.894  1.00  0.00    -0.129 C  
BRANCH   4   5
HETATM    5  N   UNL     1      -9.138   9.061  69.332  1.00  0.00    -0.143 NA 
BRANCH   5   6
HETATM    6  C   UNL     1      -8.381   8.043  70.152  1.00  0.00    -0.126 C  
HETATM    7  O   UNL     1      -7.319   9.954  71.162  1.00  0.00    -0.275 OA 
HETATM    8  C   UNL     1      -7.164   8.645  70.850  1.00  0.00    -0.073 C  
HETATM    9  O   UNL     1      -6.158   8.012  71.126  1.00  0.00    -0.034 OA 
ENDBRANCH   5   6
BRANCH   5  10
HETATM   10  C   UNL     1     -10.604   8.732  69.430  1.00  0.00    -0.209 C  
HETATM   11  O   UNL     1     -10.825  10.920  70.397  1.00  0.00    -0.060 OA 
HETATM   12  O   UNL     1     -12.359   9.362  70.996  1.00  0.00    -0.297 OA 
HETATM   13  C   UNL     1     -11.355   9.675  70.371  1.00  0.00    -0.277 C  
ENDBRANCH   5  10
ENDBRANCH   4   5
ENDBRANCH   2   4
BRANCH   2  14
HETATM   14  C   UNL     1      -8.531  11.075  66.511  1.00  0.00    -0.161 C  
BRANCH  14  15
HETATM   15  N   UNL     1      -8.535  12.487  67.036  1.00  0.00    -0.180 NA 
BRANCH  15  16
HETATM   16  C   UNL     1      -9.958  12.846  67.397  1.00  0.00    -0.217 C  
HETATM   17  C   UNL     1     -10.300  14.299  67.087  1.00  0.00    -0.262 C  
HETATM   18  O   UNL     1      -9.600  14.788  66.032  1.00  0.00    -0.299 OA 
HETATM   19  O   UNL     1     -11.155  14.943  67.673  1.00  0.00    -0.290 OA 
ENDBRANCH  15  16
BRANCH  15  20
HETATM   20  C   UNL     1      -7.742  12.509  68.333  1.00  0.00    -0.136 C  
HETATM   21  C   UNL     1      -6.484  13.374  68.261  1.00  0.00    -0.102 C  
HETATM   22  O   UNL     1      -6.592  14.402  67.384  1.00  0.00    -0.287 OA 
HETATM   23  O   UNL     1      -5.499  13.199  68.955  1.00  0.00    -0.068 OA 
ENDBRANCH  15  20
ENDBRANCH  14  15
ENDBRANCH   2  14
TORSDOF 8
ENDMDL
MODEL      346
REMARK 921   NORMALIZED FREE ENERGY PREDICTED BY IDOCK:   -2.52 KCAL/MOL
REMARK 922        TOTAL FREE ENERGY PREDICTED BY IDOCK:   -5.03 KCAL/MOL
REMARK 923 INTER-LIGAND FREE ENERGY PREDICTED BY IDOCK:   -5.65 KCAL/MOL
REMARK 924 INTRA-LIGAND FREE ENERGY PREDICTED BY IDOCK:    0.62 KCAL/MOL
REMARK 927      BINDING AFFINITY PREDICTED BY RF-SCORE:    0.00 PKD
ROOT
HETATM    1  O   UNL     1     -11.604  15.422  66.859  1.00  0.00    -0.164 OA 
HETATM    2  C   UNL     1     -10.211  15.091  66.820  1.00  0.00    -0.260 C  
HETATM    3  H   UNL     1     -11.721  16.246  67.316  1.00  0.00     0.000 HD 
ENDROOT
BRANCH   2   4
HETATM    4  C   UNL     1      -9.461  16.253  66.119  1.00  0.00    -0.339 C  
BRANCH   4   5
HETATM    5  N   UNL     1      -8.751  17.235  67.018  1.00  0.00    -0.224 NA 
BRANCH   5   6
HETATM    6  C   UNL     1      -8.887  18.607  66.402  1.00  0.00    -0.275 C  
HETATM    7  O   UNL     1      -9.092  19.378  68.674  1.00  0.00    -0.361 OA 
HETATM    8  C   UNL     1      -9.430  19.637  67.389  1.00  0.00    -0.329 C  
HETATM    9  O   UNL     1     -10.083  20.614  67.060  1.00  0.00    -0.395 OA 
ENDBRANCH   5   6
BRANCH   5  10
HETATM   10  C   UNL     1      -7.286  16.886  67.045  1.00  0.00    -0.193 C  
HETATM   11  O   UNL     1      -7.695  16.209  69.313  1.00  0.00    -0.229 OA 
HETATM   12  O   UNL     1      -5.597  16.896  68.799  1.00  0.00    -0.130 OA 
HETATM   13  C   UNL     1      -6.756  16.691  68.466  1.00  0.00    -0.148 C  
ENDBRANCH   5  10
ENDBRANCH   4   5
ENDBRANCH   2   4
BRANCH   2  14
HETATM   14  C   UNL     1     -10.017  13.738  66.069  1.00  0.00    -0.306 C  
BRANCH  14  15
HETATM   15  N   UNL     1     -10.330  12.472  66.823  1.00  0.00    -0.225 NA 
BRANCH  15  16
HETATM   16  C   UNL     1      -9.162  11.528  66.653  1.00  0.00    -0.186 C  
HETATM   17  C   UNL     1      -7.854  12.101  67.188  1.00  0.00    -0.160 C  
HETATM   18  O   UNL     1      -8.042  12.956  68.226  1.00  0.00    -0.143 OA 
HETATM   19  O   UNL     1      -6.749  11.784  66.779  1.00  0.00    -0.125 OA 
ENDBRANCH  15  16
BRANCH  15  20
HETATM   20  C   UNL     1     -10.398  12.811  68.304  1.00  0.00    -0.243 C  
HETATM   21  C   UNL     1     -11.705  12.375  68.967  1.00  0.00    -0.323 C  
HETATM   22  O   UNL     1     -12.267  11.292  68.378  1.00  0.00    -0.604 OA 
HETATM   23  O   UNL     1     -12.174  12.907  69.957  1.00  0.00    -0.291 OA 
ENDBRANCH  15  20
ENDBRANCH  14  15
ENDBRANCH   2  14
TORSDOF 8
ENDMDL
MODEL      347
REMARK 921   NORMALIZED FREE ENERGY PREDICTED BY IDOCK:   -2.52 KCAL/MOL
REMARK 922        TOTAL FREE ENERGY PREDICTED BY IDOCK:   -5.02 KCAL/MOL
REMARK 923 INTER-LIGAND FREE ENERGY PREDICTED BY IDOCK:   -3.80 KCAL/MOL
REMARK 924 INTRA-LIGAND FREE ENERGY PREDICTED BY IDOCK:   -1.22 KCAL/MOL
REMARK 927      BINDING AFFINITY PREDICTED BY RF-SCORE:    0.00 PKD
ROOT
HETATM    1  O   UNL     1      -7.485   9.666  67.444  1.00  0.00    -0.090 OA 
HETATM    2  C   UNL     1      -7.039  10.161  68.711  1.00  0.00    -0.075 C  
HETATM    3  H   UNL     1      -8.086   8.943  67.580  1.00  0.00     0.000 HD 
ENDROOT
BRANCH   2   4
HETATM    4  C   UNL     1      -8.286  10.592  69.525  1.00  0.00    -0.079 C  
BRANCH   4   5
HETATM    5  N   UNL     1      -9.444   9.624  69.544  1.00  0.00    -0.186 NA 
BRANCH   5   6
HETATM    6  C   UNL     1     -10.715  10.422  69.373  1.00  0.00    -0.244 C  
HETATM    7  O   UNL     1     -10.873   9.322  67.236  1.00  0.00    -0.238 OA 
HETATM    8  C   UNL     1     -11.203  10.439  67.927  1.00  0.00    -0.263 C  
HETATM    9  O   UNL     1     -11.848  11.354  67.439  1.00  0.00    -0.609 OA 
ENDBRANCH   5   6
BRANCH   5  10
HETATM   10  C   UNL     1      -9.494   8.963  70.895  1.00  0.00    -0.236 C  
HETATM   11  O   UNL     1     -10.403   7.078  69.717  1.00  0.00    -0.200 OA 
HETATM   12  O   UNL     1     -10.979   7.313  71.897  1.00  0.00    -0.225 OA 
HETATM   13  C   UNL     1     -10.385   7.720  70.908  1.00  0.00    -0.200 C  
ENDBRANCH   5  10
ENDBRANCH   4   5
ENDBRANCH   2   4
BRANCH   2  14
HETATM   14  C   UNL     1      -6.052  11.348  68.489  1.00  0.00    -0.045 C  
BRANCH  14  15
HETATM   15  N   UNL     1      -6.601  12.745  68.621  1.00  0.00    -0.078 NA 
BRANCH  15  16
HETATM   16  C   UNL     1      -5.436  13.683  68.843  1.00  0.00    -0.074 C  
HETATM   17  C   UNL     1      -5.666  14.651  69.999  1.00  0.00    -0.121 C  
HETATM   18  O   UNL     1      -6.465  14.130  70.966  1.00  0.00    -0.039 OA 
HETATM   19  O   UNL     1      -5.144  15.749  70.090  1.00  0.00    -0.116 OA 
ENDBRANCH  15  16
BRANCH  15  20
HETATM   20  C   UNL     1      -7.219  13.135  67.288  1.00  0.00    -0.032 C  
HETATM   21  C   UNL     1      -8.687  13.546  67.398  1.00  0.00    -0.220 C  
HETATM   22  O   UNL     1      -9.004  14.082  68.602  1.00  0.00    -0.177 OA 
HETATM   23  O   UNL     1      -9.488  13.456  66.484  1.00  0.00    -0.258 OA 
ENDBRANCH  15  20
ENDBRANCH  14  15
ENDBRANCH   2  14
TORSDOF 8
ENDMDL
MODEL      348
REMARK 921   NORMALIZED FREE ENERGY PREDICTED BY IDOCK:   -2.50 KCAL/MOL
REMARK 922        TOTAL FREE ENERGY PREDICTED BY IDOCK:   -5.01 KCAL/MOL
REMARK 923 INTER-LIGAND FREE ENERGY PREDICTED BY IDOCK:   -3.56 KCAL/MOL
REMARK 924 INTRA-LIGAND FREE ENERGY PREDICTED BY IDOCK:   -1.44 KCAL/MOL
REMARK 927      BINDING AFFINITY PREDICTED BY RF-SCORE:    0.00 PKD
ROOT
HETATM    1  O   UNL     1      -6.228   4.521  69.319  1.00  0.00    -0.026 OA 
HETATM    2  C   UNL     1      -7.373   5.369  69.461  1.00  0.00    -0.065 C  
HETATM    3  H   UNL     1      -5.473   4.936  69.720  1.00  0.00     0.000 HD 
ENDROOT
BRANCH   2   4
HETATM    4  C   UNL     1      -7.593   5.630  70.973  1.00  0.00    -0.095 C  
BRANCH   4   5
HETATM    5  N   UNL     1      -9.018   5.569  71.466  1.00  0.00    -0.136 NA 
BRANCH   5   6
HETATM    6  C   UNL     1      -9.492   6.986  71.689  1.00  0.00    -0.156 C  
HETATM    7  O   UNL     1     -11.471   6.288  70.508  1.00  0.00    -0.357 OA 
HETATM    8  C   UNL     1     -10.682   7.348  70.804  1.00  0.00    -0.232 C  
HETATM    9  O   UNL     1     -10.921   8.481  70.418  1.00  0.00    -0.237 OA 
ENDBRANCH   5   6
BRANCH   5  10
HETATM   10  C   UNL     1      -9.034   4.864  72.797  1.00  0.00    -0.123 C  
HETATM   11  O   UNL     1      -9.979   3.020  71.583  1.00  0.00    -0.163 OA 
HETATM   12  O   UNL     1     -10.497   3.186  73.783  1.00  0.00    -0.133 OA 
HETATM   13  C   UNL     1      -9.928   3.623  72.793  1.00  0.00    -0.154 C  
ENDBRANCH   5  10
ENDBRANCH   4   5
ENDBRANCH   2   4
BRANCH   2  14
HETATM   14  C   UNL     1      -8.612   4.687  68.803  1.00  0.00    -0.085 C  
BRANCH  14  15
HETATM   15  N   UNL     1      -9.088   5.233  67.482  1.00  0.00    -0.108 NA 
BRANCH  15  16
HETATM   16  C   UNL     1      -9.045   6.742  67.560  1.00  0.00    -0.117 C  
HETATM   17  C   UNL     1     -10.220   7.406  66.850  1.00  0.00    -0.276 C  
HETATM   18  O   UNL     1     -11.341   6.640  66.864  1.00  0.00    -0.333 OA 
HETATM   19  O   UNL     1     -10.189   8.529  66.374  1.00  0.00    -0.273 OA 
ENDBRANCH  15  16
BRANCH  15  20
HETATM   20  C   UNL     1      -8.083   4.828  66.416  1.00  0.00    -0.107 C  
HETATM   21  C   UNL     1      -8.676   3.920  65.338  1.00  0.00    -0.116 C  
HETATM   22  O   UNL     1     -10.001   4.122  65.138  1.00  0.00    -0.192 OA 
HETATM   23  O   UNL     1      -8.022   3.129  64.682  1.00  0.00    -0.081 OA 
ENDBRANCH  15  20
ENDBRANCH  14  15
ENDBRANCH   2  14
TORSDOF 8
ENDMDL
MODEL      349
REMARK 921   NORMALIZED FREE ENERGY PREDICTED BY IDOCK:   -2.49 KCAL/MOL
REMARK 922        TOTAL FREE ENERGY PREDICTED BY IDOCK:   -4.98 KCAL/MOL
REMARK 923 INTER-LIGAND FREE ENERGY PREDICTED BY IDOCK:   -4.21 KCAL/MOL
REMARK 924 INTRA-LIGAND FREE ENERGY PREDICTED BY IDOCK:   -0.77 KCAL/MOL
REMARK 927      BINDING AFFINITY PREDICTED BY RF-SCORE:    0.00 PKD
ROOT
HETATM    1  O   UNL     1     -12.031   8.021  70.081  1.00  0.00    -0.436 OA 
HETATM    2  C   UNL     1     -10.688   7.524  70.095  1.00  0.00    -0.239 C  
HETATM    3  H   UNL     1     -12.038   8.908  69.740  1.00  0.00     0.000 HD 
ENDROOT
BRANCH   2   4
HETATM    4  C   UNL     1     -10.136   7.591  68.649  1.00  0.00    -0.184 C  
BRANCH   4   5
HETATM    5  N   UNL     1      -9.119   8.670  68.366  1.00  0.00    -0.138 NA 
BRANCH   5   6
HETATM    6  C   UNL     1      -9.676   9.556  67.277  1.00  0.00    -0.167 C  
HETATM    7  O   UNL     1     -10.100  11.124  69.055  1.00  0.00    -0.204 OA 
HETATM    8  C   UNL     1     -10.507  10.710  67.832  1.00  0.00    -0.208 C  
HETATM    9  O   UNL     1     -11.433  11.231  67.230  1.00  0.00    -0.464 OA 
ENDBRANCH   5   6
BRANCH   5  10
HETATM   10  C   UNL     1      -7.867   8.022  67.836  1.00  0.00    -0.126 C  
HETATM   11  O   UNL     1      -6.724   9.354  69.476  1.00  0.00    -0.046 OA 
HETATM   12  O   UNL     1      -5.559   8.768  67.622  1.00  0.00    -0.038 OA 
HETATM   13  C   UNL     1      -6.598   8.758  68.268  1.00  0.00    -0.060 C  
ENDBRANCH   5  10
ENDBRANCH   4   5
ENDBRANCH   2   4
BRANCH   2  14
HETATM   14  C   UNL     1     -10.677   6.069  70.655  1.00  0.00    -0.276 C  
BRANCH  14  15
HETATM   15  N   UNL     1      -9.964   5.829  71.960  1.00  0.00    -0.172 NA 
BRANCH  15  16
HETATM   16  C   UNL     1      -9.723   4.343  72.093  1.00  0.00    -0.162 C  
HETATM   17  C   UNL     1     -10.372   3.745  73.337  1.00  0.00    -0.163 C  
HETATM   18  O   UNL     1     -11.500   4.406  73.707  1.00  0.00    -0.202 OA 
HETATM   19  O   UNL     1      -9.970   2.745  73.908  1.00  0.00    -0.098 OA 
ENDBRANCH  15  16
BRANCH  15  20
HETATM   20  C   UNL     1      -8.593   6.481  71.873  1.00  0.00    -0.129 C  
HETATM   21  C   UNL     1      -8.520   7.836  72.577  1.00  0.00    -0.131 C  
HETATM   22  O   UNL     1      -9.382   7.945  73.617  1.00  0.00    -0.278 OA 
HETATM   23  O   UNL     1      -7.734   8.716  72.275  1.00  0.00    -0.287 OA 
ENDBRANCH  15  20
ENDBRANCH  14  15
ENDBRANCH   2  14
TORSDOF 8
ENDMDL
MODEL      350
REMARK 921   NORMALIZED FREE ENERGY PREDICTED BY IDOCK:   -2.48 KCAL/MOL
REMARK 922        TOTAL FREE ENERGY PREDICTED BY IDOCK:   -4.98 KCAL/MOL
REMARK 923 INTER-LIGAND FREE ENERGY PREDICTED BY IDOCK:   -3.80 KCAL/MOL
REMARK 924 INTRA-LIGAND FREE ENERGY PREDICTED BY IDOCK:   -1.18 KCAL/MOL
REMARK 927      BINDING AFFINITY PREDICTED BY RF-SCORE:    0.00 PKD
ROOT
HETATM    1  O   UNL     1      -6.048   5.701  69.005  1.00  0.00    -0.022 OA 
HETATM    2  C   UNL     1      -7.467   5.838  68.876  1.00  0.00    -0.085 C  
HETATM    3  H   UNL     1      -5.652   5.669  68.142  1.00  0.00     0.000 HD 
ENDROOT
BRANCH   2   4
HETATM    4  C   UNL     1      -7.753   7.125  68.063  1.00  0.00    -0.113 C  
BRANCH   4   5
HETATM    5  N   UNL     1      -8.615   6.967  66.833  1.00  0.00    -0.118 NA 
BRANCH   5   6
HETATM    6  C   UNL     1      -9.806   7.884  66.982  1.00  0.00    -0.225 C  
HETATM    7  O   UNL     1      -9.026   8.888  64.936  1.00  0.00    -0.176 OA 
HETATM    8  C   UNL     1      -9.710   9.114  66.082  1.00  0.00    -0.287 C  
HETATM    9  O   UNL     1     -10.218  10.191  66.349  1.00  0.00    -0.230 OA 
ENDBRANCH   5   6
BRANCH   5  10
HETATM   10  C   UNL     1      -9.127   5.552  66.786  1.00  0.00    -0.118 C  
HETATM   11  O   UNL     1      -8.158   5.488  64.589  1.00  0.00    -0.115 OA 
HETATM   12  O   UNL     1      -9.923   4.121  64.983  1.00  0.00    -0.190 OA 
HETATM   13  C   UNL     1      -9.142   4.981  65.367  1.00  0.00    -0.154 C  
ENDBRANCH   5  10
ENDBRANCH   4   5
ENDBRANCH   2   4
BRANCH   2  14
HETATM   14  C   UNL     1      -8.117   5.889  70.293  1.00  0.00    -0.107 C  
BRANCH  14  15
HETATM   15  N   UNL     1      -9.368   5.081  70.516  1.00  0.00    -0.147 NA 
BRANCH  15  16
HETATM   16  C   UNL     1      -8.988   3.839  71.289  1.00  0.00    -0.104 C  
HETATM   17  C   UNL     1      -9.458   2.554  70.616  1.00  0.00    -0.127 C  
HETATM   18  O   UNL     1      -9.517   2.663  69.263  1.00  0.00    -0.141 OA 
HETATM   19  O   UNL     1      -9.695   1.514  71.210  1.00  0.00    -0.125 OA 
ENDBRANCH  15  16
BRANCH  15  20
HETATM   20  C   UNL     1     -10.292   5.884  71.418  1.00  0.00    -0.218 C  
HETATM   21  C   UNL     1     -11.301   6.736  70.649  1.00  0.00    -0.334 C  
HETATM   22  O   UNL     1     -11.633   6.213  69.443  1.00  0.00    -0.372 OA 
HETATM   23  O   UNL     1     -11.803   7.755  71.087  1.00  0.00    -0.288 OA 
ENDBRANCH  15  20
ENDBRANCH  14  15
ENDBRANCH   2  14
TORSDOF 8
ENDMDL
MODEL      351
REMARK 921   NORMALIZED FREE ENERGY PREDICTED BY IDOCK:   -2.48 KCAL/MOL
REMARK 922        TOTAL FREE ENERGY PREDICTED BY IDOCK:   -4.98 KCAL/MOL
REMARK 923 INTER-LIGAND FREE ENERGY PREDICTED BY IDOCK:   -4.20 KCAL/MOL
REMARK 924 INTRA-LIGAND FREE ENERGY PREDICTED BY IDOCK:   -0.77 KCAL/MOL
REMARK 927      BINDING AFFINITY PREDICTED BY RF-SCORE:    0.00 PKD
ROOT
HETATM    1  O   UNL     1     -10.271   7.083  68.974  1.00  0.00    -0.175 OA 
HETATM    2  C   UNL     1     -10.582   8.350  69.565  1.00  0.00    -0.213 C  
HETATM    3  H   UNL     1     -10.337   7.148  68.029  1.00  0.00     0.000 HD 
ENDROOT
BRANCH   2   4
HETATM    4  C   UNL     1      -9.601   9.402  68.988  1.00  0.00    -0.164 C  
BRANCH   4   5
HETATM    5  N   UNL     1     -10.193  10.440  68.066  1.00  0.00    -0.162 NA 
BRANCH   5   6
HETATM    6  C   UNL     1     -11.498  10.903  68.668  1.00  0.00    -0.311 C  
HETATM    7  O   UNL     1     -11.090  12.947  67.462  1.00  0.00    -0.251 OA 
HETATM    8  C   UNL     1     -11.691  12.413  68.552  1.00  0.00    -0.326 C  
HETATM    9  O   UNL     1     -12.341  13.077  69.343  1.00  0.00    -0.166 OA 
ENDBRANCH   5   6
BRANCH   5  10
HETATM   10  C   UNL     1     -10.502   9.787  66.745  1.00  0.00    -0.189 C  
HETATM   11  O   UNL     1      -8.241  10.353  66.165  1.00  0.00    -0.132 OA 
HETATM   12  O   UNL     1      -9.733  10.175  64.467  1.00  0.00    -0.302 OA 
HETATM   13  C   UNL     1      -9.479  10.139  65.664  1.00  0.00    -0.220 C  
ENDBRANCH   5  10
ENDBRANCH   4   5
ENDBRANCH   2   4
BRANCH   2  14
HETATM   14  C   UNL     1     -10.472   8.243  71.117  1.00  0.00    -0.209 C  
BRANCH  14  15
HETATM   15  N   UNL     1      -9.388   7.362  71.680  1.00  0.00    -0.150 NA 
BRANCH  15  16
HETATM   16  C   UNL     1      -8.257   8.253  72.142  1.00  0.00    -0.157 C  
HETATM   17  C   UNL     1      -6.882   7.635  71.909  1.00  0.00    -0.062 C  
HETATM   18  O   UNL     1      -6.856   6.808  70.832  1.00  0.00    -0.056 OA 
HETATM   19  O   UNL     1      -5.891   7.898  72.570  1.00  0.00    -0.039 OA 
ENDBRANCH  15  16
BRANCH  15  20
HETATM   20  C   UNL     1      -9.934   6.681  72.925  1.00  0.00    -0.172 C  
HETATM   21  C   UNL     1     -10.639   5.356  72.632  1.00  0.00    -0.228 C  
HETATM   22  O   UNL     1     -10.156   4.725  71.534  1.00  0.00    -0.185 OA 
HETATM   23  O   UNL     1     -11.511   4.881  73.336  1.00  0.00    -0.336 OA 
ENDBRANCH  15  20
ENDBRANCH  14  15
ENDBRANCH   2  14
TORSDOF 8
ENDMDL
MODEL      352
REMARK 921   NORMALIZED FREE ENERGY PREDICTED BY IDOCK:   -2.48 KCAL/MOL
REMARK 922        TOTAL FREE ENERGY PREDICTED BY IDOCK:   -4.97 KCAL/MOL
REMARK 923 INTER-LIGAND FREE ENERGY PREDICTED BY IDOCK:   -5.21 KCAL/MOL
REMARK 924 INTRA-LIGAND FREE ENERGY PREDICTED BY IDOCK:    0.24 KCAL/MOL
REMARK 927      BINDING AFFINITY PREDICTED BY RF-SCORE:    0.00 PKD
ROOT
HETATM    1  O   UNL     1     -11.292   7.304  69.234  1.00  0.00    -0.464 OA 
HETATM    2  C   UNL     1     -10.511   8.087  68.324  1.00  0.00    -0.161 C  
HETATM    3  H   UNL     1     -11.291   7.716  70.090  1.00  0.00     0.000 HD 
ENDROOT
BRANCH   2   4
HETATM    4  C   UNL     1     -11.112   9.514  68.279  1.00  0.00     0.009 C  
BRANCH   4   5
HETATM    5  N   UNL     1     -10.470  10.544  69.177  1.00  0.00    -0.214 NA 
BRANCH   5   6
HETATM    6  C   UNL     1     -11.550  11.129  70.056  1.00  0.00    -0.338 C  
HETATM    7  O   UNL     1     -10.981   9.354  71.581  1.00  0.00    -0.369 OA 
HETATM    8  C   UNL     1     -11.976  10.175  71.169  1.00  0.00    -0.386 C  
HETATM    9  O   UNL     1     -13.092  10.164  71.662  1.00  0.00    -0.387 OA 
ENDBRANCH   5   6
BRANCH   5  10
HETATM   10  C   UNL     1      -9.924  11.654  68.318  1.00  0.00    -0.201 C  
HETATM   11  O   UNL     1     -12.153  11.795  67.434  1.00  0.00    -0.595 OA 
HETATM   12  O   UNL     1     -10.457  12.455  66.081  1.00  0.00    -0.240 OA 
HETATM   13  C   UNL     1     -10.846  11.997  67.147  1.00  0.00    -0.253 C  
ENDBRANCH   5  10
ENDBRANCH   4   5
ENDBRANCH   2   4
BRANCH   2  14
HETATM   14  C   UNL     1     -10.513   7.411  66.919  1.00  0.00    -0.309 C  
BRANCH  14  15
HETATM   15  N   UNL     1      -9.187   7.241  66.224  1.00  0.00    -0.158 NA 
BRANCH  15  16
HETATM   16  C   UNL     1      -8.316   8.420  66.590  1.00  0.00    -0.110 C  
HETATM   17  C   UNL     1      -8.323   9.515  65.529  1.00  0.00    -0.132 C  
HETATM   18  O   UNL     1      -9.495   9.573  64.844  1.00  0.00    -0.259 OA 
HETATM   19  O   UNL     1      -7.409  10.302  65.349  1.00  0.00    -0.139 OA 
ENDBRANCH  15  16
BRANCH  15  20
HETATM   20  C   UNL     1      -8.509   6.009  66.802  1.00  0.00    -0.110 C  
HETATM   21  C   UNL     1      -8.827   4.726  66.033  1.00  0.00    -0.123 C  
HETATM   22  O   UNL     1      -9.092   4.940  64.722  1.00  0.00    -0.154 OA 
HETATM   23  O   UNL     1      -8.795   3.613  66.528  1.00  0.00    -0.116 OA 
ENDBRANCH  15  20
ENDBRANCH  14  15
ENDBRANCH   2  14
TORSDOF 8
ENDMDL
MODEL      353
REMARK 921   NORMALIZED FREE ENERGY PREDICTED BY IDOCK:   -2.45 KCAL/MOL
REMARK 922        TOTAL FREE ENERGY PREDICTED BY IDOCK:   -4.94 KCAL/MOL
REMARK 923 INTER-LIGAND FREE ENERGY PREDICTED BY IDOCK:   -5.23 KCAL/MOL
REMARK 924 INTRA-LIGAND FREE ENERGY PREDICTED BY IDOCK:    0.29 KCAL/MOL
REMARK 927      BINDING AFFINITY PREDICTED BY RF-SCORE:    0.00 PKD
ROOT
HETATM    1  O   UNL     1      -7.751  13.451  69.272  1.00  0.00    -0.318 OA 
HETATM    2  C   UNL     1      -8.572  13.546  68.103  1.00  0.00    -0.173 C  
HETATM    3  H   UNL     1      -7.423  14.313  69.502  1.00  0.00     0.000 HD 
ENDROOT
BRANCH   2   4
HETATM    4  C   UNL     1      -9.722  14.541  68.404  1.00  0.00    -0.224 C  
BRANCH   4   5
HETATM    5  N   UNL     1      -9.898  15.681  67.430  1.00  0.00    -0.224 NA 
BRANCH   5   6
HETATM    6  C   UNL     1     -10.630  16.792  68.146  1.00  0.00    -0.350 C  
HETATM    7  O   UNL     1      -9.139  18.261  66.954  1.00  0.00    -0.267 OA 
HETATM    8  C   UNL     1      -9.882  18.121  68.077  1.00  0.00    -0.325 C  
HETATM    9  O   UNL     1      -9.960  18.988  68.933  1.00  0.00    -0.410 OA 
ENDBRANCH   5   6
BRANCH   5  10
HETATM   10  C   UNL     1     -10.770  15.213  66.296  1.00  0.00    -0.320 C  
HETATM   11  O   UNL     1     -12.253  14.440  68.020  1.00  0.00    -0.281 OA 
HETATM   12  O   UNL     1     -12.316  13.349  66.034  1.00  0.00    -0.430 OA 
HETATM   13  C   UNL     1     -11.840  14.219  66.750  1.00  0.00    -0.426 C  
ENDBRANCH   5  10
ENDBRANCH   4   5
ENDBRANCH   2   4
BRANCH   2  14
HETATM   14  C   UNL     1      -9.111  12.132  67.727  1.00  0.00    -0.189 C  
BRANCH  14  15
HETATM   15  N   UNL     1      -8.233  10.947  68.036  1.00  0.00    -0.117 NA 
BRANCH  15  16
HETATM   16  C   UNL     1      -8.932  10.110  69.082  1.00  0.00    -0.175 C  
HETATM   17  C   UNL     1      -8.015   9.714  70.235  1.00  0.00    -0.179 C  
HETATM   18  O   UNL     1      -7.042  10.632  70.469  1.00  0.00    -0.227 OA 
HETATM   19  O   UNL     1      -8.167   8.717  70.922  1.00  0.00    -0.128 OA 
ENDBRANCH  15  16
BRANCH  15  20
HETATM   20  C   UNL     1      -8.147  10.088  66.784  1.00  0.00    -0.118 C  
HETATM   21  C   UNL     1      -7.127  10.599  65.767  1.00  0.00    -0.096 C  
HETATM   22  O   UNL     1      -6.097  11.273  66.334  1.00  0.00    -0.140 OA 
HETATM   23  O   UNL     1      -7.194  10.382  64.570  1.00  0.00    -0.110 OA 
ENDBRANCH  15  20
ENDBRANCH  14  15
ENDBRANCH   2  14
TORSDOF 8
ENDMDL
MODEL      354
REMARK 921   NORMALIZED FREE ENERGY PREDICTED BY IDOCK:   -2.45 KCAL/MOL
REMARK 922        TOTAL FREE ENERGY PREDICTED BY IDOCK:   -4.93 KCAL/MOL
REMARK 923 INTER-LIGAND FREE ENERGY PREDICTED BY IDOCK:   -7.13 KCAL/MOL
REMARK 924 INTRA-LIGAND FREE ENERGY PREDICTED BY IDOCK:    2.20 KCAL/MOL
REMARK 927      BINDING AFFINITY PREDICTED BY RF-SCORE:    0.00 PKD
ROOT
HETATM    1  O   UNL     1     -12.001  14.418  67.637  1.00  0.00    -0.449 OA 
HETATM    2  C   UNL     1     -11.014  14.875  68.568  1.00  0.00    -0.255 C  
HETATM    3  H   UNL     1     -12.812  14.893  67.775  1.00  0.00     0.000 HD 
ENDROOT
BRANCH   2   4
HETATM    4  C   UNL     1     -10.832  16.400  68.366  1.00  0.00    -0.342 C  
BRANCH   4   5
HETATM    5  N   UNL     1     -10.424  16.853  66.985  1.00  0.00    -0.306 NA 
BRANCH   5   6
HETATM    6  C   UNL     1     -10.069  15.624  66.182  1.00  0.00    -0.313 C  
HETATM    7  O   UNL     1     -11.216  16.728  64.375  1.00  0.00    -1.112 OA 
HETATM    8  C   UNL     1     -10.870  15.523  64.886  1.00  0.00    -0.427 C  
HETATM    9  O   UNL     1     -11.154  14.467  64.344  1.00  0.00    -0.318 OA 
ENDBRANCH   5   6
BRANCH   5  10
HETATM   10  C   UNL     1      -9.185  17.699  67.104  1.00  0.00    -0.245 C  
HETATM   11  O   UNL     1     -10.691  19.566  67.002  1.00  0.00    -0.467 OA 
HETATM   12  O   UNL     1      -8.575  19.901  66.263  1.00  0.00    -0.350 OA 
HETATM   13  C   UNL     1      -9.432  19.159  66.723  1.00  0.00    -0.330 C  
ENDBRANCH   5  10
ENDBRANCH   4   5
ENDBRANCH   2   4
BRANCH   2  14
HETATM   14  C   UNL     1      -9.682  14.096  68.340  1.00  0.00    -0.226 C  
BRANCH  14  15
HETATM   15  N   UNL     1      -9.767  12.754  67.660  1.00  0.00    -0.200 NA 
BRANCH  15  16
HETATM   16  C   UNL     1      -8.501  12.558  66.858  1.00  0.00    -0.130 C  
HETATM   17  C   UNL     1      -7.258  13.075  67.576  1.00  0.00    -0.151 C  
HETATM   18  O   UNL     1      -7.365  12.999  68.928  1.00  0.00    -0.095 OA 
HETATM   19  O   UNL     1      -6.247  13.456  67.009  1.00  0.00    -0.131 OA 
ENDBRANCH  15  16
BRANCH  15  20
HETATM   20  C   UNL     1      -9.766  11.681  68.737  1.00  0.00    -0.095 C  
HETATM   21  C   UNL     1     -11.167  11.202  69.118  1.00  0.00    -0.264 C  
HETATM   22  O   UNL     1     -12.060  11.303  68.104  1.00  0.00    -0.635 OA 
HETATM   23  O   UNL     1     -11.450  10.728  70.203  1.00  0.00    -0.289 OA 
ENDBRANCH  15  20
ENDBRANCH  14  15
ENDBRANCH   2  14
TORSDOF 8
ENDMDL
MODEL      355
REMARK 921   NORMALIZED FREE ENERGY PREDICTED BY IDOCK:   -2.45 KCAL/MOL
REMARK 922        TOTAL FREE ENERGY PREDICTED BY IDOCK:   -4.92 KCAL/MOL
REMARK 923 INTER-LIGAND FREE ENERGY PREDICTED BY IDOCK:   -4.62 KCAL/MOL
REMARK 924 INTRA-LIGAND FREE ENERGY PREDICTED BY IDOCK:   -0.30 KCAL/MOL
REMARK 927      BINDING AFFINITY PREDICTED BY RF-SCORE:    0.00 PKD
ROOT
HETATM    1  O   UNL     1     -12.255   8.775  70.365  1.00  0.00    -0.471 OA 
HETATM    2  C   UNL     1     -11.208   7.946  70.882  1.00  0.00    -0.270 C  
HETATM    3  H   UNL     1     -11.954   9.674  70.316  1.00  0.00     0.000 HD 
ENDROOT
BRANCH   2   4
HETATM    4  C   UNL     1      -9.977   8.092  69.952  1.00  0.00    -0.189 C  
BRANCH   4   5
HETATM    5  N   UNL     1     -10.149   8.978  68.742  1.00  0.00    -0.193 NA 
BRANCH   5   6
HETATM    6  C   UNL     1      -9.263   8.438  67.644  1.00  0.00    -0.134 C  
HETATM    7  O   UNL     1     -11.202   7.169  66.990  1.00  0.00    -0.277 OA 
HETATM    8  C   UNL     1      -9.849   7.193  66.984  1.00  0.00    -0.198 C  
HETATM    9  O   UNL     1      -9.172   6.313  66.474  1.00  0.00    -0.147 OA 
ENDBRANCH   5   6
BRANCH   5  10
HETATM   10  C   UNL     1      -9.662  10.360  69.088  1.00  0.00    -0.220 C  
HETATM   11  O   UNL     1     -11.871  11.075  68.473  1.00  0.00    -0.460 OA 
HETATM   12  O   UNL     1     -10.193  12.581  68.242  1.00  0.00    -0.224 OA 
HETATM   13  C   UNL     1     -10.575  11.458  68.540  1.00  0.00    -0.198 C  
ENDBRANCH   5  10
ENDBRANCH   4   5
ENDBRANCH   2   4
BRANCH   2  14
HETATM   14  C   UNL     1     -11.704   6.470  70.964  1.00  0.00    -0.343 C  
BRANCH  14  15
HETATM   15  N   UNL     1     -10.684   5.409  71.287  1.00  0.00    -0.216 NA 
BRANCH  15  16
HETATM   16  C   UNL     1     -10.076   4.936  69.986  1.00  0.00    -0.266 C  
HETATM   17  C   UNL     1      -9.469   3.540  70.088  1.00  0.00    -0.182 C  
HETATM   18  O   UNL     1     -10.100   2.760  71.003  1.00  0.00     0.038 OA 
HETATM   19  O   UNL     1      -8.557   3.136  69.385  1.00  0.00    -0.060 OA 
ENDBRANCH  15  16
BRANCH  15  20
HETATM   20  C   UNL     1      -9.559   6.063  72.074  1.00  0.00    -0.152 C  
HETATM   21  C   UNL     1      -9.606   5.752  73.570  1.00  0.00    -0.140 C  
HETATM   22  O   UNL     1     -10.173   4.553  73.850  1.00  0.00    -0.161 OA 
HETATM   23  O   UNL     1      -9.137   6.477  74.429  1.00  0.00    -0.160 OA 
ENDBRANCH  15  20
ENDBRANCH  14  15
ENDBRANCH   2  14
TORSDOF 8
ENDMDL
MODEL      356
REMARK 921   NORMALIZED FREE ENERGY PREDICTED BY IDOCK:   -2.44 KCAL/MOL
REMARK 922        TOTAL FREE ENERGY PREDICTED BY IDOCK:   -4.91 KCAL/MOL
REMARK 923 INTER-LIGAND FREE ENERGY PREDICTED BY IDOCK:   -5.32 KCAL/MOL
REMARK 924 INTRA-LIGAND FREE ENERGY PREDICTED BY IDOCK:    0.41 KCAL/MOL
REMARK 927      BINDING AFFINITY PREDICTED BY RF-SCORE:    0.00 PKD
ROOT
HETATM    1  O   UNL     1     -10.773  11.216  65.569  1.00  0.00    -0.251 OA 
HETATM    2  C   UNL     1     -10.496  11.785  66.854  1.00  0.00    -0.223 C  
HETATM    3  H   UNL     1     -10.885  10.276  65.656  1.00  0.00     0.000 HD 
ENDROOT
BRANCH   2   4
HETATM    4  C   UNL     1     -11.671  11.428  67.800  1.00  0.00    -0.203 C  
BRANCH   4   5
HETATM    5  N   UNL     1     -11.339  10.552  68.984  1.00  0.00    -0.260 NA 
BRANCH   5   6
HETATM    6  C   UNL     1     -11.643  11.336  70.239  1.00  0.00    -0.275 C  
HETATM    7  O   UNL     1     -12.440   9.236  71.108  1.00  0.00    -0.306 OA 
HETATM    8  C   UNL     1     -12.573  10.581  71.186  1.00  0.00    -0.417 C  
HETATM    9  O   UNL     1     -13.343  11.128  71.959  1.00  0.00    -0.454 OA 
ENDBRANCH   5   6
BRANCH   5  10
HETATM   10  C   UNL     1      -9.862  10.264  68.968  1.00  0.00    -0.207 C  
HETATM   11  O   UNL     1     -10.515   7.954  68.914  1.00  0.00    -0.214 OA 
HETATM   12  O   UNL     1      -8.503   8.440  69.838  1.00  0.00    -0.121 OA 
HETATM   13  C   UNL     1      -9.544   8.808  69.311  1.00  0.00    -0.162 C  
ENDBRANCH   5  10
ENDBRANCH   4   5
ENDBRANCH   2   4
BRANCH   2  14
HETATM   14  C   UNL     1     -10.313  13.327  66.713  1.00  0.00    -0.257 C  
BRANCH  14  15
HETATM   15  N   UNL     1      -8.920  13.880  66.866  1.00  0.00    -0.237 NA 
BRANCH  15  16
HETATM   16  C   UNL     1      -8.983  15.372  66.629  1.00  0.00    -0.286 C  
HETATM   17  C   UNL     1     -10.054  16.061  67.468  1.00  0.00    -0.247 C  
HETATM   18  O   UNL     1     -10.279  15.432  68.650  1.00  0.00    -0.209 OA 
HETATM   19  O   UNL     1     -10.610  17.100  67.151  1.00  0.00    -0.313 OA 
ENDBRANCH  15  16
BRANCH  15  20
HETATM   20  C   UNL     1      -8.496  13.692  68.314  1.00  0.00    -0.170 C  
HETATM   21  C   UNL     1      -7.076  13.148  68.465  1.00  0.00    -0.105 C  
HETATM   22  O   UNL     1      -6.258  13.498  67.442  1.00  0.00    -0.311 OA 
HETATM   23  O   UNL     1      -6.692  12.509  69.428  1.00  0.00    -0.094 OA 
ENDBRANCH  15  20
ENDBRANCH  14  15
ENDBRANCH   2  14
TORSDOF 8
ENDMDL
MODEL      357
REMARK 921   NORMALIZED FREE ENERGY PREDICTED BY IDOCK:   -2.42 KCAL/MOL
REMARK 922        TOTAL FREE ENERGY PREDICTED BY IDOCK:   -4.88 KCAL/MOL
REMARK 923 INTER-LIGAND FREE ENERGY PREDICTED BY IDOCK:   -5.09 KCAL/MOL
REMARK 924 INTRA-LIGAND FREE ENERGY PREDICTED BY IDOCK:    0.22 KCAL/MOL
REMARK 927      BINDING AFFINITY PREDICTED BY RF-SCORE:    0.00 PKD
ROOT
HETATM    1  O   UNL     1      -7.407   8.726  65.820  1.00  0.00    -0.083 OA 
HETATM    2  C   UNL     1      -8.662   9.189  66.331  1.00  0.00    -0.130 C  
HETATM    3  H   UNL     1      -6.988   8.169  66.465  1.00  0.00     0.000 HD 
ENDROOT
BRANCH   2   4
HETATM    4  C   UNL     1      -9.528   7.950  66.673  1.00  0.00    -0.211 C  
BRANCH   4   5
HETATM    5  N   UNL     1      -8.785   6.705  67.094  1.00  0.00    -0.111 NA 
BRANCH   5   6
HETATM    6  C   UNL     1      -9.145   5.603  66.126  1.00  0.00    -0.152 C  
HETATM    7  O   UNL     1      -6.986   6.038  65.150  1.00  0.00    -0.056 OA 
HETATM    8  C   UNL     1      -8.238   5.586  64.898  1.00  0.00    -0.136 C  
HETATM    9  O   UNL     1      -8.588   5.183  63.801  1.00  0.00    -0.136 OA 
ENDBRANCH   5   6
BRANCH   5  10
HETATM   10  C   UNL     1      -9.270   6.296  68.459  1.00  0.00    -0.123 C  
HETATM   11  O   UNL     1     -11.442   6.200  67.437  1.00  0.00    -0.035 OA 
HETATM   12  O   UNL     1     -11.361   6.632  69.661  1.00  0.00    -0.335 OA 
HETATM   13  C   UNL     1     -10.788   6.416  68.602  1.00  0.00    -0.314 C  
ENDBRANCH   5  10
ENDBRANCH   4   5
ENDBRANCH   2   4
BRANCH   2  14
HETATM   14  C   UNL     1      -9.351  10.105  65.273  1.00  0.00    -0.224 C  
BRANCH  14  15
HETATM   15  N   UNL     1     -10.142  11.283  65.779  1.00  0.00    -0.237 NA 
BRANCH  15  16
HETATM   16  C   UNL     1      -9.177  12.247  66.430  1.00  0.00    -0.203 C  
HETATM   17  C   UNL     1      -9.609  12.665  67.831  1.00  0.00    -0.211 C  
HETATM   18  O   UNL     1     -10.322  11.701  68.468  1.00  0.00    -0.201 OA 
HETATM   19  O   UNL     1      -9.300  13.721  68.358  1.00  0.00    -0.203 OA 
ENDBRANCH  15  16
BRANCH  15  20
HETATM   20  C   UNL     1     -10.729  12.006  64.578  1.00  0.00    -0.312 C  
HETATM   21  C   UNL     1     -12.168  12.473  64.795  1.00  0.00    -0.465 C  
HETATM   22  O   UNL     1     -12.454  12.737  66.092  1.00  0.00    -0.512 OA 
HETATM   23  O   UNL     1     -12.969  12.645  63.893  1.00  0.00    -0.706 OA 
ENDBRANCH  15  20
ENDBRANCH  14  15
ENDBRANCH   2  14
TORSDOF 8
ENDMDL
MODEL      358
REMARK 921   NORMALIZED FREE ENERGY PREDICTED BY IDOCK:   -2.40 KCAL/MOL
REMARK 922        TOTAL FREE ENERGY PREDICTED BY IDOCK:   -4.85 KCAL/MOL
REMARK 923 INTER-LIGAND FREE ENERGY PREDICTED BY IDOCK:   -5.88 KCAL/MOL
REMARK 924 INTRA-LIGAND FREE ENERGY PREDICTED BY IDOCK:    1.03 KCAL/MOL
REMARK 927      BINDING AFFINITY PREDICTED BY RF-SCORE:    0.00 PKD
ROOT
HETATM    1  O   UNL     1      -9.682  12.977  64.950  1.00  0.00    -0.529 OA 
HETATM    2  C   UNL     1      -9.886  12.553  66.303  1.00  0.00    -0.252 C  
HETATM    3  H   UNL     1     -10.427  13.492  64.662  1.00  0.00     0.000 HD 
ENDROOT
BRANCH   2   4
HETATM    4  C   UNL     1     -10.086  13.818  67.176  1.00  0.00    -0.241 C  
BRANCH   4   5
HETATM    5  N   UNL     1      -9.861  15.147  66.498  1.00  0.00    -0.249 NA 
BRANCH   5   6
HETATM    6  C   UNL     1     -10.340  15.025  65.071  1.00  0.00    -0.357 C  
HETATM    7  O   UNL     1     -10.853  17.370  65.261  1.00  0.00    -0.588 OA 
HETATM    8  C   UNL     1     -11.190  16.217  64.637  1.00  0.00    -0.298 C  
HETATM    9  O   UNL     1     -12.070  16.152  63.794  1.00  0.00    -0.946 OA 
ENDBRANCH   5   6
BRANCH   5  10
HETATM   10  C   UNL     1      -8.382  15.424  66.464  1.00  0.00    -0.149 C  
HETATM   11  O   UNL     1      -8.872  17.153  68.057  1.00  0.00    -0.219 OA 
HETATM   12  O   UNL     1      -7.051  17.445  66.740  1.00  0.00    -0.169 OA 
HETATM   13  C   UNL     1      -8.025  16.782  67.070  1.00  0.00    -0.197 C  
ENDBRANCH   5  10
ENDBRANCH   4   5
ENDBRANCH   2   4
BRANCH   2  14
HETATM   14  C   UNL     1      -8.664  11.708  66.775  1.00  0.00    -0.189 C  
BRANCH  14  15
HETATM   15  N   UNL     1      -8.947  10.422  67.507  1.00  0.00    -0.135 NA 
BRANCH  15  16
HETATM   16  C   UNL     1      -9.721   9.517  66.576  1.00  0.00    -0.222 C  
HETATM   17  C   UNL     1     -10.413   8.369  67.304  1.00  0.00    -0.303 C  
HETATM   18  O   UNL     1     -10.764   8.692  68.576  1.00  0.00    -0.158 OA 
HETATM   19  O   UNL     1     -10.686   7.296  66.791  1.00  0.00    -0.311 OA 
ENDBRANCH  15  16
BRANCH  15  20
HETATM   20  C   UNL     1      -7.619   9.731  67.774  1.00  0.00    -0.090 C  
HETATM   21  C   UNL     1      -7.149   9.859  69.223  1.00  0.00    -0.069 C  
HETATM   22  O   UNL     1      -8.169   9.978  70.107  1.00  0.00    -0.176 OA 
HETATM   23  O   UNL     1      -5.981   9.807  69.564  1.00  0.00    -0.036 OA 
ENDBRANCH  15  20
ENDBRANCH  14  15
ENDBRANCH   2  14
TORSDOF 8
ENDMDL
MODEL      359
REMARK 921   NORMALIZED FREE ENERGY PREDICTED BY IDOCK:   -2.38 KCAL/MOL
REMARK 922        TOTAL FREE ENERGY PREDICTED BY IDOCK:   -4.82 KCAL/MOL
REMARK 923 INTER-LIGAND FREE ENERGY PREDICTED BY IDOCK:   -3.68 KCAL/MOL
REMARK 924 INTRA-LIGAND FREE ENERGY PREDICTED BY IDOCK:   -1.14 KCAL/MOL
REMARK 927      BINDING AFFINITY PREDICTED BY RF-SCORE:    0.00 PKD
ROOT
HETATM    1  O   UNL     1      -6.505   8.562  65.837  1.00  0.00    -0.052 OA 
HETATM    2  C   UNL     1      -7.667   9.010  66.544  1.00  0.00    -0.096 C  
HETATM    3  H   UNL     1      -6.174   7.767  66.241  1.00  0.00     0.000 HD 
ENDROOT
BRANCH   2   4
HETATM    4  C   UNL     1      -8.715   7.869  66.518  1.00  0.00    -0.147 C  
BRANCH   4   5
HETATM    5  N   UNL     1      -8.889   7.085  67.796  1.00  0.00    -0.124 NA 
BRANCH   5   6
HETATM    6  C   UNL     1      -8.115   5.797  67.657  1.00  0.00    -0.102 C  
HETATM    7  O   UNL     1      -6.825   6.614  69.519  1.00  0.00    -0.060 OA 
HETATM    8  C   UNL     1      -6.791   5.828  68.418  1.00  0.00    -0.063 C  
HETATM    9  O   UNL     1      -5.804   5.190  68.089  1.00  0.00    -0.016 OA 
ENDBRANCH   5   6
BRANCH   5  10
HETATM   10  C   UNL     1     -10.345   6.733  67.947  1.00  0.00    -0.194 C  
HETATM   11  O   UNL     1     -10.256   8.069  69.941  1.00  0.00    -0.195 OA 
HETATM   12  O   UNL     1     -11.797   6.407  69.875  1.00  0.00    -0.384 OA 
HETATM   13  C   UNL     1     -10.876   7.020  69.352  1.00  0.00    -0.227 C  
ENDBRANCH   5  10
ENDBRANCH   4   5
ENDBRANCH   2   4
BRANCH   2  14
HETATM   14  C   UNL     1      -8.209  10.314  65.882  1.00  0.00    -0.148 C  
BRANCH  14  15
HETATM   15  N   UNL     1      -8.851  11.338  66.781  1.00  0.00    -0.164 NA 
BRANCH  15  16
HETATM   16  C   UNL     1     -10.332  11.041  66.842  1.00  0.00    -0.235 C  
HETATM   17  C   UNL     1     -11.170  12.269  67.182  1.00  0.00    -0.307 C  
HETATM   18  O   UNL     1     -10.607  13.424  66.744  1.00  0.00    -0.274 OA 
HETATM   19  O   UNL     1     -12.260  12.226  67.729  1.00  0.00    -0.425 OA 
ENDBRANCH  15  16
BRANCH  15  20
HETATM   20  C   UNL     1      -8.313  11.131  68.188  1.00  0.00    -0.136 C  
HETATM   21  C   UNL     1      -7.357  12.234  68.640  1.00  0.00    -0.106 C  
HETATM   22  O   UNL     1      -7.611  13.432  68.060  1.00  0.00    -0.114 OA 
HETATM   23  O   UNL     1      -6.485  12.077  69.476  1.00  0.00    -0.113 OA 
ENDBRANCH  15  20
ENDBRANCH  14  15
ENDBRANCH   2  14
TORSDOF 8
ENDMDL
MODEL      360
REMARK 921   NORMALIZED FREE ENERGY PREDICTED BY IDOCK:   -2.38 KCAL/MOL
REMARK 922        TOTAL FREE ENERGY PREDICTED BY IDOCK:   -4.82 KCAL/MOL
REMARK 923 INTER-LIGAND FREE ENERGY PREDICTED BY IDOCK:   -4.52 KCAL/MOL
REMARK 924 INTRA-LIGAND FREE ENERGY PREDICTED BY IDOCK:   -0.30 KCAL/MOL
REMARK 927      BINDING AFFINITY PREDICTED BY RF-SCORE:    0.00 PKD
ROOT
HETATM    1  O   UNL     1      -8.601  10.519  66.485  1.00  0.00    -0.132 OA 
HETATM    2  C   UNL     1      -7.939  11.020  67.652  1.00  0.00    -0.115 C  
HETATM    3  H   UNL     1      -8.691   9.575  66.552  1.00  0.00     0.000 HD 
ENDROOT
BRANCH   2   4
HETATM    4  C   UNL     1      -8.772  10.606  68.891  1.00  0.00    -0.161 C  
BRANCH   4   5
HETATM    5  N   UNL     1      -8.825   9.131  69.205  1.00  0.00    -0.143 NA 
BRANCH   5   6
HETATM    6  C   UNL     1      -8.819   8.977  70.707  1.00  0.00    -0.234 C  
HETATM    7  O   UNL     1     -10.924   7.849  70.391  1.00  0.00    -0.246 OA 
HETATM    8  C   UNL     1     -10.188   8.585  71.257  1.00  0.00    -0.223 C  
HETATM    9  O   UNL     1     -10.580   8.879  72.376  1.00  0.00    -0.261 OA 
ENDBRANCH   5   6
BRANCH   5  10
HETATM   10  C   UNL     1      -7.575   8.483  68.671  1.00  0.00    -0.098 C  
HETATM   11  O   UNL     1      -9.074   7.066  67.441  1.00  0.00    -0.123 OA 
HETATM   12  O   UNL     1      -7.038   6.216  67.961  1.00  0.00    -0.073 OA 
HETATM   13  C   UNL     1      -7.850   7.129  68.014  1.00  0.00    -0.118 C  
ENDBRANCH   5  10
ENDBRANCH   4   5
ENDBRANCH   2   4
BRANCH   2  14
HETATM   14  C   UNL     1      -7.791  12.569  67.542  1.00  0.00    -0.168 C  
BRANCH  14  15
HETATM   15  N   UNL     1      -9.000  13.409  67.861  1.00  0.00    -0.191 NA 
BRANCH  15  16
HETATM   16  C   UNL     1      -8.699  14.833  67.451  1.00  0.00    -0.198 C  
HETATM   17  C   UNL     1      -9.242  15.862  68.437  1.00  0.00    -0.197 C  
HETATM   18  O   UNL     1      -9.288  15.393  69.711  1.00  0.00    -0.253 OA 
HETATM   19  O   UNL     1      -9.544  17.006  68.138  1.00  0.00    -0.252 OA 
ENDBRANCH  15  16
BRANCH  15  20
HETATM   20  C   UNL     1     -10.145  12.940  66.978  1.00  0.00    -0.245 C  
HETATM   21  C   UNL     1     -11.416  12.606  67.760  1.00  0.00    -0.322 C  
HETATM   22  O   UNL     1     -11.543  13.321  68.904  1.00  0.00    -0.270 OA 
HETATM   23  O   UNL     1     -12.262  11.818  67.376  1.00  0.00    -0.501 OA 
ENDBRANCH  15  20
ENDBRANCH  14  15
ENDBRANCH   2  14
TORSDOF 8
ENDMDL
MODEL      361
REMARK 921   NORMALIZED FREE ENERGY PREDICTED BY IDOCK:   -2.36 KCAL/MOL
REMARK 922        TOTAL FREE ENERGY PREDICTED BY IDOCK:   -4.80 KCAL/MOL
REMARK 923 INTER-LIGAND FREE ENERGY PREDICTED BY IDOCK:   -4.82 KCAL/MOL
REMARK 924 INTRA-LIGAND FREE ENERGY PREDICTED BY IDOCK:    0.02 KCAL/MOL
REMARK 927      BINDING AFFINITY PREDICTED BY RF-SCORE:    0.00 PKD
ROOT
HETATM    1  O   UNL     1      -8.276  13.872  69.364  1.00  0.00    -0.293 OA 
HETATM    2  C   UNL     1      -8.364  13.030  68.209  1.00  0.00    -0.158 C  
HETATM    3  H   UNL     1      -7.565  14.491  69.252  1.00  0.00     0.000 HD 
ENDROOT
BRANCH   2   4
HETATM    4  C   UNL     1      -8.577  13.936  66.970  1.00  0.00    -0.172 C  
BRANCH   4   5
HETATM    5  N   UNL     1      -9.227  15.275  67.219  1.00  0.00    -0.194 NA 
BRANCH   5   6
HETATM    6  C   UNL     1     -10.428  15.383  66.309  1.00  0.00    -0.303 C  
HETATM    7  O   UNL     1     -11.715  14.973  68.303  1.00  0.00    -0.328 OA 
HETATM    8  C   UNL     1     -11.699  14.839  66.956  1.00  0.00    -0.315 C  
HETATM    9  O   UNL     1     -12.626  14.353  66.327  1.00  0.00    -0.355 OA 
ENDBRANCH   5   6
BRANCH   5  10
HETATM   10  C   UNL     1      -8.257  16.359  66.830  1.00  0.00    -0.218 C  
HETATM   11  O   UNL     1      -8.305  16.959  69.155  1.00  0.00    -0.188 OA 
HETATM   12  O   UNL     1      -7.833  18.605  67.669  1.00  0.00    -0.233 OA 
HETATM   13  C   UNL     1      -8.123  17.440  67.903  1.00  0.00    -0.220 C  
ENDBRANCH   5  10
ENDBRANCH   4   5
ENDBRANCH   2   4
BRANCH   2  14
HETATM   14  C   UNL     1      -9.532  12.012  68.393  1.00  0.00    -0.181 C  
BRANCH  14  15
HETATM   15  N   UNL     1      -9.220  10.551  68.198  1.00  0.00    -0.145 NA 
BRANCH  15  16
HETATM   16  C   UNL     1     -10.507   9.775  68.363  1.00  0.00    -0.218 C  
HETATM   17  C   UNL     1     -10.281   8.272  68.490  1.00  0.00    -0.208 C  
HETATM   18  O   UNL     1      -9.088   7.969  69.064  1.00  0.00    -0.144 OA 
HETATM   19  O   UNL     1     -11.101   7.426  68.173  1.00  0.00    -0.005 OA 
ENDBRANCH  15  16
BRANCH  15  20
HETATM   20  C   UNL     1      -8.779  10.352  66.757  1.00  0.00    -0.127 C  
HETATM   21  C   UNL     1      -9.911  10.539  65.746  1.00  0.00    -0.237 C  
HETATM   22  O   UNL     1     -10.868  11.401  66.167  1.00  0.00    -0.274 OA 
HETATM   23  O   UNL     1      -9.933  10.012  64.647  1.00  0.00    -0.309 OA 
ENDBRANCH  15  20
ENDBRANCH  14  15
ENDBRANCH   2  14
TORSDOF 8
ENDMDL
MODEL      362
REMARK 921   NORMALIZED FREE ENERGY PREDICTED BY IDOCK:   -2.36 KCAL/MOL
REMARK 922        TOTAL FREE ENERGY PREDICTED BY IDOCK:   -4.80 KCAL/MOL
REMARK 923 INTER-LIGAND FREE ENERGY PREDICTED BY IDOCK:   -4.85 KCAL/MOL
REMARK 924 INTRA-LIGAND FREE ENERGY PREDICTED BY IDOCK:    0.05 KCAL/MOL
REMARK 927      BINDING AFFINITY PREDICTED BY RF-SCORE:    0.00 PKD
ROOT
HETATM    1  O   UNL     1     -11.459   9.982  68.239  1.00  0.00    -0.530 OA 
HETATM    2  C   UNL     1     -10.562   9.190  67.452  1.00  0.00    -0.244 C  
HETATM    3  H   UNL     1     -12.316   9.572  68.253  1.00  0.00     0.000 HD 
ENDROOT
BRANCH   2   4
HETATM    4  C   UNL     1     -10.512   7.768  68.065  1.00  0.00    -0.185 C  
BRANCH   4   5
HETATM    5  N   UNL     1     -10.202   7.681  69.540  1.00  0.00    -0.203 NA 
BRANCH   5   6
HETATM    6  C   UNL     1      -9.140   6.624  69.728  1.00  0.00    -0.143 C  
HETATM    7  O   UNL     1      -7.713   8.464  70.343  1.00  0.00    -0.072 OA 
HETATM    8  C   UNL     1      -7.736   7.218  69.814  1.00  0.00    -0.107 C  
HETATM    9  O   UNL     1      -6.727   6.626  69.466  1.00  0.00    -0.046 OA 
ENDBRANCH   5   6
BRANCH   5  10
HETATM   10  C   UNL     1     -11.440   7.223  70.264  1.00  0.00    -0.210 C  
HETATM   11  O   UNL     1     -11.611   9.503  71.001  1.00  0.00    -0.291 OA 
HETATM   12  O   UNL     1     -12.518   7.911  72.336  1.00  0.00    -0.263 OA 
HETATM   13  C   UNL     1     -11.903   8.222  71.326  1.00  0.00    -0.288 C  
ENDBRANCH   5  10
ENDBRANCH   4   5
ENDBRANCH   2   4
BRANCH   2  14
HETATM   14  C   UNL     1      -9.155   9.863  67.429  1.00  0.00    -0.134 C  
BRANCH  14  15
HETATM   15  N   UNL     1      -8.743  10.575  66.167  1.00  0.00    -0.152 NA 
BRANCH  15  16
HETATM   16  C   UNL     1      -9.495  11.885  66.105  1.00  0.00    -0.231 C  
HETATM   17  C   UNL     1     -10.143  12.133  64.747  1.00  0.00    -0.251 C  
HETATM   18  O   UNL     1     -10.494  10.982  64.116  1.00  0.00    -0.345 OA 
HETATM   19  O   UNL     1     -10.385  13.239  64.294  1.00  0.00    -0.427 OA 
ENDBRANCH  15  16
BRANCH  15  20
HETATM   20  C   UNL     1      -7.270  10.930  66.288  1.00  0.00    -0.126 C  
HETATM   21  C   UNL     1      -6.999  12.072  67.268  1.00  0.00    -0.146 C  
HETATM   22  O   UNL     1      -7.914  12.149  68.264  1.00  0.00    -0.148 OA 
HETATM   23  O   UNL     1      -6.033  12.810  67.200  1.00  0.00    -0.311 OA 
ENDBRANCH  15  20
ENDBRANCH  14  15
ENDBRANCH   2  14
TORSDOF 8
ENDMDL
MODEL      363
REMARK 921   NORMALIZED FREE ENERGY PREDICTED BY IDOCK:   -2.36 KCAL/MOL
REMARK 922        TOTAL FREE ENERGY PREDICTED BY IDOCK:   -4.79 KCAL/MOL
REMARK 923 INTER-LIGAND FREE ENERGY PREDICTED BY IDOCK:   -3.51 KCAL/MOL
REMARK 924 INTRA-LIGAND FREE ENERGY PREDICTED BY IDOCK:   -1.28 KCAL/MOL
REMARK 927      BINDING AFFINITY PREDICTED BY RF-SCORE:    0.00 PKD
ROOT
HETATM    1  O   UNL     1      -8.557  11.109  66.171  1.00  0.00    -0.173 OA 
HETATM    2  C   UNL     1      -9.765  10.342  66.118  1.00  0.00    -0.211 C  
HETATM    3  H   UNL     1      -8.715  11.917  66.644  1.00  0.00     0.000 HD 
ENDROOT
BRANCH   2   4
HETATM    4  C   UNL     1     -10.231  10.079  67.572  1.00  0.00    -0.212 C  
BRANCH   4   5
HETATM    5  N   UNL     1     -11.056  11.164  68.221  1.00  0.00    -0.229 NA 
BRANCH   5   6
HETATM    6  C   UNL     1     -12.132  10.496  69.045  1.00  0.00     0.086 C  
HETATM    7  O   UNL     1     -10.433  10.322  70.743  1.00  0.00    -0.081 OA 
HETATM    8  C   UNL     1     -11.566   9.761  70.257  1.00  0.00    -0.220 C  
HETATM    9  O   UNL     1     -12.089   8.780  70.761  1.00  0.00    -0.218 OA 
ENDBRANCH   5   6
BRANCH   5  10
HETATM   10  C   UNL     1     -11.734  11.962  67.140  1.00  0.00    -0.236 C  
HETATM   11  O   UNL     1     -10.046  13.613  67.579  1.00  0.00    -0.233 OA 
HETATM   12  O   UNL     1     -12.026  14.349  66.756  1.00  0.00    -0.411 OA 
HETATM   13  C   UNL     1     -11.316  13.433  67.147  1.00  0.00    -0.315 C  
ENDBRANCH   5  10
ENDBRANCH   4   5
ENDBRANCH   2   4
BRANCH   2  14
HETATM   14  C   UNL     1      -9.507   9.014  65.341  1.00  0.00    -0.092 C  
BRANCH  14  15
HETATM   15  N   UNL     1      -8.168   8.349  65.524  1.00  0.00    -0.131 NA 
BRANCH  15  16
HETATM   16  C   UNL     1      -8.404   6.984  66.129  1.00  0.00    -0.130 C  
HETATM   17  C   UNL     1      -7.597   6.752  67.402  1.00  0.00    -0.105 C  
HETATM   18  O   UNL     1      -7.365   7.900  68.091  1.00  0.00    -0.094 OA 
HETATM   19  O   UNL     1      -7.249   5.654  67.803  1.00  0.00    -0.070 OA 
ENDBRANCH  15  16
BRANCH  15  20
HETATM   20  C   UNL     1      -7.570   8.112  64.146  1.00  0.00    -0.128 C  
HETATM   21  C   UNL     1      -6.810   9.320  63.598  1.00  0.00    -0.092 C  
HETATM   22  O   UNL     1      -6.274  10.099  64.568  1.00  0.00    -0.122 OA 
HETATM   23  O   UNL     1      -6.652   9.541  62.411  1.00  0.00    -0.096 OA 
ENDBRANCH  15  20
ENDBRANCH  14  15
ENDBRANCH   2  14
TORSDOF 8
ENDMDL
MODEL      364
REMARK 921   NORMALIZED FREE ENERGY PREDICTED BY IDOCK:   -2.35 KCAL/MOL
REMARK 922        TOTAL FREE ENERGY PREDICTED BY IDOCK:   -4.79 KCAL/MOL
REMARK 923 INTER-LIGAND FREE ENERGY PREDICTED BY IDOCK:   -7.08 KCAL/MOL
REMARK 924 INTRA-LIGAND FREE ENERGY PREDICTED BY IDOCK:    2.29 KCAL/MOL
REMARK 927      BINDING AFFINITY PREDICTED BY RF-SCORE:    0.00 PKD
ROOT
HETATM    1  O   UNL     1      -7.870  15.945  68.314  1.00  0.00    -0.133 OA 
HETATM    2  C   UNL     1      -7.588  16.067  66.915  1.00  0.00    -0.233 C  
HETATM    3  H   UNL     1      -7.059  16.000  68.807  1.00  0.00     0.000 HD 
ENDROOT
BRANCH   2   4
HETATM    4  C   UNL     1      -6.864  17.418  66.687  1.00  0.00    -0.233 C  
BRANCH   4   5
HETATM    5  N   UNL     1      -7.399  18.606  67.450  1.00  0.00    -0.217 NA 
BRANCH   5   6
HETATM    6  C   UNL     1      -8.708  19.011  66.816  1.00  0.00    -0.309 C  
HETATM    7  O   UNL     1      -9.412  19.490  69.069  1.00  0.00    -0.393 OA 
HETATM    8  C   UNL     1      -9.838  19.127  67.837  1.00  0.00    -0.341 C  
HETATM    9  O   UNL     1     -11.014  18.938  67.571  1.00  0.00    -0.422 OA 
ENDBRANCH   5   6
BRANCH   5  10
HETATM   10  C   UNL     1      -6.436  19.752  67.289  1.00  0.00    -0.194 C  
HETATM   11  O   UNL     1      -7.372  19.966  65.087  1.00  0.00    -0.349 OA 
HETATM   12  O   UNL     1      -5.239  20.675  65.379  1.00  0.00    -0.168 OA 
HETATM   13  C   UNL     1      -6.257  20.167  65.827  1.00  0.00    -0.209 C  
ENDBRANCH   5  10
ENDBRANCH   4   5
ENDBRANCH   2   4
BRANCH   2  14
HETATM   14  C   UNL     1      -8.918  15.978  66.106  1.00  0.00    -0.345 C  
BRANCH  14  15
HETATM   15  N   UNL     1      -9.815  14.796  66.367  1.00  0.00    -0.266 NA 
BRANCH  15  16
HETATM   16  C   UNL     1     -10.827  15.202  67.413  1.00  0.00    -0.302 C  
HETATM   17  C   UNL     1     -11.311  14.028  68.258  1.00  0.00    -0.288 C  
HETATM   18  O   UNL     1     -10.370  13.058  68.394  1.00  0.00    -0.244 OA 
HETATM   19  O   UNL     1     -12.398  13.981  68.810  1.00  0.00    -0.287 OA 
ENDBRANCH  15  16
BRANCH  15  20
HETATM   20  C   UNL     1     -10.600  14.512  65.096  1.00  0.00    -0.410 C  
HETATM   21  C   UNL     1     -11.396  15.716  64.593  1.00  0.00    -0.349 C  
HETATM   22  O   UNL     1     -10.837  16.904  64.927  1.00  0.00    -0.715 OA 
HETATM   23  O   UNL     1     -12.405  15.628  63.915  1.00  0.00    -0.673 OA 
ENDBRANCH  15  20
ENDBRANCH  14  15
ENDBRANCH   2  14
TORSDOF 8
ENDMDL
MODEL      365
REMARK 921   NORMALIZED FREE ENERGY PREDICTED BY IDOCK:   -2.34 KCAL/MOL
REMARK 922        TOTAL FREE ENERGY PREDICTED BY IDOCK:   -4.77 KCAL/MOL
REMARK 923 INTER-LIGAND FREE ENERGY PREDICTED BY IDOCK:   -5.19 KCAL/MOL
REMARK 924 INTRA-LIGAND FREE ENERGY PREDICTED BY IDOCK:    0.42 KCAL/MOL
REMARK 927      BINDING AFFINITY PREDICTED BY RF-SCORE:    0.00 PKD
ROOT
HETATM    1  O   UNL     1      -9.389   5.005  70.707  1.00  0.00    -0.141 OA 
HETATM    2  C   UNL     1      -9.370   6.345  70.203  1.00  0.00    -0.157 C  
HETATM    3  H   UNL     1      -9.554   5.020  71.643  1.00  0.00     0.000 HD 
ENDROOT
BRANCH   2   4
HETATM    4  C   UNL     1     -10.732   7.004  70.540  1.00  0.00    -0.238 C  
BRANCH   4   5
HETATM    5  N   UNL     1     -10.725   8.040  71.638  1.00  0.00    -0.225 NA 
BRANCH   5   6
HETATM    6  C   UNL     1     -11.279   9.323  71.067  1.00  0.00    -0.321 C  
HETATM    7  O   UNL     1     -13.073   9.006  72.643  1.00  0.00    -0.426 OA 
HETATM    8  C   UNL     1     -12.741   9.546  71.446  1.00  0.00    -0.358 C  
HETATM    9  O   UNL     1     -13.533  10.170  70.758  1.00  0.00    -0.311 OA 
ENDBRANCH   5   6
BRANCH   5  10
HETATM   10  C   UNL     1      -9.299   8.296  72.046  1.00  0.00    -0.230 C  
HETATM   11  O   UNL     1      -9.819   6.953  73.969  1.00  0.00    -0.261 OA 
HETATM   12  O   UNL     1      -8.189   8.512  74.203  1.00  0.00    -0.334 OA 
HETATM   13  C   UNL     1      -9.041   7.964  73.517  1.00  0.00    -0.282 C  
ENDBRANCH   5  10
ENDBRANCH   4   5
ENDBRANCH   2   4
BRANCH   2  14
HETATM   14  C   UNL     1      -9.100   6.321  68.667  1.00  0.00    -0.126 C  
BRANCH  14  15
HETATM   15  N   UNL     1     -10.004   7.144  67.787  1.00  0.00    -0.148 NA 
BRANCH  15  16
HETATM   16  C   UNL     1      -9.168   7.717  66.667  1.00  0.00    -0.177 C  
HETATM   17  C   UNL     1      -9.223   9.240  66.605  1.00  0.00    -0.148 C  
HETATM   18  O   UNL     1      -9.418   9.807  67.824  1.00  0.00    -0.133 OA 
HETATM   19  O   UNL     1      -9.047   9.893  65.589  1.00  0.00    -0.156 OA 
ENDBRANCH  15  16
BRANCH  15  20
HETATM   20  C   UNL     1     -11.009   6.205  67.138  1.00  0.00    -0.331 C  
HETATM   21  C   UNL     1     -10.356   5.061  66.363  1.00  0.00    -0.294 C  
HETATM   22  O   UNL     1      -9.145   4.703  66.856  1.00  0.00    -0.114 OA 
HETATM   23  O   UNL     1     -10.884   4.485  65.428  1.00  0.00    -0.271 OA 
ENDBRANCH  15  20
ENDBRANCH  14  15
ENDBRANCH   2  14
TORSDOF 8
ENDMDL
MODEL      366
REMARK 921   NORMALIZED FREE ENERGY PREDICTED BY IDOCK:   -2.33 KCAL/MOL
REMARK 922        TOTAL FREE ENERGY PREDICTED BY IDOCK:   -4.75 KCAL/MOL
REMARK 923 INTER-LIGAND FREE ENERGY PREDICTED BY IDOCK:   -4.87 KCAL/MOL
REMARK 924 INTRA-LIGAND FREE ENERGY PREDICTED BY IDOCK:    0.12 KCAL/MOL
REMARK 927      BINDING AFFINITY PREDICTED BY RF-SCORE:    0.00 PKD
ROOT
HETATM    1  O   UNL     1     -11.207   8.891  67.792  1.00  0.00    -0.442 OA 
HETATM    2  C   UNL     1     -10.038   9.539  67.278  1.00  0.00    -0.215 C  
HETATM    3  H   UNL     1     -11.729   9.518  68.279  1.00  0.00     0.000 HD 
ENDROOT
BRANCH   2   4
HETATM    4  C   UNL     1     -10.496  10.723  66.390  1.00  0.00    -0.233 C  
BRANCH   4   5
HETATM    5  N   UNL     1     -11.599  11.592  66.944  1.00  0.00    -0.542 NA 
BRANCH   5   6
HETATM    6  C   UNL     1     -11.956  12.614  65.891  1.00  0.00    -0.438 C  
HETATM    7  O   UNL     1      -9.682  13.367  66.150  1.00  0.00    -0.282 OA 
HETATM    8  C   UNL     1     -10.937  13.749  65.812  1.00  0.00    -0.280 C  
HETATM    9  O   UNL     1     -11.211  14.884  65.456  1.00  0.00    -0.335 OA 
ENDBRANCH   5   6
BRANCH   5  10
HETATM   10  C   UNL     1     -11.070  12.333  68.143  1.00  0.00    -0.240 C  
HETATM   11  O   UNL     1     -12.475  10.863  69.421  1.00  0.00    -0.352 OA 
HETATM   12  O   UNL     1     -12.017  12.896  70.315  1.00  0.00    -0.341 OA 
HETATM   13  C   UNL     1     -11.908  12.092  69.399  1.00  0.00    -0.324 C  
ENDBRANCH   5  10
ENDBRANCH   4   5
ENDBRANCH   2   4
BRANCH   2  14
HETATM   14  C   UNL     1      -9.181   8.510  66.478  1.00  0.00    -0.190 C  
BRANCH  14  15
HETATM   15  N   UNL     1      -8.137   7.733  67.236  1.00  0.00    -0.117 NA 
BRANCH  15  16
HETATM   16  C   UNL     1      -7.722   6.556  66.383  1.00  0.00    -0.099 C  
HETATM   17  C   UNL     1      -7.406   5.310  67.204  1.00  0.00    -0.083 C  
HETATM   18  O   UNL     1      -8.124   5.245  68.355  1.00  0.00    -0.090 OA 
HETATM   19  O   UNL     1      -6.642   4.428  66.846  1.00  0.00    -0.044 OA 
ENDBRANCH  15  16
BRANCH  15  20
HETATM   20  C   UNL     1      -6.907   8.615  67.380  1.00  0.00    -0.071 C  
HETATM   21  C   UNL     1      -6.617   9.018  68.826  1.00  0.00    -0.053 C  
HETATM   22  O   UNL     1      -7.045   8.106  69.732  1.00  0.00    -0.057 OA 
HETATM   23  O   UNL     1      -6.014  10.029  69.141  1.00  0.00    -0.038 OA 
ENDBRANCH  15  20
ENDBRANCH  14  15
ENDBRANCH   2  14
TORSDOF 8
ENDMDL
MODEL      367
REMARK 921   NORMALIZED FREE ENERGY PREDICTED BY IDOCK:   -2.31 KCAL/MOL
REMARK 922        TOTAL FREE ENERGY PREDICTED BY IDOCK:   -4.72 KCAL/MOL
REMARK 923 INTER-LIGAND FREE ENERGY PREDICTED BY IDOCK:   -3.41 KCAL/MOL
REMARK 924 INTRA-LIGAND FREE ENERGY PREDICTED BY IDOCK:   -1.31 KCAL/MOL
REMARK 927      BINDING AFFINITY PREDICTED BY RF-SCORE:    0.00 PKD
ROOT
HETATM    1  O   UNL     1      -7.286   7.980  66.358  1.00  0.00    -0.076 OA 
HETATM    2  C   UNL     1      -8.345   7.532  67.211  1.00  0.00    -0.118 C  
HETATM    3  H   UNL     1      -6.843   7.229  65.980  1.00  0.00     0.000 HD 
ENDROOT
BRANCH   2   4
HETATM    4  C   UNL     1      -9.308   6.661  66.364  1.00  0.00    -0.139 C  
BRANCH   4   5
HETATM    5  N   UNL     1      -9.158   5.165  66.500  1.00  0.00    -0.123 NA 
BRANCH   5   6
HETATM    6  C   UNL     1     -10.357   4.520  65.847  1.00  0.00    -0.258 C  
HETATM    7  O   UNL     1      -8.752   3.013  64.869  1.00  0.00    -0.100 OA 
HETATM    8  C   UNL     1      -9.966   3.589  64.701  1.00  0.00    -0.153 C  
HETATM    9  O   UNL     1     -10.680   3.362  63.737  1.00  0.00    -0.254 OA 
ENDBRANCH   5   6
BRANCH   5  10
HETATM   10  C   UNL     1      -9.186   4.812  67.963  1.00  0.00    -0.123 C  
HETATM   11  O   UNL     1      -6.902   4.143  67.640  1.00  0.00    -0.050 OA 
HETATM   12  O   UNL     1      -8.058   3.114  69.296  1.00  0.00    -0.049 OA 
HETATM   13  C   UNL     1      -8.016   3.915  68.373  1.00  0.00    -0.075 C  
ENDBRANCH   5  10
ENDBRANCH   4   5
ENDBRANCH   2   4
BRANCH   2  14
HETATM   14  C   UNL     1      -9.071   8.764  67.833  1.00  0.00    -0.139 C  
BRANCH  14  15
HETATM   15  N   UNL     1      -8.955  10.080  67.108  1.00  0.00    -0.135 NA 
BRANCH  15  16
HETATM   16  C   UNL     1     -10.275  10.353  66.426  1.00  0.00    -0.230 C  
HETATM   17  C   UNL     1     -10.153  10.435  64.908  1.00  0.00    -0.312 C  
HETATM   18  O   UNL     1      -9.150   9.659  64.421  1.00  0.00    -0.237 OA 
HETATM   19  O   UNL     1     -10.907  11.073  64.192  1.00  0.00    -0.361 OA 
ENDBRANCH  15  16
BRANCH  15  20
HETATM   20  C   UNL     1      -8.773  11.174  68.148  1.00  0.00    -0.144 C  
HETATM   21  C   UNL     1      -7.370  11.780  68.152  1.00  0.00    -0.094 C  
HETATM   22  O   UNL     1      -6.764  11.733  66.941  1.00  0.00    -0.140 OA 
HETATM   23  O   UNL     1      -6.858  12.303  69.126  1.00  0.00    -0.102 OA 
ENDBRANCH  15  20
ENDBRANCH  14  15
ENDBRANCH   2  14
TORSDOF 8
ENDMDL
MODEL      368
REMARK 921   NORMALIZED FREE ENERGY PREDICTED BY IDOCK:   -2.26 KCAL/MOL
REMARK 922        TOTAL FREE ENERGY PREDICTED BY IDOCK:   -4.65 KCAL/MOL
REMARK 923 INTER-LIGAND FREE ENERGY PREDICTED BY IDOCK:   -5.15 KCAL/MOL
REMARK 924 INTRA-LIGAND FREE ENERGY PREDICTED BY IDOCK:    0.49 KCAL/MOL
REMARK 927      BINDING AFFINITY PREDICTED BY RF-SCORE:    0.00 PKD
ROOT
HETATM    1  O   UNL     1     -12.298  10.928  68.576  1.00  0.00    -0.807 OA 
HETATM    2  C   UNL     1     -11.240   9.974  68.729  1.00  0.00    -0.122 C  
HETATM    3  H   UNL     1     -12.879  10.879  69.326  1.00  0.00     0.000 HD 
ENDROOT
BRANCH   2   4
HETATM    4  C   UNL     1     -10.501  10.286  70.055  1.00  0.00    -0.241 C  
BRANCH   4   5
HETATM    5  N   UNL     1     -10.572   9.228  71.130  1.00  0.00    -0.306 NA 
BRANCH   5   6
HETATM    6  C   UNL     1      -9.165   8.752  71.404  1.00  0.00    -0.255 C  
HETATM    7  O   UNL     1     -10.052   8.001  73.513  1.00  0.00    -0.216 OA 
HETATM    8  C   UNL     1      -8.936   8.430  72.878  1.00  0.00    -0.196 C  
HETATM    9  O   UNL     1      -7.852   8.521  73.433  1.00  0.00    -0.355 OA 
ENDBRANCH   5   6
BRANCH   5  10
HETATM   10  C   UNL     1     -11.358   8.059  70.600  1.00  0.00    -0.252 C  
HETATM   11  O   UNL     1     -13.214   9.033  71.773  1.00  0.00    -0.342 OA 
HETATM   12  O   UNL     1     -13.250   6.789  71.459  1.00  0.00    -0.291 OA 
HETATM   13  C   UNL     1     -12.689   7.868  71.330  1.00  0.00    -0.292 C  
ENDBRANCH   5  10
ENDBRANCH   4   5
ENDBRANCH   2   4
BRANCH   2  14
HETATM   14  C   UNL     1     -10.285  10.054  67.499  1.00  0.00    -0.212 C  
BRANCH  14  15
HETATM   15  N   UNL     1      -9.140   9.076  67.440  1.00  0.00    -0.130 NA 
BRANCH  15  16
HETATM   16  C   UNL     1      -9.294   8.253  66.182  1.00  0.00    -0.188 C  
HETATM   17  C   UNL     1      -9.565   6.779  66.466  1.00  0.00    -0.140 C  
HETATM   18  O   UNL     1     -10.234   6.585  67.631  1.00  0.00    -0.140 OA 
HETATM   19  O   UNL     1      -9.275   5.870  65.706  1.00  0.00    -0.135 OA 
ENDBRANCH  15  16
BRANCH  15  20
HETATM   20  C   UNL     1      -7.853   9.869  67.281  1.00  0.00    -0.102 C  
HETATM   21  C   UNL     1      -7.544  10.238  65.831  1.00  0.00    -0.134 C  
HETATM   22  O   UNL     1      -8.654  10.373  65.065  1.00  0.00    -0.171 OA 
HETATM   23  O   UNL     1      -6.420  10.446  65.407  1.00  0.00    -0.117 OA 
ENDBRANCH  15  20
ENDBRANCH  14  15
ENDBRANCH   2  14
TORSDOF 8
ENDMDL
MODEL      369
REMARK 921   NORMALIZED FREE ENERGY PREDICTED BY IDOCK:   -2.25 KCAL/MOL
REMARK 922        TOTAL FREE ENERGY PREDICTED BY IDOCK:   -4.63 KCAL/MOL
REMARK 923 INTER-LIGAND FREE ENERGY PREDICTED BY IDOCK:   -4.98 KCAL/MOL
REMARK 924 INTRA-LIGAND FREE ENERGY PREDICTED BY IDOCK:    0.35 KCAL/MOL
REMARK 927      BINDING AFFINITY PREDICTED BY RF-SCORE:    0.00 PKD
ROOT
HETATM    1  O   UNL     1      -6.315  12.359  66.556  1.00  0.00    -0.430 OA 
HETATM    2  C   UNL     1      -7.481  12.340  67.388  1.00  0.00    -0.160 C  
HETATM    3  H   UNL     1      -6.545  12.686  65.695  1.00  0.00     0.000 HD 
ENDROOT
BRANCH   2   4
HETATM    4  C   UNL     1      -8.050  13.780  67.450  1.00  0.00    -0.177 C  
BRANCH   4   5
HETATM    5  N   UNL     1      -9.554  13.911  67.436  1.00  0.00    -0.229 NA 
BRANCH   5   6
HETATM    6  C   UNL     1      -9.992  14.049  65.997  1.00  0.00    -0.315 C  
HETATM    7  O   UNL     1      -8.890  16.189  66.084  1.00  0.00    -0.315 OA 
HETATM    8  C   UNL     1      -9.882  15.485  65.490  1.00  0.00    -0.313 C  
HETATM    9  O   UNL     1     -10.596  15.953  64.617  1.00  0.00    -0.525 OA 
ENDBRANCH   5   6
BRANCH   5  10
HETATM   10  C   UNL     1      -9.931  15.179  68.155  1.00  0.00    -0.221 C  
HETATM   11  O   UNL     1     -11.137  13.736  69.648  1.00  0.00    -0.166 OA 
HETATM   12  O   UNL     1     -11.893  15.862  69.425  1.00  0.00    -0.362 OA 
HETATM   13  C   UNL     1     -11.101  14.981  69.119  1.00  0.00    -0.270 C  
ENDBRANCH   5  10
ENDBRANCH   4   5
ENDBRANCH   2   4
BRANCH   2  14
HETATM   14  C   UNL     1      -7.104  11.802  68.802  1.00  0.00    -0.111 C  
BRANCH  14  15
HETATM   15  N   UNL     1      -7.766  10.530  69.264  1.00  0.00    -0.133 NA 
BRANCH  15  16
HETATM   16  C   UNL     1      -8.470   9.914  68.076  1.00  0.00    -0.117 C  
HETATM   17  C   UNL     1      -9.951   9.654  68.334  1.00  0.00    -0.158 C  
HETATM   18  O   UNL     1     -10.493  10.538  69.211  1.00  0.00    -0.210 OA 
HETATM   19  O   UNL     1     -10.604   8.791  67.771  1.00  0.00    -0.239 OA 
ENDBRANCH  15  16
BRANCH  15  20
HETATM   20  C   UNL     1      -6.674   9.553  69.670  1.00  0.00    -0.054 C  
HETATM   21  C   UNL     1      -6.744   9.144  71.142  1.00  0.00    -0.090 C  
HETATM   22  O   UNL     1      -8.000   9.178  71.647  1.00  0.00    -0.342 OA 
HETATM   23  O   UNL     1      -5.781   8.771  71.789  1.00  0.00    -0.044 OA 
ENDBRANCH  15  20
ENDBRANCH  14  15
ENDBRANCH   2  14
TORSDOF 8
ENDMDL
MODEL      370
REMARK 921   NORMALIZED FREE ENERGY PREDICTED BY IDOCK:   -2.23 KCAL/MOL
REMARK 922        TOTAL FREE ENERGY PREDICTED BY IDOCK:   -4.61 KCAL/MOL
REMARK 923 INTER-LIGAND FREE ENERGY PREDICTED BY IDOCK:   -3.45 KCAL/MOL
REMARK 924 INTRA-LIGAND FREE ENERGY PREDICTED BY IDOCK:   -1.16 KCAL/MOL
REMARK 927      BINDING AFFINITY PREDICTED BY RF-SCORE:    0.00 PKD
ROOT
HETATM    1  O   UNL     1      -8.838   8.892  66.927  1.00  0.00    -0.123 OA 
HETATM    2  C   UNL     1      -8.282   8.235  68.072  1.00  0.00    -0.128 C  
HETATM    3  H   UNL     1      -8.136   9.186  66.358  1.00  0.00     0.000 HD 
ENDROOT
BRANCH   2   4
HETATM    4  C   UNL     1      -7.411   7.055  67.572  1.00  0.00    -0.092 C  
BRANCH   4   5
HETATM    5  N   UNL     1      -8.141   5.784  67.210  1.00  0.00    -0.102 NA 
BRANCH   5   6
HETATM    6  C   UNL     1      -7.427   4.634  67.880  1.00  0.00    -0.077 C  
HETATM    7  O   UNL     1      -9.560   4.177  68.902  1.00  0.00    -0.167 OA 
HETATM    8  C   UNL     1      -8.219   4.059  69.052  1.00  0.00    -0.069 C  
HETATM    9  O   UNL     1      -7.705   3.523  70.020  1.00  0.00    -0.047 OA 
ENDBRANCH   5   6
BRANCH   5  10
HETATM   10  C   UNL     1      -8.043   5.582  65.722  1.00  0.00    -0.112 C  
HETATM   11  O   UNL     1     -10.371   5.004  65.849  1.00  0.00    -0.219 OA 
HETATM   12  O   UNL     1      -9.168   4.092  64.158  1.00  0.00    -0.141 OA 
HETATM   13  C   UNL     1      -9.227   4.795  65.157  1.00  0.00    -0.145 C  
ENDBRANCH   5  10
ENDBRANCH   4   5
ENDBRANCH   2   4
BRANCH   2  14
HETATM   14  C   UNL     1      -9.434   7.751  69.006  1.00  0.00    -0.150 C  
BRANCH  14  15
HETATM   15  N   UNL     1      -9.258   7.949  70.489  1.00  0.00    -0.157 NA 
BRANCH  15  16
HETATM   16  C   UNL     1     -10.426   7.291  71.188  1.00  0.00    -0.209 C  
HETATM   17  C   UNL     1     -11.191   8.249  72.095  1.00  0.00    -0.345 C  
HETATM   18  O   UNL     1     -11.146   9.533  71.657  1.00  0.00    -0.371 OA 
HETATM   19  O   UNL     1     -11.831   7.903  73.075  1.00  0.00    -0.247 OA 
ENDBRANCH  15  16
BRANCH  15  20
HETATM   20  C   UNL     1      -8.014   7.188  70.920  1.00  0.00    -0.096 C  
HETATM   21  C   UNL     1      -7.024   8.044  71.710  1.00  0.00    -0.069 C  
HETATM   22  O   UNL     1      -7.617   9.045  72.404  1.00  0.00    -0.342 OA 
HETATM   23  O   UNL     1      -5.827   7.825  71.761  1.00  0.00    -0.035 OA 
ENDBRANCH  15  20
ENDBRANCH  14  15
ENDBRANCH   2  14
TORSDOF 8
ENDMDL
MODEL      371
REMARK 921   NORMALIZED FREE ENERGY PREDICTED BY IDOCK:   -2.23 KCAL/MOL
REMARK 922        TOTAL FREE ENERGY PREDICTED BY IDOCK:   -4.61 KCAL/MOL
REMARK 923 INTER-LIGAND FREE ENERGY PREDICTED BY IDOCK:   -6.30 KCAL/MOL
REMARK 924 INTRA-LIGAND FREE ENERGY PREDICTED BY IDOCK:    1.69 KCAL/MOL
REMARK 927      BINDING AFFINITY PREDICTED BY RF-SCORE:    0.00 PKD
ROOT
HETATM    1  O   UNL     1      -7.721  12.179  66.524  1.00  0.00    -0.383 OA 
HETATM    2  C   UNL     1      -9.048  12.492  66.963  1.00  0.00    -0.213 C  
HETATM    3  H   UNL     1      -7.629  12.406  65.606  1.00  0.00     0.000 HD 
ENDROOT
BRANCH   2   4
HETATM    4  C   UNL     1      -9.292  14.002  66.715  1.00  0.00    -0.277 C  
BRANCH   4   5
HETATM    5  N   UNL     1     -10.679  14.396  66.269  1.00  0.00    -0.301 NA 
BRANCH   5   6
HETATM    6  C   UNL     1     -11.537  13.152  66.273  1.00  0.00    -0.356 C  
HETATM    7  O   UNL     1     -11.013  13.034  63.926  1.00  0.00    -0.395 OA 
HETATM    8  C   UNL     1     -11.932  12.713  64.866  1.00  0.00    -0.406 C  
HETATM    9  O   UNL     1     -12.961  12.108  64.608  1.00  0.00    -0.651 OA 
ENDBRANCH   5   6
BRANCH   5  10
HETATM   10  C   UNL     1     -10.602  14.896  64.851  1.00  0.00    -0.391 C  
HETATM   11  O   UNL     1     -10.595  17.086  65.836  1.00  0.00    -0.318 OA 
HETATM   12  O   UNL     1     -11.427  16.897  63.735  1.00  0.00    -0.733 OA 
HETATM   13  C   UNL     1     -10.942  16.382  64.733  1.00  0.00    -0.231 C  
ENDBRANCH   5  10
ENDBRANCH   4   5
ENDBRANCH   2   4
BRANCH   2  14
HETATM   14  C   UNL     1      -9.200  12.118  68.469  1.00  0.00    -0.099 C  
BRANCH  14  15
HETATM   15  N   UNL     1      -9.170  10.656  68.832  1.00  0.00    -0.179 NA 
BRANCH  15  16
HETATM   16  C   UNL     1      -9.232   9.858  67.550  1.00  0.00    -0.134 C  
HETATM   17  C   UNL     1     -10.624   9.304  67.262  1.00  0.00    -0.233 C  
HETATM   18  O   UNL     1     -11.613  10.091  67.759  1.00  0.00    -0.141 OA 
HETATM   19  O   UNL     1     -10.841   8.300  66.603  1.00  0.00    -0.094 OA 
ENDBRANCH  15  16
BRANCH  15  20
HETATM   20  C   UNL     1      -7.819  10.356  69.461  1.00  0.00    -0.155 C  
HETATM   21  C   UNL     1      -7.901   9.381  70.636  1.00  0.00    -0.151 C  
HETATM   22  O   UNL     1      -8.938   8.514  70.540  1.00  0.00    -0.141 OA 
HETATM   23  O   UNL     1      -7.091   9.344  71.545  1.00  0.00    -0.319 OA 
ENDBRANCH  15  20
ENDBRANCH  14  15
ENDBRANCH   2  14
TORSDOF 8
ENDMDL
MODEL      372
REMARK 921   NORMALIZED FREE ENERGY PREDICTED BY IDOCK:   -2.22 KCAL/MOL
REMARK 922        TOTAL FREE ENERGY PREDICTED BY IDOCK:   -4.59 KCAL/MOL
REMARK 923 INTER-LIGAND FREE ENERGY PREDICTED BY IDOCK:   -5.02 KCAL/MOL
REMARK 924 INTRA-LIGAND FREE ENERGY PREDICTED BY IDOCK:    0.43 KCAL/MOL
REMARK 927      BINDING AFFINITY PREDICTED BY RF-SCORE:    0.00 PKD
ROOT
HETATM    1  O   UNL     1      -8.013   8.429  71.456  1.00  0.00    -0.108 OA 
HETATM    2  C   UNL     1      -9.085   8.902  70.632  1.00  0.00    -0.207 C  
HETATM    3  H   UNL     1      -7.280   8.173  70.908  1.00  0.00     0.000 HD 
ENDROOT
BRANCH   2   4
HETATM    4  C   UNL     1      -8.554  10.088  69.788  1.00  0.00    -0.173 C  
BRANCH   4   5
HETATM    5  N   UNL     1      -8.844  10.043  68.307  1.00  0.00    -0.115 NA 
BRANCH   5   6
HETATM    6  C   UNL     1      -9.841  11.135  67.998  1.00  0.00    -0.174 C  
HETATM    7  O   UNL     1      -7.936  12.353  67.169  1.00  0.00    -0.174 OA 
HETATM    8  C   UNL     1      -9.167  12.476  67.717  1.00  0.00    -0.198 C  
HETATM    9  O   UNL     1      -9.690  13.557  67.938  1.00  0.00    -0.211 OA 
ENDBRANCH   5   6
BRANCH   5  10
HETATM   10  C   UNL     1      -9.493   8.723  67.986  1.00  0.00    -0.143 C  
HETATM   11  O   UNL     1      -7.345   8.109  67.105  1.00  0.00    -0.085 OA 
HETATM   12  O   UNL     1      -9.161   7.082  66.218  1.00  0.00    -0.162 OA 
HETATM   13  C   UNL     1      -8.676   7.893  66.995  1.00  0.00    -0.129 C  
ENDBRANCH   5  10
ENDBRANCH   4   5
ENDBRANCH   2   4
BRANCH   2  14
HETATM   14  C   UNL     1     -10.287   9.322  71.532  1.00  0.00    -0.294 C  
BRANCH  14  15
HETATM   15  N   UNL     1     -11.277   8.254  71.916  1.00  0.00    -0.279 NA 
BRANCH  15  16
HETATM   16  C   UNL     1     -12.561   8.936  72.330  1.00  0.00    -0.385 C  
HETATM   17  C   UNL     1     -12.772  10.276  71.634  1.00  0.00    -0.456 C  
HETATM   18  O   UNL     1     -12.210  10.319  70.398  1.00  0.00    -0.278 OA 
HETATM   19  O   UNL     1     -13.427  11.195  72.098  1.00  0.00    -0.380 OA 
ENDBRANCH  15  16
BRANCH  15  20
HETATM   20  C   UNL     1     -11.602   7.445  70.670  1.00  0.00    -0.268 C  
HETATM   21  C   UNL     1     -10.882   6.097  70.618  1.00  0.00    -0.292 C  
HETATM   22  O   UNL     1     -10.615   5.586  71.844  1.00  0.00    -0.222 OA 
HETATM   23  O   UNL     1     -10.619   5.508  69.584  1.00  0.00    -0.291 OA 
ENDBRANCH  15  20
ENDBRANCH  14  15
ENDBRANCH   2  14
TORSDOF 8
ENDMDL
MODEL      373
REMARK 921   NORMALIZED FREE ENERGY PREDICTED BY IDOCK:   -2.21 KCAL/MOL
REMARK 922        TOTAL FREE ENERGY PREDICTED BY IDOCK:   -4.57 KCAL/MOL
REMARK 923 INTER-LIGAND FREE ENERGY PREDICTED BY IDOCK:   -3.45 KCAL/MOL
REMARK 924 INTRA-LIGAND FREE ENERGY PREDICTED BY IDOCK:   -1.12 KCAL/MOL
REMARK 927      BINDING AFFINITY PREDICTED BY RF-SCORE:    0.00 PKD
ROOT
HETATM    1  O   UNL     1      -9.514   6.743  68.503  1.00  0.00    -0.133 OA 
HETATM    2  C   UNL     1      -8.486   7.646  68.923  1.00  0.00    -0.129 C  
HETATM    3  H   UNL     1     -10.313   6.924  68.985  1.00  0.00     0.000 HD 
ENDROOT
BRANCH   2   4
HETATM    4  C   UNL     1      -8.989   9.092  68.683  1.00  0.00    -0.136 C  
BRANCH   4   5
HETATM    5  N   UNL     1     -10.157   9.547  69.525  1.00  0.00    -0.194 NA 
BRANCH   5   6
HETATM    6  C   UNL     1     -10.180  11.057  69.505  1.00  0.00     0.005 C  
HETATM    7  O   UNL     1     -12.406  10.803  68.621  1.00  0.00    -0.430 OA 
HETATM    8  C   UNL     1     -11.320  11.610  68.652  1.00  0.00    -0.267 C  
HETATM    9  O   UNL     1     -11.275  12.685  68.074  1.00  0.00    -0.233 OA 
ENDBRANCH   5   6
BRANCH   5  10
HETATM   10  C   UNL     1      -9.921   9.110  70.946  1.00  0.00    -0.288 C  
HETATM   11  O   UNL     1     -11.651   7.498  70.525  1.00  0.00    -0.271 OA 
HETATM   12  O   UNL     1     -11.366   8.175  72.670  1.00  0.00    -0.380 OA 
HETATM   13  C   UNL     1     -11.056   8.240  71.488  1.00  0.00    -0.259 C  
ENDBRANCH   5  10
ENDBRANCH   4   5
ENDBRANCH   2   4
BRANCH   2  14
HETATM   14  C   UNL     1      -7.175   7.349  68.132  1.00  0.00    -0.090 C  
BRANCH  14  15
HETATM   15  N   UNL     1      -7.286   6.501  66.892  1.00  0.00    -0.078 NA 
BRANCH  15  16
HETATM   16  C   UNL     1      -6.287   7.019  65.883  1.00  0.00    -0.046 C  
HETATM   17  C   UNL     1      -6.690   6.720  64.443  1.00  0.00    -0.042 C  
HETATM   18  O   UNL     1      -8.037   6.668  64.276  1.00  0.00    -0.114 OA 
HETATM   19  O   UNL     1      -5.901   6.603  63.519  1.00  0.00    -0.029 OA 
ENDBRANCH  15  16
BRANCH  15  20
HETATM   20  C   UNL     1      -6.847   5.089  67.247  1.00  0.00    -0.056 C  
HETATM   21  C   UNL     1      -7.951   4.047  67.068  1.00  0.00    -0.096 C  
HETATM   22  O   UNL     1      -8.847   4.377  66.106  1.00  0.00    -0.113 OA 
HETATM   23  O   UNL     1      -8.001   2.998  67.685  1.00  0.00    -0.074 OA 
ENDBRANCH  15  20
ENDBRANCH  14  15
ENDBRANCH   2  14
TORSDOF 8
ENDMDL
MODEL      374
REMARK 921   NORMALIZED FREE ENERGY PREDICTED BY IDOCK:   -2.20 KCAL/MOL
REMARK 922        TOTAL FREE ENERGY PREDICTED BY IDOCK:   -4.56 KCAL/MOL
REMARK 923 INTER-LIGAND FREE ENERGY PREDICTED BY IDOCK:   -6.65 KCAL/MOL
REMARK 924 INTRA-LIGAND FREE ENERGY PREDICTED BY IDOCK:    2.09 KCAL/MOL
REMARK 927      BINDING AFFINITY PREDICTED BY RF-SCORE:    0.00 PKD
ROOT
HETATM    1  O   UNL     1     -12.366  13.907  67.109  1.00  0.00    -0.478 OA 
HETATM    2  C   UNL     1     -11.224  14.361  67.843  1.00  0.00    -0.286 C  
HETATM    3  H   UNL     1     -13.129  14.413  67.364  1.00  0.00     0.000 HD 
ENDROOT
BRANCH   2   4
HETATM    4  C   UNL     1     -11.037  15.872  67.555  1.00  0.00    -0.235 C  
BRANCH   4   5
HETATM    5  N   UNL     1     -10.423  16.233  66.223  1.00  0.00    -0.318 NA 
BRANCH   5   6
HETATM    6  C   UNL     1     -10.626  15.064  65.289  1.00  0.00    -0.397 C  
HETATM    7  O   UNL     1     -11.642  16.682  63.821  1.00  0.00    -1.045 OA 
HETATM    8  C   UNL     1     -11.624  15.375  64.175  1.00  0.00    -0.071 C  
HETATM    9  O   UNL     1     -12.322  14.532  63.634  1.00  0.00    -0.704 OA 
ENDBRANCH   5   6
BRANCH   5  10
HETATM   10  C   UNL     1      -8.941  16.418  66.413  1.00  0.00    -0.305 C  
HETATM   11  O   UNL     1      -9.427  18.769  66.336  1.00  0.00    -0.322 OA 
HETATM   12  O   UNL     1      -7.359  18.116  65.676  1.00  0.00    -0.528 OA 
HETATM   13  C   UNL     1      -8.480  17.837  66.080  1.00  0.00    -0.123 C  
ENDBRANCH   5  10
ENDBRANCH   4   5
ENDBRANCH   2   4
BRANCH   2  14
HETATM   14  C   UNL     1      -9.972  13.531  67.424  1.00  0.00    -0.234 C  
BRANCH  14  15
HETATM   15  N   UNL     1     -10.172  12.067  67.130  1.00  0.00    -0.201 NA 
BRANCH  15  16
HETATM   16  C   UNL     1      -9.702  11.807  65.717  1.00  0.00    -0.237 C  
HETATM   17  C   UNL     1     -10.818  11.313  64.802  1.00  0.00    -0.244 C  
HETATM   18  O   UNL     1     -12.038  11.790  65.160  1.00  0.00    -0.247 OA 
HETATM   19  O   UNL     1     -10.639  10.620  63.815  1.00  0.00    -0.191 OA 
ENDBRANCH  15  16
BRANCH  15  20
HETATM   20  C   UNL     1      -9.251  11.274  68.043  1.00  0.00    -0.160 C  
HETATM   21  C   UNL     1      -7.806  11.774  68.030  1.00  0.00    -0.134 C  
HETATM   22  O   UNL     1      -7.702  13.098  67.759  1.00  0.00    -0.124 OA 
HETATM   23  O   UNL     1      -6.843  11.075  68.288  1.00  0.00    -0.065 OA 
ENDBRANCH  15  20
ENDBRANCH  14  15
ENDBRANCH   2  14
TORSDOF 8
ENDMDL
MODEL      375
REMARK 921   NORMALIZED FREE ENERGY PREDICTED BY IDOCK:   -2.19 KCAL/MOL
REMARK 922        TOTAL FREE ENERGY PREDICTED BY IDOCK:   -4.55 KCAL/MOL
REMARK 923 INTER-LIGAND FREE ENERGY PREDICTED BY IDOCK:   -4.83 KCAL/MOL
REMARK 924 INTRA-LIGAND FREE ENERGY PREDICTED BY IDOCK:    0.28 KCAL/MOL
REMARK 927      BINDING AFFINITY PREDICTED BY RF-SCORE:    0.00 PKD
ROOT
HETATM    1  O   UNL     1     -12.217  11.289  68.302  1.00  0.00    -0.615 OA 
HETATM    2  C   UNL     1     -11.348  10.185  68.028  1.00  0.00    -0.078 C  
HETATM    3  H   UNL     1     -12.610  11.179  69.159  1.00  0.00     0.000 HD 
ENDROOT
BRANCH   2   4
HETATM    4  C   UNL     1     -10.280  10.124  69.149  1.00  0.00    -0.214 C  
BRANCH   4   5
HETATM    5  N   UNL     1      -9.982   8.759  69.721  1.00  0.00    -0.186 NA 
BRANCH   5   6
HETATM    6  C   UNL     1     -10.678   8.654  71.057  1.00  0.00    -0.228 C  
HETATM    7  O   UNL     1     -11.590   6.602  70.186  1.00  0.00    -0.382 OA 
HETATM    8  C   UNL     1     -11.806   7.625  71.047  1.00  0.00    -0.285 C  
HETATM    9  O   UNL     1     -12.795   7.695  71.758  1.00  0.00    -0.325 OA 
ENDBRANCH   5   6
BRANCH   5  10
HETATM   10  C   UNL     1      -8.500   8.656  69.966  1.00  0.00    -0.130 C  
HETATM   11  O   UNL     1      -8.643   6.595  68.739  1.00  0.00    -0.122 OA 
HETATM   12  O   UNL     1      -6.981   6.777  70.270  1.00  0.00    -0.062 OA 
HETATM   13  C   UNL     1      -7.958   7.249  69.706  1.00  0.00    -0.123 C  
ENDBRANCH   5  10
ENDBRANCH   4   5
ENDBRANCH   2   4
BRANCH   2  14
HETATM   14  C   UNL     1     -10.702  10.367  66.620  1.00  0.00    -0.128 C  
BRANCH  14  15
HETATM   15  N   UNL     1      -9.423  11.159  66.537  1.00  0.00    -0.188 NA 
BRANCH  15  16
HETATM   16  C   UNL     1      -8.644  10.661  65.341  1.00  0.00    -0.179 C  
HETATM   17  C   UNL     1      -7.198  10.313  65.679  1.00  0.00    -0.148 C  
HETATM   18  O   UNL     1      -7.046   9.890  66.960  1.00  0.00    -0.087 OA 
HETATM   19  O   UNL     1      -6.279  10.344  64.876  1.00  0.00    -0.128 OA 
ENDBRANCH  15  16
BRANCH  15  20
HETATM   20  C   UNL     1      -9.785  12.606  66.242  1.00  0.00    -0.259 C  
HETATM   21  C   UNL     1     -10.593  12.779  64.956  1.00  0.00    -0.308 C  
HETATM   22  O   UNL     1     -11.351  11.697  64.651  1.00  0.00    -0.291 OA 
HETATM   23  O   UNL     1     -10.604  13.801  64.293  1.00  0.00    -0.367 OA 
ENDBRANCH  15  20
ENDBRANCH  14  15
ENDBRANCH   2  14
TORSDOF 8
ENDMDL
MODEL      376
REMARK 921   NORMALIZED FREE ENERGY PREDICTED BY IDOCK:   -2.14 KCAL/MOL
REMARK 922        TOTAL FREE ENERGY PREDICTED BY IDOCK:   -4.48 KCAL/MOL
REMARK 923 INTER-LIGAND FREE ENERGY PREDICTED BY IDOCK:   -5.34 KCAL/MOL
REMARK 924 INTRA-LIGAND FREE ENERGY PREDICTED BY IDOCK:    0.87 KCAL/MOL
REMARK 927      BINDING AFFINITY PREDICTED BY RF-SCORE:    0.00 PKD
ROOT
HETATM    1  O   UNL     1      -8.397  11.448  67.373  1.00  0.00    -0.135 OA 
HETATM    2  C   UNL     1      -8.589  12.830  67.050  1.00  0.00    -0.177 C  
HETATM    3  H   UNL     1      -7.569  11.149  67.015  1.00  0.00     0.000 HD 
ENDROOT
BRANCH   2   4
HETATM    4  C   UNL     1      -7.390  13.627  67.624  1.00  0.00    -0.176 C  
BRANCH   4   5
HETATM    5  N   UNL     1      -7.266  13.666  69.128  1.00  0.00    -0.049 NA 
BRANCH   5   6
HETATM    6  C   UNL     1      -7.153  15.113  69.545  1.00  0.00    -0.195 C  
HETATM    7  O   UNL     1      -5.649  15.319  67.676  1.00  0.00    -0.256 OA 
HETATM    8  C   UNL     1      -5.964  15.816  68.895  1.00  0.00    -0.108 C  
HETATM    9  O   UNL     1      -5.367  16.752  69.404  1.00  0.00    -0.133 OA 
ENDBRANCH   5   6
BRANCH   5  10
HETATM   10  C   UNL     1      -5.987  12.974  69.520  1.00  0.00    -0.110 C  
HETATM   11  O   UNL     1      -7.369  11.034  69.831  1.00  0.00    -0.045 OA 
HETATM   12  O   UNL     1      -5.472  11.164  71.065  1.00  0.00    -0.188 OA 
HETATM   13  C   UNL     1      -6.236  11.649  70.242  1.00  0.00    -0.068 C  
ENDBRANCH   5  10
ENDBRANCH   4   5
ENDBRANCH   2   4
BRANCH   2  14
HETATM   14  C   UNL     1      -9.948  13.319  67.638  1.00  0.00    -0.229 C  
BRANCH  14  15
HETATM   15  N   UNL     1     -11.185  13.104  66.806  1.00  0.00    -0.289 NA 
BRANCH  15  16
HETATM   16  C   UNL     1     -11.012  13.863  65.510  1.00  0.00    -0.302 C  
HETATM   17  C   UNL     1     -12.336  14.155  64.812  1.00  0.00    -0.417 C  
HETATM   18  O   UNL     1     -13.368  14.293  65.684  1.00  0.00    -0.529 OA 
HETATM   19  O   UNL     1     -12.457  14.314  63.608  1.00  0.00    -0.816 OA 
ENDBRANCH  15  16
BRANCH  15  20
HETATM   20  C   UNL     1     -11.253  11.631  66.437  1.00  0.00    -0.287 C  
HETATM   21  C   UNL     1     -11.489  10.715  67.638  1.00  0.00    -0.086 C  
HETATM   22  O   UNL     1     -12.184  11.312  68.637  1.00  0.00    -0.562 OA 
HETATM   23  O   UNL     1     -11.139   9.549  67.682  1.00  0.00    -0.183 OA 
ENDBRANCH  15  20
ENDBRANCH  14  15
ENDBRANCH   2  14
TORSDOF 8
ENDMDL
MODEL      377
REMARK 921   NORMALIZED FREE ENERGY PREDICTED BY IDOCK:   -2.13 KCAL/MOL
REMARK 922        TOTAL FREE ENERGY PREDICTED BY IDOCK:   -4.46 KCAL/MOL
REMARK 923 INTER-LIGAND FREE ENERGY PREDICTED BY IDOCK:   -4.60 KCAL/MOL
REMARK 924 INTRA-LIGAND FREE ENERGY PREDICTED BY IDOCK:    0.14 KCAL/MOL
REMARK 927      BINDING AFFINITY PREDICTED BY RF-SCORE:    0.00 PKD
ROOT
HETATM    1  O   UNL     1      -7.831  12.232  69.191  1.00  0.00    -0.333 OA 
HETATM    2  C   UNL     1      -8.214  12.360  67.817  1.00  0.00    -0.163 C  
HETATM    3  H   UNL     1      -7.922  11.326  69.463  1.00  0.00     0.000 HD 
ENDROOT
BRANCH   2   4
HETATM    4  C   UNL     1      -7.320  11.412  66.979  1.00  0.00    -0.144 C  
BRANCH   4   5
HETATM    5  N   UNL     1      -7.725   9.958  66.946  1.00  0.00    -0.098 NA 
BRANCH   5   6
HETATM    6  C   UNL     1      -7.314   9.394  65.607  1.00  0.00    -0.092 C  
HETATM    7  O   UNL     1      -9.031  10.825  64.710  1.00  0.00    -0.192 OA 
HETATM    8  C   UNL     1      -8.344   9.675  64.515  1.00  0.00    -0.169 C  
HETATM    9  O   UNL     1      -8.519   8.954  63.546  1.00  0.00    -0.188 OA 
ENDBRANCH   5   6
BRANCH   5  10
HETATM   10  C   UNL     1      -9.226   9.878  67.037  1.00  0.00    -0.142 C  
HETATM   11  O   UNL     1      -8.851   9.211  69.314  1.00  0.00    -0.137 OA 
HETATM   12  O   UNL     1     -10.751   8.477  68.320  1.00  0.00    -0.154 OA 
HETATM   13  C   UNL     1      -9.698   9.097  68.265  1.00  0.00    -0.154 C  
ENDBRANCH   5  10
ENDBRANCH   4   5
ENDBRANCH   2   4
BRANCH   2  14
HETATM   14  C   UNL     1      -8.063  13.847  67.371  1.00  0.00    -0.178 C  
BRANCH  14  15
HETATM   15  N   UNL     1      -9.321  14.604  67.034  1.00  0.00    -0.222 NA 
BRANCH  15  16
HETATM   16  C   UNL     1     -10.491  13.663  67.206  1.00  0.00    -0.260 C  
HETATM   17  C   UNL     1     -11.489  13.740  66.054  1.00  0.00    -0.326 C  
HETATM   18  O   UNL     1     -10.903  14.075  64.876  1.00  0.00    -0.364 OA 
HETATM   19  O   UNL     1     -12.674  13.469  66.154  1.00  0.00    -0.339 OA 
ENDBRANCH  15  16
BRANCH  15  20
HETATM   20  C   UNL     1      -9.498  15.704  68.068  1.00  0.00    -0.194 C  
HETATM   21  C   UNL     1      -8.666  16.953  67.774  1.00  0.00    -0.212 C  
HETATM   22  O   UNL     1      -8.435  17.141  66.452  1.00  0.00    -0.246 OA 
HETATM   23  O   UNL     1      -8.290  17.735  68.628  1.00  0.00    -0.298 OA 
ENDBRANCH  15  20
ENDBRANCH  14  15
ENDBRANCH   2  14
TORSDOF 8
ENDMDL
MODEL      378
REMARK 921   NORMALIZED FREE ENERGY PREDICTED BY IDOCK:   -2.12 KCAL/MOL
REMARK 922        TOTAL FREE ENERGY PREDICTED BY IDOCK:   -4.44 KCAL/MOL
REMARK 923 INTER-LIGAND FREE ENERGY PREDICTED BY IDOCK:   -4.76 KCAL/MOL
REMARK 924 INTRA-LIGAND FREE ENERGY PREDICTED BY IDOCK:    0.32 KCAL/MOL
REMARK 927      BINDING AFFINITY PREDICTED BY RF-SCORE:    0.00 PKD
ROOT
HETATM    1  O   UNL     1      -7.667   7.025  70.002  1.00  0.00    -0.099 OA 
HETATM    2  C   UNL     1      -9.019   7.466  69.837  1.00  0.00    -0.141 C  
HETATM    3  H   UNL     1      -7.338   6.691  69.175  1.00  0.00     0.000 HD 
ENDROOT
BRANCH   2   4
HETATM    4  C   UNL     1      -9.039   8.549  68.728  1.00  0.00    -0.143 C  
BRANCH   4   5
HETATM    5  N   UNL     1      -9.471   8.098  67.354  1.00  0.00    -0.150 NA 
BRANCH   5   6
HETATM    6  C   UNL     1     -10.226   9.236  66.710  1.00  0.00    -0.255 C  
HETATM    7  O   UNL     1      -8.835   8.800  64.793  1.00  0.00    -0.154 OA 
HETATM    8  C   UNL     1      -9.537   9.753  65.450  1.00  0.00    -0.292 C  
HETATM    9  O   UNL     1      -9.625  10.904  65.052  1.00  0.00    -0.220 OA 
ENDBRANCH   5   6
BRANCH   5  10
HETATM   10  C   UNL     1     -10.424   6.942  67.507  1.00  0.00    -0.247 C  
HETATM   11  O   UNL     1      -8.661   5.621  66.551  1.00  0.00    -0.116 OA 
HETATM   12  O   UNL     1     -10.785   4.892  66.243  1.00  0.00    -0.305 OA 
HETATM   13  C   UNL     1     -10.003   5.722  66.687  1.00  0.00    -0.176 C  
ENDBRANCH   5  10
ENDBRANCH   4   5
ENDBRANCH   2   4
BRANCH   2  14
HETATM   14  C   UNL     1      -9.558   8.015  71.194  1.00  0.00    -0.160 C  
BRANCH  14  15
HETATM   15  N   UNL     1      -9.946   7.010  72.247  1.00  0.00    -0.171 NA 
BRANCH  15  16
HETATM   16  C   UNL     1     -11.087   7.593  73.049  1.00  0.00    -0.381 C  
HETATM   17  C   UNL     1     -12.174   8.209  72.174  1.00  0.00    -0.350 C  
HETATM   18  O   UNL     1     -12.280   7.599  70.964  1.00  0.00    -0.301 OA 
HETATM   19  O   UNL     1     -12.917   9.107  72.533  1.00  0.00    -0.407 OA 
ENDBRANCH  15  16
BRANCH  15  20
HETATM   20  C   UNL     1     -10.500   5.781  71.542  1.00  0.00    -0.235 C  
HETATM   21  C   UNL     1      -9.813   4.481  71.961  1.00  0.00    -0.178 C  
HETATM   22  O   UNL     1      -9.330   4.515  73.227  1.00  0.00    -0.117 OA 
HETATM   23  O   UNL     1      -9.747   3.490  71.256  1.00  0.00    -0.166 OA 
ENDBRANCH  15  20
ENDBRANCH  14  15
ENDBRANCH   2  14
TORSDOF 8
ENDMDL
MODEL      379
REMARK 921   NORMALIZED FREE ENERGY PREDICTED BY IDOCK:   -2.03 KCAL/MOL
REMARK 922        TOTAL FREE ENERGY PREDICTED BY IDOCK:   -4.31 KCAL/MOL
REMARK 923 INTER-LIGAND FREE ENERGY PREDICTED BY IDOCK:   -5.27 KCAL/MOL
REMARK 924 INTRA-LIGAND FREE ENERGY PREDICTED BY IDOCK:    0.96 KCAL/MOL
REMARK 927      BINDING AFFINITY PREDICTED BY RF-SCORE:    0.00 PKD
ROOT
HETATM    1  O   UNL     1     -10.401  10.491  62.618  1.00  0.00    -0.715 OA 
HETATM    2  C   UNL     1     -10.008  10.765  63.967  1.00  0.00    -0.342 C  
HETATM    3  H   UNL     1     -11.339  10.346  62.584  1.00  0.00     0.000 HD 
ENDROOT
BRANCH   2   4
HETATM    4  C   UNL     1     -10.802  12.003  64.456  1.00  0.00    -0.314 C  
BRANCH   4   5
HETATM    5  N   UNL     1     -11.120  12.059  65.931  1.00  0.00    -0.313 NA 
BRANCH   5   6
HETATM    6  C   UNL     1     -10.386  13.241  66.518  1.00  0.00    -0.285 C  
HETATM    7  O   UNL     1     -12.552  14.292  66.578  1.00  0.00    -0.360 OA 
HETATM    8  C   UNL     1     -11.221  14.519  66.486  1.00  0.00    -0.344 C  
HETATM    9  O   UNL     1     -10.744  15.640  66.412  1.00  0.00    -0.306 OA 
ENDBRANCH   5   6
BRANCH   5  10
HETATM   10  C   UNL     1     -10.582  10.814  66.585  1.00  0.00    -0.232 C  
HETATM   11  O   UNL     1     -12.213  11.248  68.293  1.00  0.00    -0.611 OA 
HETATM   12  O   UNL     1     -10.351  10.108  68.904  1.00  0.00    -0.185 OA 
HETATM   13  C   UNL     1     -11.004  10.691  68.050  1.00  0.00    -0.282 C  
ENDBRANCH   5  10
ENDBRANCH   4   5
ENDBRANCH   2   4
BRANCH   2  14
HETATM   14  C   UNL     1      -8.467  11.004  64.023  1.00  0.00     0.222 C  
BRANCH  14  15
HETATM   15  N   UNL     1      -7.572   9.896  63.534  1.00  0.00    -0.139 NA 
BRANCH  15  16
HETATM   16  C   UNL     1      -6.151  10.245  63.911  1.00  0.00    -0.125 C  
HETATM   17  C   UNL     1      -6.012  10.675  65.368  1.00  0.00    -0.105 C  
HETATM   18  O   UNL     1      -6.929  10.085  66.177  1.00  0.00    -0.096 OA 
HETATM   19  O   UNL     1      -5.137  11.416  65.784  1.00  0.00    -0.294 OA 
ENDBRANCH  15  16
BRANCH  15  20
HETATM   20  C   UNL     1      -7.924   8.633  64.303  1.00  0.00    -0.148 C  
HETATM   21  C   UNL     1      -7.552   7.348  63.563  1.00  0.00    -0.121 C  
HETATM   22  O   UNL     1      -6.491   7.497  62.733  1.00  0.00    -0.064 OA 
HETATM   23  O   UNL     1      -8.112   6.279  63.734  1.00  0.00    -0.114 OA 
ENDBRANCH  15  20
ENDBRANCH  14  15
ENDBRANCH   2  14
TORSDOF 8
ENDMDL
MODEL      380
REMARK 921   NORMALIZED FREE ENERGY PREDICTED BY IDOCK:   -2.02 KCAL/MOL
REMARK 922        TOTAL FREE ENERGY PREDICTED BY IDOCK:   -4.29 KCAL/MOL
REMARK 923 INTER-LIGAND FREE ENERGY PREDICTED BY IDOCK:   -3.41 KCAL/MOL
REMARK 924 INTRA-LIGAND FREE ENERGY PREDICTED BY IDOCK:   -0.89 KCAL/MOL
REMARK 927      BINDING AFFINITY PREDICTED BY RF-SCORE:    0.00 PKD
ROOT
HETATM    1  O   UNL     1      -8.194  10.590  66.772  1.00  0.00    -0.121 OA 
HETATM    2  C   UNL     1      -7.388  10.706  67.950  1.00  0.00    -0.089 C  
HETATM    3  H   UNL     1      -8.731   9.808  66.831  1.00  0.00     0.000 HD 
ENDROOT
BRANCH   2   4
HETATM    4  C   UNL     1      -8.334  10.747  69.177  1.00  0.00    -0.105 C  
BRANCH   4   5
HETATM    5  N   UNL     1      -8.466   9.468  69.968  1.00  0.00    -0.177 NA 
BRANCH   5   6
HETATM    6  C   UNL     1      -8.551   8.324  68.986  1.00  0.00    -0.135 C  
HETATM    7  O   UNL     1      -6.689   7.409  70.209  1.00  0.00    -0.046 OA 
HETATM    8  C   UNL     1      -7.301   7.448  69.002  1.00  0.00    -0.091 C  
HETATM    9  O   UNL     1      -6.899   6.822  68.034  1.00  0.00    -0.071 OA 
ENDBRANCH   5   6
BRANCH   5  10
HETATM   10  C   UNL     1      -9.760   9.512  70.737  1.00  0.00    -0.219 C  
HETATM   11  O   UNL     1      -8.435   8.812  72.614  1.00  0.00    -0.413 OA 
HETATM   12  O   UNL     1     -10.629   8.241  72.623  1.00  0.00    -0.332 OA 
HETATM   13  C   UNL     1      -9.674   8.771  72.072  1.00  0.00    -0.300 C  
ENDBRANCH   5  10
ENDBRANCH   4   5
ENDBRANCH   2   4
BRANCH   2  14
HETATM   14  C   UNL     1      -6.506  11.989  67.853  1.00  0.00    -0.072 C  
BRANCH  14  15
HETATM   15  N   UNL     1      -7.099  13.282  68.349  1.00  0.00    -0.098 NA 
BRANCH  15  16
HETATM   16  C   UNL     1      -5.965  14.253  68.588  1.00  0.00    -0.085 C  
HETATM   17  C   UNL     1      -5.941  14.798  70.012  1.00  0.00    -0.140 C  
HETATM   18  O   UNL     1      -6.441  13.918  70.918  1.00  0.00     0.014 OA 
HETATM   19  O   UNL     1      -5.469  15.878  70.326  1.00  0.00    -0.148 OA 
ENDBRANCH  15  16
BRANCH  15  20
HETATM   20  C   UNL     1      -7.941  13.872  67.230  1.00  0.00    -0.129 C  
HETATM   21  C   UNL     1      -9.411  14.056  67.609  1.00  0.00    -0.203 C  
HETATM   22  O   UNL     1      -9.598  14.268  68.934  1.00  0.00    -0.179 OA 
HETATM   23  O   UNL     1     -10.324  14.066  66.803  1.00  0.00    -0.266 OA 
ENDBRANCH  15  20
ENDBRANCH  14  15
ENDBRANCH   2  14
TORSDOF 8
ENDMDL
MODEL      381
REMARK 921   NORMALIZED FREE ENERGY PREDICTED BY IDOCK:   -2.00 KCAL/MOL
REMARK 922        TOTAL FREE ENERGY PREDICTED BY IDOCK:   -4.27 KCAL/MOL
REMARK 923 INTER-LIGAND FREE ENERGY PREDICTED BY IDOCK:   -4.42 KCAL/MOL
REMARK 924 INTRA-LIGAND FREE ENERGY PREDICTED BY IDOCK:    0.15 KCAL/MOL
REMARK 927      BINDING AFFINITY PREDICTED BY RF-SCORE:    0.00 PKD
ROOT
HETATM    1  O   UNL     1     -11.556   9.275  68.888  1.00  0.00    -0.226 OA 
HETATM    2  C   UNL     1     -10.558   8.311  68.535  1.00  0.00    -0.100 C  
HETATM    3  H   UNL     1     -12.255   8.847  69.369  1.00  0.00     0.000 HD 
ENDROOT
BRANCH   2   4
HETATM    4  C   UNL     1     -10.043   7.653  69.840  1.00  0.00    -0.198 C  
BRANCH   4   5
HETATM    5  N   UNL     1      -9.236   6.387  69.682  1.00  0.00    -0.142 NA 
BRANCH   5   6
HETATM    6  C   UNL     1     -10.110   5.364  68.995  1.00  0.00    -0.213 C  
HETATM    7  O   UNL     1      -8.193   4.975  67.590  1.00  0.00    -0.105 OA 
HETATM    8  C   UNL     1      -9.545   4.927  67.646  1.00  0.00    -0.151 C  
HETATM    9  O   UNL     1     -10.234   4.546  66.713  1.00  0.00    -0.219 OA 
ENDBRANCH   5   6
BRANCH   5  10
HETATM   10  C   UNL     1      -8.901   5.859  71.052  1.00  0.00    -0.139 C  
HETATM   11  O   UNL     1     -11.276   5.850  71.410  1.00  0.00    -0.274 OA 
HETATM   12  O   UNL     1      -9.953   6.087  73.236  1.00  0.00    -0.170 OA 
HETATM   13  C   UNL     1     -10.076   5.965  72.025  1.00  0.00    -0.189 C  
ENDBRANCH   5  10
ENDBRANCH   4   5
ENDBRANCH   2   4
BRANCH   2  14
HETATM   14  C   UNL     1      -9.411   9.013  67.746  1.00  0.00    -0.141 C  
BRANCH  14  15
HETATM   15  N   UNL     1      -9.742  10.297  67.029  1.00  0.00    -0.170 NA 
BRANCH  15  16
HETATM   16  C   UNL     1      -9.209  11.443  67.858  1.00  0.00    -0.164 C  
HETATM   17  C   UNL     1     -10.235  12.554  68.063  1.00  0.00    -0.225 C  
HETATM   18  O   UNL     1     -11.512  12.092  68.069  1.00  0.00    -0.274 OA 
HETATM   19  O   UNL     1      -9.949  13.722  68.265  1.00  0.00    -0.231 OA 
ENDBRANCH  15  16
BRANCH  15  20
HETATM   20  C   UNL     1      -8.968  10.317  65.720  1.00  0.00    -0.161 C  
HETATM   21  C   UNL     1      -9.842  10.628  64.505  1.00  0.00    -0.327 C  
HETATM   22  O   UNL     1     -10.913  11.402  64.801  1.00  0.00    -0.296 OA 
HETATM   23  O   UNL     1      -9.581  10.266  63.371  1.00  0.00    -0.301 OA 
ENDBRANCH  15  20
ENDBRANCH  14  15
ENDBRANCH   2  14
TORSDOF 8
ENDMDL
MODEL      382
REMARK 921   NORMALIZED FREE ENERGY PREDICTED BY IDOCK:   -1.99 KCAL/MOL
REMARK 922        TOTAL FREE ENERGY PREDICTED BY IDOCK:   -4.26 KCAL/MOL
REMARK 923 INTER-LIGAND FREE ENERGY PREDICTED BY IDOCK:   -2.88 KCAL/MOL
REMARK 924 INTRA-LIGAND FREE ENERGY PREDICTED BY IDOCK:   -1.37 KCAL/MOL
REMARK 927      BINDING AFFINITY PREDICTED BY RF-SCORE:    0.00 PKD
ROOT
HETATM    1  O   UNL     1      -6.945   8.031  66.625  1.00  0.00    -0.069 OA 
HETATM    2  C   UNL     1      -7.951   7.161  67.158  1.00  0.00    -0.110 C  
HETATM    3  H   UNL     1      -6.413   7.556  65.998  1.00  0.00     0.000 HD 
ENDROOT
BRANCH   2   4
HETATM    4  C   UNL     1      -8.795   6.623  65.975  1.00  0.00    -0.139 C  
BRANCH   4   5
HETATM    5  N   UNL     1      -8.326   5.333  65.346  1.00  0.00    -0.130 NA 
BRANCH   5   6
HETATM    6  C   UNL     1      -8.000   5.616  63.899  1.00  0.00    -0.120 C  
HETATM    7  O   UNL     1      -5.728   5.831  64.670  1.00  0.00    -0.022 OA 
HETATM    8  C   UNL     1      -6.612   6.228  63.724  1.00  0.00    -0.030 C  
HETATM    9  O   UNL     1      -6.312   6.980  62.810  1.00  0.00    -0.046 OA 
ENDBRANCH   5   6
BRANCH   5  10
HETATM   10  C   UNL     1      -9.462   4.345  65.376  1.00  0.00    -0.175 C  
HETATM   11  O   UNL     1      -7.819   2.784  66.169  1.00  0.00    -0.079 OA 
HETATM   12  O   UNL     1      -9.594   1.937  65.042  1.00  0.00    -0.044 OA 
HETATM   13  C   UNL     1      -8.979   2.898  65.482  1.00  0.00    -0.145 C  
ENDBRANCH   5  10
ENDBRANCH   4   5
ENDBRANCH   2   4
BRANCH   2  14
HETATM   14  C   UNL     1      -8.824   7.942  68.187  1.00  0.00    -0.125 C  
BRANCH  14  15
HETATM   15  N   UNL     1      -8.703   9.444  68.207  1.00  0.00    -0.124 NA 
BRANCH  15  16
HETATM   16  C   UNL     1     -10.026  10.023  67.760  1.00  0.00    -0.170 C  
HETATM   17  C   UNL     1      -9.943  10.716  66.404  1.00  0.00    -0.222 C  
HETATM   18  O   UNL     1      -8.998  10.170  65.595  1.00  0.00    -0.157 OA 
HETATM   19  O   UNL     1     -10.682  11.619  66.048  1.00  0.00    -0.264 OA 
ENDBRANCH  15  16
BRANCH  15  20
HETATM   20  C   UNL     1      -8.507   9.880  69.650  1.00  0.00    -0.187 C  
HETATM   21  C   UNL     1      -7.133  10.494  69.917  1.00  0.00    -0.145 C  
HETATM   22  O   UNL     1      -6.597  11.099  68.829  1.00  0.00    -0.052 OA 
HETATM   23  O   UNL     1      -6.588  10.491  71.006  1.00  0.00    -0.326 OA 
ENDBRANCH  15  20
ENDBRANCH  14  15
ENDBRANCH   2  14
TORSDOF 8
ENDMDL
MODEL      383
REMARK 921   NORMALIZED FREE ENERGY PREDICTED BY IDOCK:   -1.99 KCAL/MOL
REMARK 922        TOTAL FREE ENERGY PREDICTED BY IDOCK:   -4.25 KCAL/MOL
REMARK 923 INTER-LIGAND FREE ENERGY PREDICTED BY IDOCK:   -2.82 KCAL/MOL
REMARK 924 INTRA-LIGAND FREE ENERGY PREDICTED BY IDOCK:   -1.43 KCAL/MOL
REMARK 927      BINDING AFFINITY PREDICTED BY RF-SCORE:    0.00 PKD
ROOT
HETATM    1  O   UNL     1      -8.887   8.961  67.138  1.00  0.00    -0.122 OA 
HETATM    2  C   UNL     1      -8.364   8.494  68.387  1.00  0.00    -0.124 C  
HETATM    3  H   UNL     1      -8.173   9.264  66.589  1.00  0.00     0.000 HD 
ENDROOT
BRANCH   2   4
HETATM    4  C   UNL     1      -7.344   7.366  68.089  1.00  0.00    -0.100 C  
BRANCH   4   5
HETATM    5  N   UNL     1      -7.915   5.988  67.853  1.00  0.00    -0.105 NA 
BRANCH   5   6
HETATM    6  C   UNL     1      -7.218   5.032  68.791  1.00  0.00    -0.058 C  
HETATM    7  O   UNL     1      -9.442   4.311  69.373  1.00  0.00    -0.154 OA 
HETATM    8  C   UNL     1      -8.170   4.431  69.823  1.00  0.00    -0.062 C  
HETATM    9  O   UNL     1      -7.824   4.069  70.936  1.00  0.00    -0.054 OA 
ENDBRANCH   5   6
BRANCH   5  10
HETATM   10  C   UNL     1      -7.587   5.570  66.444  1.00  0.00    -0.091 C  
HETATM   11  O   UNL     1      -9.821   4.687  66.400  1.00  0.00    -0.181 OA 
HETATM   12  O   UNL     1      -8.292   3.704  65.046  1.00  0.00    -0.096 OA 
HETATM   13  C   UNL     1      -8.575   4.540  65.893  1.00  0.00    -0.115 C  
ENDBRANCH   5  10
ENDBRANCH   4   5
ENDBRANCH   2   4
BRANCH   2  14
HETATM   14  C   UNL     1      -9.535   7.996  69.289  1.00  0.00    -0.155 C  
BRANCH  14  15
HETATM   15  N   UNL     1      -9.259   7.831  70.761  1.00  0.00    -0.156 NA 
BRANCH  15  16
HETATM   16  C   UNL     1      -8.450   9.022  71.220  1.00  0.00    -0.133 C  
HETATM   17  C   UNL     1      -7.208   8.627  72.011  1.00  0.00    -0.043 C  
HETATM   18  O   UNL     1      -6.707   7.423  71.631  1.00  0.00    -0.049 OA 
HETATM   19  O   UNL     1      -6.674   9.334  72.850  1.00  0.00    -0.256 OA 
ENDBRANCH  15  16
BRANCH  15  20
HETATM   20  C   UNL     1     -10.586   7.902  71.499  1.00  0.00    -0.222 C  
HETATM   21  C   UNL     1     -10.851   6.687  72.389  1.00  0.00    -0.235 C  
HETATM   22  O   UNL     1      -9.718   6.110  72.857  1.00  0.00    -0.158 OA 
HETATM   23  O   UNL     1     -11.965   6.301  72.697  1.00  0.00    -0.152 OA 
ENDBRANCH  15  20
ENDBRANCH  14  15
ENDBRANCH   2  14
TORSDOF 8
ENDMDL
MODEL      384
REMARK 921   NORMALIZED FREE ENERGY PREDICTED BY IDOCK:   -1.98 KCAL/MOL
REMARK 922        TOTAL FREE ENERGY PREDICTED BY IDOCK:   -4.23 KCAL/MOL
REMARK 923 INTER-LIGAND FREE ENERGY PREDICTED BY IDOCK:   -3.21 KCAL/MOL
REMARK 924 INTRA-LIGAND FREE ENERGY PREDICTED BY IDOCK:   -1.02 KCAL/MOL
REMARK 927      BINDING AFFINITY PREDICTED BY RF-SCORE:    0.00 PKD
ROOT
HETATM    1  O   UNL     1     -10.952   9.222  68.329  1.00  0.00    -0.451 OA 
HETATM    2  C   UNL     1      -9.919   9.460  69.292  1.00  0.00    -0.181 C  
HETATM    3  H   UNL     1     -11.205  10.044  67.926  1.00  0.00     0.000 HD 
ENDROOT
BRANCH   2   4
HETATM    4  C   UNL     1      -8.730  10.136  68.564  1.00  0.00    -0.123 C  
BRANCH   4   5
HETATM    5  N   UNL     1      -8.645   9.923  67.072  1.00  0.00    -0.128 NA 
BRANCH   5   6
HETATM    6  C   UNL     1      -7.355   9.194  66.781  1.00  0.00    -0.086 C  
HETATM    7  O   UNL     1      -8.396   8.617  64.687  1.00  0.00    -0.159 OA 
HETATM    8  C   UNL     1      -7.486   8.224  65.609  1.00  0.00    -0.081 C  
HETATM    9  O   UNL     1      -6.822   7.206  65.493  1.00  0.00    -0.050 OA 
ENDBRANCH   5   6
BRANCH   5  10
HETATM   10  C   UNL     1      -8.575  11.268  66.399  1.00  0.00    -0.174 C  
HETATM   11  O   UNL     1     -10.958  11.317  66.695  1.00  0.00    -0.287 OA 
HETATM   12  O   UNL     1     -10.105  12.502  64.961  1.00  0.00    -0.279 OA 
HETATM   13  C   UNL     1      -9.942  11.755  65.916  1.00  0.00    -0.236 C  
ENDBRANCH   5  10
ENDBRANCH   4   5
ENDBRANCH   2   4
BRANCH   2  14
HETATM   14  C   UNL     1      -9.503   8.111  69.956  1.00  0.00    -0.167 C  
BRANCH  14  15
HETATM   15  N   UNL     1      -8.058   7.943  70.348  1.00  0.00    -0.111 NA 
BRANCH  15  16
HETATM   16  C   UNL     1      -7.967   8.062  71.852  1.00  0.00    -0.115 C  
HETATM   17  C   UNL     1      -6.794   8.924  72.308  1.00  0.00     0.100 C  
HETATM   18  O   UNL     1      -6.477   9.893  71.412  1.00  0.00    -0.316 OA 
HETATM   19  O   UNL     1      -6.237   8.808  73.387  1.00  0.00    -0.189 OA 
ENDBRANCH  15  16
BRANCH  15  20
HETATM   20  C   UNL     1      -7.640   6.523  70.003  1.00  0.00    -0.100 C  
HETATM   21  C   UNL     1      -6.340   6.451  69.202  1.00  0.00    -0.035 C  
HETATM   22  O   UNL     1      -5.499   7.482  69.455  1.00  0.00    -0.022 OA 
HETATM   23  O   UNL     1      -6.056   5.536  68.449  1.00  0.00    -0.020 OA 
ENDBRANCH  15  20
ENDBRANCH  14  15
ENDBRANCH   2  14
TORSDOF 8
ENDMDL
MODEL      385
REMARK 921   NORMALIZED FREE ENERGY PREDICTED BY IDOCK:   -1.98 KCAL/MOL
REMARK 922        TOTAL FREE ENERGY PREDICTED BY IDOCK:   -4.23 KCAL/MOL
REMARK 923 INTER-LIGAND FREE ENERGY PREDICTED BY IDOCK:   -5.08 KCAL/MOL
REMARK 924 INTRA-LIGAND FREE ENERGY PREDICTED BY IDOCK:    0.85 KCAL/MOL
REMARK 927      BINDING AFFINITY PREDICTED BY RF-SCORE:    0.00 PKD
ROOT
HETATM    1  O   UNL     1      -9.237  14.508  67.069  1.00  0.00    -0.218 OA 
HETATM    2  C   UNL     1     -10.596  14.109  66.861  1.00  0.00    -0.280 C  
HETATM    3  H   UNL     1      -9.215  15.381  67.442  1.00  0.00     0.000 HD 
ENDROOT
BRANCH   2   4
HETATM    4  C   UNL     1     -11.329  14.173  68.225  1.00  0.00    -0.291 C  
BRANCH   4   5
HETATM    5  N   UNL     1     -11.132  15.429  69.038  1.00  0.00    -0.251 NA 
BRANCH   5   6
HETATM    6  C   UNL     1     -12.348  15.609  69.915  1.00  0.00    -0.234 C  
HETATM    7  O   UNL     1     -10.812  15.315  71.747  1.00  0.00    -0.182 OA 
HETATM    8  C   UNL     1     -12.098  15.163  71.354  1.00  0.00    -0.338 C  
HETATM    9  O   UNL     1     -12.971  14.735  72.093  1.00  0.00    -0.307 OA 
ENDBRANCH   5   6
BRANCH   5  10
HETATM   10  C   UNL     1     -11.066  16.603  68.097  1.00  0.00    -0.285 C  
HETATM   11  O   UNL     1      -8.900  16.996  69.057  1.00  0.00    -0.232 OA 
HETATM   12  O   UNL     1     -10.005  18.791  68.223  1.00  0.00    -0.345 OA 
HETATM   13  C   UNL     1      -9.963  17.594  68.471  1.00  0.00    -0.368 C  
ENDBRANCH   5  10
ENDBRANCH   4   5
ENDBRANCH   2   4
BRANCH   2  14
HETATM   14  C   UNL     1     -10.631  12.675  66.249  1.00  0.00    -0.252 C  
BRANCH  14  15
HETATM   15  N   UNL     1      -9.318  12.057  65.846  1.00  0.00    -0.200 NA 
BRANCH  15  16
HETATM   16  C   UNL     1      -9.037  10.907  66.786  1.00  0.00    -0.152 C  
HETATM   17  C   UNL     1      -7.731  11.075  67.556  1.00  0.00    -0.114 C  
HETATM   18  O   UNL     1      -7.417  12.378  67.775  1.00  0.00    -0.104 OA 
HETATM   19  O   UNL     1      -7.066  10.148  67.990  1.00  0.00    -0.082 OA 
ENDBRANCH  15  16
BRANCH  15  20
HETATM   20  C   UNL     1      -9.489  11.450  64.463  1.00  0.00    -0.138 C  
HETATM   21  C   UNL     1      -9.469   9.921  64.465  1.00  0.00    -0.264 C  
HETATM   22  O   UNL     1      -9.917   9.382  65.624  1.00  0.00    -0.304 OA 
HETATM   23  O   UNL     1      -9.137   9.245  63.507  1.00  0.00    -0.140 OA 
ENDBRANCH  15  20
ENDBRANCH  14  15
ENDBRANCH   2  14
TORSDOF 8
ENDMDL
MODEL      386
REMARK 921   NORMALIZED FREE ENERGY PREDICTED BY IDOCK:   -1.97 KCAL/MOL
REMARK 922        TOTAL FREE ENERGY PREDICTED BY IDOCK:   -4.23 KCAL/MOL
REMARK 923 INTER-LIGAND FREE ENERGY PREDICTED BY IDOCK:   -3.05 KCAL/MOL
REMARK 924 INTRA-LIGAND FREE ENERGY PREDICTED BY IDOCK:   -1.18 KCAL/MOL
REMARK 927      BINDING AFFINITY PREDICTED BY RF-SCORE:    0.00 PKD
ROOT
HETATM    1  O   UNL     1      -5.854   5.754  69.218  1.00  0.00    -0.014 OA 
HETATM    2  C   UNL     1      -7.084   6.487  69.242  1.00  0.00    -0.084 C  
HETATM    3  H   UNL     1      -5.737   5.358  68.363  1.00  0.00     0.000 HD 
ENDROOT
BRANCH   2   4
HETATM    4  C   UNL     1      -7.031   7.550  68.116  1.00  0.00    -0.072 C  
BRANCH   4   5
HETATM    5  N   UNL     1      -7.765   7.217  66.839  1.00  0.00    -0.104 NA 
BRANCH   5   6
HETATM    6  C   UNL     1      -8.754   8.326  66.572  1.00  0.00    -0.141 C  
HETATM    7  O   UNL     1      -7.423   8.759  64.612  1.00  0.00    -0.098 OA 
HETATM    8  C   UNL     1      -8.249   9.318  65.527  1.00  0.00    -0.124 C  
HETATM    9  O   UNL     1      -8.572  10.495  65.497  1.00  0.00    -0.169 OA 
ENDBRANCH   5   6
BRANCH   5  10
HETATM   10  C   UNL     1      -8.544   5.946  67.053  1.00  0.00    -0.110 C  
HETATM   11  O   UNL     1      -7.025   4.983  65.462  1.00  0.00    -0.060 OA 
HETATM   12  O   UNL     1      -9.087   4.055  65.618  1.00  0.00    -0.129 OA 
HETATM   13  C   UNL     1      -8.278   4.905  65.965  1.00  0.00    -0.112 C  
ENDBRANCH   5  10
ENDBRANCH   4   5
ENDBRANCH   2   4
BRANCH   2  14
HETATM   14  C   UNL     1      -7.276   7.138  70.646  1.00  0.00    -0.067 C  
BRANCH  14  15
HETATM   15  N   UNL     1      -8.683   7.262  71.170  1.00  0.00    -0.134 NA 
BRANCH  15  16
HETATM   16  C   UNL     1      -8.642   7.061  72.668  1.00  0.00    -0.119 C  
HETATM   17  C   UNL     1      -9.860   6.313  73.200  1.00  0.00    -0.167 C  
HETATM   18  O   UNL     1     -10.378   5.444  72.293  1.00  0.00    -0.195 OA 
HETATM   19  O   UNL     1     -10.293   6.426  74.335  1.00  0.00    -0.332 OA 
ENDBRANCH  15  16
BRANCH  15  20
HETATM   20  C   UNL     1      -9.145   8.692  70.941  1.00  0.00    -0.187 C  
HETATM   21  C   UNL     1     -10.282   8.807  69.925  1.00  0.00    -0.200 C  
HETATM   22  O   UNL     1     -11.070   7.705  69.878  1.00  0.00    -0.237 OA 
HETATM   23  O   UNL     1     -10.499   9.803  69.258  1.00  0.00    -0.198 OA 
ENDBRANCH  15  20
ENDBRANCH  14  15
ENDBRANCH   2  14
TORSDOF 8
ENDMDL
MODEL      387
REMARK 921   NORMALIZED FREE ENERGY PREDICTED BY IDOCK:   -1.87 KCAL/MOL
REMARK 922        TOTAL FREE ENERGY PREDICTED BY IDOCK:   -4.08 KCAL/MOL
REMARK 923 INTER-LIGAND FREE ENERGY PREDICTED BY IDOCK:   -6.40 KCAL/MOL
REMARK 924 INTRA-LIGAND FREE ENERGY PREDICTED BY IDOCK:    2.32 KCAL/MOL
REMARK 927      BINDING AFFINITY PREDICTED BY RF-SCORE:    0.00 PKD
ROOT
HETATM    1  O   UNL     1     -12.283  10.980  68.275  1.00  0.00    -0.769 OA 
HETATM    2  C   UNL     1     -11.105  10.343  67.767  1.00  0.00    -0.299 C  
HETATM    3  H   UNL     1     -12.530  10.579  69.101  1.00  0.00     0.000 HD 
ENDROOT
BRANCH   2   4
HETATM    4  C   UNL     1      -9.988  10.480  68.833  1.00  0.00    -0.204 C  
BRANCH   4   5
HETATM    5  N   UNL     1      -9.293   9.205  69.248  1.00  0.00    -0.154 NA 
BRANCH   5   6
HETATM    6  C   UNL     1      -8.557   9.479  70.537  1.00  0.00    -0.184 C  
HETATM    7  O   UNL     1      -9.083   7.192  71.080  1.00  0.00    -0.151 OA 
HETATM    8  C   UNL     1      -8.828   8.417  71.600  1.00  0.00    -0.186 C  
HETATM    9  O   UNL     1      -8.794   8.633  72.801  1.00  0.00    -0.374 OA 
ENDBRANCH   5   6
BRANCH   5  10
HETATM   10  C   UNL     1      -8.271   8.854  68.200  1.00  0.00    -0.114 C  
HETATM   11  O   UNL     1      -7.275  10.970  68.749  1.00  0.00    -0.076 OA 
HETATM   12  O   UNL     1      -6.939  10.180  66.651  1.00  0.00    -0.087 OA 
HETATM   13  C   UNL     1      -7.443  10.063  67.759  1.00  0.00    -0.089 C  
ENDBRANCH   5  10
ENDBRANCH   4   5
ENDBRANCH   2   4
BRANCH   2  14
HETATM   14  C   UNL     1     -10.700  11.000  66.412  1.00  0.00    -0.227 C  
BRANCH  14  15
HETATM   15  N   UNL     1     -11.020  12.460  66.222  1.00  0.00    -0.275 NA 
BRANCH  15  16
HETATM   16  C   UNL     1     -12.224  12.557  65.313  1.00  0.00    -0.433 C  
HETATM   17  C   UNL     1     -11.868  13.024  63.906  1.00  0.00    -0.477 C  
HETATM   18  O   UNL     1     -10.616  12.653  63.532  1.00  0.00    -0.403 OA 
HETATM   19  O   UNL     1     -12.638  13.610  63.162  1.00  0.00    -0.792 OA 
ENDBRANCH  15  16
BRANCH  15  20
HETATM   20  C   UNL     1     -11.449  13.026  67.567  1.00  0.00    -0.328 C  
HETATM   21  C   UNL     1     -10.897  14.425  67.839  1.00  0.00    -0.251 C  
HETATM   22  O   UNL     1     -10.685  15.145  66.711  1.00  0.00    -0.300 OA 
HETATM   23  O   UNL     1     -10.714  14.877  68.955  1.00  0.00    -0.231 OA 
ENDBRANCH  15  20
ENDBRANCH  14  15
ENDBRANCH   2  14
TORSDOF 8
ENDMDL
MODEL      388
REMARK 921   NORMALIZED FREE ENERGY PREDICTED BY IDOCK:   -1.84 KCAL/MOL
REMARK 922        TOTAL FREE ENERGY PREDICTED BY IDOCK:   -4.04 KCAL/MOL
REMARK 923 INTER-LIGAND FREE ENERGY PREDICTED BY IDOCK:   -4.43 KCAL/MOL
REMARK 924 INTRA-LIGAND FREE ENERGY PREDICTED BY IDOCK:    0.40 KCAL/MOL
REMARK 927      BINDING AFFINITY PREDICTED BY RF-SCORE:    0.00 PKD
ROOT
HETATM    1  O   UNL     1     -10.984   9.107  67.975  1.00  0.00    -0.476 OA 
HETATM    2  C   UNL     1     -10.190   8.428  68.954  1.00  0.00    -0.210 C  
HETATM    3  H   UNL     1     -10.520   9.877  67.668  1.00  0.00     0.000 HD 
ENDROOT
BRANCH   2   4
HETATM    4  C   UNL     1      -8.833   8.061  68.300  1.00  0.00    -0.133 C  
BRANCH   4   5
HETATM    5  N   UNL     1      -8.560   6.591  68.096  1.00  0.00    -0.119 NA 
BRANCH   5   6
HETATM    6  C   UNL     1      -7.273   6.256  68.812  1.00  0.00    -0.084 C  
HETATM    7  O   UNL     1      -8.603   4.650  70.017  1.00  0.00    -0.076 OA 
HETATM    8  C   UNL     1      -7.507   5.443  70.083  1.00  0.00    -0.069 C  
HETATM    9  O   UNL     1      -6.771   5.477  71.056  1.00  0.00    -0.042 OA 
ENDBRANCH   5   6
BRANCH   5  10
HETATM   10  C   UNL     1      -8.346   6.342  66.627  1.00  0.00    -0.113 C  
HETATM   11  O   UNL     1     -10.163   4.784  66.831  1.00  0.00    -0.216 OA 
HETATM   12  O   UNL     1      -8.638   4.390  65.200  1.00  0.00    -0.119 OA 
HETATM   13  C   UNL     1      -9.032   5.064  66.142  1.00  0.00    -0.131 C  
ENDBRANCH   5  10
ENDBRANCH   4   5
ENDBRANCH   2   4
BRANCH   2  14
HETATM   14  C   UNL     1     -10.952   7.164  69.459  1.00  0.00    -0.191 C  
BRANCH  14  15
HETATM   15  N   UNL     1     -11.167   7.027  70.943  1.00  0.00    -0.268 NA 
BRANCH  15  16
HETATM   16  C   UNL     1     -10.307   8.058  71.636  1.00  0.00    -0.214 C  
HETATM   17  C   UNL     1      -9.609   7.512  72.877  1.00  0.00    -0.195 C  
HETATM   18  O   UNL     1      -9.341   6.184  72.785  1.00  0.00    -0.149 OA 
HETATM   19  O   UNL     1      -9.264   8.195  73.827  1.00  0.00    -0.222 OA 
ENDBRANCH  15  16
BRANCH  15  20
HETATM   20  C   UNL     1     -12.611   7.398  71.245  1.00  0.00    -0.340 C  
HETATM   21  C   UNL     1     -12.802   8.881  71.562  1.00  0.00    -0.334 C  
HETATM   22  O   UNL     1     -11.892   9.680  70.954  1.00  0.00    -0.287 OA 
HETATM   23  O   UNL     1     -13.709   9.317  72.249  1.00  0.00    -0.447 OA 
ENDBRANCH  15  20
ENDBRANCH  14  15
ENDBRANCH   2  14
TORSDOF 8
ENDMDL
MODEL      389
REMARK 921   NORMALIZED FREE ENERGY PREDICTED BY IDOCK:   -1.83 KCAL/MOL
REMARK 922        TOTAL FREE ENERGY PREDICTED BY IDOCK:   -4.02 KCAL/MOL
REMARK 923 INTER-LIGAND FREE ENERGY PREDICTED BY IDOCK:   -6.00 KCAL/MOL
REMARK 924 INTRA-LIGAND FREE ENERGY PREDICTED BY IDOCK:    1.98 KCAL/MOL
REMARK 927      BINDING AFFINITY PREDICTED BY RF-SCORE:    0.00 PKD
ROOT
HETATM    1  O   UNL     1      -9.464  12.200  68.131  1.00  0.00    -0.194 OA 
HETATM    2  C   UNL     1     -10.796  11.676  68.193  1.00  0.00    -0.217 C  
HETATM    3  H   UNL     1      -9.033  12.069  68.967  1.00  0.00     0.000 HD 
ENDROOT
BRANCH   2   4
HETATM    4  C   UNL     1     -10.705  10.175  68.567  1.00  0.00    -0.230 C  
BRANCH   4   5
HETATM    5  N   UNL     1      -9.318   9.582  68.640  1.00  0.00    -0.141 NA 
BRANCH   5   6
HETATM    6  C   UNL     1      -8.925   9.155  67.246  1.00  0.00    -0.123 C  
HETATM    7  O   UNL     1     -10.935   7.829  67.310  1.00  0.00    -0.221 OA 
HETATM    8  C   UNL     1      -9.694   7.923  66.776  1.00  0.00    -0.234 C  
HETATM    9  O   UNL     1      -9.253   7.111  65.978  1.00  0.00    -0.127 OA 
ENDBRANCH   5   6
BRANCH   5  10
HETATM   10  C   UNL     1      -9.369   8.349  69.502  1.00  0.00    -0.158 C  
HETATM   11  O   UNL     1      -7.970   9.590  71.010  1.00  0.00    -0.321 OA 
HETATM   12  O   UNL     1      -7.798   7.330  71.058  1.00  0.00    -0.094 OA 
HETATM   13  C   UNL     1      -8.289   8.345  70.585  1.00  0.00    -0.125 C  
ENDBRANCH   5  10
ENDBRANCH   4   5
ENDBRANCH   2   4
BRANCH   2  14
HETATM   14  C   UNL     1     -11.504  11.891  66.820  1.00  0.00    -0.316 C  
BRANCH  14  15
HETATM   15  N   UNL     1     -10.637  12.210  65.630  1.00  0.00    -0.253 NA 
BRANCH  15  16
HETATM   16  C   UNL     1     -10.963  11.218  64.537  1.00  0.00    -0.231 C  
HETATM   17  C   UNL     1      -9.720  10.671  63.843  1.00  0.00    -0.321 C  
HETATM   18  O   UNL     1      -8.639  10.625  64.665  1.00  0.00    -0.175 OA 
HETATM   19  O   UNL     1      -9.701  10.256  62.696  1.00  0.00    -0.288 OA 
ENDBRANCH  15  16
BRANCH  15  20
HETATM   20  C   UNL     1     -11.045  13.578  65.105  1.00  0.00    -0.316 C  
HETATM   21  C   UNL     1     -12.313  13.546  64.251  1.00  0.00    -0.335 C  
HETATM   22  O   UNL     1     -13.161  12.545  64.589  1.00  0.00    -0.845 OA 
HETATM   23  O   UNL     1     -12.569  14.365  63.386  1.00  0.00    -0.729 OA 
ENDBRANCH  15  20
ENDBRANCH  14  15
ENDBRANCH   2  14
TORSDOF 8
ENDMDL
MODEL      390
REMARK 921   NORMALIZED FREE ENERGY PREDICTED BY IDOCK:   -1.82 KCAL/MOL
REMARK 922        TOTAL FREE ENERGY PREDICTED BY IDOCK:   -4.00 KCAL/MOL
REMARK 923 INTER-LIGAND FREE ENERGY PREDICTED BY IDOCK:   -5.33 KCAL/MOL
REMARK 924 INTRA-LIGAND FREE ENERGY PREDICTED BY IDOCK:    1.33 KCAL/MOL
REMARK 927      BINDING AFFINITY PREDICTED BY RF-SCORE:    0.00 PKD
ROOT
HETATM    1  O   UNL     1     -10.655  16.286  67.745  1.00  0.00    -0.298 OA 
HETATM    2  C   UNL     1     -10.138  15.882  69.018  1.00  0.00    -0.228 C  
HETATM    3  H   UNL     1     -10.636  17.234  67.681  1.00  0.00     0.000 HD 
ENDROOT
BRANCH   2   4
HETATM    4  C   UNL     1      -8.699  16.441  69.151  1.00  0.00    -0.185 C  
BRANCH   4   5
HETATM    5  N   UNL     1      -7.679  15.917  68.169  1.00  0.00    -0.130 NA 
BRANCH   5   6
HETATM    6  C   UNL     1      -8.095  16.365  66.788  1.00  0.00    -0.252 C  
HETATM    7  O   UNL     1      -6.372  18.029  67.034  1.00  0.00    -0.161 OA 
HETATM    8  C   UNL     1      -7.553  17.748  66.436  1.00  0.00    -0.278 C  
HETATM    9  O   UNL     1      -8.109  18.520  65.671  1.00  0.00    -0.445 OA 
ENDBRANCH   5   6
BRANCH   5  10
HETATM   10  C   UNL     1      -7.717  14.413  68.196  1.00  0.00    -0.131 C  
HETATM   11  O   UNL     1      -5.392  14.543  67.607  1.00  0.00    -0.313 OA 
HETATM   12  O   UNL     1      -6.522  12.687  66.962  1.00  0.00    -0.169 OA 
HETATM   13  C   UNL     1      -6.507  13.783  67.505  1.00  0.00    -0.072 C  
ENDBRANCH   5  10
ENDBRANCH   4   5
ENDBRANCH   2   4
BRANCH   2  14
HETATM   14  C   UNL     1     -10.169  14.326  69.123  1.00  0.00    -0.089 C  
BRANCH  14  15
HETATM   15  N   UNL     1     -11.503  13.670  69.365  1.00  0.00    -0.283 NA 
BRANCH  15  16
HETATM   16  C   UNL     1     -12.531  14.761  69.555  1.00  0.00    -0.100 C  
HETATM   17  C   UNL     1     -13.107  14.795  70.967  1.00  0.00    -0.375 C  
HETATM   18  O   UNL     1     -12.224  14.362  71.903  1.00  0.00    -0.320 OA 
HETATM   19  O   UNL     1     -14.215  15.224  71.246  1.00  0.00    -0.482 OA 
ENDBRANCH  15  16
BRANCH  15  20
HETATM   20  C   UNL     1     -11.896  12.923  68.101  1.00  0.00    -0.336 C  
HETATM   21  C   UNL     1     -10.891  11.845  67.696  1.00  0.00    -0.227 C  
HETATM   22  O   UNL     1     -10.221  11.316  68.749  1.00  0.00    -0.198 OA 
HETATM   23  O   UNL     1     -10.738  11.454  66.552  1.00  0.00    -0.256 OA 
ENDBRANCH  15  20
ENDBRANCH  14  15
ENDBRANCH   2  14
TORSDOF 8
ENDMDL
MODEL      391
REMARK 921   NORMALIZED FREE ENERGY PREDICTED BY IDOCK:   -1.80 KCAL/MOL
REMARK 922        TOTAL FREE ENERGY PREDICTED BY IDOCK:   -3.98 KCAL/MOL
REMARK 923 INTER-LIGAND FREE ENERGY PREDICTED BY IDOCK:   -4.66 KCAL/MOL
REMARK 924 INTRA-LIGAND FREE ENERGY PREDICTED BY IDOCK:    0.68 KCAL/MOL
REMARK 927      BINDING AFFINITY PREDICTED BY RF-SCORE:    0.00 PKD
ROOT
HETATM    1  O   UNL     1     -10.194  13.977  64.155  1.00  0.00    -0.619 OA 
HETATM    2  C   UNL     1     -10.136  13.216  65.366  1.00  0.00    -0.248 C  
HETATM    3  H   UNL     1     -10.909  14.601  64.206  1.00  0.00     0.000 HD 
ENDROOT
BRANCH   2   4
HETATM    4  C   UNL     1      -9.956  14.204  66.547  1.00  0.00    -0.283 C  
BRANCH   4   5
HETATM    5  N   UNL     1     -11.063  15.208  66.758  1.00  0.00    -0.323 NA 
BRANCH   5   6
HETATM    6  C   UNL     1     -10.519  16.320  67.623  1.00  0.00    -0.295 C  
HETATM    7  O   UNL     1     -10.898  17.719  65.700  1.00  0.00    -0.386 OA 
HETATM    8  C   UNL     1     -10.143  17.558  66.812  1.00  0.00    -0.320 C  
HETATM    9  O   UNL     1      -9.268  18.343  67.140  1.00  0.00    -0.257 OA 
ENDBRANCH   5   6
BRANCH   5  10
HETATM   10  C   UNL     1     -12.178  14.539  67.517  1.00  0.00    -0.121 C  
HETATM   11  O   UNL     1     -10.527  14.170  69.222  1.00  0.00    -0.180 OA 
HETATM   12  O   UNL     1     -12.248  12.699  69.111  1.00  0.00    -0.191 OA 
HETATM   13  C   UNL     1     -11.667  13.685  68.679  1.00  0.00    -0.354 C  
ENDBRANCH   5  10
ENDBRANCH   4   5
ENDBRANCH   2   4
BRANCH   2  14
HETATM   14  C   UNL     1      -8.962  12.192  65.282  1.00  0.00     0.498 C  
BRANCH  14  15
HETATM   15  N   UNL     1      -9.226  10.788  65.761  1.00  0.00    -0.182 NA 
BRANCH  15  16
HETATM   16  C   UNL     1      -8.050   9.929  65.357  1.00  0.00    -0.137 C  
HETATM   17  C   UNL     1      -8.375   8.979  64.209  1.00  0.00    -0.173 C  
HETATM   18  O   UNL     1      -9.323   9.474  63.373  1.00  0.00    -0.131 OA 
HETATM   19  O   UNL     1      -7.805   7.918  64.014  1.00  0.00    -0.130 OA 
ENDBRANCH  15  16
BRANCH  15  20
HETATM   20  C   UNL     1      -9.245  10.805  67.281  1.00  0.00    -0.147 C  
HETATM   21  C   UNL     1     -10.274   9.849  67.886  1.00  0.00    -0.193 C  
HETATM   22  O   UNL     1     -10.524   8.770  67.105  1.00  0.00    -0.282 OA 
HETATM   23  O   UNL     1     -10.783  10.005  68.981  1.00  0.00    -0.204 OA 
ENDBRANCH  15  20
ENDBRANCH  14  15
ENDBRANCH   2  14
TORSDOF 8
ENDMDL
MODEL      392
REMARK 921   NORMALIZED FREE ENERGY PREDICTED BY IDOCK:   -1.77 KCAL/MOL
REMARK 922        TOTAL FREE ENERGY PREDICTED BY IDOCK:   -3.93 KCAL/MOL
REMARK 923 INTER-LIGAND FREE ENERGY PREDICTED BY IDOCK:   -3.85 KCAL/MOL
REMARK 924 INTRA-LIGAND FREE ENERGY PREDICTED BY IDOCK:   -0.08 KCAL/MOL
REMARK 927      BINDING AFFINITY PREDICTED BY RF-SCORE:    0.00 PKD
ROOT
HETATM    1  O   UNL     1     -11.427   9.908  68.278  1.00  0.00    -0.532 OA 
HETATM    2  C   UNL     1     -10.727   8.969  67.454  1.00  0.00    -0.161 C  
HETATM    3  H   UNL     1     -12.308   9.593  68.441  1.00  0.00     0.000 HD 
ENDROOT
BRANCH   2   4
HETATM    4  C   UNL     1     -10.724   7.601  68.182  1.00  0.00    -0.066 C  
BRANCH   4   5
HETATM    5  N   UNL     1     -10.197   7.592  69.596  1.00  0.00    -0.200 NA 
BRANCH   5   6
HETATM    6  C   UNL     1      -9.227   6.441  69.721  1.00  0.00    -0.144 C  
HETATM    7  O   UNL     1      -7.666   8.110  70.480  1.00  0.00    -0.080 OA 
HETATM    8  C   UNL     1      -7.781   6.910  69.864  1.00  0.00    -0.109 C  
HETATM    9  O   UNL     1      -6.817   6.263  69.486  1.00  0.00    -0.060 OA 
ENDBRANCH   5   6
BRANCH   5  10
HETATM   10  C   UNL     1     -11.345   7.329  70.534  1.00  0.00    -0.280 C  
HETATM   11  O   UNL     1     -10.999   9.588  71.271  1.00  0.00    -0.337 OA 
HETATM   12  O   UNL     1     -11.906   8.140  72.760  1.00  0.00    -0.389 OA 
HETATM   13  C   UNL     1     -11.438   8.367  71.653  1.00  0.00    -0.287 C  
ENDBRANCH   5  10
ENDBRANCH   4   5
ENDBRANCH   2   4
BRANCH   2  14
HETATM   14  C   UNL     1      -9.281   9.487  67.186  1.00  0.00    -0.134 C  
BRANCH  14  15
HETATM   15  N   UNL     1      -8.275   8.501  66.652  1.00  0.00    -0.106 NA 
BRANCH  15  16
HETATM   16  C   UNL     1      -8.484   8.385  65.159  1.00  0.00    -0.160 C  
HETATM   17  C   UNL     1      -8.002   7.052  64.595  1.00  0.00    -0.114 C  
HETATM   18  O   UNL     1      -8.095   6.039  65.494  1.00  0.00    -0.118 OA 
HETATM   19  O   UNL     1      -7.632   6.888  63.444  1.00  0.00    -0.087 OA 
ENDBRANCH  15  16
BRANCH  15  20
HETATM   20  C   UNL     1      -6.888   9.093  66.847  1.00  0.00    -0.080 C  
HETATM   21  C   UNL     1      -6.710  10.456  66.177  1.00  0.00    -0.117 C  
HETATM   22  O   UNL     1      -7.864  11.161  66.086  1.00  0.00    -0.149 OA 
HETATM   23  O   UNL     1      -5.636  10.896  65.807  1.00  0.00    -0.134 OA 
ENDBRANCH  15  20
ENDBRANCH  14  15
ENDBRANCH   2  14
TORSDOF 8
ENDMDL
MODEL      393
REMARK 921   NORMALIZED FREE ENERGY PREDICTED BY IDOCK:   -1.76 KCAL/MOL
REMARK 922        TOTAL FREE ENERGY PREDICTED BY IDOCK:   -3.92 KCAL/MOL
REMARK 923 INTER-LIGAND FREE ENERGY PREDICTED BY IDOCK:   -4.24 KCAL/MOL
REMARK 924 INTRA-LIGAND FREE ENERGY PREDICTED BY IDOCK:    0.32 KCAL/MOL
REMARK 927      BINDING AFFINITY PREDICTED BY RF-SCORE:    0.00 PKD
ROOT
HETATM    1  O   UNL     1     -11.270   8.464  68.952  1.00  0.00    -0.388 OA 
HETATM    2  C   UNL     1      -9.876   8.173  68.804  1.00  0.00    -0.176 C  
HETATM    3  H   UNL     1     -11.741   7.665  69.158  1.00  0.00     0.000 HD 
ENDROOT
BRANCH   2   4
HETATM    4  C   UNL     1      -9.377   7.532  70.124  1.00  0.00    -0.157 C  
BRANCH   4   5
HETATM    5  N   UNL     1      -8.112   6.712  70.038  1.00  0.00    -0.119 NA 
BRANCH   5   6
HETATM    6  C   UNL     1      -8.158   5.675  71.134  1.00  0.00    -0.116 C  
HETATM    7  O   UNL     1      -7.334   4.162  69.451  1.00  0.00    -0.053 OA 
HETATM    8  C   UNL     1      -8.056   4.251  70.593  1.00  0.00    -0.063 C  
HETATM    9  O   UNL     1      -8.551   3.279  71.142  1.00  0.00    -0.065 OA 
ENDBRANCH   5   6
BRANCH   5  10
HETATM   10  C   UNL     1      -6.937   7.615  70.308  1.00  0.00    -0.051 C  
HETATM   11  O   UNL     1      -8.042   8.098  72.385  1.00  0.00    -0.123 OA 
HETATM   12  O   UNL     1      -6.677   9.699  71.540  1.00  0.00    -0.316 OA 
HETATM   13  C   UNL     1      -7.203   8.598  71.448  1.00  0.00    -0.091 C  
ENDBRANCH   5  10
ENDBRANCH   4   5
ENDBRANCH   2   4
BRANCH   2  14
HETATM   14  C   UNL     1      -9.102   9.484  68.466  1.00  0.00    -0.131 C  
BRANCH  14  15
HETATM   15  N   UNL     1      -9.776  10.475  67.552  1.00  0.00    -0.164 NA 
BRANCH  15  16
HETATM   16  C   UNL     1      -9.928  11.775  68.308  1.00  0.00    -0.200 C  
HETATM   17  C   UNL     1     -11.381  12.224  68.428  1.00  0.00    -0.292 C  
HETATM   18  O   UNL     1     -12.251  11.182  68.454  1.00  0.00    -0.610 OA 
HETATM   19  O   UNL     1     -11.732  13.386  68.555  1.00  0.00    -0.313 OA 
ENDBRANCH  15  16
BRANCH  15  20
HETATM   20  C   UNL     1      -8.835  10.759  66.392  1.00  0.00    -0.165 C  
HETATM   21  C   UNL     1      -9.511  10.659  65.025  1.00  0.00    -0.243 C  
HETATM   22  O   UNL     1     -10.833  10.953  65.059  1.00  0.00    -0.208 OA 
HETATM   23  O   UNL     1      -8.919  10.395  63.993  1.00  0.00    -0.194 OA 
ENDBRANCH  15  20
ENDBRANCH  14  15
ENDBRANCH   2  14
TORSDOF 8
ENDMDL
MODEL      394
REMARK 921   NORMALIZED FREE ENERGY PREDICTED BY IDOCK:   -1.75 KCAL/MOL
REMARK 922        TOTAL FREE ENERGY PREDICTED BY IDOCK:   -3.90 KCAL/MOL
REMARK 923 INTER-LIGAND FREE ENERGY PREDICTED BY IDOCK:   -6.59 KCAL/MOL
REMARK 924 INTRA-LIGAND FREE ENERGY PREDICTED BY IDOCK:    2.69 KCAL/MOL
REMARK 927      BINDING AFFINITY PREDICTED BY RF-SCORE:    0.00 PKD
ROOT
HETATM    1  O   UNL     1      -8.372  12.368  66.421  1.00  0.00    -0.402 OA 
HETATM    2  C   UNL     1      -9.087  13.535  66.843  1.00  0.00    -0.239 C  
HETATM    3  H   UNL     1      -8.957  11.619  66.424  1.00  0.00     0.000 HD 
ENDROOT
BRANCH   2   4
HETATM    4  C   UNL     1     -10.287  13.736  65.884  1.00  0.00    -0.309 C  
BRANCH   4   5
HETATM    5  N   UNL     1     -11.656  13.782  66.519  1.00  0.00    -0.348 NA 
BRANCH   5   6
HETATM    6  C   UNL     1     -11.873  12.475  67.244  1.00  0.00    -0.311 C  
HETATM    7  O   UNL     1     -12.297  13.854  69.172  1.00  0.00    -0.314 OA 
HETATM    8  C   UNL     1     -11.858  12.641  68.762  1.00  0.00    -0.300 C  
HETATM    9  O   UNL     1     -11.511  11.764  69.537  1.00  0.00    -0.273 OA 
ENDBRANCH   5   6
BRANCH   5  10
HETATM   10  C   UNL     1     -12.688  13.879  65.427  1.00  0.00    -0.490 C  
HETATM   11  O   UNL     1     -11.762  11.806  64.644  1.00  0.00    -0.267 OA 
HETATM   12  O   UNL     1     -12.737  13.153  63.103  1.00  0.00    -0.607 OA 
HETATM   13  C   UNL     1     -12.394  12.938  64.257  1.00  0.00    -0.385 C  
ENDBRANCH   5  10
ENDBRANCH   4   5
ENDBRANCH   2   4
BRANCH   2  14
HETATM   14  C   UNL     1      -8.127  14.764  66.839  1.00  0.00    -0.048 C  
BRANCH  14  15
HETATM   15  N   UNL     1      -8.702  16.096  66.431  1.00  0.00    -0.296 NA 
BRANCH  15  16
HETATM   16  C   UNL     1      -9.396  16.692  67.635  1.00  0.00    -0.224 C  
HETATM   17  C   UNL     1      -9.685  18.181  67.476  1.00  0.00    -0.303 C  
HETATM   18  O   UNL     1      -9.886  18.540  66.181  1.00  0.00    -0.437 OA 
HETATM   19  O   UNL     1      -9.791  18.963  68.406  1.00  0.00    -0.337 OA 
ENDBRANCH  15  16
BRANCH  15  20
HETATM   20  C   UNL     1      -7.546  17.025  66.098  1.00  0.00    -0.245 C  
HETATM   21  C   UNL     1      -6.721  17.429  67.319  1.00  0.00    -0.161 C  
HETATM   22  O   UNL     1      -6.725  16.494  68.300  1.00  0.00    -0.131 OA 
HETATM   23  O   UNL     1      -6.077  18.460  67.393  1.00  0.00    -0.166 OA 
ENDBRANCH  15  20
ENDBRANCH  14  15
ENDBRANCH   2  14
TORSDOF 8
ENDMDL
MODEL      395
REMARK 921   NORMALIZED FREE ENERGY PREDICTED BY IDOCK:   -1.74 KCAL/MOL
REMARK 922        TOTAL FREE ENERGY PREDICTED BY IDOCK:   -3.89 KCAL/MOL
REMARK 923 INTER-LIGAND FREE ENERGY PREDICTED BY IDOCK:   -2.82 KCAL/MOL
REMARK 924 INTRA-LIGAND FREE ENERGY PREDICTED BY IDOCK:   -1.07 KCAL/MOL
REMARK 927      BINDING AFFINITY PREDICTED BY RF-SCORE:    0.00 PKD
ROOT
HETATM    1  O   UNL     1      -6.942   8.033  66.617  1.00  0.00    -0.069 OA 
HETATM    2  C   UNL     1      -7.934   7.133  67.126  1.00  0.00    -0.110 C  
HETATM    3  H   UNL     1      -6.393   7.579  65.989  1.00  0.00     0.000 HD 
ENDROOT
BRANCH   2   4
HETATM    4  C   UNL     1      -8.752   6.594  65.926  1.00  0.00    -0.137 C  
BRANCH   4   5
HETATM    5  N   UNL     1      -8.243   5.329  65.277  1.00  0.00    -0.123 NA 
BRANCH   5   6
HETATM    6  C   UNL     1      -7.745   4.416  66.372  1.00  0.00    -0.094 C  
HETATM    7  O   UNL     1      -9.909   3.374  66.201  1.00  0.00    -0.042 OA 
HETATM    8  C   UNL     1      -8.875   3.632  67.035  1.00  0.00    -0.127 C  
HETATM    9  O   UNL     1      -8.846   3.249  68.194  1.00  0.00    -0.100 OA 
ENDBRANCH   5   6
BRANCH   5  10
HETATM   10  C   UNL     1      -7.069   5.680  64.402  1.00  0.00    -0.053 C  
HETATM   11  O   UNL     1      -8.133   4.285  62.761  1.00  0.00    -0.072 OA 
HETATM   12  O   UNL     1      -5.878   4.487  62.644  1.00  0.00    -0.016 OA 
HETATM   13  C   UNL     1      -6.938   4.748  63.195  1.00  0.00    -0.039 C  
ENDBRANCH   5  10
ENDBRANCH   4   5
ENDBRANCH   2   4
BRANCH   2  14
HETATM   14  C   UNL     1      -8.836   7.879  68.156  1.00  0.00    -0.125 C  
BRANCH  14  15
HETATM   15  N   UNL     1      -8.759   9.384  68.189  1.00  0.00    -0.124 NA 
BRANCH  15  16
HETATM   16  C   UNL     1     -10.101   9.928  67.755  1.00  0.00    -0.180 C  
HETATM   17  C   UNL     1     -10.045  10.635  66.405  1.00  0.00    -0.225 C  
HETATM   18  O   UNL     1      -9.089  10.126  65.586  1.00  0.00    -0.162 OA 
HETATM   19  O   UNL     1     -10.812  11.520  66.061  1.00  0.00    -0.280 OA 
ENDBRANCH  15  16
BRANCH  15  20
HETATM   20  C   UNL     1      -8.569   9.812  69.636  1.00  0.00    -0.191 C  
HETATM   21  C   UNL     1      -7.209  10.457  69.903  1.00  0.00    -0.153 C  
HETATM   22  O   UNL     1      -6.692  11.084  68.819  1.00  0.00    -0.056 OA 
HETATM   23  O   UNL     1      -6.661  10.458  70.991  1.00  0.00    -0.337 OA 
ENDBRANCH  15  20
ENDBRANCH  14  15
ENDBRANCH   2  14
TORSDOF 8
ENDMDL
MODEL      396
REMARK 921   NORMALIZED FREE ENERGY PREDICTED BY IDOCK:   -1.70 KCAL/MOL
REMARK 922        TOTAL FREE ENERGY PREDICTED BY IDOCK:   -3.83 KCAL/MOL
REMARK 923 INTER-LIGAND FREE ENERGY PREDICTED BY IDOCK:   -3.30 KCAL/MOL
REMARK 924 INTRA-LIGAND FREE ENERGY PREDICTED BY IDOCK:   -0.52 KCAL/MOL
REMARK 927      BINDING AFFINITY PREDICTED BY RF-SCORE:    0.00 PKD
ROOT
HETATM    1  O   UNL     1     -10.206   5.613  68.625  1.00  0.00    -0.168 OA 
HETATM    2  C   UNL     1      -9.949   6.309  67.401  1.00  0.00    -0.139 C  
HETATM    3  H   UNL     1     -10.078   6.203  69.359  1.00  0.00     0.000 HD 
ENDROOT
BRANCH   2   4
HETATM    4  C   UNL     1     -10.901   7.529  67.333  1.00  0.00    -0.202 C  
BRANCH   4   5
HETATM    5  N   UNL     1     -10.414   8.801  67.984  1.00  0.00    -0.222 NA 
BRANCH   5   6
HETATM    6  C   UNL     1      -9.117   9.194  67.318  1.00  0.00    -0.126 C  
HETATM    7  O   UNL     1     -10.310  11.169  66.629  1.00  0.00    -0.223 OA 
HETATM    8  C   UNL     1      -9.299  10.326  66.311  1.00  0.00    -0.167 C  
HETATM    9  O   UNL     1      -8.591  10.481  65.328  1.00  0.00    -0.170 OA 
ENDBRANCH   5   6
BRANCH   5  10
HETATM   10  C   UNL     1     -10.119   8.515  69.432  1.00  0.00    -0.205 C  
HETATM   11  O   UNL     1     -10.066  10.902  69.686  1.00  0.00    -0.103 OA 
HETATM   12  O   UNL     1      -8.829   9.678  71.139  1.00  0.00    -0.172 OA 
HETATM   13  C   UNL     1      -9.579   9.738  70.174  1.00  0.00    -0.237 C  
ENDBRANCH   5  10
ENDBRANCH   4   5
ENDBRANCH   2   4
BRANCH   2  14
HETATM   14  C   UNL     1     -10.158   5.341  66.196  1.00  0.00    -0.172 C  
BRANCH  14  15
HETATM   15  N   UNL     1      -8.965   5.040  65.327  1.00  0.00    -0.153 NA 
BRANCH  15  16
HETATM   16  C   UNL     1      -7.736   5.583  66.020  1.00  0.00    -0.095 C  
HETATM   17  C   UNL     1      -7.059   6.703  65.236  1.00  0.00    -0.064 C  
HETATM   18  O   UNL     1      -7.935   7.422  64.487  1.00  0.00    -0.134 OA 
HETATM   19  O   UNL     1      -5.872   6.974  65.313  1.00  0.00    -0.034 OA 
ENDBRANCH  15  16
BRANCH  15  20
HETATM   20  C   UNL     1      -8.794   3.531  65.269  1.00  0.00    -0.124 C  
HETATM   21  C   UNL     1      -9.615   2.870  64.162  1.00  0.00    -0.147 C  
HETATM   22  O   UNL     1      -9.830   3.681  63.099  1.00  0.00    -0.130 OA 
HETATM   23  O   UNL     1      -9.997   1.713  64.198  1.00  0.00    -0.118 OA 
ENDBRANCH  15  20
ENDBRANCH  14  15
ENDBRANCH   2  14
TORSDOF 8
ENDMDL
MODEL      397
REMARK 921   NORMALIZED FREE ENERGY PREDICTED BY IDOCK:   -1.67 KCAL/MOL
REMARK 922        TOTAL FREE ENERGY PREDICTED BY IDOCK:   -3.79 KCAL/MOL
REMARK 923 INTER-LIGAND FREE ENERGY PREDICTED BY IDOCK:   -4.69 KCAL/MOL
REMARK 924 INTRA-LIGAND FREE ENERGY PREDICTED BY IDOCK:    0.90 KCAL/MOL
REMARK 927      BINDING AFFINITY PREDICTED BY RF-SCORE:    0.00 PKD
ROOT
HETATM    1  O   UNL     1      -8.314  11.180  66.718  1.00  0.00    -0.140 OA 
HETATM    2  C   UNL     1      -9.659  11.187  67.210  1.00  0.00    -0.165 C  
HETATM    3  H   UNL     1      -8.040  12.070  66.529  1.00  0.00     0.000 HD 
ENDROOT
BRANCH   2   4
HETATM    4  C   UNL     1      -9.704  12.086  68.471  1.00  0.00    -0.161 C  
BRANCH   4   5
HETATM    5  N   UNL     1     -10.245  13.483  68.284  1.00  0.00    -0.245 NA 
BRANCH   5   6
HETATM    6  C   UNL     1     -11.725  13.450  68.583  1.00  0.00    -0.349 C  
HETATM    7  O   UNL     1     -11.224  15.162  70.202  1.00  0.00    -0.244 OA 
HETATM    8  C   UNL     1     -12.069  14.149  69.896  1.00  0.00    -0.347 C  
HETATM    9  O   UNL     1     -13.024  13.849  70.594  1.00  0.00    -0.264 OA 
ENDBRANCH   5   6
BRANCH   5  10
HETATM   10  C   UNL     1     -10.077  13.872  66.839  1.00  0.00    -0.260 C  
HETATM   11  O   UNL     1      -8.086  14.994  67.581  1.00  0.00    -0.145 OA 
HETATM   12  O   UNL     1      -9.109  15.812  65.730  1.00  0.00    -0.308 OA 
HETATM   13  C   UNL     1      -9.069  15.007  66.650  1.00  0.00    -0.280 C  
ENDBRANCH   5  10
ENDBRANCH   4   5
ENDBRANCH   2   4
BRANCH   2  14
HETATM   14  C   UNL     1     -10.109   9.727  67.520  1.00  0.00    -0.197 C  
BRANCH  14  15
HETATM   15  N   UNL     1      -9.133   8.835  68.243  1.00  0.00    -0.141 NA 
BRANCH  15  16
HETATM   16  C   UNL     1      -9.156   9.210  69.707  1.00  0.00    -0.167 C  
HETATM   17  C   UNL     1      -7.765   9.251  70.331  1.00  0.00    -0.143 C  
HETATM   18  O   UNL     1      -6.800   9.590  69.437  1.00  0.00    -0.047 OA 
HETATM   19  O   UNL     1      -7.538   9.066  71.515  1.00  0.00    -0.275 OA 
ENDBRANCH  15  16
BRANCH  15  20
HETATM   20  C   UNL     1      -9.648   7.407  68.156  1.00  0.00    -0.142 C  
HETATM   21  C   UNL     1     -10.501   6.997  69.356  1.00  0.00    -0.214 C  
HETATM   22  O   UNL     1     -11.152   8.037  69.930  1.00  0.00    -0.215 OA 
HETATM   23  O   UNL     1     -10.633   5.846  69.733  1.00  0.00    -0.243 OA 
ENDBRANCH  15  20
ENDBRANCH  14  15
ENDBRANCH   2  14
TORSDOF 8
ENDMDL
MODEL      398
REMARK 921   NORMALIZED FREE ENERGY PREDICTED BY IDOCK:   -1.62 KCAL/MOL
REMARK 922        TOTAL FREE ENERGY PREDICTED BY IDOCK:   -3.71 KCAL/MOL
REMARK 923 INTER-LIGAND FREE ENERGY PREDICTED BY IDOCK:   -3.73 KCAL/MOL
REMARK 924 INTRA-LIGAND FREE ENERGY PREDICTED BY IDOCK:    0.02 KCAL/MOL
REMARK 927      BINDING AFFINITY PREDICTED BY RF-SCORE:    0.00 PKD
ROOT
HETATM    1  O   UNL     1     -10.529   8.069  68.538  1.00  0.00    -0.233 OA 
HETATM    2  C   UNL     1      -9.252   8.638  68.231  1.00  0.00    -0.137 C  
HETATM    3  H   UNL     1     -11.159   8.764  68.687  1.00  0.00     0.000 HD 
ENDROOT
BRANCH   2   4
HETATM    4  C   UNL     1      -9.417   9.544  66.985  1.00  0.00    -0.155 C  
BRANCH   4   5
HETATM    5  N   UNL     1     -10.730  10.276  66.854  1.00  0.00    -0.218 NA 
BRANCH   5   6
HETATM    6  C   UNL     1     -10.984  10.512  65.384  1.00  0.00     0.337 C  
HETATM    7  O   UNL     1      -8.624  10.980  65.265  1.00  0.00    -0.151 OA 
HETATM    8  C   UNL     1      -9.828  11.241  64.703  1.00  0.00    -0.268 C  
HETATM    9  O   UNL     1      -9.963  11.969  63.733  1.00  0.00    -0.349 OA 
ENDBRANCH   5   6
BRANCH   5  10
HETATM   10  C   UNL     1     -10.597  11.620  67.519  1.00  0.00    -0.209 C  
HETATM   11  O   UNL     1     -11.802  10.616  69.338  1.00  0.00    -0.283 OA 
HETATM   12  O   UNL     1     -11.995  12.859  69.081  1.00  0.00    -0.298 OA 
HETATM   13  C   UNL     1     -11.549  11.785  68.706  1.00  0.00    -0.307 C  
ENDBRANCH   5  10
ENDBRANCH   4   5
ENDBRANCH   2   4
BRANCH   2  14
HETATM   14  C   UNL     1      -8.217   7.497  67.987  1.00  0.00    -0.124 C  
BRANCH  14  15
HETATM   15  N   UNL     1      -8.708   6.076  68.094  1.00  0.00    -0.114 NA 
BRANCH  15  16
HETATM   16  C   UNL     1      -8.308   5.349  66.831  1.00  0.00    -0.108 C  
HETATM   17  C   UNL     1      -9.447   4.530  66.232  1.00  0.00    -0.172 C  
HETATM   18  O   UNL     1     -10.668   5.065  66.491  1.00  0.00    -0.280 OA 
HETATM   19  O   UNL     1      -9.288   3.539  65.539  1.00  0.00    -0.151 OA 
ENDBRANCH  15  16
BRANCH  15  20
HETATM   20  C   UNL     1      -7.957   5.404  69.233  1.00  0.00    -0.093 C  
HETATM   21  C   UNL     1      -8.598   5.636  70.601  1.00  0.00    -0.130 C  
HETATM   22  O   UNL     1      -9.939   5.820  70.539  1.00  0.00    -0.178 OA 
HETATM   23  O   UNL     1      -7.983   5.607  71.653  1.00  0.00    -0.112 OA 
ENDBRANCH  15  20
ENDBRANCH  14  15
ENDBRANCH   2  14
TORSDOF 8
ENDMDL
MODEL      399
REMARK 921   NORMALIZED FREE ENERGY PREDICTED BY IDOCK:   -1.59 KCAL/MOL
REMARK 922        TOTAL FREE ENERGY PREDICTED BY IDOCK:   -3.67 KCAL/MOL
REMARK 923 INTER-LIGAND FREE ENERGY PREDICTED BY IDOCK:   -6.31 KCAL/MOL
REMARK 924 INTRA-LIGAND FREE ENERGY PREDICTED BY IDOCK:    2.64 KCAL/MOL
REMARK 927      BINDING AFFINITY PREDICTED BY RF-SCORE:    0.00 PKD
ROOT
HETATM    1  O   UNL     1     -12.524  15.841  68.530  1.00  0.00    -0.366 OA 
HETATM    2  C   UNL     1     -11.146  15.991  68.889  1.00  0.00    -0.331 C  
HETATM    3  H   UNL     1     -12.756  16.494  67.881  1.00  0.00     0.000 HD 
ENDROOT
BRANCH   2   4
HETATM    4  C   UNL     1     -10.296  15.852  67.601  1.00  0.00    -0.281 C  
BRANCH   4   5
HETATM    5  N   UNL     1     -10.215  14.473  66.993  1.00  0.00    -0.260 NA 
BRANCH   5   6
HETATM    6  C   UNL     1     -11.524  14.199  66.292  1.00  0.00    -0.352 C  
HETATM    7  O   UNL     1     -10.198  12.878  64.777  1.00  0.00    -0.313 OA 
HETATM    8  C   UNL     1     -11.326  13.617  64.895  1.00  0.00    -0.344 C  
HETATM    9  O   UNL     1     -12.114  13.774  63.975  1.00  0.00    -0.461 OA 
ENDBRANCH   5   6
BRANCH   5  10
HETATM   10  C   UNL     1     -10.070  13.468  68.104  1.00  0.00    -0.250 C  
HETATM   11  O   UNL     1      -7.719  13.570  67.618  1.00  0.00    -0.147 OA 
HETATM   12  O   UNL     1      -8.509  11.644  68.517  1.00  0.00    -0.154 OA 
HETATM   13  C   UNL     1      -8.706  12.775  68.094  1.00  0.00    -0.193 C  
ENDBRANCH   5  10
ENDBRANCH   4   5
ENDBRANCH   2   4
BRANCH   2  14
HETATM   14  C   UNL     1     -10.764  14.919  69.955  1.00  0.00    -0.138 C  
BRANCH  14  15
HETATM   15  N   UNL     1     -11.848  14.448  70.889  1.00  0.00    -0.308 NA 
BRANCH  15  16
HETATM   16  C   UNL     1     -12.861  15.561  71.026  1.00  0.00    -0.482 C  
HETATM   17  C   UNL     1     -13.180  15.898  72.479  1.00  0.00    -0.443 C  
HETATM   18  O   UNL     1     -12.132  15.668  73.312  1.00  0.00    -0.426 OA 
HETATM   19  O   UNL     1     -14.234  16.383  72.855  1.00  0.00    -0.055 OA 
ENDBRANCH  15  16
BRANCH  15  20
HETATM   20  C   UNL     1     -12.571  13.288  70.223  1.00  0.00    -0.090 C  
HETATM   21  C   UNL     1     -13.030  12.213  71.209  1.00  0.00    -0.207 C  
HETATM   22  O   UNL     1     -13.289  12.699  72.447  1.00  0.00    -0.514 OA 
HETATM   23  O   UNL     1     -13.199  11.045  70.909  1.00  0.00    -0.195 OA 
ENDBRANCH  15  20
ENDBRANCH  14  15
ENDBRANCH   2  14
TORSDOF 8
ENDMDL
MODEL      400
REMARK 921   NORMALIZED FREE ENERGY PREDICTED BY IDOCK:   -1.55 KCAL/MOL
REMARK 922        TOTAL FREE ENERGY PREDICTED BY IDOCK:   -3.61 KCAL/MOL
REMARK 923 INTER-LIGAND FREE ENERGY PREDICTED BY IDOCK:   -3.94 KCAL/MOL
REMARK 924 INTRA-LIGAND FREE ENERGY PREDICTED BY IDOCK:    0.33 KCAL/MOL
REMARK 927      BINDING AFFINITY PREDICTED BY RF-SCORE:    0.00 PKD
ROOT
HETATM    1  O   UNL     1      -9.720   7.723  67.857  1.00  0.00    -0.146 OA 
HETATM    2  C   UNL     1      -9.820   6.466  68.536  1.00  0.00    -0.138 C  
HETATM    3  H   UNL     1      -8.837   7.834  67.524  1.00  0.00     0.000 HD 
ENDROOT
BRANCH   2   4
HETATM    4  C   UNL     1      -9.434   5.347  67.536  1.00  0.00    -0.121 C  
BRANCH   4   5
HETATM    5  N   UNL     1      -7.959   5.146  67.287  1.00  0.00    -0.100 NA 
BRANCH   5   6
HETATM    6  C   UNL     1      -7.671   5.552  65.861  1.00  0.00    -0.091 C  
HETATM    7  O   UNL     1      -6.758   7.557  66.835  1.00  0.00    -0.062 OA 
HETATM    8  C   UNL     1      -7.349   7.039  65.732  1.00  0.00    -0.079 C  
HETATM    9  O   UNL     1      -7.573   7.698  64.730  1.00  0.00    -0.090 OA 
ENDBRANCH   5   6
BRANCH   5  10
HETATM   10  C   UNL     1      -7.646   3.679  67.420  1.00  0.00    -0.074 C  
HETATM   11  O   UNL     1      -9.209   3.389  65.619  1.00  0.00    -0.146 OA 
HETATM   12  O   UNL     1      -8.945   1.652  67.052  1.00  0.00    -0.118 OA 
HETATM   13  C   UNL     1      -8.672   2.794  66.710  1.00  0.00    -0.122 C  
ENDBRANCH   5  10
ENDBRANCH   4   5
ENDBRANCH   2   4
BRANCH   2  14
HETATM   14  C   UNL     1     -11.269   6.282  69.083  1.00  0.00    -0.371 C  
BRANCH  14  15
HETATM   15  N   UNL     1     -11.502   6.557  70.546  1.00  0.00    -0.364 NA 
BRANCH  15  16
HETATM   16  C   UNL     1     -10.554   5.689  71.340  1.00  0.00    -0.253 C  
HETATM   17  C   UNL     1     -11.051   5.405  72.753  1.00  0.00    -0.294 C  
HETATM   18  O   UNL     1     -12.407   5.387  72.837  1.00  0.00    -0.046 OA 
HETATM   19  O   UNL     1     -10.323   5.154  73.700  1.00  0.00    -0.183 OA 
ENDBRANCH  15  16
BRANCH  15  20
HETATM   20  C   UNL     1     -11.102   7.997  70.823  1.00  0.00    -0.259 C  
HETATM   21  C   UNL     1     -12.292   8.913  71.109  1.00  0.00    -0.235 C  
HETATM   22  O   UNL     1     -13.344   8.265  71.665  1.00  0.00    -0.333 OA 
HETATM   23  O   UNL     1     -12.286  10.115  70.910  1.00  0.00    -0.314 OA 
ENDBRANCH  15  20
ENDBRANCH  14  15
ENDBRANCH   2  14
TORSDOF 8
ENDMDL
MODEL      401
REMARK 921   NORMALIZED FREE ENERGY PREDICTED BY IDOCK:   -1.55 KCAL/MOL
REMARK 922        TOTAL FREE ENERGY PREDICTED BY IDOCK:   -3.60 KCAL/MOL
REMARK 923 INTER-LIGAND FREE ENERGY PREDICTED BY IDOCK:   -6.27 KCAL/MOL
REMARK 924 INTRA-LIGAND FREE ENERGY PREDICTED BY IDOCK:    2.67 KCAL/MOL
REMARK 927      BINDING AFFINITY PREDICTED BY RF-SCORE:    0.00 PKD
ROOT
HETATM    1  O   UNL     1      -8.171  12.623  66.558  1.00  0.00    -0.403 OA 
HETATM    2  C   UNL     1      -9.338  11.850  66.258  1.00  0.00    -0.227 C  
HETATM    3  H   UNL     1      -7.724  12.246  67.307  1.00  0.00     0.000 HD 
ENDROOT
BRANCH   2   4
HETATM    4  C   UNL     1      -8.892  10.391  65.990  1.00  0.00    -0.160 C  
BRANCH   4   5
HETATM    5  N   UNL     1      -7.640   9.929  66.697  1.00  0.00    -0.102 NA 
BRANCH   5   6
HETATM    6  C   UNL     1      -6.704   9.362  65.657  1.00  0.00    -0.074 C  
HETATM    7  O   UNL     1      -5.478  11.415  65.942  1.00  0.00    -0.243 OA 
HETATM    8  C   UNL     1      -5.773  10.421  65.071  1.00  0.00    -0.139 C  
HETATM    9  O   UNL     1      -5.316  10.373  63.941  1.00  0.00    -0.122 OA 
ENDBRANCH   5   6
BRANCH   5  10
HETATM   10  C   UNL     1      -8.007   8.815  67.641  1.00  0.00    -0.106 C  
HETATM   11  O   UNL     1      -8.816   7.689  65.679  1.00  0.00    -0.140 OA 
HETATM   12  O   UNL     1      -9.788   7.153  67.656  1.00  0.00    -0.137 OA 
HETATM   13  C   UNL     1      -8.980   7.813  67.017  1.00  0.00    -0.129 C  
ENDBRANCH   5  10
ENDBRANCH   4   5
ENDBRANCH   2   4
BRANCH   2  14
HETATM   14  C   UNL     1     -10.072  12.469  65.029  1.00  0.00    -0.236 C  
BRANCH  14  15
HETATM   15  N   UNL     1     -11.394  13.147  65.275  1.00  0.00    -0.292 NA 
BRANCH  15  16
HETATM   16  C   UNL     1     -11.967  12.598  66.561  1.00  0.00    -0.331 C  
HETATM   17  C   UNL     1     -11.771  13.537  67.747  1.00  0.00    -0.359 C  
HETATM   18  O   UNL     1     -11.747  14.845  67.380  1.00  0.00    -0.356 OA 
HETATM   19  O   UNL     1     -11.708  13.171  68.909  1.00  0.00    -0.285 OA 
ENDBRANCH  15  16
BRANCH  15  20
HETATM   20  C   UNL     1     -11.126  14.624  65.519  1.00  0.00    -0.345 C  
HETATM   21  C   UNL     1     -11.672  15.530  64.415  1.00  0.00    -0.242 C  
HETATM   22  O   UNL     1     -12.761  15.018  63.793  1.00  0.00    -0.741 OA 
HETATM   23  O   UNL     1     -11.214  16.627  64.150  1.00  0.00    -1.103 OA 
ENDBRANCH  15  20
ENDBRANCH  14  15
ENDBRANCH   2  14
TORSDOF 8
ENDMDL
MODEL      402
REMARK 921   NORMALIZED FREE ENERGY PREDICTED BY IDOCK:   -1.46 KCAL/MOL
REMARK 922        TOTAL FREE ENERGY PREDICTED BY IDOCK:   -3.48 KCAL/MOL
REMARK 923 INTER-LIGAND FREE ENERGY PREDICTED BY IDOCK:   -2.43 KCAL/MOL
REMARK 924 INTRA-LIGAND FREE ENERGY PREDICTED BY IDOCK:   -1.04 KCAL/MOL
REMARK 927      BINDING AFFINITY PREDICTED BY RF-SCORE:    0.00 PKD
ROOT
HETATM    1  O   UNL     1      -8.700  13.074  67.641  1.00  0.00    -0.166 OA 
HETATM    2  C   UNL     1     -10.088  12.923  67.957  1.00  0.00    -0.235 C  
HETATM    3  H   UNL     1      -8.257  12.241  67.750  1.00  0.00     0.000 HD 
ENDROOT
BRANCH   2   4
HETATM    4  C   UNL     1     -10.677  11.831  67.028  1.00  0.00    -0.246 C  
BRANCH   4   5
HETATM    5  N   UNL     1     -10.590  10.408  67.524  1.00  0.00    -0.242 NA 
BRANCH   5   6
HETATM    6  C   UNL     1     -10.459  10.449  69.028  1.00  0.00    -0.219 C  
HETATM    7  O   UNL     1     -12.540   9.236  69.033  1.00  0.00     2.169 OA 
HETATM    8  C   UNL     1     -11.765  10.096  69.735  1.00  0.00    -0.139 C  
HETATM    9  O   UNL     1     -12.077  10.521  70.836  1.00  0.00    -0.320 OA 
ENDBRANCH   5   6
BRANCH   5  10
HETATM   10  C   UNL     1      -9.336   9.784  66.970  1.00  0.00    -0.147 C  
HETATM   11  O   UNL     1     -10.618   7.754  66.898  1.00  0.00    -0.343 OA 
HETATM   12  O   UNL     1      -8.371   7.553  67.120  1.00  0.00    -0.119 OA 
HETATM   13  C   UNL     1      -9.368   8.256  67.025  1.00  0.00    -0.160 C  
ENDBRANCH   5  10
ENDBRANCH   4   5
ENDBRANCH   2   4
BRANCH   2  14
HETATM   14  C   UNL     1     -10.816  14.291  67.779  1.00  0.00    -0.253 C  
BRANCH  14  15
HETATM   15  N   UNL     1     -11.413  14.929  69.006  1.00  0.00    -0.284 NA 
BRANCH  15  16
HETATM   16  C   UNL     1     -11.719  13.830  69.999  1.00  0.00    -0.257 C  
HETATM   17  C   UNL     1     -12.760  14.241  71.035  1.00  0.00    -0.359 C  
HETATM   18  O   UNL     1     -13.648  15.149  70.554  1.00  0.00    -0.183 OA 
HETATM   19  O   UNL     1     -12.838  13.764  72.155  1.00  0.00    -0.316 OA 
ENDBRANCH  15  16
BRANCH  15  20
HETATM   20  C   UNL     1     -10.348  15.804  69.647  1.00  0.00    -0.290 C  
HETATM   21  C   UNL     1     -10.225  17.183  68.999  1.00  0.00    -0.315 C  
HETATM   22  O   UNL     1     -11.385  17.622  68.454  1.00  0.00     0.173 OA 
HETATM   23  O   UNL     1      -9.207  17.851  69.012  1.00  0.00    -0.181 OA 
ENDBRANCH  15  20
ENDBRANCH  14  15
ENDBRANCH   2  14
TORSDOF 8
ENDMDL
MODEL      403
REMARK 921   NORMALIZED FREE ENERGY PREDICTED BY IDOCK:   -1.42 KCAL/MOL
REMARK 922        TOTAL FREE ENERGY PREDICTED BY IDOCK:   -3.42 KCAL/MOL
REMARK 923 INTER-LIGAND FREE ENERGY PREDICTED BY IDOCK:   -3.69 KCAL/MOL
REMARK 924 INTRA-LIGAND FREE ENERGY PREDICTED BY IDOCK:    0.27 KCAL/MOL
REMARK 927      BINDING AFFINITY PREDICTED BY RF-SCORE:    0.00 PKD
ROOT
HETATM    1  O   UNL     1      -9.769   6.604  68.430  1.00  0.00    -0.126 OA 
HETATM    2  C   UNL     1      -8.593   7.395  68.638  1.00  0.00    -0.129 C  
HETATM    3  H   UNL     1     -10.466   6.917  68.996  1.00  0.00     0.000 HD 
ENDROOT
BRANCH   2   4
HETATM    4  C   UNL     1      -8.952   8.874  68.348  1.00  0.00    -0.134 C  
BRANCH   4   5
HETATM    5  N   UNL     1     -10.038   9.483  69.202  1.00  0.00    -0.187 NA 
BRANCH   5   6
HETATM    6  C   UNL     1      -9.987  10.981  69.018  1.00  0.00    -0.167 C  
HETATM    7  O   UNL     1     -12.218  10.742  68.145  1.00  0.00    -0.399 OA 
HETATM    8  C   UNL     1     -11.093  11.493  68.099  1.00  0.00    -0.246 C  
HETATM    9  O   UNL     1     -10.992  12.495  67.408  1.00  0.00    -0.242 OA 
ENDBRANCH   5   6
BRANCH   5  10
HETATM   10  C   UNL     1      -9.734   9.187  70.647  1.00  0.00    -0.256 C  
HETATM   11  O   UNL     1     -11.615   7.697  70.529  1.00  0.00    -0.260 OA 
HETATM   12  O   UNL     1     -11.118   8.580  72.557  1.00  0.00    -0.355 OA 
HETATM   13  C   UNL     1     -10.893   8.485  71.358  1.00  0.00    -0.260 C  
ENDBRANCH   5  10
ENDBRANCH   4   5
ENDBRANCH   2   4
BRANCH   2  14
HETATM   14  C   UNL     1      -7.450   6.882  67.709  1.00  0.00    -0.098 C  
BRANCH  14  15
HETATM   15  N   UNL     1      -7.847   6.162  66.447  1.00  0.00    -0.102 NA 
BRANCH  15  16
HETATM   16  C   UNL     1      -8.524   4.870  66.842  1.00  0.00    -0.106 C  
HETATM   17  C   UNL     1      -8.425   3.795  65.764  1.00  0.00    -0.110 C  
HETATM   18  O   UNL     1      -7.297   3.906  65.016  1.00  0.00    -0.066 OA 
HETATM   19  O   UNL     1      -9.230   2.889  65.622  1.00  0.00    -0.150 OA 
ENDBRANCH  15  16
BRANCH  15  20
HETATM   20  C   UNL     1      -8.899   7.000  65.739  1.00  0.00    -0.064 C  
HETATM   21  C   UNL     1      -8.327   7.874  64.622  1.00  0.00    -0.038 C  
HETATM   22  O   UNL     1      -7.217   7.350  64.048  1.00  0.00    -0.070 OA 
HETATM   23  O   UNL     1      -8.839   8.912  64.243  1.00  0.00    -0.127 OA 
ENDBRANCH  15  20
ENDBRANCH  14  15
ENDBRANCH   2  14
TORSDOF 8
ENDMDL
MODEL      404
REMARK 921   NORMALIZED FREE ENERGY PREDICTED BY IDOCK:   -1.42 KCAL/MOL
REMARK 922        TOTAL FREE ENERGY PREDICTED BY IDOCK:   -3.42 KCAL/MOL
REMARK 923 INTER-LIGAND FREE ENERGY PREDICTED BY IDOCK:   -5.20 KCAL/MOL
REMARK 924 INTRA-LIGAND FREE ENERGY PREDICTED BY IDOCK:    1.78 KCAL/MOL
REMARK 927      BINDING AFFINITY PREDICTED BY RF-SCORE:    0.00 PKD
ROOT
HETATM    1  O   UNL     1     -12.100  14.802  67.544  1.00  0.00    -0.528 OA 
HETATM    2  C   UNL     1     -11.742  14.344  68.852  1.00  0.00    -0.322 C  
HETATM    3  H   UNL     1     -12.065  15.751  67.519  1.00  0.00     0.000 HD 
ENDROOT
BRANCH   2   4
HETATM    4  C   UNL     1     -10.324  14.879  69.177  1.00  0.00    -0.245 C  
BRANCH   4   5
HETATM    5  N   UNL     1      -9.413  15.130  68.000  1.00  0.00    -0.197 NA 
BRANCH   5   6
HETATM    6  C   UNL     1      -8.020  14.701  68.394  1.00  0.00    -0.137 C  
HETATM    7  O   UNL     1      -8.020  16.683  69.762  1.00  0.00     0.313 OA 
HETATM    8  C   UNL     1      -7.236  15.821  69.074  1.00  0.00    -0.168 C  
HETATM    9  O   UNL     1      -6.020  15.922  69.029  1.00  0.00    -0.111 OA 
ENDBRANCH   5   6
BRANCH   5  10
HETATM   10  C   UNL     1      -9.379  16.611  67.729  1.00  0.00    -0.222 C  
HETATM   11  O   UNL     1      -9.426  15.984  65.410  1.00  0.00    -0.378 OA 
HETATM   12  O   UNL     1      -8.445  17.961  65.929  1.00  0.00    -0.516 OA 
HETATM   13  C   UNL     1      -9.009  16.933  66.280  1.00  0.00    -0.270 C  
ENDBRANCH   5  10
ENDBRANCH   4   5
ENDBRANCH   2   4
BRANCH   2  14
HETATM   14  C   UNL     1     -11.798  12.786  68.893  1.00  0.00    -0.308 C  
BRANCH  14  15
HETATM   15  N   UNL     1     -10.650  12.031  68.275  1.00  0.00    -0.204 NA 
BRANCH  15  16
HETATM   16  C   UNL     1     -10.169  11.011  69.282  1.00  0.00    -0.127 C  
HETATM   17  C   UNL     1     -11.310  10.340  70.039  1.00  0.00    -0.301 C  
HETATM   18  O   UNL     1     -12.448  10.256  69.302  1.00  0.00    -0.014 OA 
HETATM   19  O   UNL     1     -11.207   9.866  71.158  1.00  0.00    -0.354 OA 
ENDBRANCH  15  16
BRANCH  15  20
HETATM   20  C   UNL     1     -11.188  11.245  67.090  1.00  0.00    -0.275 C  
HETATM   21  C   UNL     1     -11.108  12.009  65.769  1.00  0.00    -0.324 C  
HETATM   22  O   UNL     1     -10.088  12.901  65.728  1.00  0.00    -0.284 OA 
HETATM   23  O   UNL     1     -11.847  11.808  64.822  1.00  0.00    -0.228 OA 
ENDBRANCH  15  20
ENDBRANCH  14  15
ENDBRANCH   2  14
TORSDOF 8
ENDMDL
MODEL      405
REMARK 921   NORMALIZED FREE ENERGY PREDICTED BY IDOCK:   -1.36 KCAL/MOL
REMARK 922        TOTAL FREE ENERGY PREDICTED BY IDOCK:   -3.33 KCAL/MOL
REMARK 923 INTER-LIGAND FREE ENERGY PREDICTED BY IDOCK:   -2.90 KCAL/MOL
REMARK 924 INTRA-LIGAND FREE ENERGY PREDICTED BY IDOCK:   -0.43 KCAL/MOL
REMARK 927      BINDING AFFINITY PREDICTED BY RF-SCORE:    0.00 PKD
ROOT
HETATM    1  O   UNL     1      -9.450   7.037  69.147  1.00  0.00    -0.144 OA 
HETATM    2  C   UNL     1      -9.155   5.640  69.253  1.00  0.00    -0.113 C  
HETATM    3  H   UNL     1      -8.936   7.418  68.444  1.00  0.00     0.000 HD 
ENDROOT
BRANCH   2   4
HETATM    4  C   UNL     1      -9.466   4.979  67.886  1.00  0.00    -0.134 C  
BRANCH   4   5
HETATM    5  N   UNL     1      -8.352   4.979  66.868  1.00  0.00    -0.107 NA 
BRANCH   5   6
HETATM    6  C   UNL     1      -8.747   5.915  65.751  1.00  0.00    -0.151 C  
HETATM    7  O   UNL     1      -7.452   7.556  66.947  1.00  0.00    -0.093 OA 
HETATM    8  C   UNL     1      -8.494   7.380  66.101  1.00  0.00    -0.145 C  
HETATM    9  O   UNL     1      -9.144   8.308  65.647  1.00  0.00    -0.156 OA 
ENDBRANCH   5   6
BRANCH   5  10
HETATM   10  C   UNL     1      -8.232   3.595  66.288  1.00  0.00    -0.100 C  
HETATM   11  O   UNL     1      -5.889   3.813  66.771  1.00  0.00    -0.022 OA 
HETATM   12  O   UNL     1      -6.472   2.441  65.063  1.00  0.00    -0.023 OA 
HETATM   13  C   UNL     1      -6.788   3.224  65.948  1.00  0.00    -0.052 C  
ENDBRANCH   5  10
ENDBRANCH   4   5
ENDBRANCH   2   4
BRANCH   2  14
HETATM   14  C   UNL     1      -9.998   5.015  70.407  1.00  0.00    -0.247 C  
BRANCH  14  15
HETATM   15  N   UNL     1      -9.820   5.587  71.789  1.00  0.00    -0.167 NA 
BRANCH  15  16
HETATM   16  C   UNL     1      -8.378   6.016  71.933  1.00  0.00    -0.115 C  
HETATM   17  C   UNL     1      -7.779   5.637  73.283  1.00  0.00    -0.099 C  
HETATM   18  O   UNL     1      -8.330   4.509  73.802  1.00  0.00    -0.103 OA 
HETATM   19  O   UNL     1      -6.859   6.234  73.818  1.00  0.00    -0.078 OA 
ENDBRANCH  15  16
BRANCH  15  20
HETATM   20  C   UNL     1     -10.658   6.853  71.884  1.00  0.00    -0.211 C  
HETATM   21  C   UNL     1     -12.155   6.580  72.026  1.00  0.00    -0.312 C  
HETATM   22  O   UNL     1     -12.428   5.404  72.642  1.00  0.00     0.017 OA 
HETATM   23  O   UNL     1     -13.023   7.358  71.674  1.00  0.00    -0.349 OA 
ENDBRANCH  15  20
ENDBRANCH  14  15
ENDBRANCH   2  14
TORSDOF 8
ENDMDL
MODEL      406
REMARK 921   NORMALIZED FREE ENERGY PREDICTED BY IDOCK:   -1.26 KCAL/MOL
REMARK 922        TOTAL FREE ENERGY PREDICTED BY IDOCK:   -3.19 KCAL/MOL
REMARK 923 INTER-LIGAND FREE ENERGY PREDICTED BY IDOCK:   -3.51 KCAL/MOL
REMARK 924 INTRA-LIGAND FREE ENERGY PREDICTED BY IDOCK:    0.33 KCAL/MOL
REMARK 927      BINDING AFFINITY PREDICTED BY RF-SCORE:    0.00 PKD
ROOT
HETATM    1  O   UNL     1     -11.091  11.624  68.181  1.00  0.00    -0.210 OA 
HETATM    2  C   UNL     1     -11.030  10.213  68.416  1.00  0.00    -0.244 C  
HETATM    3  H   UNL     1     -11.878  11.979  68.578  1.00  0.00     0.000 HD 
ENDROOT
BRANCH   2   4
HETATM    4  C   UNL     1     -11.060   9.979  69.947  1.00  0.00    -0.288 C  
BRANCH   4   5
HETATM    5  N   UNL     1     -10.316   8.769  70.459  1.00  0.00    -0.195 NA 
BRANCH   5   6
HETATM    6  C   UNL     1     -11.230   7.574  70.324  1.00  0.00    -0.236 C  
HETATM    7  O   UNL     1      -9.414   6.587  69.087  1.00  0.00    -0.136 OA 
HETATM    8  C   UNL     1     -10.758   6.599  69.248  1.00  0.00    -0.265 C  
HETATM    9  O   UNL     1     -11.508   5.878  68.609  1.00  0.00    -0.006 OA 
ENDBRANCH   5   6
BRANCH   5  10
HETATM   10  C   UNL     1     -10.030   8.966  71.924  1.00  0.00    -0.314 C  
HETATM   11  O   UNL     1      -7.994   7.771  71.482  1.00  0.00    -0.087 OA 
HETATM   12  O   UNL     1      -8.830   7.651  73.586  1.00  0.00    -0.193 OA 
HETATM   13  C   UNL     1      -8.916   8.050  72.433  1.00  0.00    -0.176 C  
ENDBRANCH   5  10
ENDBRANCH   4   5
ENDBRANCH   2   4
BRANCH   2  14
HETATM   14  C   UNL     1      -9.738   9.631  67.764  1.00  0.00    -0.146 C  
BRANCH  14  15
HETATM   15  N   UNL     1      -8.525  10.523  67.704  1.00  0.00    -0.115 NA 
BRANCH  15  16
HETATM   16  C   UNL     1      -7.306   9.670  67.974  1.00  0.00    -0.082 C  
HETATM   17  C   UNL     1      -6.550  10.096  69.227  1.00  0.00    -0.053 C  
HETATM   18  O   UNL     1      -7.362  10.645  70.168  1.00  0.00    -0.155 OA 
HETATM   19  O   UNL     1      -5.357   9.911  69.405  1.00  0.00    -0.035 OA 
ENDBRANCH  15  16
BRANCH  15  20
HETATM   20  C   UNL     1      -8.387  11.032  66.278  1.00  0.00    -0.166 C  
HETATM   21  C   UNL     1      -8.024   9.937  65.276  1.00  0.00    -0.137 C  
HETATM   22  O   UNL     1      -8.476   8.712  65.636  1.00  0.00    -0.138 OA 
HETATM   23  O   UNL     1      -7.435  10.143  64.229  1.00  0.00    -0.138 OA 
ENDBRANCH  15  20
ENDBRANCH  14  15
ENDBRANCH   2  14
TORSDOF 8
ENDMDL
MODEL      407
REMARK 921   NORMALIZED FREE ENERGY PREDICTED BY IDOCK:   -1.19 KCAL/MOL
REMARK 922        TOTAL FREE ENERGY PREDICTED BY IDOCK:   -3.07 KCAL/MOL
REMARK 923 INTER-LIGAND FREE ENERGY PREDICTED BY IDOCK:   -5.06 KCAL/MOL
REMARK 924 INTRA-LIGAND FREE ENERGY PREDICTED BY IDOCK:    1.99 KCAL/MOL
REMARK 927      BINDING AFFINITY PREDICTED BY RF-SCORE:    0.00 PKD
ROOT
HETATM    1  O   UNL     1     -12.371  10.748  68.437  1.00  0.00    -0.813 OA 
HETATM    2  C   UNL     1     -10.967  10.492  68.554  1.00  0.00    -0.252 C  
HETATM    3  H   UNL     1     -12.738  10.910  69.298  1.00  0.00     0.000 HD 
ENDROOT
BRANCH   2   4
HETATM    4  C   UNL     1     -10.311  11.716  69.241  1.00  0.00     0.069 C  
BRANCH   4   5
HETATM    5  N   UNL     1     -10.699  13.075  68.708  1.00  0.00    -0.244 NA 
BRANCH   5   6
HETATM    6  C   UNL     1     -11.841  13.593  69.551  1.00  0.00    -0.337 C  
HETATM    7  O   UNL     1     -10.399  15.475  69.973  1.00  0.00    -0.299 OA 
HETATM    8  C   UNL     1     -11.413  14.730  70.474  1.00  0.00    -0.249 C  
HETATM    9  O   UNL     1     -11.943  14.968  71.548  1.00  0.00    -0.314 OA 
ENDBRANCH   5   6
BRANCH   5  10
HETATM   10  C   UNL     1     -11.206  12.910  67.300  1.00  0.00    -0.288 C  
HETATM   11  O   UNL     1      -9.176  14.020  66.654  1.00  0.00    -0.265 OA 
HETATM   12  O   UNL     1     -10.958  14.229  65.268  1.00  0.00    -0.310 OA 
HETATM   13  C   UNL     1     -10.464  13.801  66.301  1.00  0.00    -0.291 C  
ENDBRANCH   5  10
ENDBRANCH   4   5
ENDBRANCH   2   4
BRANCH   2  14
HETATM   14  C   UNL     1     -10.365  10.226  67.140  1.00  0.00    -0.238 C  
BRANCH  14  15
HETATM   15  N   UNL     1      -8.935   9.758  67.068  1.00  0.00    -0.137 NA 
BRANCH  15  16
HETATM   16  C   UNL     1      -8.925   8.388  66.430  1.00  0.00    -0.171 C  
HETATM   17  C   UNL     1      -8.263   7.330  67.306  1.00  0.00    -0.115 C  
HETATM   18  O   UNL     1      -8.398   7.589  68.632  1.00  0.00    -0.127 OA 
HETATM   19  O   UNL     1      -7.726   6.322  66.877  1.00  0.00    -0.097 OA 
ENDBRANCH  15  16
BRANCH  15  20
HETATM   20  C   UNL     1      -8.186  10.680  66.119  1.00  0.00    -0.156 C  
HETATM   21  C   UNL     1      -8.419  10.352  64.645  1.00  0.00    -0.173 C  
HETATM   22  O   UNL     1      -9.628   9.787  64.407  1.00  0.00    -0.258 OA 
HETATM   23  O   UNL     1      -7.627  10.615  63.757  1.00  0.00     0.004 OA 
ENDBRANCH  15  20
ENDBRANCH  14  15
ENDBRANCH   2  14
TORSDOF 8
ENDMDL
MODEL      408
REMARK 921   NORMALIZED FREE ENERGY PREDICTED BY IDOCK:   -1.15 KCAL/MOL
REMARK 922        TOTAL FREE ENERGY PREDICTED BY IDOCK:   -3.02 KCAL/MOL
REMARK 923 INTER-LIGAND FREE ENERGY PREDICTED BY IDOCK:   -5.40 KCAL/MOL
REMARK 924 INTRA-LIGAND FREE ENERGY PREDICTED BY IDOCK:    2.38 KCAL/MOL
REMARK 927      BINDING AFFINITY PREDICTED BY RF-SCORE:    0.00 PKD
ROOT
HETATM    1  O   UNL     1     -10.942  11.942  69.594  1.00  0.00    -0.455 OA 
HETATM    2  C   UNL     1     -10.244  11.067  68.701  1.00  0.00    -0.199 C  
HETATM    3  H   UNL     1     -11.127  12.763  69.153  1.00  0.00     0.000 HD 
ENDROOT
BRANCH   2   4
HETATM    4  C   UNL     1     -11.125  10.862  67.443  1.00  0.00    -0.307 C  
BRANCH   4   5
HETATM    5  N   UNL     1     -10.396  10.629  66.141  1.00  0.00    -0.244 NA 
BRANCH   5   6
HETATM    6  C   UNL     1      -8.946  10.993  66.352  1.00  0.00    -0.181 C  
HETATM    7  O   UNL     1      -8.480   8.840  65.378  1.00  0.00    -0.150 OA 
HETATM    8  C   UNL     1      -8.019   9.786  66.229  1.00  0.00    -0.109 C  
HETATM    9  O   UNL     1      -6.953   9.686  66.817  1.00  0.00    -0.083 OA 
ENDBRANCH   5   6
BRANCH   5  10
HETATM   10  C   UNL     1     -10.959  11.564  65.103  1.00  0.00    -0.234 C  
HETATM   11  O   UNL     1     -12.047  12.641  66.954  1.00  0.00    -0.490 OA 
HETATM   12  O   UNL     1     -13.047  12.804  64.926  1.00  0.00    -0.833 OA 
HETATM   13  C   UNL     1     -12.140  12.381  65.629  1.00  0.00    -0.329 C  
ENDBRANCH   5  10
ENDBRANCH   4   5
ENDBRANCH   2   4
BRANCH   2  14
HETATM   14  C   UNL     1      -9.940   9.719  69.423  1.00  0.00    -0.205 C  
BRANCH  14  15
HETATM   15  N   UNL     1     -10.684   8.495  68.957  1.00  0.00    -0.151 NA 
BRANCH  15  16
HETATM   16  C   UNL     1      -9.664   7.439  68.596  1.00  0.00    -0.152 C  
HETATM   17  C   UNL     1     -10.264   6.279  67.808  1.00  0.00    -0.170 C  
HETATM   18  O   UNL     1     -11.324   6.656  67.047  1.00  0.00    -0.348 OA 
HETATM   19  O   UNL     1      -9.811   5.146  67.802  1.00  0.00    -0.142 OA 
ENDBRANCH  15  16
BRANCH  15  20
HETATM   20  C   UNL     1     -11.471   7.946  70.137  1.00  0.00    -0.017 C  
HETATM   21  C   UNL     1     -10.591   7.291  71.201  1.00  0.00    -0.222 C  
HETATM   22  O   UNL     1      -9.343   7.816  71.261  1.00  0.00    -0.150 OA 
HETATM   23  O   UNL     1     -10.978   6.421  71.961  1.00  0.00    -0.230 OA 
ENDBRANCH  15  20
ENDBRANCH  14  15
ENDBRANCH   2  14
TORSDOF 8
ENDMDL
MODEL      409
REMARK 921   NORMALIZED FREE ENERGY PREDICTED BY IDOCK:   -0.90 KCAL/MOL
REMARK 922        TOTAL FREE ENERGY PREDICTED BY IDOCK:   -2.65 KCAL/MOL
REMARK 923 INTER-LIGAND FREE ENERGY PREDICTED BY IDOCK:   -4.60 KCAL/MOL
REMARK 924 INTRA-LIGAND FREE ENERGY PREDICTED BY IDOCK:    1.95 KCAL/MOL
REMARK 927      BINDING AFFINITY PREDICTED BY RF-SCORE:    0.00 PKD
ROOT
HETATM    1  O   UNL     1     -12.435  10.570  68.865  1.00  0.00    -0.776 OA 
HETATM    2  C   UNL     1     -11.232   9.965  69.350  1.00  0.00    -0.153 C  
HETATM    3  H   UNL     1     -12.578  11.395  69.314  1.00  0.00     0.000 HD 
ENDROOT
BRANCH   2   4
HETATM    4  C   UNL     1     -10.066  10.959  69.116  1.00  0.00    -0.177 C  
BRANCH   4   5
HETATM    5  N   UNL     1     -10.301  12.044  68.093  1.00  0.00    -0.192 NA 
BRANCH   5   6
HETATM    6  C   UNL     1     -11.224  13.068  68.710  1.00  0.00    -0.282 C  
HETATM    7  O   UNL     1      -9.674  14.688  67.829  1.00  0.00    -0.211 OA 
HETATM    8  C   UNL     1     -10.579  14.449  68.808  1.00  0.00    -0.254 C  
HETATM    9  O   UNL     1     -10.863  15.271  69.664  1.00  0.00    -0.255 OA 
ENDBRANCH   5   6
BRANCH   5  10
HETATM   10  C   UNL     1     -11.009  11.441  66.910  1.00  0.00    -0.299 C  
HETATM   11  O   UNL     1      -8.806  11.131  66.004  1.00  0.00    -0.184 OA 
HETATM   12  O   UNL     1     -10.511  11.356  64.527  1.00  0.00    -0.281 OA 
HETATM   13  C   UNL     1     -10.106  11.327  65.681  1.00  0.00    -0.247 C  
ENDBRANCH   5  10
ENDBRANCH   4   5
ENDBRANCH   2   4
BRANCH   2  14
HETATM   14  C   UNL     1     -10.996   8.610  68.613  1.00  0.00     0.163 C  
BRANCH  14  15
HETATM   15  N   UNL     1      -9.632   8.366  68.021  1.00  0.00    -0.147 NA 
BRANCH  15  16
HETATM   16  C   UNL     1      -8.822   7.583  69.028  1.00  0.00    -0.132 C  
HETATM   17  C   UNL     1      -7.329   7.888  68.954  1.00  0.00    -0.085 C  
HETATM   18  O   UNL     1      -7.074   9.156  68.540  1.00  0.00    -0.070 OA 
HETATM   19  O   UNL     1      -6.452   7.110  69.290  1.00  0.00    -0.034 OA 
ENDBRANCH  15  16
BRANCH  15  20
HETATM   20  C   UNL     1      -9.801   7.465  66.809  1.00  0.00    -0.220 C  
HETATM   21  C   UNL     1     -10.410   6.104  67.145  1.00  0.00    -0.230 C  
HETATM   22  O   UNL     1     -11.229   6.136  68.225  1.00  0.00    -0.323 OA 
HETATM   23  O   UNL     1     -10.228   5.096  66.485  1.00  0.00    -0.209 OA 
ENDBRANCH  15  20
ENDBRANCH  14  15
ENDBRANCH   2  14
TORSDOF 8
ENDMDL
MODEL      410
REMARK 921   NORMALIZED FREE ENERGY PREDICTED BY IDOCK:   -0.78 KCAL/MOL
REMARK 922        TOTAL FREE ENERGY PREDICTED BY IDOCK:   -2.48 KCAL/MOL
REMARK 923 INTER-LIGAND FREE ENERGY PREDICTED BY IDOCK:   -4.05 KCAL/MOL
REMARK 924 INTRA-LIGAND FREE ENERGY PREDICTED BY IDOCK:    1.57 KCAL/MOL
REMARK 927      BINDING AFFINITY PREDICTED BY RF-SCORE:    0.00 PKD
ROOT
HETATM    1  O   UNL     1     -11.302  10.354  70.621  1.00  0.00    -0.319 OA 
HETATM    2  C   UNL     1     -10.004   9.763  70.491  1.00  0.00    -0.193 C  
HETATM    3  H   UNL     1     -11.356  11.128  70.072  1.00  0.00     0.000 HD 
ENDROOT
BRANCH   2   4
HETATM    4  C   UNL     1      -9.778   9.427  68.995  1.00  0.00    -0.166 C  
BRANCH   4   5
HETATM    5  N   UNL     1      -8.378   9.620  68.465  1.00  0.00    -0.116 NA 
BRANCH   5   6
HETATM    6  C   UNL     1      -7.724  10.715  69.274  1.00  0.00    -0.142 C  
HETATM    7  O   UNL     1      -5.849   9.210  69.412  1.00  0.00    -0.034 OA 
HETATM    8  C   UNL     1      -6.495  10.224  70.035  1.00  0.00    -0.116 C  
HETATM    9  O   UNL     1      -6.111  10.707  71.088  1.00  0.00    -0.337 OA 
ENDBRANCH   5   6
BRANCH   5  10
HETATM   10  C   UNL     1      -8.466  10.093  67.039  1.00  0.00    -0.129 C  
HETATM   11  O   UNL     1      -9.675  11.960  67.943  1.00  0.00    -0.181 OA 
HETATM   12  O   UNL     1     -10.127  11.373  65.801  1.00  0.00    -0.226 OA 
HETATM   13  C   UNL     1      -9.521  11.183  66.846  1.00  0.00    -0.185 C  
ENDBRANCH   5  10
ENDBRANCH   4   5
ENDBRANCH   2   4
BRANCH   2  14
HETATM   14  C   UNL     1      -9.916   8.493  71.392  1.00  0.00    -0.233 C  
BRANCH  14  15
HETATM   15  N   UNL     1     -10.022   7.151  70.717  1.00  0.00    -0.190 NA 
BRANCH  15  16
HETATM   16  C   UNL     1      -8.810   6.336  71.108  1.00  0.00    -0.142 C  
HETATM   17  C   UNL     1      -8.270   5.489  69.961  1.00  0.00    -0.104 C  
HETATM   18  O   UNL     1      -8.493   6.050  68.745  1.00  0.00    -0.112 OA 
HETATM   19  O   UNL     1      -7.646   4.451  70.109  1.00  0.00    -0.049 OA 
ENDBRANCH  15  16
BRANCH  15  20
HETATM   20  C   UNL     1     -11.230   6.429  71.293  1.00  0.00    -0.292 C  
HETATM   21  C   UNL     1     -11.064   6.049  72.764  1.00  0.00    -0.269 C  
HETATM   22  O   UNL     1     -10.248   6.890  73.445  1.00  0.00    -0.222 OA 
HETATM   23  O   UNL     1     -11.645   5.119  73.295  1.00  0.00    -0.297 OA 
ENDBRANCH  15  20
ENDBRANCH  14  15
ENDBRANCH   2  14
TORSDOF 8
ENDMDL
MODEL      411
REMARK 921   NORMALIZED FREE ENERGY PREDICTED BY IDOCK:   -0.55 KCAL/MOL
REMARK 922        TOTAL FREE ENERGY PREDICTED BY IDOCK:   -2.14 KCAL/MOL
REMARK 923 INTER-LIGAND FREE ENERGY PREDICTED BY IDOCK:   -2.72 KCAL/MOL
REMARK 924 INTRA-LIGAND FREE ENERGY PREDICTED BY IDOCK:    0.58 KCAL/MOL
REMARK 927      BINDING AFFINITY PREDICTED BY RF-SCORE:    0.00 PKD
ROOT
HETATM    1  O   UNL     1      -9.733   8.857  70.749  1.00  0.00    -0.190 OA 
HETATM    2  C   UNL     1      -8.325   9.114  70.769  1.00  0.00    -0.208 C  
HETATM    3  H   UNL     1     -10.120   9.269  69.985  1.00  0.00     0.000 HD 
ENDROOT
BRANCH   2   4
HETATM    4  C   UNL     1      -7.718   8.572  69.451  1.00  0.00    -0.092 C  
BRANCH   4   5
HETATM    5  N   UNL     1      -8.442   8.937  68.177  1.00  0.00    -0.129 NA 
BRANCH   5   6
HETATM    6  C   UNL     1      -8.625  10.436  68.163  1.00  0.00    -0.125 C  
HETATM    7  O   UNL     1      -8.150  10.263  65.808  1.00  0.00    -0.136 OA 
HETATM    8  C   UNL     1      -8.082  11.077  66.887  1.00  0.00    -0.142 C  
HETATM    9  O   UNL     1      -7.652  12.218  66.831  1.00  0.00    -0.107 OA 
ENDBRANCH   5   6
BRANCH   5  10
HETATM   10  C   UNL     1      -9.809   8.307  68.205  1.00  0.00    -0.172 C  
HETATM   11  O   UNL     1      -8.660   6.268  67.664  1.00  0.00    -0.115 OA 
HETATM   12  O   UNL     1     -10.819   6.449  66.998  1.00  0.00    -0.325 OA 
HETATM   13  C   UNL     1      -9.834   6.930  67.540  1.00  0.00    -0.138 C  
ENDBRANCH   5  10
ENDBRANCH   4   5
ENDBRANCH   2   4
BRANCH   2  14
HETATM   14  C   UNL     1      -7.689   8.438  72.023  1.00  0.00    -0.123 C  
BRANCH  14  15
HETATM   15  N   UNL     1      -7.631   6.933  72.048  1.00  0.00    -0.092 NA 
BRANCH  15  16
HETATM   16  C   UNL     1      -6.759   6.520  73.211  1.00  0.00    -0.073 C  
HETATM   17  C   UNL     1      -5.719   5.472  72.830  1.00  0.00    -0.023 C  
HETATM   18  O   UNL     1      -5.324   5.573  71.535  1.00  0.00    -0.009 OA 
HETATM   19  O   UNL     1      -5.238   4.666  73.611  1.00  0.00    -0.008 OA 
ENDBRANCH  15  16
BRANCH  15  20
HETATM   20  C   UNL     1      -9.028   6.414  72.352  1.00  0.00    -0.134 C  
HETATM   21  C   UNL     1      -9.435   5.223  71.484  1.00  0.00    -0.150 C  
HETATM   22  O   UNL     1      -8.382   4.470  71.083  1.00  0.00    -0.087 OA 
HETATM   23  O   UNL     1     -10.589   4.940  71.218  1.00  0.00    -0.144 OA 
ENDBRANCH  15  20
ENDBRANCH  14  15
ENDBRANCH   2  14
TORSDOF 8
ENDMDL
MODEL      412
REMARK 921   NORMALIZED FREE ENERGY PREDICTED BY IDOCK:   -0.49 KCAL/MOL
REMARK 922        TOTAL FREE ENERGY PREDICTED BY IDOCK:   -2.05 KCAL/MOL
REMARK 923 INTER-LIGAND FREE ENERGY PREDICTED BY IDOCK:   -3.57 KCAL/MOL
REMARK 924 INTRA-LIGAND FREE ENERGY PREDICTED BY IDOCK:    1.52 KCAL/MOL
REMARK 927      BINDING AFFINITY PREDICTED BY RF-SCORE:    0.00 PKD
ROOT
HETATM    1  O   UNL     1     -10.246  10.119  68.003  1.00  0.00    -0.158 OA 
HETATM    2  C   UNL     1      -9.565  10.077  69.262  1.00  0.00    -0.216 C  
HETATM    3  H   UNL     1     -10.351  11.023  67.728  1.00  0.00     0.000 HD 
ENDROOT
BRANCH   2   4
HETATM    4  C   UNL     1      -8.200  10.791  69.093  1.00  0.00    -0.120 C  
BRANCH   4   5
HETATM    5  N   UNL     1      -7.689  10.943  67.681  1.00  0.00    -0.106 NA 
BRANCH   5   6
HETATM    6  C   UNL     1      -6.357  10.237  67.593  1.00  0.00    -0.058 C  
HETATM    7  O   UNL     1      -6.543  10.623  65.223  1.00  0.00    -0.092 OA 
HETATM    8  C   UNL     1      -6.018   9.808  66.168  1.00  0.00    -0.064 C  
HETATM    9  O   UNL     1      -5.321   8.842  65.898  1.00  0.00    -0.036 OA 
ENDBRANCH   5   6
BRANCH   5  10
HETATM   10  C   UNL     1      -7.454  12.405  67.411  1.00  0.00    -0.157 C  
HETATM   11  O   UNL     1      -6.291  12.400  69.512  1.00  0.00    -0.115 OA 
HETATM   12  O   UNL     1      -7.226  14.356  68.849  1.00  0.00    -0.114 OA 
HETATM   13  C   UNL     1      -7.008  13.168  68.659  1.00  0.00    -0.102 C  
ENDBRANCH   5  10
ENDBRANCH   4   5
ENDBRANCH   2   4
BRANCH   2  14
HETATM   14  C   UNL     1      -9.393   8.594  69.713  1.00  0.00    -0.165 C  
BRANCH  14  15
HETATM   15  N   UNL     1     -10.635   7.837  70.107  1.00  0.00    -0.232 NA 
BRANCH  15  16
HETATM   16  C   UNL     1     -10.205   6.586  70.838  1.00  0.00    -0.190 C  
HETATM   17  C   UNL     1     -10.092   5.372  69.921  1.00  0.00    -0.252 C  
HETATM   18  O   UNL     1      -9.755   5.707  68.649  1.00  0.00    -0.124 OA 
HETATM   19  O   UNL     1     -10.223   4.218  70.292  1.00  0.00    -0.138 OA 
ENDBRANCH  15  16
BRANCH  15  20
HETATM   20  C   UNL     1     -11.401   8.682  71.112  1.00  0.00    -0.275 C  
HETATM   21  C   UNL     1     -12.874   8.292  71.234  1.00  0.00    -0.173 C  
HETATM   22  O   UNL     1     -13.105   6.985  70.962  1.00  0.00    -0.302 OA 
HETATM   23  O   UNL     1     -13.751   9.057  71.591  1.00  0.00    -0.380 OA 
ENDBRANCH  15  20
ENDBRANCH  14  15
ENDBRANCH   2  14
TORSDOF 8
ENDMDL
MODEL      413
REMARK 921   NORMALIZED FREE ENERGY PREDICTED BY IDOCK:   -0.41 KCAL/MOL
REMARK 922        TOTAL FREE ENERGY PREDICTED BY IDOCK:   -1.93 KCAL/MOL
REMARK 923 INTER-LIGAND FREE ENERGY PREDICTED BY IDOCK:   -3.89 KCAL/MOL
REMARK 924 INTRA-LIGAND FREE ENERGY PREDICTED BY IDOCK:    1.96 KCAL/MOL
REMARK 927      BINDING AFFINITY PREDICTED BY RF-SCORE:    0.00 PKD
ROOT
HETATM    1  O   UNL     1     -10.547   9.622  70.706  1.00  0.00    -0.291 OA 
HETATM    2  C   UNL     1      -9.185   9.597  70.263  1.00  0.00    -0.236 C  
HETATM    3  H   UNL     1     -11.053  10.196  70.143  1.00  0.00     0.000 HD 
ENDROOT
BRANCH   2   4
HETATM    4  C   UNL     1      -9.168   9.121  68.788  1.00  0.00    -0.136 C  
BRANCH   4   5
HETATM    5  N   UNL     1      -8.919  10.181  67.742  1.00  0.00    -0.128 NA 
BRANCH   5   6
HETATM    6  C   UNL     1      -8.401  11.413  68.446  1.00  0.00    -0.153 C  
HETATM    7  O   UNL     1      -6.338  10.951  67.292  1.00  0.00    -0.061 OA 
HETATM    8  C   UNL     1      -6.878  11.514  68.398  1.00  0.00    -0.070 C  
HETATM    9  O   UNL     1      -6.208  12.068  69.254  1.00  0.00    -0.078 OA 
ENDBRANCH   5   6
BRANCH   5  10
HETATM   10  C   UNL     1     -10.232  10.537  67.099  1.00  0.00    -0.223 C  
HETATM   11  O   UNL     1     -10.279  12.356  68.667  1.00  0.00    -0.218 OA 
HETATM   12  O   UNL     1     -12.274  11.575  67.927  1.00  0.00    -0.586 OA 
HETATM   13  C   UNL     1     -11.052  11.516  67.941  1.00  0.00    -0.256 C  
ENDBRANCH   5  10
ENDBRANCH   4   5
ENDBRANCH   2   4
BRANCH   2  14
HETATM   14  C   UNL     1      -8.354   8.655  71.187  1.00  0.00    -0.164 C  
BRANCH  14  15
HETATM   15  N   UNL     1      -9.079   7.515  71.854  1.00  0.00    -0.128 NA 
BRANCH  15  16
HETATM   16  C   UNL     1      -8.791   6.257  71.068  1.00  0.00    -0.136 C  
HETATM   17  C   UNL     1     -10.051   5.607  70.505  1.00  0.00    -0.217 C  
HETATM   18  O   UNL     1     -11.029   6.510  70.234  1.00  0.00    -0.258 OA 
HETATM   19  O   UNL     1     -10.159   4.417  70.260  1.00  0.00    -0.218 OA 
ENDBRANCH  15  16
BRANCH  15  20
HETATM   20  C   UNL     1      -8.468   7.311  73.231  1.00  0.00    -0.129 C  
HETATM   21  C   UNL     1      -7.101   6.627  73.193  1.00  0.00    -0.077 C  
HETATM   22  O   UNL     1      -6.412   6.873  72.052  1.00  0.00    -0.051 OA 
HETATM   23  O   UNL     1      -6.644   5.970  74.111  1.00  0.00    -0.073 OA 
ENDBRANCH  15  20
ENDBRANCH  14  15
ENDBRANCH   2  14
TORSDOF 8
ENDMDL
MODEL      414
REMARK 921   NORMALIZED FREE ENERGY PREDICTED BY IDOCK:   -0.27 KCAL/MOL
REMARK 922        TOTAL FREE ENERGY PREDICTED BY IDOCK:   -1.74 KCAL/MOL
REMARK 923 INTER-LIGAND FREE ENERGY PREDICTED BY IDOCK:   -3.44 KCAL/MOL
REMARK 924 INTRA-LIGAND FREE ENERGY PREDICTED BY IDOCK:    1.71 KCAL/MOL
REMARK 927      BINDING AFFINITY PREDICTED BY RF-SCORE:    0.00 PKD
ROOT
HETATM    1  O   UNL     1     -10.090   9.229  71.049  1.00  0.00    -0.270 OA 
HETATM    2  C   UNL     1      -8.660   9.190  71.114  1.00  0.00    -0.130 C  
HETATM    3  H   UNL     1     -10.360   9.686  70.261  1.00  0.00     0.000 HD 
ENDROOT
BRANCH   2   4
HETATM    4  C   UNL     1      -8.139   8.490  69.833  1.00  0.00    -0.118 C  
BRANCH   4   5
HETATM    5  N   UNL     1      -8.721   8.965  68.523  1.00  0.00    -0.133 NA 
BRANCH   5   6
HETATM    6  C   UNL     1      -8.762  10.474  68.555  1.00  0.00    -0.140 C  
HETATM    7  O   UNL     1      -8.044  10.335  66.260  1.00  0.00    -0.121 OA 
HETATM    8  C   UNL     1      -8.023  11.102  67.376  1.00  0.00    -0.125 C  
HETATM    9  O   UNL     1      -7.486  12.198  67.417  1.00  0.00    -0.136 OA 
ENDBRANCH   5   6
BRANCH   5  10
HETATM   10  C   UNL     1     -10.138   8.468  68.421  1.00  0.00    -0.194 C  
HETATM   11  O   UNL     1      -9.149   6.388  67.740  1.00  0.00    -0.114 OA 
HETATM   12  O   UNL     1     -11.240   6.836  66.988  1.00  0.00    -0.393 OA 
HETATM   13  C   UNL     1     -10.248   7.168  67.623  1.00  0.00    -0.198 C  
ENDBRANCH   5  10
ENDBRANCH   4   5
ENDBRANCH   2   4
BRANCH   2  14
HETATM   14  C   UNL     1      -8.217   8.439  72.407  1.00  0.00    -0.139 C  
BRANCH  14  15
HETATM   15  N   UNL     1      -9.018   7.233  72.822  1.00  0.00    -0.132 NA 
BRANCH  15  16
HETATM   16  C   UNL     1      -8.897   6.196  71.729  1.00  0.00    -0.138 C  
HETATM   17  C   UNL     1     -10.250   5.705  71.225  1.00  0.00    -0.220 C  
HETATM   18  O   UNL     1     -11.220   6.651  71.322  1.00  0.00    -0.257 OA 
HETATM   19  O   UNL     1     -10.440   4.607  70.727  1.00  0.00    -0.121 OA 
ENDBRANCH  15  16
BRANCH  15  20
HETATM   20  C   UNL     1      -8.361   6.635  74.056  1.00  0.00    -0.128 C  
HETATM   21  C   UNL     1      -7.432   5.463  73.741  1.00  0.00    -0.091 C  
HETATM   22  O   UNL     1      -6.873   5.539  72.509  1.00  0.00    -0.072 OA 
HETATM   23  O   UNL     1      -7.170   4.572  74.530  1.00  0.00    -0.070 OA 
ENDBRANCH  15  20
ENDBRANCH  14  15
ENDBRANCH   2  14
TORSDOF 8
ENDMDL
MODEL      415
REMARK 921   NORMALIZED FREE ENERGY PREDICTED BY IDOCK:    0.17 KCAL/MOL
REMARK 922        TOTAL FREE ENERGY PREDICTED BY IDOCK:   -1.08 KCAL/MOL
REMARK 923 INTER-LIGAND FREE ENERGY PREDICTED BY IDOCK:   -2.70 KCAL/MOL
REMARK 924 INTRA-LIGAND FREE ENERGY PREDICTED BY IDOCK:    1.62 KCAL/MOL
REMARK 927      BINDING AFFINITY PREDICTED BY RF-SCORE:    0.00 PKD
ROOT
HETATM    1  O   UNL     1      -6.051  10.192  66.576  1.00  0.00    -0.062 OA 
HETATM    2  C   UNL     1      -5.816  10.188  67.989  1.00  0.00    -0.038 C  
HETATM    3  H   UNL     1      -6.266   9.313  66.288  1.00  0.00     0.000 HD 
ENDROOT
BRANCH   2   4
HETATM    4  C   UNL     1      -7.089   9.646  68.686  1.00  0.00    -0.072 C  
BRANCH   4   5
HETATM    5  N   UNL     1      -7.506   8.240  68.328  1.00  0.00    -0.095 NA 
BRANCH   5   6
HETATM    6  C   UNL     1      -9.009   8.158  68.452  1.00  0.00    -0.136 C  
HETATM    7  O   UNL     1      -8.848   6.461  66.751  1.00  0.00    -0.118 OA 
HETATM    8  C   UNL     1      -9.650   7.413  67.284  1.00  0.00    -0.150 C  
HETATM    9  O   UNL     1     -10.781   7.629  66.880  1.00  0.00    -0.351 OA 
ENDBRANCH   5   6
BRANCH   5  10
HETATM   10  C   UNL     1      -6.909   7.293  69.335  1.00  0.00    -0.050 C  
HETATM   11  O   UNL     1      -8.726   7.971  70.752  1.00  0.00    -0.132 OA 
HETATM   12  O   UNL     1      -6.824   7.274  71.768  1.00  0.00    -0.057 OA 
HETATM   13  C   UNL     1      -7.450   7.520  70.747  1.00  0.00    -0.076 C  
ENDBRANCH   5  10
ENDBRANCH   4   5
ENDBRANCH   2   4
BRANCH   2  14
HETATM   14  C   UNL     1      -5.463  11.631  68.463  1.00  0.00    -0.042 C  
BRANCH  14  15
HETATM   15  N   UNL     1      -6.577  12.645  68.500  1.00  0.00    -0.075 NA 
BRANCH  15  16
HETATM   16  C   UNL     1      -5.953  14.020  68.564  1.00  0.00    -0.092 C  
HETATM   17  C   UNL     1      -5.992  14.625  69.964  1.00  0.00    -0.141 C  
HETATM   18  O   UNL     1      -5.947  13.683  70.942  1.00  0.00    -0.183 OA 
HETATM   19  O   UNL     1      -5.997  15.823  70.194  1.00  0.00    -0.164 OA 
ENDBRANCH  15  16
BRANCH  15  20
HETATM   20  C   UNL     1      -7.322  12.572  67.177  1.00  0.00    -0.063 C  
HETATM   21  C   UNL     1      -8.843  12.593  67.336  1.00  0.00    -0.189 C  
HETATM   22  O   UNL     1      -9.256  13.262  68.439  1.00  0.00    -0.196 OA 
HETATM   23  O   UNL     1      -9.616  12.106  66.530  1.00  0.00    -0.216 OA 
ENDBRANCH  15  20
ENDBRANCH  14  15
ENDBRANCH   2  14
TORSDOF 8
ENDMDL
MODEL      416
REMARK 921   NORMALIZED FREE ENERGY PREDICTED BY IDOCK:    0.51 KCAL/MOL
REMARK 922        TOTAL FREE ENERGY PREDICTED BY IDOCK:   -0.58 KCAL/MOL
REMARK 923 INTER-LIGAND FREE ENERGY PREDICTED BY IDOCK:   -2.22 KCAL/MOL
REMARK 924 INTRA-LIGAND FREE ENERGY PREDICTED BY IDOCK:    1.64 KCAL/MOL
REMARK 927      BINDING AFFINITY PREDICTED BY RF-SCORE:    0.00 PKD
ROOT
HETATM    1  O   UNL     1      -9.798   8.167  67.310  1.00  0.00    -0.164 OA 
HETATM    2  C   UNL     1      -8.536   7.952  67.953  1.00  0.00    -0.125 C  
HETATM    3  H   UNL     1      -9.672   8.702  66.534  1.00  0.00     0.000 HD 
ENDROOT
BRANCH   2   4
HETATM    4  C   UNL     1      -7.586   7.275  66.933  1.00  0.00    -0.105 C  
BRANCH   4   5
HETATM    5  N   UNL     1      -8.099   6.022  66.264  1.00  0.00    -0.109 NA 
BRANCH   5   6
HETATM    6  C   UNL     1      -7.234   4.870  66.716  1.00  0.00    -0.080 C  
HETATM    7  O   UNL     1      -9.319   3.743  67.142  1.00  0.00    -0.170 OA 
HETATM    8  C   UNL     1      -8.019   3.829  67.510  1.00  0.00    -0.089 C  
HETATM    9  O   UNL     1      -7.526   3.120  68.374  1.00  0.00    -0.049 OA 
ENDBRANCH   5   6
BRANCH   5  10
HETATM   10  C   UNL     1      -7.927   6.170  64.776  1.00  0.00    -0.124 C  
HETATM   11  O   UNL     1      -5.590   6.414  65.271  1.00  0.00    -0.020 OA 
HETATM   12  O   UNL     1      -6.359   7.412  63.387  1.00  0.00    -0.052 OA 
HETATM   13  C   UNL     1      -6.565   6.753  64.397  1.00  0.00    -0.042 C  
ENDBRANCH   5  10
ENDBRANCH   4   5
ENDBRANCH   2   4
BRANCH   2  14
HETATM   14  C   UNL     1      -8.743   7.074  69.226  1.00  0.00    -0.136 C  
BRANCH  14  15
HETATM   15  N   UNL     1      -7.949   7.432  70.455  1.00  0.00    -0.098 NA 
BRANCH  15  16
HETATM   16  C   UNL     1      -7.712   8.924  70.439  1.00  0.00    -0.098 C  
HETATM   17  C   UNL     1      -6.231   9.290  70.433  1.00  0.00    -0.052 C  
HETATM   18  O   UNL     1      -5.464   8.355  69.816  1.00  0.00    -0.029 OA 
HETATM   19  O   UNL     1      -5.781  10.335  70.873  1.00  0.00    -0.082 OA 
ENDBRANCH  15  16
BRANCH  15  20
HETATM   20  C   UNL     1      -8.814   7.147  71.672  1.00  0.00    -0.118 C  
HETATM   21  C   UNL     1      -9.746   8.302  72.038  1.00  0.00    -0.252 C  
HETATM   22  O   UNL     1     -10.108   9.055  70.971  1.00  0.00    -0.232 OA 
HETATM   23  O   UNL     1     -10.170   8.503  73.162  1.00  0.00     0.008 OA 
ENDBRANCH  15  20
ENDBRANCH  14  15
ENDBRANCH   2  14
TORSDOF 8
ENDMDL
MODEL      417
REMARK 921   NORMALIZED FREE ENERGY PREDICTED BY IDOCK:   13.07 KCAL/MOL
REMARK 922        TOTAL FREE ENERGY PREDICTED BY IDOCK:   17.85 KCAL/MOL
REMARK 923 INTER-LIGAND FREE ENERGY PREDICTED BY IDOCK:    9.86 KCAL/MOL
REMARK 924 INTRA-LIGAND FREE ENERGY PREDICTED BY IDOCK:    7.99 KCAL/MOL
REMARK 927      BINDING AFFINITY PREDICTED BY RF-SCORE:    0.00 PKD
ROOT
HETATM    1  O   UNL     1      -8.048  16.657  66.637  1.00  0.00    -0.213 OA 
HETATM    2  C   UNL     1      -9.056  16.104  65.782  1.00  0.00    -0.108 C  
HETATM    3  H   UNL     1      -7.880  17.558  66.387  1.00  0.00     0.000 HD 
ENDROOT
BRANCH   2   4
HETATM    4  C   UNL     1     -10.325  16.984  65.903  1.00  0.00    -0.298 C  
BRANCH   4   5
HETATM    5  N   UNL     1     -10.110  18.423  66.308  1.00  0.00    -0.419 NA 
BRANCH   5   6
HETATM    6  C   UNL     1      -9.646  19.182  65.088  1.00  0.00     1.960 C  
HETATM    7  O   UNL     1     -11.722  20.384  65.303  1.00  0.00     0.752 OA 
HETATM    8  C   UNL     1     -10.775  19.970  64.428  1.00  0.00     3.221 C  
HETATM    9  O   UNL     1     -10.815  20.229  63.236  1.00  0.00     6.699 OA 
ENDBRANCH   5   6
BRANCH   5  10
HETATM   10  C   UNL     1      -9.005  18.473  67.329  1.00  0.00    -0.270 C  
HETATM   11  O   UNL     1      -8.394  20.541  66.271  1.00  0.00    -0.079 OA 
HETATM   12  O   UNL     1      -6.745  19.379  67.305  1.00  0.00    -0.197 OA 
HETATM   13  C   UNL     1      -7.915  19.483  66.965  1.00  0.00    -0.268 C  
ENDBRANCH   5  10
ENDBRANCH   4   5
ENDBRANCH   2   4
BRANCH   2  14
HETATM   14  C   UNL     1      -9.333  14.625  66.193  1.00  0.00    -0.230 C  
BRANCH  14  15
HETATM   15  N   UNL     1     -10.186  14.388  67.412  1.00  0.00    -0.246 NA 
BRANCH  15  16
HETATM   16  C   UNL     1      -9.285  13.898  68.523  1.00  0.00    -0.154 C  
HETATM   17  C   UNL     1      -8.015  13.230  68.005  1.00  0.00    -0.152 C  
HETATM   18  O   UNL     1      -7.607  13.735  66.812  1.00  0.00     0.309 OA 
HETATM   19  O   UNL     1      -7.389  12.380  68.617  1.00  0.00    -0.105 OA 
ENDBRANCH  15  16
BRANCH  15  20
HETATM   20  C   UNL     1     -10.739  15.730  67.866  1.00  0.00    -0.302 C  
HETATM   21  C   UNL     1     -11.822  15.607  68.938  1.00  0.00    -0.352 C  
HETATM   22  O   UNL     1     -11.682  14.507  69.716  1.00  0.00    -0.269 OA 
HETATM   23  O   UNL     1     -12.695  16.437  69.119  1.00  0.00     0.579 OA 
ENDBRANCH  15  20
ENDBRANCH  14  15
ENDBRANCH   2  14
TORSDOF 8
ENDMDL
MODEL      418
REMARK 921   NORMALIZED FREE ENERGY PREDICTED BY IDOCK:   15.31 KCAL/MOL
REMARK 922        TOTAL FREE ENERGY PREDICTED BY IDOCK:   21.13 KCAL/MOL
REMARK 923 INTER-LIGAND FREE ENERGY PREDICTED BY IDOCK:   15.73 KCAL/MOL
REMARK 924 INTRA-LIGAND FREE ENERGY PREDICTED BY IDOCK:    5.40 KCAL/MOL
REMARK 927      BINDING AFFINITY PREDICTED BY RF-SCORE:    0.00 PKD
ROOT
HETATM    1  O   UNL     1      -9.153  18.063  70.263  1.00  0.00     2.078 OA 
HETATM    2  C   UNL     1      -8.884  17.841  68.874  1.00  0.00    -0.118 C  
HETATM    3  H   UNL     1      -9.555  18.916  70.376  1.00  0.00     0.000 HD 
ENDROOT
BRANCH   2   4
HETATM    4  C   UNL     1     -10.223  17.956  68.102  1.00  0.00    -0.382 C  
BRANCH   4   5
HETATM    5  N   UNL     1     -10.631  16.757  67.280  1.00  0.00    -0.306 NA 
BRANCH   5   6
HETATM    6  C   UNL     1      -9.463  16.379  66.401  1.00  0.00    -0.293 C  
HETATM    7  O   UNL     1      -9.181  18.754  66.112  1.00  0.00    -0.438 OA 
HETATM    8  C   UNL     1      -8.984  17.544  65.538  1.00  0.00     0.912 C  
HETATM    9  O   UNL     1      -8.451  17.406  64.448  1.00  0.00     5.578 OA 
ENDBRANCH   5   6
BRANCH   5  10
HETATM   10  C   UNL     1     -11.772  17.157  66.383  1.00  0.00     1.992 C  
HETATM   11  O   UNL     1     -12.233  14.804  66.255  1.00  0.00    -0.205 OA 
HETATM   12  O   UNL     1     -12.872  16.082  64.495  1.00  0.00     0.319 OA 
HETATM   13  C   UNL     1     -12.336  15.978  65.590  1.00  0.00     1.822 C  
ENDBRANCH   5  10
ENDBRANCH   4   5
ENDBRANCH   2   4
BRANCH   2  14
HETATM   14  C   UNL     1      -8.224  16.441  68.687  1.00  0.00    -0.223 C  
BRANCH  14  15
HETATM   15  N   UNL     1      -8.452  15.413  69.765  1.00  0.00    -0.131 NA 
BRANCH  15  16
HETATM   16  C   UNL     1      -9.934  15.124  69.826  1.00  0.00    -0.135 C  
HETATM   17  C   UNL     1     -10.370  14.542  71.167  1.00  0.00     1.831 C  
HETATM   18  O   UNL     1      -9.599  14.970  72.199  1.00  0.00     3.041 OA 
HETATM   19  O   UNL     1     -11.343  13.821  71.318  1.00  0.00     0.700 OA 
ENDBRANCH  15  16
BRANCH  15  20
HETATM   20  C   UNL     1      -7.779  14.121  69.332  1.00  0.00     0.188 C  
HETATM   21  C   UNL     1      -8.642  13.272  68.398  1.00  0.00    -0.130 C  
HETATM   22  O   UNL     1      -9.499  14.005  67.648  1.00  0.00    -0.200 OA 
HETATM   23  O   UNL     1      -8.539  12.062  68.291  1.00  0.00    -0.168 OA 
ENDBRANCH  15  20
ENDBRANCH  14  15
ENDBRANCH   2  14
TORSDOF 8
ENDMDL
