MODEL        1
REMARK 921   NORMALIZED FREE ENERGY PREDICTED BY IDOCK:   -5.80 KCAL/MOL
REMARK 922        TOTAL FREE ENERGY PREDICTED BY IDOCK:   -9.70 KCAL/MOL
REMARK 923 INTER-LIGAND FREE ENERGY PREDICTED BY IDOCK:   -8.17 KCAL/MOL
REMARK 924 INTRA-LIGAND FREE ENERGY PREDICTED BY IDOCK:   -1.53 KCAL/MOL
REMARK 927      BINDING AFFINITY PREDICTED BY RF-SCORE:    0.00 PKD
ROOT
HETATM    1  O   UNL     1     -11.277  10.975  62.980  1.00  0.00    -0.762 OA 
HETATM    2  H   UNL     1     -11.299  10.279  62.335  1.00  0.00     0.000 HD 
HETATM    3  C   UNL     1      -9.960  11.473  62.974  1.00  0.00    -0.322 C  
ENDROOT
BRANCH   3   4
HETATM    4  N   UNL     1      -9.927  12.516  63.940  1.00  0.00    -0.596 N  
HETATM    5  H   UNL     1      -9.464  13.398  63.720  1.00  0.00     0.000 HD 
BRANCH   4   6
HETATM    6  C   UNL     1     -10.511  12.342  65.159  1.00  0.00    -0.288 C  
HETATM    7  O   UNL     1     -10.340  11.318  65.815  1.00  0.00    -0.243 OA 
BRANCH   6   8
HETATM    8  N   UNL     1     -11.251  13.405  65.639  1.00  0.00    -0.291 N  
BRANCH   8   9
HETATM    9  C   UNL     1     -10.661  14.205  66.693  1.00  0.00    -0.278 C  
HETATM   10  O   UNL     1     -11.855  13.124  68.581  1.00  0.00    -0.308 OA 
HETATM   11  N   UNL     1     -10.744  15.636  66.508  1.00  0.00    -0.307 N  
HETATM   12  C   UNL     1     -11.331  14.114  68.082  1.00  0.00    -0.290 C  
HETATM   13  O   UNL     1     -10.769  17.471  67.922  1.00  0.00    -0.384 OA 
HETATM   14  N   UNL     1     -11.199  15.333  68.679  1.00  0.00    -0.279 N  
HETATM   15  C   UNL     1     -10.876  16.268  67.738  1.00  0.00    -0.315 C  
BRANCH  11  16
HETATM   16  C   UNL     1     -10.240  16.336  65.364  1.00  0.00    -0.229 C  
HETATM   17  H   UNL     1     -10.992  17.212  63.803  1.00  0.00     0.000 HD 
HETATM   18  O   UNL     1     -11.327  16.748  64.561  1.00  0.00    -0.959 OA 
ENDBRANCH  11  16
BRANCH  14  19
HETATM   19  C   UNL     1     -11.744  15.699  69.952  1.00  0.00    -0.362 C  
HETATM   20  O   UNL     1     -13.093  15.282  70.036  1.00  0.00    -0.637 OA 
HETATM   21  H   UNL     1     -13.455  15.525  70.880  1.00  0.00     0.000 HD 
ENDBRANCH  14  19
ENDBRANCH   8   9
BRANCH   8  22
HETATM   22  C   UNL     1     -12.645  13.622  65.335  1.00  0.00    -0.491 C  
HETATM   23  H   UNL     1     -14.050  12.596  64.503  1.00  0.00     0.000 HD 
HETATM   24  O   UNL     1     -13.133  12.454  64.704  1.00  0.00    -0.825 OA 
ENDBRANCH   8  22
ENDBRANCH   6   8
ENDBRANCH   4   6
ENDBRANCH   3   4
TORSDOF 7
ENDMDL
MODEL        2
REMARK 921   NORMALIZED FREE ENERGY PREDICTED BY IDOCK:   -5.60 KCAL/MOL
REMARK 922        TOTAL FREE ENERGY PREDICTED BY IDOCK:   -9.42 KCAL/MOL
REMARK 923 INTER-LIGAND FREE ENERGY PREDICTED BY IDOCK:   -8.28 KCAL/MOL
REMARK 924 INTRA-LIGAND FREE ENERGY PREDICTED BY IDOCK:   -1.14 KCAL/MOL
REMARK 927      BINDING AFFINITY PREDICTED BY RF-SCORE:    0.00 PKD
ROOT
HETATM    1  O   UNL     1     -11.635  11.368  62.990  1.00  0.00    -0.865 OA 
HETATM    2  H   UNL     1     -11.992  10.495  62.878  1.00  0.00     0.000 HD 
HETATM    3  C   UNL     1     -12.702  12.176  63.427  1.00  0.00    -0.381 C  
ENDROOT
BRANCH   3   4
HETATM    4  N   UNL     1     -12.166  13.483  63.593  1.00  0.00    -0.830 N  
HETATM    5  H   UNL     1     -11.685  13.937  62.817  1.00  0.00     0.000 HD 
BRANCH   4   6
HETATM    6  C   UNL     1     -12.294  14.130  64.786  1.00  0.00    -0.417 C  
HETATM    7  O   UNL     1     -13.364  14.167  65.388  1.00  0.00    -0.705 OA 
BRANCH   6   8
HETATM    8  N   UNL     1     -11.140  14.683  65.306  1.00  0.00    -0.340 N  
BRANCH   8   9
HETATM    9  C   UNL     1     -10.581  14.065  66.491  1.00  0.00    -0.279 C  
HETATM   10  O   UNL     1     -10.278  11.800  65.522  1.00  0.00    -0.233 OA 
HETATM   11  N   UNL     1     -11.349  14.236  67.703  1.00  0.00    -0.308 N  
HETATM   12  C   UNL     1     -10.499  12.522  66.489  1.00  0.00    -0.238 C  
HETATM   13  O   UNL     1     -11.584  13.044  69.677  1.00  0.00    -0.286 OA 
HETATM   14  N   UNL     1     -10.679  12.101  67.774  1.00  0.00    -0.204 N  
HETATM   15  C   UNL     1     -11.220  13.114  68.512  1.00  0.00    -0.272 C  
BRANCH  11  16
HETATM   16  C   UNL     1     -11.728  15.505  68.250  1.00  0.00    -0.274 C  
HETATM   17  H   UNL     1     -10.841  17.182  68.667  1.00  0.00     0.000 HD 
HETATM   18  O   UNL     1     -10.590  16.340  68.303  1.00  0.00    -0.272 OA 
ENDBRANCH  11  16
BRANCH  14  19
HETATM   19  C   UNL     1     -10.745  10.736  68.200  1.00  0.00    -0.214 C  
HETATM   20  O   UNL     1     -12.071  10.410  68.570  1.00  0.00    -0.767 OA 
HETATM   21  H   UNL     1     -12.115   9.505  68.853  1.00  0.00     0.000 HD 
ENDBRANCH  14  19
ENDBRANCH   8   9
BRANCH   8  22
HETATM   22  C   UNL     1     -10.600  15.958  64.898  1.00  0.00    -0.254 C  
HETATM   23  H   UNL     1     -11.117  17.340  63.658  1.00  0.00     0.000 HD 
HETATM   24  O   UNL     1     -11.473  16.501  63.927  1.00  0.00    -1.145 OA 
ENDBRANCH   8  22
ENDBRANCH   6   8
ENDBRANCH   4   6
ENDBRANCH   3   4
TORSDOF 7
ENDMDL
MODEL        3
REMARK 921   NORMALIZED FREE ENERGY PREDICTED BY IDOCK:   -5.29 KCAL/MOL
REMARK 922        TOTAL FREE ENERGY PREDICTED BY IDOCK:   -8.98 KCAL/MOL
REMARK 923 INTER-LIGAND FREE ENERGY PREDICTED BY IDOCK:   -7.85 KCAL/MOL
REMARK 924 INTRA-LIGAND FREE ENERGY PREDICTED BY IDOCK:   -1.13 KCAL/MOL
REMARK 927      BINDING AFFINITY PREDICTED BY RF-SCORE:    0.00 PKD
ROOT
HETATM    1  O   UNL     1     -12.410  13.854  63.173  1.00  0.00    -1.122 OA 
HETATM    2  H   UNL     1     -12.349  13.859  62.225  1.00  0.00     0.000 HD 
HETATM    3  C   UNL     1     -11.834  12.640  63.596  1.00  0.00    -0.530 C  
ENDROOT
BRANCH   3   4
HETATM    4  N   UNL     1     -11.925  12.633  65.015  1.00  0.00    -0.395 N  
HETATM    5  H   UNL     1     -11.589  11.826  65.541  1.00  0.00     0.000 HD 
BRANCH   4   6
HETATM    6  C   UNL     1     -12.461  13.698  65.674  1.00  0.00    -0.496 C  
HETATM    7  O   UNL     1     -13.642  14.011  65.542  1.00  0.00    -0.596 OA 
BRANCH   6   8
HETATM    8  N   UNL     1     -11.619  14.364  66.543  1.00  0.00    -0.367 N  
BRANCH   8   9
HETATM    9  C   UNL     1     -10.343  14.811  66.024  1.00  0.00    -0.305 C  
HETATM   10  O   UNL     1      -8.923  13.419  67.510  1.00  0.00    -0.186 OA 
HETATM   11  N   UNL     1     -10.157  16.243  65.979  1.00  0.00    -0.336 N  
HETATM   12  C   UNL     1      -9.095  14.444  66.859  1.00  0.00    -0.251 C  
HETATM   13  O   UNL     1      -8.324  17.660  66.035  1.00  0.00    -0.497 OA 
HETATM   14  N   UNL     1      -8.192  15.455  66.708  1.00  0.00    -0.242 N  
HETATM   15  C   UNL     1      -8.823  16.558  66.208  1.00  0.00    -0.329 C  
BRANCH  11  16
HETATM   16  C   UNL     1     -11.027  17.152  65.292  1.00  0.00     0.034 C  
HETATM   17  H   UNL     1     -11.971  17.189  63.596  1.00  0.00     0.000 HD 
HETATM   18  O   UNL     1     -11.395  16.587  64.052  1.00  0.00    -1.064 OA 
ENDBRANCH  11  16
BRANCH  14  19
HETATM   19  C   UNL     1      -6.926  15.545  67.371  1.00  0.00    -0.198 C  
HETATM   20  O   UNL     1      -6.043  16.353  66.617  1.00  0.00    -0.306 OA 
HETATM   21  H   UNL     1      -5.204  16.413  67.057  1.00  0.00     0.000 HD 
ENDBRANCH  14  19
ENDBRANCH   8   9
BRANCH   8  22
HETATM   22  C   UNL     1     -11.822  14.429  67.971  1.00  0.00    -0.325 C  
HETATM   23  H   UNL     1     -12.125  13.149  69.380  1.00  0.00     0.000 HD 
HETATM   24  O   UNL     1     -11.992  13.106  68.441  1.00  0.00    -0.341 OA 
ENDBRANCH   8  22
ENDBRANCH   6   8
ENDBRANCH   4   6
ENDBRANCH   3   4
TORSDOF 7
ENDMDL
MODEL        4
REMARK 921   NORMALIZED FREE ENERGY PREDICTED BY IDOCK:   -5.28 KCAL/MOL
REMARK 922        TOTAL FREE ENERGY PREDICTED BY IDOCK:   -8.97 KCAL/MOL
REMARK 923 INTER-LIGAND FREE ENERGY PREDICTED BY IDOCK:   -7.83 KCAL/MOL
REMARK 924 INTRA-LIGAND FREE ENERGY PREDICTED BY IDOCK:   -1.14 KCAL/MOL
REMARK 927      BINDING AFFINITY PREDICTED BY RF-SCORE:    0.00 PKD
ROOT
HETATM    1  O   UNL     1     -12.438  14.482  63.463  1.00  0.00    -1.089 OA 
HETATM    2  H   UNL     1     -13.254  14.196  63.071  1.00  0.00     0.000 HD 
HETATM    3  C   UNL     1     -11.715  13.310  63.761  1.00  0.00    -0.421 C  
ENDROOT
BRANCH   3   4
HETATM    4  N   UNL     1     -10.493  13.738  64.349  1.00  0.00    -0.609 N  
HETATM    5  H   UNL     1      -9.617  13.289  64.083  1.00  0.00     0.000 HD 
BRANCH   4   6
HETATM    6  C   UNL     1     -10.489  14.746  65.266  1.00  0.00    -0.404 C  
HETATM    7  O   UNL     1     -10.761  15.903  64.954  1.00  0.00    -0.522 OA 
BRANCH   6   8
HETATM    8  N   UNL     1     -10.227  14.381  66.572  1.00  0.00    -0.268 N  
BRANCH   8   9
HETATM    9  C   UNL     1     -11.330  14.425  67.510  1.00  0.00    -0.328 C  
HETATM   10  O   UNL     1     -10.887  16.710  68.372  1.00  0.00    -0.336 OA 
HETATM   11  N   UNL     1     -11.413  13.310  68.425  1.00  0.00    -0.291 N  
HETATM   12  C   UNL     1     -11.306  15.570  68.547  1.00  0.00    -0.351 C  
HETATM   13  O   UNL     1     -12.290  12.993  70.547  1.00  0.00    -0.338 OA 
HETATM   14  N   UNL     1     -11.876  15.097  69.692  1.00  0.00    -0.314 N  
HETATM   15  C   UNL     1     -11.919  13.733  69.648  1.00  0.00    -0.342 C  
BRANCH  11  16
HETATM   16  C   UNL     1     -11.493  11.936  68.025  1.00  0.00    -0.323 C  
HETATM   17  H   UNL     1     -12.056  10.960  66.443  1.00  0.00     0.000 HD 
HETATM   18  O   UNL     1     -12.002  11.871  66.709  1.00  0.00    -0.613 OA 
ENDBRANCH  11  16
BRANCH  14  19
HETATM   19  C   UNL     1     -11.989  15.817  70.924  1.00  0.00    -0.413 C  
HETATM   20  O   UNL     1     -13.300  15.688  71.440  1.00  0.00    -0.499 OA 
HETATM   21  H   UNL     1     -13.375  16.166  72.257  1.00  0.00     0.000 HD 
ENDBRANCH  14  19
ENDBRANCH   8   9
BRANCH   8  22
HETATM   22  C   UNL     1      -8.900  14.195  67.108  1.00  0.00    -0.229 C  
HETATM   23  H   UNL     1      -7.594  12.777  67.093  1.00  0.00     0.000 HD 
HETATM   24  O   UNL     1      -8.467  12.900  66.740  1.00  0.00    -0.137 OA 
ENDBRANCH   8  22
ENDBRANCH   6   8
ENDBRANCH   4   6
ENDBRANCH   3   4
TORSDOF 7
ENDMDL
MODEL        5
REMARK 921   NORMALIZED FREE ENERGY PREDICTED BY IDOCK:   -5.26 KCAL/MOL
REMARK 922        TOTAL FREE ENERGY PREDICTED BY IDOCK:   -8.94 KCAL/MOL
REMARK 923 INTER-LIGAND FREE ENERGY PREDICTED BY IDOCK:   -7.50 KCAL/MOL
REMARK 924 INTRA-LIGAND FREE ENERGY PREDICTED BY IDOCK:   -1.44 KCAL/MOL
REMARK 927      BINDING AFFINITY PREDICTED BY RF-SCORE:    0.00 PKD
ROOT
HETATM    1  O   UNL     1     -11.278  11.230  63.455  1.00  0.00    -0.723 OA 
HETATM    2  H   UNL     1     -11.186  10.737  62.649  1.00  0.00     0.000 HD 
HETATM    3  C   UNL     1     -12.480  11.955  63.335  1.00  0.00    -0.463 C  
ENDROOT
BRANCH   3   4
HETATM    4  N   UNL     1     -12.619  12.692  64.543  1.00  0.00    -0.649 N  
HETATM    5  H   UNL     1     -13.081  12.268  65.347  1.00  0.00     0.000 HD 
BRANCH   4   6
HETATM    6  C   UNL     1     -12.138  13.964  64.629  1.00  0.00    -0.431 C  
HETATM    7  O   UNL     1     -12.543  14.858  63.889  1.00  0.00    -0.831 OA 
BRANCH   6   8
HETATM    8  N   UNL     1     -11.222  14.203  65.635  1.00  0.00    -0.303 N  
BRANCH   8   9
HETATM    9  C   UNL     1     -11.498  15.301  66.540  1.00  0.00    -0.095 C  
HETATM   10  O   UNL     1     -10.043  16.972  65.420  1.00  0.00    -0.581 OA 
HETATM   11  N   UNL     1     -11.317  15.010  67.943  1.00  0.00    -0.323 N  
HETATM   12  C   UNL     1     -10.563  16.527  66.438  1.00  0.00    -0.221 C  
HETATM   13  O   UNL     1     -10.819  16.265  69.826  1.00  0.00    -0.318 OA 
HETATM   14  N   UNL     1     -10.448  17.057  67.690  1.00  0.00    -0.336 N  
HETATM   15  C   UNL     1     -10.869  16.143  68.612  1.00  0.00    -0.311 C  
BRANCH  11  16
HETATM   16  C   UNL     1     -11.981  13.949  68.643  1.00  0.00    -0.366 C  
HETATM   17  H   UNL     1     -11.461  12.294  69.516  1.00  0.00     0.000 HD 
HETATM   18  O   UNL     1     -11.021  12.998  69.052  1.00  0.00    -0.244 OA 
ENDBRANCH  11  16
BRANCH  14  19
HETATM   19  C   UNL     1      -9.615  18.164  68.050  1.00  0.00    -0.300 C  
HETATM   20  O   UNL     1     -10.230  18.915  69.080  1.00  0.00    -0.526 OA 
HETATM   21  H   UNL     1      -9.677  19.649  69.320  1.00  0.00     0.000 HD 
ENDBRANCH  14  19
ENDBRANCH   8   9
BRANCH   8  22
HETATM   22  C   UNL     1      -9.913  13.598  65.696  1.00  0.00    -0.243 C  
HETATM   23  H   UNL     1      -9.230  11.817  65.972  1.00  0.00     0.000 HD 
HETATM   24  O   UNL     1     -10.092  12.215  65.932  1.00  0.00    -0.234 OA 
ENDBRANCH   8  22
ENDBRANCH   6   8
ENDBRANCH   4   6
ENDBRANCH   3   4
TORSDOF 7
ENDMDL
MODEL        6
REMARK 921   NORMALIZED FREE ENERGY PREDICTED BY IDOCK:   -5.25 KCAL/MOL
REMARK 922        TOTAL FREE ENERGY PREDICTED BY IDOCK:   -8.93 KCAL/MOL
REMARK 923 INTER-LIGAND FREE ENERGY PREDICTED BY IDOCK:   -7.65 KCAL/MOL
REMARK 924 INTRA-LIGAND FREE ENERGY PREDICTED BY IDOCK:   -1.28 KCAL/MOL
REMARK 927      BINDING AFFINITY PREDICTED BY RF-SCORE:    0.00 PKD
ROOT
HETATM    1  O   UNL     1     -12.495  13.864  62.964  1.00  0.00    -1.099 OA 
HETATM    2  H   UNL     1     -12.841  13.834  62.080  1.00  0.00     0.000 HD 
HETATM    3  C   UNL     1     -12.310  12.525  63.358  1.00  0.00    -0.477 C  
ENDROOT
BRANCH   3   4
HETATM    4  N   UNL     1     -11.791  12.571  64.681  1.00  0.00    -0.359 N  
HETATM    5  H   UNL     1     -11.242  11.789  65.039  1.00  0.00     0.000 HD 
BRANCH   4   6
HETATM    6  C   UNL     1     -12.027  13.654  65.474  1.00  0.00    -0.384 C  
HETATM    7  O   UNL     1     -13.166  14.070  65.676  1.00  0.00    -0.634 OA 
BRANCH   6   8
HETATM    8  N   UNL     1     -10.923  14.215  66.084  1.00  0.00    -0.305 N  
BRANCH   8   9
HETATM    9  C   UNL     1     -10.689  13.882  67.475  1.00  0.00    -0.267 C  
HETATM   10  O   UNL     1     -10.715  11.416  67.191  1.00  0.00    -0.223 OA 
HETATM   11  N   UNL     1     -11.580  14.510  68.422  1.00  0.00    -0.309 N  
HETATM   12  C   UNL     1     -10.927  12.410  67.878  1.00  0.00    -0.228 C  
HETATM   13  O   UNL     1     -12.352  13.985  70.543  1.00  0.00    -0.324 OA 
HETATM   14  N   UNL     1     -11.382  12.408  69.164  1.00  0.00    -0.264 N  
HETATM   15  C   UNL     1     -11.809  13.660  69.498  1.00  0.00    -0.337 C  
BRANCH  11  16
HETATM   16  C   UNL     1     -11.768  15.926  68.543  1.00  0.00    -0.292 C  
HETATM   17  H   UNL     1     -10.663  17.463  68.979  1.00  0.00     0.000 HD 
HETATM   18  O   UNL     1     -10.539  16.524  68.898  1.00  0.00    -0.282 OA 
ENDBRANCH  11  16
BRANCH  14  19
HETATM   19  C   UNL     1     -11.792  11.249  69.899  1.00  0.00    -0.360 C  
HETATM   20  O   UNL     1     -12.778  10.541  69.173  1.00  0.00    -0.662 OA 
HETATM   21  H   UNL     1     -13.050   9.773  69.660  1.00  0.00     0.000 HD 
ENDBRANCH  14  19
ENDBRANCH   8   9
BRANCH   8  22
HETATM   22  C   UNL     1     -10.137  15.282  65.510  1.00  0.00    -0.375 C  
HETATM   23  H   UNL     1     -10.370  16.547  64.075  1.00  0.00     0.000 HD 
HETATM   24  O   UNL     1     -10.887  15.845  64.452  1.00  0.00    -0.465 OA 
ENDBRANCH   8  22
ENDBRANCH   6   8
ENDBRANCH   4   6
ENDBRANCH   3   4
TORSDOF 7
ENDMDL
MODEL        7
REMARK 921   NORMALIZED FREE ENERGY PREDICTED BY IDOCK:   -5.23 KCAL/MOL
REMARK 922        TOTAL FREE ENERGY PREDICTED BY IDOCK:   -8.91 KCAL/MOL
REMARK 923 INTER-LIGAND FREE ENERGY PREDICTED BY IDOCK:   -7.60 KCAL/MOL
REMARK 924 INTRA-LIGAND FREE ENERGY PREDICTED BY IDOCK:   -1.31 KCAL/MOL
REMARK 927      BINDING AFFINITY PREDICTED BY RF-SCORE:    0.00 PKD
ROOT
HETATM    1  O   UNL     1     -13.371  14.704  70.486  1.00  0.00    -0.558 OA 
HETATM    2  H   UNL     1     -14.169  14.497  70.956  1.00  0.00     0.000 HD 
HETATM    3  C   UNL     1     -12.401  13.787  70.937  1.00  0.00    -0.380 C  
ENDROOT
BRANCH   3   4
HETATM    4  N   UNL     1     -11.205  14.098  70.233  1.00  0.00    -0.481 N  
HETATM    5  H   UNL     1     -10.560  13.352  69.973  1.00  0.00     0.000 HD 
BRANCH   4   6
HETATM    6  C   UNL     1     -10.918  15.390  69.905  1.00  0.00    -0.294 C  
HETATM    7  O   UNL     1     -11.118  16.314  70.690  1.00  0.00    -0.341 OA 
BRANCH   6   8
HETATM    8  N   UNL     1     -10.332  15.589  68.671  1.00  0.00    -0.214 N  
BRANCH   8   9
HETATM    9  C   UNL     1     -11.209  15.647  67.519  1.00  0.00    -0.245 C  
HETATM   10  O   UNL     1     -11.463  13.196  67.224  1.00  0.00    -0.296 OA 
HETATM   11  N   UNL     1     -10.740  16.463  66.422  1.00  0.00    -0.222 N  
HETATM   12  C   UNL     1     -11.418  14.325  66.747  1.00  0.00    -0.367 C  
HETATM   13  O   UNL     1     -11.086  16.482  64.130  1.00  0.00    -0.903 OA 
HETATM   14  N   UNL     1     -11.588  14.643  65.432  1.00  0.00    -0.350 N  
HETATM   15  C   UNL     1     -11.154  15.918  65.212  1.00  0.00    -0.248 C  
BRANCH  11  16
HETATM   16  C   UNL     1     -10.397  17.850  66.532  1.00  0.00    -0.362 C  
HETATM   17  H   UNL     1      -8.935  18.990  65.953  1.00  0.00     0.000 HD 
HETATM   18  O   UNL     1      -9.163  18.071  65.881  1.00  0.00    -0.520 OA 
ENDBRANCH  11  16
BRANCH  14  19
HETATM   19  C   UNL     1     -11.741  13.703  64.362  1.00  0.00    -0.411 C  
HETATM   20  O   UNL     1     -12.568  14.251  63.353  1.00  0.00    -1.067 OA 
HETATM   21  H   UNL     1     -12.670  13.627  62.644  1.00  0.00     0.000 HD 
ENDBRANCH  14  19
ENDBRANCH   8   9
BRANCH   8  22
HETATM   22  C   UNL     1      -8.912  15.504  68.428  1.00  0.00    -0.189 C  
HETATM   23  H   UNL     1      -7.562  14.139  68.607  1.00  0.00     0.000 HD 
HETATM   24  O   UNL     1      -8.497  14.195  68.766  1.00  0.00    -0.148 OA 
ENDBRANCH   8  22
ENDBRANCH   6   8
ENDBRANCH   4   6
ENDBRANCH   3   4
TORSDOF 7
ENDMDL
MODEL        8
REMARK 921   NORMALIZED FREE ENERGY PREDICTED BY IDOCK:   -5.19 KCAL/MOL
REMARK 922        TOTAL FREE ENERGY PREDICTED BY IDOCK:   -8.85 KCAL/MOL
REMARK 923 INTER-LIGAND FREE ENERGY PREDICTED BY IDOCK:   -7.66 KCAL/MOL
REMARK 924 INTRA-LIGAND FREE ENERGY PREDICTED BY IDOCK:   -1.18 KCAL/MOL
REMARK 927      BINDING AFFINITY PREDICTED BY RF-SCORE:    0.00 PKD
ROOT
HETATM    1  O   UNL     1     -11.415   9.826  68.348  1.00  0.00    -0.515 OA 
HETATM    2  H   UNL     1     -11.791   9.281  69.028  1.00  0.00     0.000 HD 
HETATM    3  C   UNL     1     -10.893  10.961  68.999  1.00  0.00    -0.230 C  
ENDROOT
BRANCH   3   4
HETATM    4  N   UNL     1     -10.330  11.778  67.980  1.00  0.00    -0.192 N  
HETATM    5  H   UNL     1      -9.387  12.151  68.091  1.00  0.00     0.000 HD 
BRANCH   4   6
HETATM    6  C   UNL     1     -11.046  12.064  66.857  1.00  0.00    -0.302 C  
HETATM    7  O   UNL     1     -12.248  12.316  66.905  1.00  0.00    -0.530 OA 
BRANCH   6   8
HETATM    8  N   UNL     1     -10.333  12.119  65.676  1.00  0.00    -0.249 N  
BRANCH   8   9
HETATM    9  C   UNL     1     -10.219  13.408  65.025  1.00  0.00    -0.307 C  
HETATM   10  O   UNL     1      -9.271  14.631  66.965  1.00  0.00    -0.216 OA 
HETATM   11  N   UNL     1     -11.422  13.888  64.384  1.00  0.00    -0.377 N  
HETATM   12  C   UNL     1      -9.949  14.620  65.943  1.00  0.00    -0.328 C  
HETATM   13  O   UNL     1     -12.271  15.977  63.850  1.00  0.00    -0.883 OA 
HETATM   14  N   UNL     1     -10.571  15.699  65.387  1.00  0.00    -0.390 N  
HETATM   15  C   UNL     1     -11.485  15.274  64.467  1.00  0.00    -0.315 C  
BRANCH  11  16
HETATM   16  C   UNL     1     -12.144  13.172  63.374  1.00  0.00    -0.486 C  
HETATM   17  H   UNL     1     -13.584  11.870  63.327  1.00  0.00     0.000 HD 
HETATM   18  O   UNL     1     -13.105  12.345  63.996  1.00  0.00    -0.763 OA 
ENDBRANCH  11  16
BRANCH  14  19
HETATM   19  C   UNL     1     -10.629  17.011  65.958  1.00  0.00    -0.206 C  
HETATM   20  O   UNL     1     -10.913  17.964  64.951  1.00  0.00    -0.827 OA 
HETATM   21  H   UNL     1     -10.952  18.834  65.330  1.00  0.00     0.000 HD 
ENDBRANCH  14  19
ENDBRANCH   8   9
BRANCH   8  22
HETATM   22  C   UNL     1      -9.906  10.954  64.936  1.00  0.00    -0.284 C  
HETATM   23  H   UNL     1      -9.973   9.047  65.208  1.00  0.00     0.000 HD 
HETATM   24  O   UNL     1     -10.254   9.813  65.695  1.00  0.00    -0.265 OA 
ENDBRANCH   8  22
ENDBRANCH   6   8
ENDBRANCH   4   6
ENDBRANCH   3   4
TORSDOF 7
ENDMDL
MODEL        9
REMARK 921   NORMALIZED FREE ENERGY PREDICTED BY IDOCK:   -5.16 KCAL/MOL
REMARK 922        TOTAL FREE ENERGY PREDICTED BY IDOCK:   -8.80 KCAL/MOL
REMARK 923 INTER-LIGAND FREE ENERGY PREDICTED BY IDOCK:   -7.75 KCAL/MOL
REMARK 924 INTRA-LIGAND FREE ENERGY PREDICTED BY IDOCK:   -1.06 KCAL/MOL
REMARK 927      BINDING AFFINITY PREDICTED BY RF-SCORE:    0.00 PKD
ROOT
HETATM    1  O   UNL     1     -11.620  16.253  63.740  1.00  0.00    -1.539 OA 
HETATM    2  H   UNL     1     -11.150  16.958  63.311  1.00  0.00     0.000 HD 
HETATM    3  C   UNL     1     -10.825  15.861  64.835  1.00  0.00    -0.400 C  
ENDROOT
BRANCH   3   4
HETATM    4  N   UNL     1     -11.529  14.807  65.478  1.00  0.00    -0.342 N  
HETATM    5  H   UNL     1     -12.539  14.876  65.609  1.00  0.00     0.000 HD 
BRANCH   4   6
HETATM    6  C   UNL     1     -10.861  13.704  65.919  1.00  0.00    -0.275 C  
HETATM    7  O   UNL     1     -10.445  12.848  65.141  1.00  0.00    -0.294 OA 
BRANCH   6   8
HETATM    8  N   UNL     1     -10.623  13.638  67.277  1.00  0.00    -0.266 N  
BRANCH   8   9
HETATM    9  C   UNL     1     -11.774  13.654  68.157  1.00  0.00    -0.357 C  
HETATM   10  O   UNL     1     -11.780  16.099  68.582  1.00  0.00    -0.362 OA 
HETATM   11  N   UNL     1     -11.724  12.727  69.264  1.00  0.00    -0.307 N  
HETATM   12  C   UNL     1     -12.009  14.954  68.957  1.00  0.00    -0.272 C  
HETATM   13  O   UNL     1     -12.666  12.649  71.380  1.00  0.00    -0.349 OA 
HETATM   14  N   UNL     1     -12.562  14.603  70.154  1.00  0.00    -0.317 N  
HETATM   15  C   UNL     1     -12.370  13.268  70.369  1.00  0.00    -0.295 C  
BRANCH  11  16
HETATM   16  C   UNL     1     -11.545  11.311  69.129  1.00  0.00    -0.319 C  
HETATM   17  H   UNL     1     -11.936   9.963  67.787  1.00  0.00     0.000 HD 
HETATM   18  O   UNL     1     -12.054  10.902  67.877  1.00  0.00    -0.527 OA 
ENDBRANCH  11  16
BRANCH  14  19
HETATM   19  C   UNL     1     -12.872  15.503  71.223  1.00  0.00    -0.475 C  
HETATM   20  O   UNL     1     -11.794  16.396  71.430  1.00  0.00    -0.639 OA 
HETATM   21  H   UNL     1     -12.000  16.993  72.139  1.00  0.00     0.000 HD 
ENDBRANCH  14  19
ENDBRANCH   8   9
BRANCH   8  22
HETATM   22  C   UNL     1      -9.319  13.795  67.878  1.00  0.00    -0.211 C  
HETATM   23  H   UNL     1      -7.750  14.852  67.508  1.00  0.00     0.000 HD 
HETATM   24  O   UNL     1      -8.608  14.749  67.113  1.00  0.00    -0.200 OA 
ENDBRANCH   8  22
ENDBRANCH   6   8
ENDBRANCH   4   6
ENDBRANCH   3   4
TORSDOF 7
ENDMDL
MODEL       10
REMARK 921   NORMALIZED FREE ENERGY PREDICTED BY IDOCK:   -5.15 KCAL/MOL
REMARK 922        TOTAL FREE ENERGY PREDICTED BY IDOCK:   -8.79 KCAL/MOL
REMARK 923 INTER-LIGAND FREE ENERGY PREDICTED BY IDOCK:   -7.52 KCAL/MOL
REMARK 924 INTRA-LIGAND FREE ENERGY PREDICTED BY IDOCK:   -1.27 KCAL/MOL
REMARK 927      BINDING AFFINITY PREDICTED BY RF-SCORE:    0.00 PKD
ROOT
HETATM    1  O   UNL     1     -12.427  13.768  62.968  1.00  0.00    -1.068 OA 
HETATM    2  H   UNL     1     -12.400  13.818  62.020  1.00  0.00     0.000 HD 
HETATM    3  C   UNL     1     -12.012  12.465  63.304  1.00  0.00    -0.416 C  
ENDROOT
BRANCH   3   4
HETATM    4  N   UNL     1     -12.053  12.391  64.723  1.00  0.00    -0.419 N  
HETATM    5  H   UNL     1     -11.889  11.499  65.190  1.00  0.00     0.000 HD 
BRANCH   4   6
HETATM    6  C   UNL     1     -12.313  13.506  65.461  1.00  0.00    -0.481 C  
HETATM    7  O   UNL     1     -13.451  13.956  65.572  1.00  0.00    -0.657 OA 
BRANCH   6   8
HETATM    8  N   UNL     1     -11.237  14.061  66.127  1.00  0.00    -0.313 N  
BRANCH   8   9
HETATM    9  C   UNL     1     -11.399  15.401  66.653  1.00  0.00    -0.103 C  
HETATM   10  O   UNL     1     -10.841  16.606  64.557  1.00  0.00    -0.847 OA 
HETATM   11  N   UNL     1     -10.667  15.684  67.867  1.00  0.00    -0.286 N  
HETATM   12  C   UNL     1     -10.850  16.553  65.782  1.00  0.00    -0.134 C  
HETATM   13  O   UNL     1      -9.809  17.597  68.854  1.00  0.00    -0.319 OA 
HETATM   14  N   UNL     1     -10.411  17.530  66.626  1.00  0.00    -0.331 N  
HETATM   15  C   UNL     1     -10.264  17.014  67.882  1.00  0.00    -0.317 C  
BRANCH  11  16
HETATM   16  C   UNL     1     -10.789  14.933  69.082  1.00  0.00    -0.250 C  
HETATM   17  H   UNL     1     -12.219  14.458  70.308  1.00  0.00     0.000 HD 
HETATM   18  O   UNL     1     -12.137  14.956  69.502  1.00  0.00    -0.301 OA 
ENDBRANCH  11  16
BRANCH  14  19
HETATM   19  C   UNL     1      -9.763  18.743  66.229  1.00  0.00    -0.330 C  
HETATM   20  O   UNL     1     -10.671  19.563  65.516  1.00  0.00    -0.457 OA 
HETATM   21  H   UNL     1     -10.241  20.368  65.252  1.00  0.00     0.000 HD 
ENDBRANCH  14  19
ENDBRANCH   8   9
BRANCH   8  22
HETATM   22  C   UNL     1      -9.907  13.499  66.121  1.00  0.00    -0.283 C  
HETATM   23  H   UNL     1      -9.061  11.953  66.902  1.00  0.00     0.000 HD 
HETATM   24  O   UNL     1      -9.936  12.323  66.905  1.00  0.00    -0.208 OA 
ENDBRANCH   8  22
ENDBRANCH   6   8
ENDBRANCH   4   6
ENDBRANCH   3   4
TORSDOF 7
ENDMDL
MODEL       11
REMARK 921   NORMALIZED FREE ENERGY PREDICTED BY IDOCK:   -5.15 KCAL/MOL
REMARK 922        TOTAL FREE ENERGY PREDICTED BY IDOCK:   -8.79 KCAL/MOL
REMARK 923 INTER-LIGAND FREE ENERGY PREDICTED BY IDOCK:   -7.66 KCAL/MOL
REMARK 924 INTRA-LIGAND FREE ENERGY PREDICTED BY IDOCK:   -1.13 KCAL/MOL
REMARK 927      BINDING AFFINITY PREDICTED BY RF-SCORE:    0.00 PKD
ROOT
HETATM    1  O   UNL     1     -12.301  14.042  63.019  1.00  0.00    -1.101 OA 
HETATM    2  H   UNL     1     -13.049  13.499  62.799  1.00  0.00     0.000 HD 
HETATM    3  C   UNL     1     -11.923  13.677  64.326  1.00  0.00    -0.445 C  
ENDROOT
BRANCH   3   4
HETATM    4  N   UNL     1     -10.803  14.489  64.654  1.00  0.00    -0.587 N  
HETATM    5  H   UNL     1      -9.865  14.089  64.644  1.00  0.00     0.000 HD 
BRANCH   4   6
HETATM    6  C   UNL     1     -10.980  15.799  64.984  1.00  0.00    -0.417 C  
HETATM    7  O   UNL     1     -11.478  16.601  64.197  1.00  0.00    -1.131 OA 
BRANCH   6   8
HETATM    8  N   UNL     1     -10.628  16.158  66.271  1.00  0.00    -0.300 N  
BRANCH   8   9
HETATM    9  C   UNL     1      -9.541  17.103  66.426  1.00  0.00    -0.278 C  
HETATM   10  O   UNL     1      -7.815  15.452  67.099  1.00  0.00    -0.185 OA 
HETATM   11  N   UNL     1      -9.823  18.241  67.270  1.00  0.00    -0.310 N  
HETATM   12  C   UNL     1      -8.279  16.586  67.151  1.00  0.00    -0.179 C  
HETATM   13  O   UNL     1      -8.546  19.674  68.569  1.00  0.00    -0.345 OA 
HETATM   14  N   UNL     1      -7.743  17.637  67.835  1.00  0.00    -0.211 N  
HETATM   15  C   UNL     1      -8.672  18.631  67.944  1.00  0.00    -0.288 C  
BRANCH  11  16
HETATM   16  C   UNL     1     -10.908  19.154  67.065  1.00  0.00    -0.385 C  
HETATM   17  H   UNL     1     -11.491  20.356  65.656  1.00  0.00     0.000 HD 
HETATM   18  O   UNL     1     -10.772  19.750  65.792  1.00  0.00    -0.512 OA 
ENDBRANCH  11  16
BRANCH  14  19
HETATM   19  C   UNL     1      -6.602  17.572  68.698  1.00  0.00    -0.206 C  
HETATM   20  O   UNL     1      -5.803  18.728  68.529  1.00  0.00    -0.200 OA 
HETATM   21  H   UNL     1      -5.046  18.685  69.102  1.00  0.00     0.000 HD 
ENDBRANCH  14  19
ENDBRANCH   8   9
BRANCH   8  22
HETATM   22  C   UNL     1     -11.101  15.481  67.455  1.00  0.00    -0.305 C  
HETATM   23  H   UNL     1     -10.943  13.703  68.183  1.00  0.00     0.000 HD 
HETATM   24  O   UNL     1     -10.632  14.148  67.403  1.00  0.00    -0.274 OA 
ENDBRANCH   8  22
ENDBRANCH   6   8
ENDBRANCH   4   6
ENDBRANCH   3   4
TORSDOF 7
ENDMDL
MODEL       12
REMARK 921   NORMALIZED FREE ENERGY PREDICTED BY IDOCK:   -5.15 KCAL/MOL
REMARK 922        TOTAL FREE ENERGY PREDICTED BY IDOCK:   -8.78 KCAL/MOL
REMARK 923 INTER-LIGAND FREE ENERGY PREDICTED BY IDOCK:   -7.50 KCAL/MOL
REMARK 924 INTRA-LIGAND FREE ENERGY PREDICTED BY IDOCK:   -1.28 KCAL/MOL
REMARK 927      BINDING AFFINITY PREDICTED BY RF-SCORE:    0.00 PKD
ROOT
HETATM    1  O   UNL     1     -12.212  11.656  63.199  1.00  0.00    -0.928 OA 
HETATM    2  H   UNL     1     -12.223  10.730  62.990  1.00  0.00     0.000 HD 
HETATM    3  C   UNL     1     -10.886  11.960  63.565  1.00  0.00    -0.434 C  
ENDROOT
BRANCH   3   4
HETATM    4  N   UNL     1     -10.870  13.347  63.878  1.00  0.00    -0.528 N  
HETATM    5  H   UNL     1     -10.286  13.983  63.335  1.00  0.00     0.000 HD 
BRANCH   4   6
HETATM    6  C   UNL     1     -11.632  13.828  64.900  1.00  0.00    -0.351 C  
HETATM    7  O   UNL     1     -12.791  14.196  64.722  1.00  0.00    -0.677 OA 
BRANCH   6   8
HETATM    8  N   UNL     1     -11.050  13.818  66.152  1.00  0.00    -0.295 N  
BRANCH   8   9
HETATM    9  C   UNL     1     -11.892  13.463  67.275  1.00  0.00    -0.376 C  
HETATM   10  O   UNL     1     -11.772  15.656  68.432  1.00  0.00    -0.367 OA 
HETATM   11  N   UNL     1     -11.520  12.255  67.975  1.00  0.00    -0.298 N  
HETATM   12  C   UNL     1     -11.882  14.435  68.477  1.00  0.00    -0.334 C  
HETATM   13  O   UNL     1     -11.801  11.458  70.132  1.00  0.00    -0.312 OA 
HETATM   14  N   UNL     1     -12.060  13.690  69.605  1.00  0.00    -0.328 N  
HETATM   15  C   UNL     1     -11.814  12.377  69.327  1.00  0.00    -0.304 C  
BRANCH  11  16
HETATM   16  C   UNL     1     -11.390  10.968  67.357  1.00  0.00    -0.230 C  
HETATM   17  H   UNL     1      -9.966   9.941  66.526  1.00  0.00     0.000 HD 
HETATM   18  O   UNL     1     -10.053  10.794  66.936  1.00  0.00    -0.197 OA 
ENDBRANCH  11  16
BRANCH  14  19
HETATM   19  C   UNL     1     -12.042  14.194  70.945  1.00  0.00    -0.344 C  
HETATM   20  O   UNL     1     -10.897  15.002  71.142  1.00  0.00    -0.555 OA 
HETATM   21  H   UNL     1     -10.886  15.337  72.031  1.00  0.00     0.000 HD 
ENDBRANCH  14  19
ENDBRANCH   8   9
BRANCH   8  22
HETATM   22  C   UNL     1      -9.743  14.361  66.440  1.00  0.00    -0.302 C  
HETATM   23  H   UNL     1      -8.730  15.895  65.860  1.00  0.00     0.000 HD 
HETATM   24  O   UNL     1      -9.590  15.538  65.670  1.00  0.00    -0.336 OA 
ENDBRANCH   8  22
ENDBRANCH   6   8
ENDBRANCH   4   6
ENDBRANCH   3   4
TORSDOF 7
ENDMDL
MODEL       13
REMARK 921   NORMALIZED FREE ENERGY PREDICTED BY IDOCK:   -5.12 KCAL/MOL
REMARK 922        TOTAL FREE ENERGY PREDICTED BY IDOCK:   -8.74 KCAL/MOL
REMARK 923 INTER-LIGAND FREE ENERGY PREDICTED BY IDOCK:   -7.27 KCAL/MOL
REMARK 924 INTRA-LIGAND FREE ENERGY PREDICTED BY IDOCK:   -1.47 KCAL/MOL
REMARK 927      BINDING AFFINITY PREDICTED BY RF-SCORE:    0.00 PKD
ROOT
HETATM    1  O   UNL     1     -12.082  10.712  68.338  1.00  0.00    -0.813 OA 
HETATM    2  H   UNL     1     -12.664   9.962  68.315  1.00  0.00     0.000 HD 
HETATM    3  C   UNL     1     -11.999  11.101  69.689  1.00  0.00    -0.359 C  
ENDROOT
BRANCH   3   4
HETATM    4  N   UNL     1     -11.128  12.224  69.724  1.00  0.00    -0.468 N  
HETATM    5  H   UNL     1     -10.218  12.147  70.179  1.00  0.00     0.000 HD 
BRANCH   4   6
HETATM    6  C   UNL     1     -11.504  13.403  69.152  1.00  0.00    -0.300 C  
HETATM    7  O   UNL     1     -12.311  14.154  69.695  1.00  0.00    -0.326 OA 
BRANCH   6   8
HETATM    8  N   UNL     1     -10.880  13.731  67.965  1.00  0.00    -0.245 N  
BRANCH   8   9
HETATM    9  C   UNL     1     -11.712  14.239  66.893  1.00  0.00    -0.408 C  
HETATM   10  O   UNL     1     -12.105  12.060  65.773  1.00  0.00    -0.536 OA 
HETATM   11  N   UNL     1     -11.159  15.347  66.148  1.00  0.00    -0.280 N  
HETATM   12  C   UNL     1     -11.976  13.278  65.713  1.00  0.00    -0.417 C  
HETATM   13  O   UNL     1     -11.426  16.172  63.999  1.00  0.00    -0.746 OA 
HETATM   14  N   UNL     1     -12.081  14.037  64.584  1.00  0.00    -0.420 N  
HETATM   15  C   UNL     1     -11.564  15.278  64.820  1.00  0.00    -0.322 C  
BRANCH  11  16
HETATM   16  C   UNL     1     -10.736  16.586  66.731  1.00  0.00    -0.155 C  
HETATM   17  H   UNL     1      -9.077  17.587  66.864  1.00  0.00     0.000 HD 
HETATM   18  O   UNL     1      -9.358  16.766  66.477  1.00  0.00    -0.238 OA 
ENDBRANCH  11  16
BRANCH  14  19
HETATM   19  C   UNL     1     -12.255  13.532  63.256  1.00  0.00    -0.146 C  
HETATM   20  O   UNL     1     -11.293  12.529  62.991  1.00  0.00    -0.720 OA 
HETATM   21  H   UNL     1     -11.409  12.194  62.110  1.00  0.00     0.000 HD 
ENDBRANCH  14  19
ENDBRANCH   8   9
BRANCH   8  22
HETATM   22  C   UNL     1      -9.516  13.381  67.645  1.00  0.00    -0.216 C  
HETATM   23  H   UNL     1      -7.788  13.711  68.433  1.00  0.00     0.000 HD 
HETATM   24  O   UNL     1      -8.685  13.941  68.643  1.00  0.00    -0.158 OA 
ENDBRANCH   8  22
ENDBRANCH   6   8
ENDBRANCH   4   6
ENDBRANCH   3   4
TORSDOF 7
ENDMDL
MODEL       14
REMARK 921   NORMALIZED FREE ENERGY PREDICTED BY IDOCK:   -5.11 KCAL/MOL
REMARK 922        TOTAL FREE ENERGY PREDICTED BY IDOCK:   -8.73 KCAL/MOL
REMARK 923 INTER-LIGAND FREE ENERGY PREDICTED BY IDOCK:   -7.40 KCAL/MOL
REMARK 924 INTRA-LIGAND FREE ENERGY PREDICTED BY IDOCK:   -1.33 KCAL/MOL
REMARK 927      BINDING AFFINITY PREDICTED BY RF-SCORE:    0.00 PKD
ROOT
HETATM    1  O   UNL     1     -10.312  10.695  62.750  1.00  0.00    -0.738 OA 
HETATM    2  H   UNL     1      -9.749  10.465  62.021  1.00  0.00     0.000 HD 
HETATM    3  C   UNL     1      -9.640  10.271  63.913  1.00  0.00    -0.293 C  
ENDROOT
BRANCH   3   4
HETATM    4  N   UNL     1     -10.483  10.614  65.005  1.00  0.00    -0.266 N  
HETATM    5  H   UNL     1     -11.424  10.225  65.061  1.00  0.00     0.000 HD 
BRANCH   4   6
HETATM    6  C   UNL     1     -10.039  11.462  65.975  1.00  0.00    -0.234 C  
HETATM    7  O   UNL     1      -9.032  11.215  66.635  1.00  0.00    -0.160 OA 
BRANCH   6   8
HETATM    8  N   UNL     1     -10.745  12.639  66.127  1.00  0.00    -0.264 N  
BRANCH   8   9
HETATM    9  C   UNL     1     -10.258  13.804  65.417  1.00  0.00    -0.326 C  
HETATM   10  O   UNL     1      -8.761  14.635  67.214  1.00  0.00    -0.184 OA 
HETATM   11  N   UNL     1     -11.278  14.668  64.868  1.00  0.00    -0.379 N  
HETATM   12  C   UNL     1      -9.498  14.854  66.258  1.00  0.00    -0.309 C  
HETATM   13  O   UNL     1     -11.403  16.918  64.329  1.00  0.00    -1.202 OA 
HETATM   14  N   UNL     1      -9.761  16.078  65.718  1.00  0.00    -0.328 N  
HETATM   15  C   UNL     1     -10.851  15.990  64.901  1.00  0.00    -0.372 C  
BRANCH  11  16
HETATM   16  C   UNL     1     -12.299  14.241  63.957  1.00  0.00    -0.244 C  
HETATM   17  H   UNL     1     -12.574  12.744  62.750  1.00  0.00     0.000 HD 
HETATM   18  O   UNL     1     -11.897  13.028  63.354  1.00  0.00    -0.524 OA 
ENDBRANCH  11  16
BRANCH  14  19
HETATM   19  C   UNL     1      -9.307  17.332  66.239  1.00  0.00    -0.223 C  
HETATM   20  O   UNL     1     -10.387  18.029  66.830  1.00  0.00    -0.350 OA 
HETATM   21  H   UNL     1     -10.086  18.860  67.176  1.00  0.00     0.000 HD 
ENDBRANCH  14  19
ENDBRANCH   8   9
BRANCH   8  22
HETATM   22  C   UNL     1     -11.775  12.841  67.119  1.00  0.00    -0.380 C  
HETATM   23  H   UNL     1     -12.832  11.701  68.260  1.00  0.00     0.000 HD 
HETATM   24  O   UNL     1     -12.154  11.569  67.607  1.00  0.00    -0.623 OA 
ENDBRANCH   8  22
ENDBRANCH   6   8
ENDBRANCH   4   6
ENDBRANCH   3   4
TORSDOF 7
ENDMDL
MODEL       15
REMARK 921   NORMALIZED FREE ENERGY PREDICTED BY IDOCK:   -5.10 KCAL/MOL
REMARK 922        TOTAL FREE ENERGY PREDICTED BY IDOCK:   -8.72 KCAL/MOL
REMARK 923 INTER-LIGAND FREE ENERGY PREDICTED BY IDOCK:   -7.07 KCAL/MOL
REMARK 924 INTRA-LIGAND FREE ENERGY PREDICTED BY IDOCK:   -1.65 KCAL/MOL
REMARK 927      BINDING AFFINITY PREDICTED BY RF-SCORE:    0.00 PKD
ROOT
HETATM    1  O   UNL     1     -13.240  12.145  64.030  1.00  0.00    -0.728 OA 
HETATM    2  H   UNL     1     -13.747  11.379  63.788  1.00  0.00     0.000 HD 
HETATM    3  C   UNL     1     -12.014  12.035  63.345  1.00  0.00    -0.471 C  
ENDROOT
BRANCH   3   4
HETATM    4  N   UNL     1     -11.255  13.181  63.708  1.00  0.00    -0.568 N  
HETATM    5  H   UNL     1     -10.262  13.226  63.478  1.00  0.00     0.000 HD 
BRANCH   4   6
HETATM    6  C   UNL     1     -11.848  14.218  64.362  1.00  0.00    -0.426 C  
HETATM    7  O   UNL     1     -12.755  14.870  63.849  1.00  0.00    -0.789 OA 
BRANCH   6   8
HETATM    8  N   UNL     1     -11.418  14.451  65.653  1.00  0.00    -0.331 N  
BRANCH   8   9
HETATM    9  C   UNL     1     -10.052  14.901  65.830  1.00  0.00    -0.325 C  
HETATM   10  O   UNL     1      -9.055  12.660  66.209  1.00  0.00    -0.167 OA 
HETATM   11  N   UNL     1      -9.865  15.951  66.805  1.00  0.00    -0.236 N  
HETATM   12  C   UNL     1      -9.058  13.870  66.410  1.00  0.00    -0.079 C  
HETATM   13  O   UNL     1      -8.111  16.640  68.153  1.00  0.00    -0.176 OA 
HETATM   14  N   UNL     1      -8.150  14.557  67.160  1.00  0.00    -0.197 N  
HETATM   15  C   UNL     1      -8.635  15.803  67.434  1.00  0.00    -0.175 C  
BRANCH  11  16
HETATM   16  C   UNL     1     -10.532  17.219  66.770  1.00  0.00    -0.261 C  
HETATM   17  H   UNL     1     -10.856  18.606  65.450  1.00  0.00     0.000 HD 
HETATM   18  O   UNL     1     -10.413  17.765  65.473  1.00  0.00    -0.646 OA 
ENDBRANCH  11  16
BRANCH  14  19
HETATM   19  C   UNL     1      -7.095  13.970  67.931  1.00  0.00    -0.160 C  
HETATM   20  O   UNL     1      -6.261  13.191  67.095  1.00  0.00    -0.458 OA 
HETATM   21  H   UNL     1      -5.562  12.802  67.606  1.00  0.00     0.000 HD 
ENDBRANCH  14  19
ENDBRANCH   8   9
BRANCH   8  22
HETATM   22  C   UNL     1     -12.149  14.052  66.833  1.00  0.00    -0.430 C  
HETATM   23  H   UNL     1     -12.802  12.386  67.551  1.00  0.00     0.000 HD 
HETATM   24  O   UNL     1     -12.321  12.649  66.775  1.00  0.00    -0.450 OA 
ENDBRANCH   8  22
ENDBRANCH   6   8
ENDBRANCH   4   6
ENDBRANCH   3   4
TORSDOF 7
ENDMDL
MODEL       16
REMARK 921   NORMALIZED FREE ENERGY PREDICTED BY IDOCK:   -5.08 KCAL/MOL
REMARK 922        TOTAL FREE ENERGY PREDICTED BY IDOCK:   -8.69 KCAL/MOL
REMARK 923 INTER-LIGAND FREE ENERGY PREDICTED BY IDOCK:   -7.62 KCAL/MOL
REMARK 924 INTRA-LIGAND FREE ENERGY PREDICTED BY IDOCK:   -1.08 KCAL/MOL
REMARK 927      BINDING AFFINITY PREDICTED BY RF-SCORE:    0.00 PKD
ROOT
HETATM    1  O   UNL     1     -13.062  11.845  63.579  1.00  0.00    -0.715 OA 
HETATM    2  H   UNL     1     -12.823  10.955  63.349  1.00  0.00     0.000 HD 
HETATM    3  C   UNL     1     -12.019  12.665  63.105  1.00  0.00    -0.274 C  
ENDROOT
BRANCH   3   4
HETATM    4  N   UNL     1     -12.377  13.998  63.448  1.00  0.00    -1.154 N  
HETATM    5  H   UNL     1     -12.520  14.691  62.714  1.00  0.00     0.000 HD 
BRANCH   4   6
HETATM    6  C   UNL     1     -12.529  14.352  64.755  1.00  0.00    -0.357 C  
HETATM    7  O   UNL     1     -13.568  14.122  65.369  1.00  0.00    -0.568 OA 
BRANCH   6   8
HETATM    8  N   UNL     1     -11.429  14.923  65.364  1.00  0.00    -0.341 N  
BRANCH   8   9
HETATM    9  C   UNL     1     -11.083  14.454  66.691  1.00  0.00    -0.326 C  
HETATM   10  O   UNL     1     -10.944  16.689  67.761  1.00  0.00    -0.320 OA 
HETATM   11  N   UNL     1      -9.959  13.549  66.757  1.00  0.00    -0.262 N  
HETATM   12  C   UNL     1     -10.577  15.521  67.687  1.00  0.00    -0.291 C  
HETATM   13  O   UNL     1      -8.394  12.996  68.374  1.00  0.00    -0.157 OA 
HETATM   14  N   UNL     1      -9.668  14.917  68.505  1.00  0.00    -0.208 N  
HETATM   15  C   UNL     1      -9.262  13.741  67.944  1.00  0.00    -0.200 C  
BRANCH  11  16
HETATM   16  C   UNL     1      -9.869  12.313  66.036  1.00  0.00    -0.248 C  
HETATM   17  H   UNL     1     -10.992  10.752  65.769  1.00  0.00     0.000 HD 
HETATM   18  O   UNL     1     -11.052  11.571  66.247  1.00  0.00    -0.302 OA 
ENDBRANCH  11  16
BRANCH  14  19
HETATM   19  C   UNL     1      -8.906  15.569  69.527  1.00  0.00    -0.229 C  
HETATM   20  O   UNL     1      -7.671  16.014  68.997  1.00  0.00    -0.189 OA 
HETATM   21  H   UNL     1      -7.166  16.447  69.675  1.00  0.00     0.000 HD 
ENDBRANCH  14  19
ENDBRANCH   8   9
BRANCH   8  22
HETATM   22  C   UNL     1     -10.757  16.104  64.876  1.00  0.00    -0.274 C  
HETATM   23  H   UNL     1     -11.112  17.432  63.524  1.00  0.00     0.000 HD 
HETATM   24  O   UNL     1     -11.554  16.655  63.846  1.00  0.00    -1.204 OA 
ENDBRANCH   8  22
ENDBRANCH   6   8
ENDBRANCH   4   6
ENDBRANCH   3   4
TORSDOF 7
ENDMDL
MODEL       17
REMARK 921   NORMALIZED FREE ENERGY PREDICTED BY IDOCK:   -5.07 KCAL/MOL
REMARK 922        TOTAL FREE ENERGY PREDICTED BY IDOCK:   -8.68 KCAL/MOL
REMARK 923 INTER-LIGAND FREE ENERGY PREDICTED BY IDOCK:   -7.27 KCAL/MOL
REMARK 924 INTRA-LIGAND FREE ENERGY PREDICTED BY IDOCK:   -1.41 KCAL/MOL
REMARK 927      BINDING AFFINITY PREDICTED BY RF-SCORE:    0.00 PKD
ROOT
HETATM    1  O   UNL     1     -11.920  10.423  68.476  1.00  0.00    -0.747 OA 
HETATM    2  H   UNL     1     -11.534   9.936  69.194  1.00  0.00     0.000 HD 
HETATM    3  C   UNL     1     -10.922  10.518  67.486  1.00  0.00    -0.303 C  
ENDROOT
BRANCH   3   4
HETATM    4  N   UNL     1     -11.500  11.246  66.411  1.00  0.00    -0.023 N  
HETATM    5  H   UNL     1     -12.415  10.977  66.049  1.00  0.00     0.000 HD 
BRANCH   4   6
HETATM    6  C   UNL     1     -10.836  12.302  65.862  1.00  0.00    -0.271 C  
HETATM    7  O   UNL     1      -9.868  12.141  65.123  1.00  0.00    -0.247 OA 
BRANCH   6   8
HETATM    8  N   UNL     1     -11.353  13.554  66.132  1.00  0.00    -0.303 N  
BRANCH   8   9
HETATM    9  C   UNL     1     -10.788  14.281  67.250  1.00  0.00    -0.284 C  
HETATM   10  O   UNL     1     -12.239  13.290  69.003  1.00  0.00    -0.277 OA 
HETATM   11  N   UNL     1     -10.724  15.716  67.090  1.00  0.00    -0.313 N  
HETATM   12  C   UNL     1     -11.584  14.234  68.574  1.00  0.00    -0.320 C  
HETATM   13  O   UNL     1     -10.706  17.526  68.537  1.00  0.00    -0.330 OA 
HETATM   14  N   UNL     1     -11.395  15.427  69.206  1.00  0.00    -0.292 N  
HETATM   15  C   UNL     1     -10.906  16.341  68.318  1.00  0.00    -0.340 C  
BRANCH  11  16
HETATM   16  C   UNL     1     -10.058  16.383  66.010  1.00  0.00    -0.353 C  
HETATM   17  H   UNL     1     -10.571  17.543  64.540  1.00  0.00     0.000 HD 
HETATM   18  O   UNL     1     -11.012  17.101  65.256  1.00  0.00    -0.457 OA 
ENDBRANCH  11  16
BRANCH  14  19
HETATM   19  C   UNL     1     -12.015  15.825  70.434  1.00  0.00    -0.359 C  
HETATM   20  O   UNL     1     -13.419  15.676  70.336  1.00  0.00    -0.804 OA 
HETATM   21  H   UNL     1     -13.830  15.939  71.151  1.00  0.00     0.000 HD 
ENDBRANCH  14  19
ENDBRANCH   8   9
BRANCH   8  22
HETATM   22  C   UNL     1     -12.560  14.076  65.535  1.00  0.00    -0.516 C  
HETATM   23  H   UNL     1     -13.979  13.360  64.445  1.00  0.00     0.000 HD 
HETATM   24  O   UNL     1     -13.185  13.016  64.838  1.00  0.00    -0.735 OA 
ENDBRANCH   8  22
ENDBRANCH   6   8
ENDBRANCH   4   6
ENDBRANCH   3   4
TORSDOF 7
ENDMDL
MODEL       18
REMARK 921   NORMALIZED FREE ENERGY PREDICTED BY IDOCK:   -5.05 KCAL/MOL
REMARK 922        TOTAL FREE ENERGY PREDICTED BY IDOCK:   -8.65 KCAL/MOL
REMARK 923 INTER-LIGAND FREE ENERGY PREDICTED BY IDOCK:   -7.38 KCAL/MOL
REMARK 924 INTRA-LIGAND FREE ENERGY PREDICTED BY IDOCK:   -1.28 KCAL/MOL
REMARK 927      BINDING AFFINITY PREDICTED BY RF-SCORE:    0.00 PKD
ROOT
HETATM    1  O   UNL     1      -9.569  20.120  65.777  1.00  0.00    -0.536 OA 
HETATM    2  H   UNL     1      -9.754  21.040  65.636  1.00  0.00     0.000 HD 
HETATM    3  C   UNL     1     -10.685  19.595  66.458  1.00  0.00    -0.434 C  
ENDROOT
BRANCH   3   4
HETATM    4  N   UNL     1     -10.407  18.217  66.669  1.00  0.00    -0.372 N  
HETATM    5  H   UNL     1      -9.981  17.913  67.544  1.00  0.00     0.000 HD 
BRANCH   4   6
HETATM    6  C   UNL     1     -10.709  17.301  65.706  1.00  0.00    -0.131 C  
HETATM    7  O   UNL     1     -11.176  17.637  64.621  1.00  0.00    -0.857 OA 
BRANCH   6   8
HETATM    8  N   UNL     1     -10.399  15.987  65.996  1.00  0.00    -0.334 N  
BRANCH   8   9
HETATM    9  C   UNL     1     -11.456  15.157  66.539  1.00  0.00    -0.171 C  
HETATM   10  O   UNL     1     -11.203  15.874  68.902  1.00  0.00    -0.297 OA 
HETATM   11  N   UNL     1     -11.384  13.756  66.196  1.00  0.00    -0.308 N  
HETATM   12  C   UNL     1     -11.497  15.015  68.077  1.00  0.00    -0.342 C  
HETATM   13  O   UNL     1     -12.125  11.790  67.174  1.00  0.00    -0.592 OA 
HETATM   14  N   UNL     1     -11.963  13.765  68.359  1.00  0.00    -0.368 N  
HETATM   15  C   UNL     1     -11.872  12.983  67.243  1.00  0.00    -0.363 C  
BRANCH  11  16
HETATM   16  C   UNL     1     -11.346  13.249  64.856  1.00  0.00    -0.316 C  
HETATM   17  H   UNL     1     -12.419  13.436  63.248  1.00  0.00     0.000 HD 
HETATM   18  O   UNL     1     -12.443  13.771  64.137  1.00  0.00    -0.652 OA 
ENDBRANCH  11  16
BRANCH  14  19
HETATM   19  C   UNL     1     -12.089  13.200  69.668  1.00  0.00    -0.255 C  
HETATM   20  O   UNL     1     -11.063  12.250  69.885  1.00  0.00    -0.479 OA 
HETATM   21  H   UNL     1     -11.146  11.876  70.753  1.00  0.00     0.000 HD 
ENDBRANCH  14  19
ENDBRANCH   8   9
BRANCH   8  22
HETATM   22  C   UNL     1      -9.055  15.460  66.022  1.00  0.00    -0.249 C  
HETATM   23  H   UNL     1      -7.282  16.212  66.109  1.00  0.00     0.000 HD 
HETATM   24  O   UNL     1      -8.166  16.558  66.092  1.00  0.00    -0.321 OA 
ENDBRANCH   8  22
ENDBRANCH   6   8
ENDBRANCH   4   6
ENDBRANCH   3   4
TORSDOF 7
ENDMDL
MODEL       19
REMARK 921   NORMALIZED FREE ENERGY PREDICTED BY IDOCK:   -5.04 KCAL/MOL
REMARK 922        TOTAL FREE ENERGY PREDICTED BY IDOCK:   -8.64 KCAL/MOL
REMARK 923 INTER-LIGAND FREE ENERGY PREDICTED BY IDOCK:   -7.52 KCAL/MOL
REMARK 924 INTRA-LIGAND FREE ENERGY PREDICTED BY IDOCK:   -1.12 KCAL/MOL
REMARK 927      BINDING AFFINITY PREDICTED BY RF-SCORE:    0.00 PKD
ROOT
HETATM    1  O   UNL     1     -11.597  16.380  63.713  1.00  0.00    -1.605 OA 
HETATM    2  H   UNL     1     -12.212  17.103  63.712  1.00  0.00     0.000 HD 
HETATM    3  C   UNL     1     -10.989  16.386  64.983  1.00  0.00    -0.252 C  
ENDROOT
BRANCH   3   4
HETATM    4  N   UNL     1     -10.067  15.303  64.985  1.00  0.00    -0.290 N  
HETATM    5  H   UNL     1      -9.070  15.485  65.096  1.00  0.00     0.000 HD 
BRANCH   4   6
HETATM    6  C   UNL     1     -10.512  14.023  64.839  1.00  0.00    -0.431 C  
HETATM    7  O   UNL     1     -10.080  13.287  63.956  1.00  0.00    -0.337 OA 
BRANCH   6   8
HETATM    8  N   UNL     1     -11.426  13.585  65.778  1.00  0.00    -0.310 N  
BRANCH   8   9
HETATM    9  C   UNL     1     -10.921  13.255  67.095  1.00  0.00    -0.272 C  
HETATM   10  O   UNL     1     -11.176  10.794  66.895  1.00  0.00    -0.256 OA 
HETATM   11  N   UNL     1     -11.541  13.960  68.193  1.00  0.00    -0.314 N  
HETATM   12  C   UNL     1     -11.166  11.809  67.583  1.00  0.00    -0.281 C  
HETATM   13  O   UNL     1     -11.871  13.521  70.444  1.00  0.00    -0.297 OA 
HETATM   14  N   UNL     1     -11.332  11.858  68.936  1.00  0.00    -0.254 N  
HETATM   15  C   UNL     1     -11.591  13.143  69.317  1.00  0.00    -0.314 C  
BRANCH  11  16
HETATM   16  C   UNL     1     -11.601  15.387  68.310  1.00  0.00    -0.348 C  
HETATM   17  H   UNL     1     -10.332  16.856  68.299  1.00  0.00     0.000 HD 
HETATM   18  O   UNL     1     -10.292  15.910  68.221  1.00  0.00    -0.232 OA 
ENDBRANCH  11  16
BRANCH  14  19
HETATM   19  C   UNL     1     -11.652  10.743  69.775  1.00  0.00    -0.317 C  
HETATM   20  O   UNL     1     -13.007  10.377  69.595  1.00  0.00    -0.616 OA 
HETATM   21  H   UNL     1     -13.219   9.637  70.152  1.00  0.00     0.000 HD 
ENDBRANCH  14  19
ENDBRANCH   8   9
BRANCH   8  22
HETATM   22  C   UNL     1     -12.785  13.209  65.468  1.00  0.00    -0.304 C  
HETATM   23  H   UNL     1     -14.422  14.152  65.083  1.00  0.00     0.000 HD 
HETATM   24  O   UNL     1     -13.527  14.399  65.287  1.00  0.00    -0.483 OA 
ENDBRANCH   8  22
ENDBRANCH   6   8
ENDBRANCH   4   6
ENDBRANCH   3   4
TORSDOF 7
ENDMDL
MODEL       20
REMARK 921   NORMALIZED FREE ENERGY PREDICTED BY IDOCK:   -5.01 KCAL/MOL
REMARK 922        TOTAL FREE ENERGY PREDICTED BY IDOCK:   -8.59 KCAL/MOL
REMARK 923 INTER-LIGAND FREE ENERGY PREDICTED BY IDOCK:   -6.97 KCAL/MOL
REMARK 924 INTRA-LIGAND FREE ENERGY PREDICTED BY IDOCK:   -1.62 KCAL/MOL
REMARK 927      BINDING AFFINITY PREDICTED BY RF-SCORE:    0.00 PKD
ROOT
HETATM    1  O   UNL     1     -10.258   9.838  68.208  1.00  0.00    -0.167 OA 
HETATM    2  H   UNL     1     -10.196   8.912  68.407  1.00  0.00     0.000 HD 
HETATM    3  C   UNL     1      -9.209  10.461  68.911  1.00  0.00    -0.177 C  
ENDROOT
BRANCH   3   4
HETATM    4  N   UNL     1      -9.301  11.848  68.612  1.00  0.00    -0.369 N  
HETATM    5  H   UNL     1      -9.303  12.532  69.369  1.00  0.00     0.000 HD 
BRANCH   4   6
HETATM    6  C   UNL     1      -9.388  12.267  67.318  1.00  0.00    -0.185 C  
HETATM    7  O   UNL     1      -8.688  11.779  66.434  1.00  0.00    -0.193 OA 
BRANCH   6   8
HETATM    8  N   UNL     1     -10.350  13.221  67.049  1.00  0.00    -0.245 N  
BRANCH   8   9
HETATM    9  C   UNL     1      -9.982  14.306  66.162  1.00  0.00    -0.314 C  
HETATM   10  O   UNL     1      -9.333  15.920  67.933  1.00  0.00    -0.205 OA 
HETATM   11  N   UNL     1     -10.977  14.671  65.180  1.00  0.00    -0.361 N  
HETATM   12  C   UNL     1      -9.787  15.692  66.816  1.00  0.00    -0.244 C  
HETATM   13  O   UNL     1     -11.493  16.605  64.012  1.00  0.00    -1.192 OA 
HETATM   14  N   UNL     1     -10.175  16.631  65.907  1.00  0.00    -0.349 N  
HETATM   15  C   UNL     1     -10.921  16.037  64.930  1.00  0.00    -0.384 C  
BRANCH  11  16
HETATM   16  C   UNL     1     -11.546  13.765  64.227  1.00  0.00    -0.369 C  
HETATM   17  H   UNL     1     -13.285  12.962  63.908  1.00  0.00     0.000 HD 
HETATM   18  O   UNL     1     -12.908  13.564  64.540  1.00  0.00    -0.645 OA 
ENDBRANCH  11  16
BRANCH  14  19
HETATM   19  C   UNL     1     -10.220  18.044  66.137  1.00  0.00    -0.363 C  
HETATM   20  O   UNL     1     -10.848  18.310  67.377  1.00  0.00    -0.389 OA 
HETATM   21  H   UNL     1     -10.877  19.247  67.530  1.00  0.00     0.000 HD 
ENDBRANCH  14  19
ENDBRANCH   8   9
BRANCH   8  22
HETATM   22  C   UNL     1     -11.596  13.338  67.769  1.00  0.00    -0.342 C  
HETATM   23  H   UNL     1     -13.007  12.131  68.285  1.00  0.00     0.000 HD 
HETATM   24  O   UNL     1     -12.188  12.054  67.811  1.00  0.00    -0.474 OA 
ENDBRANCH   8  22
ENDBRANCH   6   8
ENDBRANCH   4   6
ENDBRANCH   3   4
TORSDOF 7
ENDMDL
MODEL       21
REMARK 921   NORMALIZED FREE ENERGY PREDICTED BY IDOCK:   -5.01 KCAL/MOL
REMARK 922        TOTAL FREE ENERGY PREDICTED BY IDOCK:   -8.59 KCAL/MOL
REMARK 923 INTER-LIGAND FREE ENERGY PREDICTED BY IDOCK:   -7.11 KCAL/MOL
REMARK 924 INTRA-LIGAND FREE ENERGY PREDICTED BY IDOCK:   -1.47 KCAL/MOL
REMARK 927      BINDING AFFINITY PREDICTED BY RF-SCORE:    0.00 PKD
ROOT
HETATM    1  O   UNL     1     -10.128   9.883  66.491  1.00  0.00    -0.214 OA 
HETATM    2  H   UNL     1      -9.480   9.384  66.974  1.00  0.00     0.000 HD 
HETATM    3  C   UNL     1      -9.704   9.877  65.148  1.00  0.00    -0.306 C  
ENDROOT
BRANCH   3   4
HETATM    4  N   UNL     1     -10.674  10.623  64.424  1.00  0.00    -0.256 N  
HETATM    5  H   UNL     1     -11.582  10.208  64.214  1.00  0.00     0.000 HD 
BRANCH   4   6
HETATM    6  C   UNL     1     -10.395  11.891  64.010  1.00  0.00    -0.364 C  
HETATM    7  O   UNL     1      -9.599  12.112  63.100  1.00  0.00    -0.339 OA 
BRANCH   6   8
HETATM    8  N   UNL     1     -11.103  12.904  64.626  1.00  0.00    -0.308 N  
BRANCH   8   9
HETATM    9  C   UNL     1     -10.624  13.366  65.913  1.00  0.00    -0.283 C  
HETATM   10  O   UNL     1     -12.009  11.845  67.301  1.00  0.00    -0.605 OA 
HETATM   11  N   UNL     1     -10.685  14.794  66.123  1.00  0.00    -0.305 N  
HETATM   12  C   UNL     1     -11.434  12.917  67.149  1.00  0.00    -0.336 C  
HETATM   13  O   UNL     1     -10.852  16.171  67.979  1.00  0.00    -0.312 OA 
HETATM   14  N   UNL     1     -11.362  13.921  68.070  1.00  0.00    -0.273 N  
HETATM   15  C   UNL     1     -10.942  15.068  67.461  1.00  0.00    -0.307 C  
BRANCH  11  16
HETATM   16  C   UNL     1     -10.063  15.766  65.273  1.00  0.00    -0.222 C  
HETATM   17  H   UNL     1     -10.654  17.199  64.103  1.00  0.00     0.000 HD 
HETATM   18  O   UNL     1     -11.066  16.555  64.667  1.00  0.00    -0.699 OA 
ENDBRANCH  11  16
BRANCH  14  19
HETATM   19  C   UNL     1     -12.035  13.940  69.334  1.00  0.00    -0.354 C  
HETATM   20  O   UNL     1     -11.562  12.885  70.148  1.00  0.00    -0.513 OA 
HETATM   21  H   UNL     1     -12.008  12.897  70.987  1.00  0.00     0.000 HD 
ENDBRANCH  14  19
ENDBRANCH   8   9
BRANCH   8  22
HETATM   22  C   UNL     1     -12.404  13.358  64.194  1.00  0.00    -0.333 C  
HETATM   23  H   UNL     1     -14.141  12.553  63.972  1.00  0.00     0.000 HD 
HETATM   24  O   UNL     1     -13.285  12.254  64.256  1.00  0.00    -0.785 OA 
ENDBRANCH   8  22
ENDBRANCH   6   8
ENDBRANCH   4   6
ENDBRANCH   3   4
TORSDOF 7
ENDMDL
MODEL       22
REMARK 921   NORMALIZED FREE ENERGY PREDICTED BY IDOCK:   -4.98 KCAL/MOL
REMARK 922        TOTAL FREE ENERGY PREDICTED BY IDOCK:   -8.55 KCAL/MOL
REMARK 923 INTER-LIGAND FREE ENERGY PREDICTED BY IDOCK:   -7.43 KCAL/MOL
REMARK 924 INTRA-LIGAND FREE ENERGY PREDICTED BY IDOCK:   -1.12 KCAL/MOL
REMARK 927      BINDING AFFINITY PREDICTED BY RF-SCORE:    0.00 PKD
ROOT
HETATM    1  O   UNL     1     -13.397  12.236  64.572  1.00  0.00    -0.769 OA 
HETATM    2  H   UNL     1     -14.007  11.518  64.690  1.00  0.00     0.000 HD 
HETATM    3  C   UNL     1     -12.738  11.992  63.351  1.00  0.00    -0.398 C  
ENDROOT
BRANCH   3   4
HETATM    4  N   UNL     1     -11.824  13.067  63.173  1.00  0.00    -0.853 N  
HETATM    5  H   UNL     1     -11.911  13.679  62.361  1.00  0.00     0.000 HD 
BRANCH   4   6
HETATM    6  C   UNL     1     -10.833  13.282  64.083  1.00  0.00    -0.343 C  
HETATM    7  O   UNL     1      -9.795  12.625  64.074  1.00  0.00    -0.230 OA 
BRANCH   6   8
HETATM    8  N   UNL     1     -11.034  14.322  64.970  1.00  0.00    -0.364 N  
BRANCH   8   9
HETATM    9  C   UNL     1     -10.382  14.232  66.260  1.00  0.00    -0.294 C  
HETATM   10  O   UNL     1     -12.284  13.203  67.477  1.00  0.00    -0.282 OA 
HETATM   11  N   UNL     1      -9.791  15.459  66.744  1.00  0.00    -0.238 N  
HETATM   12  C   UNL     1     -11.290  13.922  67.470  1.00  0.00    -0.318 C  
HETATM   13  O   UNL     1      -9.297  16.325  68.836  1.00  0.00    -0.227 OA 
HETATM   14  N   UNL     1     -10.762  14.564  68.552  1.00  0.00    -0.243 N  
HETATM   15  C   UNL     1      -9.880  15.516  68.130  1.00  0.00    -0.216 C  
BRANCH  11  16
HETATM   16  C   UNL     1      -8.811  16.224  66.031  1.00  0.00    -0.273 C  
HETATM   17  H   UNL     1      -8.592  18.074  65.482  1.00  0.00     0.000 HD 
HETATM   18  O   UNL     1      -9.242  17.566  65.955  1.00  0.00    -0.508 OA 
ENDBRANCH  11  16
BRANCH  14  19
HETATM   19  C   UNL     1     -11.338  14.597  69.863  1.00  0.00    -0.259 C  
HETATM   20  O   UNL     1     -12.633  15.164  69.807  1.00  0.00    -0.567 OA 
HETATM   21  H   UNL     1     -13.015  15.185  70.676  1.00  0.00     0.000 HD 
ENDBRANCH  14  19
ENDBRANCH   8   9
BRANCH   8  22
HETATM   22  C   UNL     1     -12.028  15.354  64.792  1.00  0.00    -0.106 C  
HETATM   23  H   UNL     1     -12.164  16.971  63.751  1.00  0.00     0.000 HD 
HETATM   24  O   UNL     1     -11.511  16.291  63.868  1.00  0.00    -0.940 OA 
ENDBRANCH   8  22
ENDBRANCH   6   8
ENDBRANCH   4   6
ENDBRANCH   3   4
TORSDOF 7
ENDMDL
MODEL       23
REMARK 921   NORMALIZED FREE ENERGY PREDICTED BY IDOCK:   -4.93 KCAL/MOL
REMARK 922        TOTAL FREE ENERGY PREDICTED BY IDOCK:   -8.47 KCAL/MOL
REMARK 923 INTER-LIGAND FREE ENERGY PREDICTED BY IDOCK:   -7.00 KCAL/MOL
REMARK 924 INTRA-LIGAND FREE ENERGY PREDICTED BY IDOCK:   -1.48 KCAL/MOL
REMARK 927      BINDING AFFINITY PREDICTED BY RF-SCORE:    0.00 PKD
ROOT
HETATM    1  O   UNL     1     -10.482  19.785  67.805  1.00  0.00    -0.426 OA 
HETATM    2  H   UNL     1     -11.023  20.533  68.026  1.00  0.00     0.000 HD 
HETATM    3  C   UNL     1     -10.744  19.497  66.451  1.00  0.00    -0.427 C  
ENDROOT
BRANCH   3   4
HETATM    4  N   UNL     1      -9.933  18.376  66.121  1.00  0.00    -0.347 N  
HETATM    5  H   UNL     1      -8.922  18.428  66.242  1.00  0.00     0.000 HD 
BRANCH   4   6
HETATM    6  C   UNL     1     -10.503  17.234  65.644  1.00  0.00    -0.181 C  
HETATM    7  O   UNL     1     -11.075  17.204  64.557  1.00  0.00    -1.105 OA 
BRANCH   6   8
HETATM    8  N   UNL     1     -10.345  16.103  66.421  1.00  0.00    -0.305 N  
BRANCH   8   9
HETATM    9  C   UNL     1     -11.318  15.873  67.469  1.00  0.00    -0.098 C  
HETATM   10  O   UNL     1     -10.214  17.268  69.200  1.00  0.00    -0.321 OA 
HETATM   11  N   UNL     1     -11.621  14.487  67.743  1.00  0.00    -0.348 N  
HETATM   12  C   UNL     1     -10.906  16.303  68.895  1.00  0.00    -0.317 C  
HETATM   13  O   UNL     1     -12.380  13.309  69.589  1.00  0.00    -0.224 OA 
HETATM   14  N   UNL     1     -11.489  15.432  69.768  1.00  0.00    -0.298 N  
HETATM   15  C   UNL     1     -11.897  14.317  69.094  1.00  0.00    -0.330 C  
BRANCH  11  16
HETATM   16  C   UNL     1     -12.097  13.553  66.765  1.00  0.00    -0.375 C  
HETATM   17  H   UNL     1     -11.575  11.797  66.121  1.00  0.00     0.000 HD 
HETATM   18  O   UNL     1     -11.259  12.417  66.770  1.00  0.00    -0.276 OA 
ENDBRANCH  11  16
BRANCH  14  19
HETATM   19  C   UNL     1     -11.306  15.430  71.188  1.00  0.00    -0.378 C  
HETATM   20  O   UNL     1     -11.704  16.677  71.727  1.00  0.00    -0.638 OA 
HETATM   21  H   UNL     1     -11.583  16.676  72.669  1.00  0.00     0.000 HD 
ENDBRANCH  14  19
ENDBRANCH   8   9
BRANCH   8  22
HETATM   22  C   UNL     1      -9.160  15.278  66.414  1.00  0.00    -0.312 C  
HETATM   23  H   UNL     1      -7.259  15.597  66.391  1.00  0.00     0.000 HD 
HETATM   24  O   UNL     1      -8.039  16.140  66.395  1.00  0.00    -0.293 OA 
ENDBRANCH   8  22
ENDBRANCH   6   8
ENDBRANCH   4   6
ENDBRANCH   3   4
TORSDOF 7
ENDMDL
MODEL       24
REMARK 921   NORMALIZED FREE ENERGY PREDICTED BY IDOCK:   -4.90 KCAL/MOL
REMARK 922        TOTAL FREE ENERGY PREDICTED BY IDOCK:   -8.44 KCAL/MOL
REMARK 923 INTER-LIGAND FREE ENERGY PREDICTED BY IDOCK:   -7.29 KCAL/MOL
REMARK 924 INTRA-LIGAND FREE ENERGY PREDICTED BY IDOCK:   -1.15 KCAL/MOL
REMARK 927      BINDING AFFINITY PREDICTED BY RF-SCORE:    0.00 PKD
ROOT
HETATM    1  O   UNL     1     -11.563  16.344  63.709  1.00  0.00    -1.605 OA 
HETATM    2  H   UNL     1     -12.203  17.007  63.483  1.00  0.00     0.000 HD 
HETATM    3  C   UNL     1     -12.281  15.141  63.859  1.00  0.00     0.118 C  
ENDROOT
BRANCH   3   4
HETATM    4  N   UNL     1     -11.322  14.147  64.197  1.00  0.00    -0.608 N  
HETATM    5  H   UNL     1     -10.380  14.198  63.810  1.00  0.00     0.000 HD 
BRANCH   4   6
HETATM    6  C   UNL     1     -11.658  13.128  65.036  1.00  0.00    -0.325 C  
HETATM    7  O   UNL     1     -12.830  12.831  65.254  1.00  0.00    -0.674 OA 
BRANCH   6   8
HETATM    8  N   UNL     1     -10.608  12.409  65.574  1.00  0.00    -0.267 N  
BRANCH   8   9
HETATM    9  C   UNL     1     -10.239  12.694  66.945  1.00  0.00    -0.234 C  
HETATM   10  O   UNL     1     -12.106  11.455  68.012  1.00  0.00    -0.629 OA 
HETATM   11  N   UNL     1     -10.026  14.089  67.255  1.00  0.00    -0.239 N  
HETATM   12  C   UNL     1     -11.301  12.380  68.023  1.00  0.00    -0.287 C  
HETATM   13  O   UNL     1     -10.171  15.383  69.172  1.00  0.00    -0.214 OA 
HETATM   14  N   UNL     1     -11.155  13.300  69.019  1.00  0.00    -0.258 N  
HETATM   15  C   UNL     1     -10.415  14.353  68.562  1.00  0.00    -0.254 C  
BRANCH  11  16
HETATM   16  C   UNL     1      -9.093  14.938  66.574  1.00  0.00    -0.277 C  
HETATM   17  H   UNL     1      -9.162  16.624  65.613  1.00  0.00     0.000 HD 
HETATM   18  O   UNL     1      -9.780  16.062  66.065  1.00  0.00    -0.297 OA 
ENDBRANCH  11  16
BRANCH  14  19
HETATM   19  C   UNL     1     -11.989  13.410  70.178  1.00  0.00    -0.326 C  
HETATM   20  O   UNL     1     -12.340  12.121  70.644  1.00  0.00    -0.357 OA 
HETATM   21  H   UNL     1     -12.893  12.194  71.412  1.00  0.00     0.000 HD 
ENDBRANCH  14  19
ENDBRANCH   8   9
BRANCH   8  22
HETATM   22  C   UNL     1      -9.715  11.581  64.798  1.00  0.00    -0.219 C  
HETATM   23  H   UNL     1      -9.666  10.929  62.985  1.00  0.00     0.000 HD 
HETATM   24  O   UNL     1     -10.254  11.474  63.495  1.00  0.00    -0.337 OA 
ENDBRANCH   8  22
ENDBRANCH   6   8
ENDBRANCH   4   6
ENDBRANCH   3   4
TORSDOF 7
ENDMDL
MODEL       25
REMARK 921   NORMALIZED FREE ENERGY PREDICTED BY IDOCK:   -4.87 KCAL/MOL
REMARK 922        TOTAL FREE ENERGY PREDICTED BY IDOCK:   -8.39 KCAL/MOL
REMARK 923 INTER-LIGAND FREE ENERGY PREDICTED BY IDOCK:   -6.97 KCAL/MOL
REMARK 924 INTRA-LIGAND FREE ENERGY PREDICTED BY IDOCK:   -1.42 KCAL/MOL
REMARK 927      BINDING AFFINITY PREDICTED BY RF-SCORE:    0.00 PKD
ROOT
HETATM    1  O   UNL     1     -10.253  10.192  70.612  1.00  0.00    -0.382 OA 
HETATM    2  H   UNL     1      -9.990   9.784  71.428  1.00  0.00     0.000 HD 
HETATM    3  C   UNL     1     -11.652  10.054  70.538  1.00  0.00    -0.323 C  
ENDROOT
BRANCH   3   4
HETATM    4  N   UNL     1     -12.046  10.665  69.316  1.00  0.00    -0.536 N  
HETATM    5  H   UNL     1     -12.502  10.108  68.594  1.00  0.00     0.000 HD 
BRANCH   4   6
HETATM    6  C   UNL     1     -11.815  11.992  69.107  1.00  0.00    -0.311 C  
HETATM    7  O   UNL     1     -12.133  12.840  69.937  1.00  0.00    -0.308 OA 
BRANCH   6   8
HETATM    8  N   UNL     1     -11.148  12.318  67.943  1.00  0.00    -0.228 N  
BRANCH   8   9
HETATM    9  C   UNL     1     -11.427  13.614  67.356  1.00  0.00    -0.336 C  
HETATM   10  O   UNL     1     -12.885  12.795  65.523  1.00  0.00    -0.531 OA 
HETATM   11  N   UNL     1     -10.267  14.421  67.053  1.00  0.00    -0.260 N  
HETATM   12  C   UNL     1     -12.075  13.608  65.954  1.00  0.00    -0.439 C  
HETATM   13  O   UNL     1      -9.797  16.108  65.536  1.00  0.00    -0.458 OA 
HETATM   14  N   UNL     1     -11.613  14.705  65.287  1.00  0.00    -0.351 N  
HETATM   15  C   UNL     1     -10.504  15.188  65.919  1.00  0.00    -0.336 C  
BRANCH  11  16
HETATM   16  C   UNL     1      -9.270  14.800  68.010  1.00  0.00    -0.194 C  
HETATM   17  H   UNL     1      -9.163  15.998  69.534  1.00  0.00     0.000 HD 
HETATM   18  O   UNL     1      -9.824  15.747  68.900  1.00  0.00    -0.202 OA 
ENDBRANCH  11  16
BRANCH  14  19
HETATM   19  C   UNL     1     -11.913  15.038  63.927  1.00  0.00     0.135 C  
HETATM   20  O   UNL     1     -11.768  16.431  63.728  1.00  0.00    -1.553 OA 
HETATM   21  H   UNL     1     -11.967  16.652  62.826  1.00  0.00     0.000 HD 
ENDBRANCH  14  19
ENDBRANCH   8   9
BRANCH   8  22
HETATM   22  C   UNL     1     -10.389  11.376  67.155  1.00  0.00    -0.212 C  
HETATM   23  H   UNL     1      -8.780  10.346  67.411  1.00  0.00     0.000 HD 
HETATM   24  O   UNL     1      -9.279  10.966  67.930  1.00  0.00    -0.147 OA 
ENDBRANCH   8  22
ENDBRANCH   6   8
ENDBRANCH   4   6
ENDBRANCH   3   4
TORSDOF 7
ENDMDL
MODEL       26
REMARK 921   NORMALIZED FREE ENERGY PREDICTED BY IDOCK:   -4.86 KCAL/MOL
REMARK 922        TOTAL FREE ENERGY PREDICTED BY IDOCK:   -8.38 KCAL/MOL
REMARK 923 INTER-LIGAND FREE ENERGY PREDICTED BY IDOCK:   -7.16 KCAL/MOL
REMARK 924 INTRA-LIGAND FREE ENERGY PREDICTED BY IDOCK:   -1.22 KCAL/MOL
REMARK 927      BINDING AFFINITY PREDICTED BY RF-SCORE:    0.00 PKD
ROOT
HETATM    1  O   UNL     1     -12.480  14.238  63.294  1.00  0.00    -1.133 OA 
HETATM    2  H   UNL     1     -13.076  14.309  62.558  1.00  0.00     0.000 HD 
HETATM    3  C   UNL     1     -12.061  12.894  63.331  1.00  0.00    -0.530 C  
ENDROOT
BRANCH   3   4
HETATM    4  N   UNL     1     -11.168  12.788  64.433  1.00  0.00    -0.327 N  
HETATM    5  H   UNL     1     -10.171  12.655  64.268  1.00  0.00     0.000 HD 
BRANCH   4   6
HETATM    6  C   UNL     1     -11.641  12.865  65.709  1.00  0.00    -0.368 C  
HETATM    7  O   UNL     1     -12.814  13.144  65.946  1.00  0.00    -0.361 OA 
BRANCH   6   8
HETATM    8  N   UNL     1     -10.746  12.547  66.711  1.00  0.00    -0.233 N  
BRANCH   8   9
HETATM    9  C   UNL     1     -10.416  13.587  67.664  1.00  0.00    -0.238 C  
HETATM   10  O   UNL     1     -12.022  12.889  69.423  1.00  0.00    -0.302 OA 
HETATM   11  N   UNL     1     -10.450  14.936  67.148  1.00  0.00    -0.267 N  
HETATM   12  C   UNL     1     -11.393  13.771  68.847  1.00  0.00    -0.288 C  
HETATM   13  O   UNL     1     -10.799  17.035  68.068  1.00  0.00    -0.371 OA 
HETATM   14  N   UNL     1     -11.400  15.096  69.168  1.00  0.00    -0.279 N  
HETATM   15  C   UNL     1     -10.864  15.817  68.140  1.00  0.00    -0.307 C  
BRANCH  11  16
HETATM   16  C   UNL     1      -9.690  15.393  66.021  1.00  0.00    -0.338 C  
HETATM   17  H   UNL     1     -10.076  16.135  64.269  1.00  0.00     0.000 HD 
HETATM   18  O   UNL     1     -10.579  15.832  65.016  1.00  0.00    -0.432 OA 
ENDBRANCH  11  16
BRANCH  14  19
HETATM   19  C   UNL     1     -12.226  15.705  70.167  1.00  0.00    -0.361 C  
HETATM   20  O   UNL     1     -13.466  15.027  70.247  1.00  0.00    -0.620 OA 
HETATM   21  H   UNL     1     -14.013  15.431  70.909  1.00  0.00     0.000 HD 
ENDBRANCH  14  19
ENDBRANCH   8   9
BRANCH   8  22
HETATM   22  C   UNL     1      -9.948  11.344  66.730  1.00  0.00    -0.208 C  
HETATM   23  H   UNL     1      -8.402  10.701  65.774  1.00  0.00     0.000 HD 
HETATM   24  O   UNL     1      -8.928  11.493  65.762  1.00  0.00    -0.195 OA 
ENDBRANCH   8  22
ENDBRANCH   6   8
ENDBRANCH   4   6
ENDBRANCH   3   4
TORSDOF 7
ENDMDL
MODEL       27
REMARK 921   NORMALIZED FREE ENERGY PREDICTED BY IDOCK:   -4.80 KCAL/MOL
REMARK 922        TOTAL FREE ENERGY PREDICTED BY IDOCK:   -8.30 KCAL/MOL
REMARK 923 INTER-LIGAND FREE ENERGY PREDICTED BY IDOCK:   -7.44 KCAL/MOL
REMARK 924 INTRA-LIGAND FREE ENERGY PREDICTED BY IDOCK:   -0.86 KCAL/MOL
REMARK 927      BINDING AFFINITY PREDICTED BY RF-SCORE:    0.00 PKD
ROOT
HETATM    1  O   UNL     1     -14.190  13.769  72.334  1.00  0.00    -0.648 OA 
HETATM    2  H   UNL     1     -14.616  13.883  73.175  1.00  0.00     0.000 HD 
HETATM    3  C   UNL     1     -14.059  15.058  71.783  1.00  0.00    -0.527 C  
ENDROOT
BRANCH   3   4
HETATM    4  N   UNL     1     -13.420  14.887  70.524  1.00  0.00    -0.622 N  
HETATM    5  H   UNL     1     -13.980  14.844  69.673  1.00  0.00     0.000 HD 
BRANCH   4   6
HETATM    6  C   UNL     1     -12.064  14.780  70.452  1.00  0.00    -0.321 C  
HETATM    7  O   UNL     1     -11.344  15.053  71.410  1.00  0.00    -0.336 OA 
BRANCH   6   8
HETATM    8  N   UNL     1     -11.553  14.289  69.267  1.00  0.00    -0.286 N  
BRANCH   8   9
HETATM    9  C   UNL     1     -11.598  15.159  68.110  1.00  0.00    -0.341 C  
HETATM   10  O   UNL     1     -12.647  13.528  66.561  1.00  0.00    -0.302 OA 
HETATM   11  N   UNL     1     -10.347  15.790  67.757  1.00  0.00    -0.268 N  
HETATM   12  C   UNL     1     -11.904  14.485  66.754  1.00  0.00    -0.371 C  
HETATM   13  O   UNL     1      -9.423  16.618  65.800  1.00  0.00    -0.495 OA 
HETATM   14  N   UNL     1     -11.226  15.175  65.793  1.00  0.00    -0.321 N  
HETATM   15  C   UNL     1     -10.262  15.943  66.379  1.00  0.00    -0.301 C  
BRANCH  11  16
HETATM   16  C   UNL     1      -9.574  16.610  68.644  1.00  0.00    -0.248 C  
HETATM   17  H   UNL     1      -9.781  18.337  69.506  1.00  0.00     0.000 HD 
HETATM   18  O   UNL     1     -10.293  17.794  68.918  1.00  0.00    -0.368 OA 
ENDBRANCH  11  16
BRANCH  14  19
HETATM   19  C   UNL     1     -11.179  14.836  64.402  1.00  0.00    -0.172 C  
HETATM   20  O   UNL     1     -12.420  15.135  63.791  1.00  0.00    -1.020 OA 
HETATM   21  H   UNL     1     -12.389  14.910  62.869  1.00  0.00     0.000 HD 
ENDBRANCH  14  19
ENDBRANCH   8   9
BRANCH   8  22
HETATM   22  C   UNL     1     -11.204  12.904  69.051  1.00  0.00    -0.267 C  
HETATM   23  H   UNL     1     -11.967  11.200  69.530  1.00  0.00     0.000 HD 
HETATM   24  O   UNL     1     -12.196  12.111  69.672  1.00  0.00    -0.223 OA 
ENDBRANCH   8  22
ENDBRANCH   6   8
ENDBRANCH   4   6
ENDBRANCH   3   4
TORSDOF 7
ENDMDL
MODEL       28
REMARK 921   NORMALIZED FREE ENERGY PREDICTED BY IDOCK:   -4.79 KCAL/MOL
REMARK 922        TOTAL FREE ENERGY PREDICTED BY IDOCK:   -8.28 KCAL/MOL
REMARK 923 INTER-LIGAND FREE ENERGY PREDICTED BY IDOCK:   -7.47 KCAL/MOL
REMARK 924 INTRA-LIGAND FREE ENERGY PREDICTED BY IDOCK:   -0.81 KCAL/MOL
REMARK 927      BINDING AFFINITY PREDICTED BY RF-SCORE:    0.00 PKD
ROOT
HETATM    1  O   UNL     1     -11.836  16.410  71.650  1.00  0.00    -0.640 OA 
HETATM    2  H   UNL     1     -12.470  16.694  72.297  1.00  0.00     0.000 HD 
HETATM    3  C   UNL     1     -12.020  15.021  71.504  1.00  0.00    -0.357 C  
ENDROOT
BRANCH   3   4
HETATM    4  N   UNL     1     -11.070  14.597  70.534  1.00  0.00    -0.488 N  
HETATM    5  H   UNL     1     -10.444  13.819  70.743  1.00  0.00     0.000 HD 
BRANCH   4   6
HETATM    6  C   UNL     1     -10.993  15.226  69.328  1.00  0.00    -0.261 C  
HETATM    7  O   UNL     1     -11.854  16.020  68.959  1.00  0.00    -0.362 OA 
BRANCH   6   8
HETATM    8  N   UNL     1      -9.862  14.969  68.578  1.00  0.00    -0.211 N  
BRANCH   8   9
HETATM    9  C   UNL     1     -10.052  14.380  67.268  1.00  0.00    -0.251 C  
HETATM   10  O   UNL     1     -10.474  16.503  66.053  1.00  0.00    -0.328 OA 
HETATM   11  N   UNL     1     -11.015  13.305  67.203  1.00  0.00    -0.268 N  
HETATM   12  C   UNL     1     -10.658  15.297  66.182  1.00  0.00    -0.313 C  
HETATM   13  O   UNL     1     -12.378  12.424  65.548  1.00  0.00    -0.621 OA 
HETATM   14  N   UNL     1     -11.412  14.513  65.360  1.00  0.00    -0.340 N  
HETATM   15  C   UNL     1     -11.663  13.319  65.973  1.00  0.00    -0.368 C  
BRANCH  11  16
HETATM   16  C   UNL     1     -10.954  12.113  67.996  1.00  0.00    -0.229 C  
HETATM   17  H   UNL     1     -11.975  11.337  69.454  1.00  0.00     0.000 HD 
HETATM   18  O   UNL     1     -12.015  12.127  68.928  1.00  0.00    -0.299 OA 
ENDBRANCH  11  16
BRANCH  14  19
HETATM   19  C   UNL     1     -12.205  14.979  64.263  1.00  0.00    -0.293 C  
HETATM   20  O   UNL     1     -11.712  16.225  63.806  1.00  0.00    -1.511 OA 
HETATM   21  H   UNL     1     -12.238  16.534  63.079  1.00  0.00     0.000 HD 
ENDBRANCH  14  19
ENDBRANCH   8   9
BRANCH   8  22
HETATM   22  C   UNL     1      -8.517  15.024  69.099  1.00  0.00    -0.192 C  
HETATM   23  H   UNL     1      -6.960  16.115  68.783  1.00  0.00     0.000 HD 
HETATM   24  O   UNL     1      -7.845  16.080  68.440  1.00  0.00    -0.140 OA 
ENDBRANCH   8  22
ENDBRANCH   6   8
ENDBRANCH   4   6
ENDBRANCH   3   4
TORSDOF 7
ENDMDL
MODEL       29
REMARK 921   NORMALIZED FREE ENERGY PREDICTED BY IDOCK:   -4.79 KCAL/MOL
REMARK 922        TOTAL FREE ENERGY PREDICTED BY IDOCK:   -8.28 KCAL/MOL
REMARK 923 INTER-LIGAND FREE ENERGY PREDICTED BY IDOCK:   -6.90 KCAL/MOL
REMARK 924 INTRA-LIGAND FREE ENERGY PREDICTED BY IDOCK:   -1.37 KCAL/MOL
REMARK 927      BINDING AFFINITY PREDICTED BY RF-SCORE:    0.00 PKD
ROOT
HETATM    1  O   UNL     1     -11.004  10.887  63.892  1.00  0.00    -0.478 OA 
HETATM    2  H   UNL     1     -11.192  10.483  63.054  1.00  0.00     0.000 HD 
HETATM    3  C   UNL     1     -10.240  12.037  63.612  1.00  0.00    -0.444 C  
ENDROOT
BRANCH   3   4
HETATM    4  N   UNL     1      -9.960  12.642  64.868  1.00  0.00    -0.471 N  
HETATM    5  H   UNL     1      -9.337  12.177  65.527  1.00  0.00     0.000 HD 
BRANCH   4   6
HETATM    6  C   UNL     1     -10.522  13.840  65.193  1.00  0.00    -0.384 C  
HETATM    7  O   UNL     1     -10.216  14.876  64.606  1.00  0.00    -0.243 OA 
BRANCH   6   8
HETATM    8  N   UNL     1     -11.497  13.811  66.170  1.00  0.00    -0.328 N  
BRANCH   8   9
HETATM    9  C   UNL     1     -11.102  13.371  67.493  1.00  0.00    -0.274 C  
HETATM   10  O   UNL     1     -11.401  10.940  67.091  1.00  0.00    -0.394 OA 
HETATM   11  N   UNL     1     -11.786  14.013  68.591  1.00  0.00    -0.346 N  
HETATM   12  C   UNL     1     -11.419  11.903  67.852  1.00  0.00    -0.316 C  
HETATM   13  O   UNL     1     -12.297  13.422  70.773  1.00  0.00    -0.353 OA 
HETATM   14  N   UNL     1     -11.686  11.858  69.189  1.00  0.00    -0.297 N  
HETATM   15  C   UNL     1     -11.941  13.119  69.644  1.00  0.00    -0.306 C  
BRANCH  11  16
HETATM   16  C   UNL     1     -11.820  15.429  68.810  1.00  0.00    -0.318 C  
HETATM   17  H   UNL     1     -10.659  16.941  68.438  1.00  0.00     0.000 HD 
HETATM   18  O   UNL     1     -10.637  16.002  68.293  1.00  0.00    -0.261 OA 
ENDBRANCH  11  16
BRANCH  14  19
HETATM   19  C   UNL     1     -12.096  10.695  69.917  1.00  0.00    -0.299 C  
HETATM   20  O   UNL     1     -11.188  10.441  70.972  1.00  0.00    -0.318 OA 
HETATM   21  H   UNL     1     -11.460   9.670  71.454  1.00  0.00     0.000 HD 
ENDBRANCH  14  19
ENDBRANCH   8   9
BRANCH   8  22
HETATM   22  C   UNL     1     -12.909  13.957  65.907  1.00  0.00    -0.339 C  
HETATM   23  H   UNL     1     -14.191  13.096  64.752  1.00  0.00     0.000 HD 
HETATM   24  O   UNL     1     -13.262  13.001  64.926  1.00  0.00    -0.735 OA 
ENDBRANCH   8  22
ENDBRANCH   6   8
ENDBRANCH   4   6
ENDBRANCH   3   4
TORSDOF 7
ENDMDL
MODEL       30
REMARK 921   NORMALIZED FREE ENERGY PREDICTED BY IDOCK:   -4.78 KCAL/MOL
REMARK 922        TOTAL FREE ENERGY PREDICTED BY IDOCK:   -8.27 KCAL/MOL
REMARK 923 INTER-LIGAND FREE ENERGY PREDICTED BY IDOCK:   -7.37 KCAL/MOL
REMARK 924 INTRA-LIGAND FREE ENERGY PREDICTED BY IDOCK:   -0.90 KCAL/MOL
REMARK 927      BINDING AFFINITY PREDICTED BY RF-SCORE:    0.00 PKD
ROOT
HETATM    1  O   UNL     1     -11.607  10.092  68.021  1.00  0.00    -0.665 OA 
HETATM    2  H   UNL     1     -11.371   9.371  67.451  1.00  0.00     0.000 HD 
HETATM    3  C   UNL     1     -10.397  10.703  68.404  1.00  0.00    -0.175 C  
ENDROOT
BRANCH   3   4
HETATM    4  N   UNL     1     -10.752  11.783  69.259  1.00  0.00    -0.424 N  
HETATM    5  H   UNL     1     -11.166  11.593  70.172  1.00  0.00     0.000 HD 
BRANCH   4   6
HETATM    6  C   UNL     1     -10.542  13.069  68.862  1.00  0.00    -0.127 C  
HETATM    7  O   UNL     1      -9.427  13.471  68.540  1.00  0.00    -0.202 OA 
BRANCH   6   8
HETATM    8  N   UNL     1     -11.662  13.873  68.782  1.00  0.00    -0.334 N  
BRANCH   8   9
HETATM    9  C   UNL     1     -12.033  14.371  67.473  1.00  0.00    -0.354 C  
HETATM   10  O   UNL     1     -12.342  12.155  66.398  1.00  0.00    -0.489 OA 
HETATM   11  N   UNL     1     -11.126  15.336  66.895  1.00  0.00    -0.314 N  
HETATM   12  C   UNL     1     -12.036  13.341  66.322  1.00  0.00    -0.417 C  
HETATM   13  O   UNL     1     -10.581  15.984  64.738  1.00  0.00    -0.600 OA 
HETATM   14  N   UNL     1     -11.673  14.000  65.184  1.00  0.00    -0.335 N  
HETATM   15  C   UNL     1     -11.093  15.191  65.513  1.00  0.00    -0.345 C  
BRANCH  11  16
HETATM   16  C   UNL     1     -10.746  16.568  67.521  1.00  0.00    -0.283 C  
HETATM   17  H   UNL     1      -9.086  17.425  68.054  1.00  0.00     0.000 HD 
HETATM   18  O   UNL     1      -9.339  16.608  67.638  1.00  0.00    -0.221 OA 
ENDBRANCH  11  16
BRANCH  14  19
HETATM   19  C   UNL     1     -11.483  13.397  63.899  1.00  0.00    -0.309 C  
HETATM   20  O   UNL     1     -12.395  13.949  62.968  1.00  0.00    -1.101 OA 
HETATM   21  H   UNL     1     -12.269  13.550  62.116  1.00  0.00     0.000 HD 
ENDBRANCH  14  19
ENDBRANCH   8   9
BRANCH   8  22
HETATM   22  C   UNL     1     -12.335  14.438  69.928  1.00  0.00    -0.314 C  
HETATM   23  H   UNL     1     -12.749  13.844  71.715  1.00  0.00     0.000 HD 
HETATM   24  O   UNL     1     -12.306  13.472  70.961  1.00  0.00    -0.362 OA 
ENDBRANCH   8  22
ENDBRANCH   6   8
ENDBRANCH   4   6
ENDBRANCH   3   4
TORSDOF 7
ENDMDL
MODEL       31
REMARK 921   NORMALIZED FREE ENERGY PREDICTED BY IDOCK:   -4.76 KCAL/MOL
REMARK 922        TOTAL FREE ENERGY PREDICTED BY IDOCK:   -8.24 KCAL/MOL
REMARK 923 INTER-LIGAND FREE ENERGY PREDICTED BY IDOCK:   -6.96 KCAL/MOL
REMARK 924 INTRA-LIGAND FREE ENERGY PREDICTED BY IDOCK:   -1.28 KCAL/MOL
REMARK 927      BINDING AFFINITY PREDICTED BY RF-SCORE:    0.00 PKD
ROOT
HETATM    1  O   UNL     1     -12.458  13.599  62.990  1.00  0.00    -1.020 OA 
HETATM    2  H   UNL     1     -12.891  13.482  62.154  1.00  0.00     0.000 HD 
HETATM    3  C   UNL     1     -12.401  12.323  63.584  1.00  0.00    -0.562 C  
ENDROOT
BRANCH   3   4
HETATM    4  N   UNL     1     -11.752  12.498  64.837  1.00  0.00    -0.343 N  
HETATM    5  H   UNL     1     -10.926  11.944  65.063  1.00  0.00     0.000 HD 
BRANCH   4   6
HETATM    6  C   UNL     1     -12.230  13.403  65.736  1.00  0.00    -0.458 C  
HETATM    7  O   UNL     1     -13.235  14.072  65.506  1.00  0.00    -0.710 OA 
BRANCH   6   8
HETATM    8  N   UNL     1     -11.561  13.477  66.942  1.00  0.00    -0.344 N  
BRANCH   8   9
HETATM    9  C   UNL     1     -10.362  14.289  66.990  1.00  0.00    -0.267 C  
HETATM   10  O   UNL     1      -8.739  12.424  66.769  1.00  0.00    -0.200 OA 
HETATM   11  N   UNL     1     -10.271  15.198  68.109  1.00  0.00    -0.225 N  
HETATM   12  C   UNL     1      -9.029  13.535  67.198  1.00  0.00    -0.227 C  
HETATM   13  O   UNL     1      -8.533  16.189  69.278  1.00  0.00    -0.247 OA 
HETATM   14  N   UNL     1      -8.208  14.352  67.918  1.00  0.00    -0.144 N  
HETATM   15  C   UNL     1      -8.946  15.342  68.500  1.00  0.00    -0.187 C  
BRANCH  11  16
HETATM   16  C   UNL     1     -11.250  16.196  68.424  1.00  0.00    -0.358 C  
HETATM   17  H   UNL     1     -12.654  16.426  69.746  1.00  0.00     0.000 HD 
HETATM   18  O   UNL     1     -12.005  15.765  69.537  1.00  0.00    -0.361 OA 
ENDBRANCH  11  16
BRANCH  14  19
HETATM   19  C   UNL     1      -6.900  14.009  68.389  1.00  0.00    -0.099 C  
HETATM   20  O   UNL     1      -6.982  12.926  69.296  1.00  0.00    -0.253 OA 
HETATM   21  H   UNL     1      -6.114  12.698  69.608  1.00  0.00     0.000 HD 
ENDBRANCH  14  19
ENDBRANCH   8   9
BRANCH   8  22
HETATM   22  C   UNL     1     -11.836  12.621  68.072  1.00  0.00    -0.323 C  
HETATM   23  H   UNL     1     -12.161  10.739  68.329  1.00  0.00     0.000 HD 
HETATM   24  O   UNL     1     -11.980  11.302  67.585  1.00  0.00    -0.634 OA 
ENDBRANCH   8  22
ENDBRANCH   6   8
ENDBRANCH   4   6
ENDBRANCH   3   4
TORSDOF 7
ENDMDL
MODEL       32
REMARK 921   NORMALIZED FREE ENERGY PREDICTED BY IDOCK:   -4.76 KCAL/MOL
REMARK 922        TOTAL FREE ENERGY PREDICTED BY IDOCK:   -8.23 KCAL/MOL
REMARK 923 INTER-LIGAND FREE ENERGY PREDICTED BY IDOCK:   -7.07 KCAL/MOL
REMARK 924 INTRA-LIGAND FREE ENERGY PREDICTED BY IDOCK:   -1.16 KCAL/MOL
REMARK 927      BINDING AFFINITY PREDICTED BY RF-SCORE:    0.00 PKD
ROOT
HETATM    1  O   UNL     1     -12.598  15.399  69.509  1.00  0.00    -0.606 OA 
HETATM    2  H   UNL     1     -13.261  15.641  70.146  1.00  0.00     0.000 HD 
HETATM    3  C   UNL     1     -11.827  14.386  70.112  1.00  0.00    -0.314 C  
ENDROOT
BRANCH   3   4
HETATM    4  N   UNL     1     -10.835  14.025  69.159  1.00  0.00    -0.332 N  
HETATM    5  H   UNL     1      -9.848  14.090  69.405  1.00  0.00     0.000 HD 
BRANCH   4   6
HETATM    6  C   UNL     1     -11.201  13.591  67.920  1.00  0.00    -0.274 C  
HETATM    7  O   UNL     1     -12.379  13.418  67.619  1.00  0.00    -0.228 OA 
BRANCH   6   8
HETATM    8  N   UNL     1     -10.178  13.422  67.007  1.00  0.00    -0.247 N  
BRANCH   8   9
HETATM    9  C   UNL     1      -9.943  14.495  66.064  1.00  0.00    -0.322 C  
HETATM   10  O   UNL     1      -9.371  16.235  67.739  1.00  0.00    -0.213 OA 
HETATM   11  N   UNL     1     -11.004  14.729  65.111  1.00  0.00    -0.367 N  
HETATM   12  C   UNL     1      -9.846  15.920  66.653  1.00  0.00    -0.254 C  
HETATM   13  O   UNL     1     -11.735  16.558  63.889  1.00  0.00    -1.148 OA 
HETATM   14  N   UNL     1     -10.351  16.781  65.724  1.00  0.00    -0.342 N  
HETATM   15  C   UNL     1     -11.079  16.083  64.804  1.00  0.00    -0.365 C  
BRANCH  11  16
HETATM   16  C   UNL     1     -11.527  13.736  64.219  1.00  0.00    -0.340 C  
HETATM   17  H   UNL     1     -13.231  12.848  63.943  1.00  0.00     0.000 HD 
HETATM   18  O   UNL     1     -12.884  13.507  64.533  1.00  0.00    -0.645 OA 
ENDBRANCH  11  16
BRANCH  14  19
HETATM   19  C   UNL     1     -10.513  18.193  65.899  1.00  0.00    -0.283 C  
HETATM   20  O   UNL     1     -10.837  18.478  67.247  1.00  0.00    -0.408 OA 
HETATM   21  H   UNL     1     -10.944  19.414  67.363  1.00  0.00     0.000 HD 
ENDBRANCH  14  19
ENDBRANCH   8   9
BRANCH   8  22
HETATM   22  C   UNL     1      -9.499  12.168  66.779  1.00  0.00    -0.212 C  
HETATM   23  H   UNL     1      -9.175  10.569  67.805  1.00  0.00     0.000 HD 
HETATM   24  O   UNL     1      -9.622  11.394  67.956  1.00  0.00    -0.172 OA 
ENDBRANCH   8  22
ENDBRANCH   6   8
ENDBRANCH   4   6
ENDBRANCH   3   4
TORSDOF 7
ENDMDL
MODEL       33
REMARK 921   NORMALIZED FREE ENERGY PREDICTED BY IDOCK:   -4.74 KCAL/MOL
REMARK 922        TOTAL FREE ENERGY PREDICTED BY IDOCK:   -8.22 KCAL/MOL
REMARK 923 INTER-LIGAND FREE ENERGY PREDICTED BY IDOCK:   -6.88 KCAL/MOL
REMARK 924 INTRA-LIGAND FREE ENERGY PREDICTED BY IDOCK:   -1.34 KCAL/MOL
REMARK 927      BINDING AFFINITY PREDICTED BY RF-SCORE:    0.00 PKD
ROOT
HETATM    1  O   UNL     1      -7.936  19.090  68.432  1.00  0.00    -0.312 OA 
HETATM    2  H   UNL     1      -7.574  19.537  69.187  1.00  0.00     0.000 HD 
HETATM    3  C   UNL     1      -8.585  20.078  67.666  1.00  0.00    -0.326 C  
ENDROOT
BRANCH   3   4
HETATM    4  N   UNL     1      -9.128  19.409  66.535  1.00  0.00    -0.341 N  
HETATM    5  H   UNL     1      -9.835  19.870  65.963  1.00  0.00     0.000 HD 
BRANCH   4   6
HETATM    6  C   UNL     1      -8.708  18.153  66.214  1.00  0.00    -0.172 C  
HETATM    7  O   UNL     1      -7.592  17.947  65.743  1.00  0.00    -0.531 OA 
BRANCH   6   8
HETATM    8  N   UNL     1      -9.580  17.123  66.510  1.00  0.00    -0.267 N  
BRANCH   8   9
HETATM    9  C   UNL     1      -9.570  15.970  65.634  1.00  0.00    -0.191 C  
HETATM   10  O   UNL     1     -11.571  16.595  64.306  1.00  0.00    -0.989 OA 
HETATM   11  N   UNL     1      -9.513  14.687  66.296  1.00  0.00    -0.299 N  
HETATM   12  C   UNL     1     -10.843  15.735  64.790  1.00  0.00    -0.344 C  
HETATM   13  O   UNL     1     -10.188  12.535  65.762  1.00  0.00    -0.260 OA 
HETATM   14  N   UNL     1     -10.992  14.388  64.643  1.00  0.00    -0.381 N  
HETATM   15  C   UNL     1     -10.221  13.741  65.565  1.00  0.00    -0.316 C  
BRANCH  11  16
HETATM   16  C   UNL     1      -8.489  14.296  67.220  1.00  0.00    -0.210 C  
HETATM   17  H   UNL     1      -8.382  13.888  69.116  1.00  0.00     0.000 HD 
HETATM   18  O   UNL     1      -9.061  14.147  68.503  1.00  0.00    -0.192 OA 
ENDBRANCH  11  16
BRANCH  14  19
HETATM   19  C   UNL     1     -12.087  13.740  63.986  1.00  0.00    -0.403 C  
HETATM   20  O   UNL     1     -13.115  13.464  64.919  1.00  0.00    -0.723 OA 
HETATM   21  H   UNL     1     -13.841  13.035  64.483  1.00  0.00     0.000 HD 
ENDBRANCH  14  19
ENDBRANCH   8   9
BRANCH   8  22
HETATM   22  C   UNL     1     -10.650  17.224  67.473  1.00  0.00    -0.329 C  
HETATM   23  H   UNL     1     -10.781  17.200  69.396  1.00  0.00     0.000 HD 
HETATM   24  O   UNL     1     -10.076  17.134  68.762  1.00  0.00    -0.292 OA 
ENDBRANCH   8  22
ENDBRANCH   6   8
ENDBRANCH   4   6
ENDBRANCH   3   4
TORSDOF 7
ENDMDL
MODEL       34
REMARK 921   NORMALIZED FREE ENERGY PREDICTED BY IDOCK:   -4.71 KCAL/MOL
REMARK 922        TOTAL FREE ENERGY PREDICTED BY IDOCK:   -8.17 KCAL/MOL
REMARK 923 INTER-LIGAND FREE ENERGY PREDICTED BY IDOCK:   -6.65 KCAL/MOL
REMARK 924 INTRA-LIGAND FREE ENERGY PREDICTED BY IDOCK:   -1.52 KCAL/MOL
REMARK 927      BINDING AFFINITY PREDICTED BY RF-SCORE:    0.00 PKD
ROOT
HETATM    1  O   UNL     1     -12.104  15.947  68.494  1.00  0.00    -0.469 OA 
HETATM    2  H   UNL     1     -12.596  16.754  68.406  1.00  0.00     0.000 HD 
HETATM    3  C   UNL     1     -12.020  15.688  69.876  1.00  0.00    -0.360 C  
ENDROOT
BRANCH   3   4
HETATM    4  N   UNL     1     -11.283  14.479  70.008  1.00  0.00    -0.410 N  
HETATM    5  H   UNL     1     -11.370  13.922  70.858  1.00  0.00     0.000 HD 
BRANCH   4   6
HETATM    6  C   UNL     1     -10.462  14.063  69.003  1.00  0.00    -0.156 C  
HETATM    7  O   UNL     1      -9.366  14.584  68.808  1.00  0.00    -0.204 OA 
BRANCH   6   8
HETATM    8  N   UNL     1     -10.904  12.984  68.262  1.00  0.00    -0.237 N  
BRANCH   8   9
HETATM    9  C   UNL     1     -10.533  12.941  66.863  1.00  0.00    -0.246 C  
HETATM   10  O   UNL     1     -12.521  14.149  65.998  1.00  0.00    -0.467 OA 
HETATM   11  N   UNL     1     -10.201  11.632  66.348  1.00  0.00    -0.215 N  
HETATM   12  C   UNL     1     -11.636  13.313  65.847  1.00  0.00    -0.347 C  
HETATM   13  O   UNL     1     -10.261  10.629  64.260  1.00  0.00    -0.351 OA 
HETATM   14  N   UNL     1     -11.425  12.568  64.724  1.00  0.00    -0.312 N  
HETATM   15  C   UNL     1     -10.587  11.532  65.017  1.00  0.00    -0.297 C  
BRANCH  11  16
HETATM   16  C   UNL     1      -9.184  10.781  66.892  1.00  0.00    -0.156 C  
HETATM   17  H   UNL     1      -7.252  10.834  67.078  1.00  0.00     0.000 HD 
HETATM   18  O   UNL     1      -7.926  11.398  66.718  1.00  0.00    -0.153 OA 
ENDBRANCH  11  16
BRANCH  14  19
HETATM   19  C   UNL     1     -12.265  12.556  63.565  1.00  0.00    -0.558 C  
HETATM   20  O   UNL     1     -12.450  13.876  63.089  1.00  0.00    -1.121 OA 
HETATM   21  H   UNL     1     -13.006  13.868  62.320  1.00  0.00     0.000 HD 
ENDBRANCH  14  19
ENDBRANCH   8   9
BRANCH   8  22
HETATM   22  C   UNL     1     -11.894  12.039  68.722  1.00  0.00    -0.302 C  
HETATM   23  H   UNL     1     -12.071  10.853  70.232  1.00  0.00     0.000 HD 
HETATM   24  O   UNL     1     -11.419  11.475  69.929  1.00  0.00    -0.289 OA 
ENDBRANCH   8  22
ENDBRANCH   6   8
ENDBRANCH   4   6
ENDBRANCH   3   4
TORSDOF 7
ENDMDL
MODEL       35
REMARK 921   NORMALIZED FREE ENERGY PREDICTED BY IDOCK:   -4.71 KCAL/MOL
REMARK 922        TOTAL FREE ENERGY PREDICTED BY IDOCK:   -8.16 KCAL/MOL
REMARK 923 INTER-LIGAND FREE ENERGY PREDICTED BY IDOCK:   -7.00 KCAL/MOL
REMARK 924 INTRA-LIGAND FREE ENERGY PREDICTED BY IDOCK:   -1.16 KCAL/MOL
REMARK 927      BINDING AFFINITY PREDICTED BY RF-SCORE:    0.00 PKD
ROOT
HETATM    1  O   UNL     1     -12.351  14.109  68.453  1.00  0.00    -0.559 OA 
HETATM    2  H   UNL     1     -12.971  14.595  68.983  1.00  0.00     0.000 HD 
HETATM    3  C   UNL     1     -11.362  13.639  69.340  1.00  0.00    -0.245 C  
ENDROOT
BRANCH   3   4
HETATM    4  N   UNL     1     -10.433  12.911  68.546  1.00  0.00    -0.252 N  
HETATM    5  H   UNL     1      -9.432  13.065  68.667  1.00  0.00     0.000 HD 
BRANCH   4   6
HETATM    6  C   UNL     1     -10.876  12.010  67.625  1.00  0.00    -0.231 C  
HETATM    7  O   UNL     1     -11.949  11.426  67.758  1.00  0.00    -0.637 OA 
BRANCH   6   8
HETATM    8  N   UNL     1     -10.084  11.842  66.506  1.00  0.00    -0.200 N  
BRANCH   8   9
HETATM    9  C   UNL     1     -10.234  12.804  65.433  1.00  0.00    -0.283 C  
HETATM   10  O   UNL     1      -9.175  14.717  66.607  1.00  0.00    -0.247 OA 
HETATM   11  N   UNL     1     -11.570  12.933  64.897  1.00  0.00    -0.314 N  
HETATM   12  C   UNL     1      -9.989  14.285  65.797  1.00  0.00    -0.323 C  
HETATM   13  O   UNL     1     -12.749  14.616  63.827  1.00  0.00    -0.778 OA 
HETATM   14  N   UNL     1     -10.820  15.039  65.021  1.00  0.00    -0.399 N  
HETATM   15  C   UNL     1     -11.798  14.244  64.496  1.00  0.00    -0.442 C  
BRANCH  11  16
HETATM   16  C   UNL     1     -12.335  11.849  64.356  1.00  0.00    -0.154 C  
HETATM   17  H   UNL     1     -12.366  10.832  62.702  1.00  0.00     0.000 HD 
HETATM   18  O   UNL     1     -11.859  11.551  63.061  1.00  0.00    -0.103 OA 
ENDBRANCH  11  16
BRANCH  14  19
HETATM   19  C   UNL     1     -10.961  16.462  65.093  1.00  0.00    -0.232 C  
HETATM   20  O   UNL     1     -11.440  16.962  63.859  1.00  0.00    -1.303 OA 
HETATM   21  H   UNL     1     -11.534  17.906  63.907  1.00  0.00     0.000 HD 
ENDBRANCH  14  19
ENDBRANCH   8   9
BRANCH   8  22
HETATM   22  C   UNL     1      -9.305  10.656  66.239  1.00  0.00    -0.171 C  
HETATM   23  H   UNL     1      -8.183   9.481  67.276  1.00  0.00     0.000 HD 
HETATM   24  O   UNL     1      -8.696  10.261  67.452  1.00  0.00    -0.128 OA 
ENDBRANCH   8  22
ENDBRANCH   6   8
ENDBRANCH   4   6
ENDBRANCH   3   4
TORSDOF 7
ENDMDL
MODEL       36
REMARK 921   NORMALIZED FREE ENERGY PREDICTED BY IDOCK:   -4.70 KCAL/MOL
REMARK 922        TOTAL FREE ENERGY PREDICTED BY IDOCK:   -8.16 KCAL/MOL
REMARK 923 INTER-LIGAND FREE ENERGY PREDICTED BY IDOCK:   -7.69 KCAL/MOL
REMARK 924 INTRA-LIGAND FREE ENERGY PREDICTED BY IDOCK:   -0.47 KCAL/MOL
REMARK 927      BINDING AFFINITY PREDICTED BY RF-SCORE:    0.00 PKD
ROOT
HETATM    1  O   UNL     1      -6.869  14.385  66.973  1.00  0.00    -0.363 OA 
HETATM    2  H   UNL     1      -6.325  14.269  67.743  1.00  0.00     0.000 HD 
HETATM    3  C   UNL     1      -8.157  13.943  67.334  1.00  0.00    -0.178 C  
ENDROOT
BRANCH   3   4
HETATM    4  N   UNL     1      -8.972  14.117  66.181  1.00  0.00    -0.471 N  
HETATM    5  H   UNL     1      -9.132  13.332  65.550  1.00  0.00     0.000 HD 
BRANCH   4   6
HETATM    6  C   UNL     1      -9.538  15.328  65.918  1.00  0.00    -0.342 C  
HETATM    7  O   UNL     1      -8.885  16.368  65.957  1.00  0.00    -0.373 OA 
BRANCH   6   8
HETATM    8  N   UNL     1     -10.867  15.310  65.541  1.00  0.00    -0.352 N  
BRANCH   8   9
HETATM    9  C   UNL     1     -11.802  14.650  66.429  1.00  0.00    -0.293 C  
HETATM   10  O   UNL     1     -11.436  16.130  68.388  1.00  0.00    -0.369 OA 
HETATM   11  N   UNL     1     -11.633  13.221  66.560  1.00  0.00    -0.334 N  
HETATM   12  C   UNL     1     -11.715  15.029  67.925  1.00  0.00    -0.289 C  
HETATM   13  O   UNL     1     -12.122  11.657  68.198  1.00  0.00    -0.577 OA 
HETATM   14  N   UNL     1     -12.046  13.920  68.646  1.00  0.00    -0.352 N  
HETATM   15  C   UNL     1     -11.971  12.817  67.846  1.00  0.00    -0.266 C  
BRANCH  11  16
HETATM   16  C   UNL     1     -11.651  12.299  65.463  1.00  0.00    -0.371 C  
HETATM   17  H   UNL     1     -12.925  11.753  64.103  1.00  0.00     0.000 HD 
HETATM   18  O   UNL     1     -12.912  12.364  64.830  1.00  0.00    -0.786 OA 
ENDBRANCH  11  16
BRANCH  14  19
HETATM   19  C   UNL     1     -12.023  13.820  70.075  1.00  0.00    -0.338 C  
HETATM   20  O   UNL     1     -12.716  14.912  70.646  1.00  0.00    -0.340 OA 
HETATM   21  H   UNL     1     -12.701  14.846  71.593  1.00  0.00     0.000 HD 
ENDBRANCH  14  19
ENDBRANCH   8   9
BRANCH   8  22
HETATM   22  C   UNL     1     -11.340  15.687  64.230  1.00  0.00    -0.171 C  
HETATM   23  H   UNL     1     -11.838  17.337  63.366  1.00  0.00     0.000 HD 
HETATM   24  O   UNL     1     -11.526  17.089  64.229  1.00  0.00    -1.124 OA 
ENDBRANCH   8  22
ENDBRANCH   6   8
ENDBRANCH   4   6
ENDBRANCH   3   4
TORSDOF 7
ENDMDL
MODEL       37
REMARK 921   NORMALIZED FREE ENERGY PREDICTED BY IDOCK:   -4.67 KCAL/MOL
REMARK 922        TOTAL FREE ENERGY PREDICTED BY IDOCK:   -8.11 KCAL/MOL
REMARK 923 INTER-LIGAND FREE ENERGY PREDICTED BY IDOCK:   -6.87 KCAL/MOL
REMARK 924 INTRA-LIGAND FREE ENERGY PREDICTED BY IDOCK:   -1.24 KCAL/MOL
REMARK 927      BINDING AFFINITY PREDICTED BY RF-SCORE:    0.00 PKD
ROOT
HETATM    1  O   UNL     1     -12.106  11.664  67.576  1.00  0.00    -0.611 OA 
HETATM    2  H   UNL     1     -11.777  10.836  67.905  1.00  0.00     0.000 HD 
HETATM    3  C   UNL     1     -11.786  12.628  68.551  1.00  0.00    -0.330 C  
ENDROOT
BRANCH   3   4
HETATM    4  N   UNL     1     -12.278  13.867  68.058  1.00  0.00    -0.489 N  
HETATM    5  H   UNL     1     -12.860  14.456  68.654  1.00  0.00     0.000 HD 
BRANCH   4   6
HETATM    6  C   UNL     1     -11.975  14.272  66.792  1.00  0.00    -0.436 C  
HETATM    7  O   UNL     1     -12.648  13.923  65.825  1.00  0.00    -0.491 OA 
BRANCH   6   8
HETATM    8  N   UNL     1     -10.911  15.144  66.669  1.00  0.00    -0.320 N  
BRANCH   8   9
HETATM    9  C   UNL     1     -11.141  16.529  67.025  1.00  0.00     0.106 C  
HETATM   10  O   UNL     1     -11.077  17.437  64.716  1.00  0.00    -0.973 OA 
HETATM   11  N   UNL     1     -10.261  17.065  68.038  1.00  0.00    -0.303 N  
HETATM   12  C   UNL     1     -10.881  17.576  65.919  1.00  0.00     0.014 C  
HETATM   13  O   UNL     1      -9.485  19.180  68.582  1.00  0.00    -0.365 OA 
HETATM   14  N   UNL     1     -10.428  18.709  66.528  1.00  0.00    -0.417 N  
HETATM   15  C   UNL     1     -10.021  18.412  67.797  1.00  0.00    -0.346 C  
BRANCH  11  16
HETATM   16  C   UNL     1     -10.095  16.505  69.347  1.00  0.00    -0.230 C  
HETATM   17  H   UNL     1      -8.760  15.434  70.263  1.00  0.00     0.000 HD 
HETATM   18  O   UNL     1      -8.870  15.805  69.395  1.00  0.00    -0.252 OA 
ENDBRANCH  11  16
BRANCH  14  19
HETATM   19  C   UNL     1     -10.002  19.900  65.857  1.00  0.00    -0.393 C  
HETATM   20  O   UNL     1      -8.594  20.018  65.932  1.00  0.00    -0.488 OA 
HETATM   21  H   UNL     1      -8.310  20.807  65.487  1.00  0.00     0.000 HD 
ENDBRANCH  14  19
ENDBRANCH   8   9
BRANCH   8  22
HETATM   22  C   UNL     1      -9.677  14.823  65.992  1.00  0.00    -0.321 C  
HETATM   23  H   UNL     1      -8.591  13.245  65.781  1.00  0.00     0.000 HD 
HETATM   24  O   UNL     1      -9.403  13.456  66.226  1.00  0.00    -0.222 OA 
ENDBRANCH   8  22
ENDBRANCH   6   8
ENDBRANCH   4   6
ENDBRANCH   3   4
TORSDOF 7
ENDMDL
MODEL       38
REMARK 921   NORMALIZED FREE ENERGY PREDICTED BY IDOCK:   -4.65 KCAL/MOL
REMARK 922        TOTAL FREE ENERGY PREDICTED BY IDOCK:   -8.09 KCAL/MOL
REMARK 923 INTER-LIGAND FREE ENERGY PREDICTED BY IDOCK:   -6.96 KCAL/MOL
REMARK 924 INTRA-LIGAND FREE ENERGY PREDICTED BY IDOCK:   -1.13 KCAL/MOL
REMARK 927      BINDING AFFINITY PREDICTED BY RF-SCORE:    0.00 PKD
ROOT
HETATM    1  O   UNL     1      -9.665  11.869  63.553  1.00  0.00    -0.493 OA 
HETATM    2  H   UNL     1      -9.197  12.028  62.743  1.00  0.00     0.000 HD 
HETATM    3  C   UNL     1      -9.513  10.496  63.830  1.00  0.00    -0.292 C  
ENDROOT
BRANCH   3   4
HETATM    4  N   UNL     1     -10.214  10.258  65.044  1.00  0.00    -0.284 N  
HETATM    5  H   UNL     1     -10.941   9.543  65.079  1.00  0.00     0.000 HD 
BRANCH   4   6
HETATM    6  C   UNL     1      -9.919  10.981  66.161  1.00  0.00    -0.231 C  
HETATM    7  O   UNL     1      -8.795  11.439  66.354  1.00  0.00    -0.184 OA 
BRANCH   6   8
HETATM    8  N   UNL     1     -10.968  11.223  67.026  1.00  0.00    -0.284 N  
BRANCH   8   9
HETATM    9  C   UNL     1     -11.640  12.502  66.917  1.00  0.00    -0.370 C  
HETATM   10  O   UNL     1     -12.585  12.142  64.651  1.00  0.00    -0.445 OA 
HETATM   11  N   UNL     1     -10.818  13.661  67.183  1.00  0.00    -0.283 N  
HETATM   12  C   UNL     1     -12.144  12.897  65.511  1.00  0.00    -0.458 C  
HETATM   13  O   UNL     1     -10.862  15.884  66.532  1.00  0.00    -0.291 OA 
HETATM   14  N   UNL     1     -12.049  14.253  65.409  1.00  0.00    -0.388 N  
HETATM   15  C   UNL     1     -11.227  14.727  66.391  1.00  0.00    -0.342 C  
BRANCH  11  16
HETATM   16  C   UNL     1     -10.088  13.876  68.397  1.00  0.00    -0.237 C  
HETATM   17  H   UNL     1     -10.519  14.250  70.253  1.00  0.00     0.000 HD 
HETATM   18  O   UNL     1     -11.002  14.107  69.448  1.00  0.00    -0.239 OA 
ENDBRANCH  11  16
BRANCH  14  19
HETATM   19  C   UNL     1     -12.349  15.022  64.239  1.00  0.00    -0.226 C  
HETATM   20  O   UNL     1     -12.428  14.173  63.110  1.00  0.00    -1.126 OA 
HETATM   21  H   UNL     1     -12.627  14.683  62.335  1.00  0.00     0.000 HD 
ENDBRANCH  14  19
ENDBRANCH   8   9
BRANCH   8  22
HETATM   22  C   UNL     1     -11.277  10.400  68.171  1.00  0.00    -0.268 C  
HETATM   23  H   UNL     1     -12.566  10.458  69.603  1.00  0.00     0.000 HD 
HETATM   24  O   UNL     1     -12.363  11.000  68.849  1.00  0.00    -0.516 OA 
ENDBRANCH   8  22
ENDBRANCH   6   8
ENDBRANCH   4   6
ENDBRANCH   3   4
TORSDOF 7
ENDMDL
MODEL       39
REMARK 921   NORMALIZED FREE ENERGY PREDICTED BY IDOCK:   -4.65 KCAL/MOL
REMARK 922        TOTAL FREE ENERGY PREDICTED BY IDOCK:   -8.08 KCAL/MOL
REMARK 923 INTER-LIGAND FREE ENERGY PREDICTED BY IDOCK:   -7.09 KCAL/MOL
REMARK 924 INTRA-LIGAND FREE ENERGY PREDICTED BY IDOCK:   -1.00 KCAL/MOL
REMARK 927      BINDING AFFINITY PREDICTED BY RF-SCORE:    0.00 PKD
ROOT
HETATM    1  O   UNL     1     -11.844  16.526  71.502  1.00  0.00    -0.655 OA 
HETATM    2  H   UNL     1     -12.371  16.657  72.280  1.00  0.00     0.000 HD 
HETATM    3  C   UNL     1     -11.539  15.151  71.462  1.00  0.00    -0.387 C  
ENDROOT
BRANCH   3   4
HETATM    4  N   UNL     1     -10.749  14.955  70.296  1.00  0.00    -0.475 N  
HETATM    5  H   UNL     1      -9.736  14.869  70.377  1.00  0.00     0.000 HD 
BRANCH   4   6
HETATM    6  C   UNL     1     -11.341  14.881  69.071  1.00  0.00    -0.292 C  
HETATM    7  O   UNL     1     -12.406  15.447  68.834  1.00  0.00    -0.152 OA 
BRANCH   6   8
HETATM    8  N   UNL     1     -10.646  14.190  68.098  1.00  0.00    -0.241 N  
BRANCH   8   9
HETATM    9  C   UNL     1     -10.090  14.960  67.004  1.00  0.00    -0.244 C  
HETATM   10  O   UNL     1      -9.190  16.817  68.383  1.00  0.00    -0.214 OA 
HETATM   11  N   UNL     1     -10.999  15.241  65.916  1.00  0.00    -0.337 N  
HETATM   12  C   UNL     1      -9.666  16.410  67.328  1.00  0.00    -0.239 C  
HETATM   13  O   UNL     1     -11.166  16.901  64.308  1.00  0.00    -1.204 OA 
HETATM   14  N   UNL     1      -9.880  17.158  66.208  1.00  0.00    -0.292 N  
HETATM   15  C   UNL     1     -10.708  16.480  65.360  1.00  0.00    -0.259 C  
BRANCH  11  16
HETATM   16  C   UNL     1     -11.706  14.241  65.172  1.00  0.00    -0.368 C  
HETATM   17  H   UNL     1     -13.541  13.621  65.034  1.00  0.00     0.000 HD 
HETATM   18  O   UNL     1     -13.072  14.284  65.527  1.00  0.00    -0.639 OA 
ENDBRANCH  11  16
BRANCH  14  19
HETATM   19  C   UNL     1      -9.685  18.572  66.103  1.00  0.00    -0.232 C  
HETATM   20  O   UNL     1     -10.906  19.247  66.340  1.00  0.00    -0.387 OA 
HETATM   21  H   UNL     1     -10.776  20.185  66.270  1.00  0.00     0.000 HD 
ENDBRANCH  14  19
ENDBRANCH   8   9
BRANCH   8  22
HETATM   22  C   UNL     1     -10.643  12.752  67.974  1.00  0.00    -0.226 C  
HETATM   23  H   UNL     1     -11.184  11.272  69.085  1.00  0.00     0.000 HD 
HETATM   24  O   UNL     1     -11.186  12.219  69.166  1.00  0.00    -0.243 OA 
ENDBRANCH   8  22
ENDBRANCH   6   8
ENDBRANCH   4   6
ENDBRANCH   3   4
TORSDOF 7
ENDMDL
MODEL       40
REMARK 921   NORMALIZED FREE ENERGY PREDICTED BY IDOCK:   -4.65 KCAL/MOL
REMARK 922        TOTAL FREE ENERGY PREDICTED BY IDOCK:   -8.08 KCAL/MOL
REMARK 923 INTER-LIGAND FREE ENERGY PREDICTED BY IDOCK:   -6.77 KCAL/MOL
REMARK 924 INTRA-LIGAND FREE ENERGY PREDICTED BY IDOCK:   -1.31 KCAL/MOL
REMARK 927      BINDING AFFINITY PREDICTED BY RF-SCORE:    0.00 PKD
ROOT
HETATM    1  O   UNL     1     -12.954  10.383  69.663  1.00  0.00    -0.616 OA 
HETATM    2  H   UNL     1     -13.829  10.300  70.023  1.00  0.00     0.000 HD 
HETATM    3  C   UNL     1     -12.213  11.124  70.604  1.00  0.00    -0.397 C  
ENDROOT
BRANCH   3   4
HETATM    4  N   UNL     1     -10.902  11.248  70.065  1.00  0.00    -0.436 N  
HETATM    5  H   UNL     1     -10.164  11.679  70.621  1.00  0.00     0.000 HD 
BRANCH   4   6
HETATM    6  C   UNL     1     -10.631  10.794  68.810  1.00  0.00    -0.200 C  
HETATM    7  O   UNL     1     -10.590   9.593  68.554  1.00  0.00    -0.212 OA 
BRANCH   6   8
HETATM    8  N   UNL     1     -10.471  11.757  67.833  1.00  0.00    -0.191 N  
BRANCH   8   9
HETATM    9  C   UNL     1     -11.589  11.997  66.944  1.00  0.00    -0.318 C  
HETATM   10  O   UNL     1     -10.738  10.650  65.040  1.00  0.00    -0.203 OA 
HETATM   11  N   UNL     1     -11.942  13.384  66.748  1.00  0.00    -0.396 N  
HETATM   12  C   UNL     1     -11.387  11.601  65.464  1.00  0.00    -0.160 C  
HETATM   13  O   UNL     1     -12.973  14.590  65.059  1.00  0.00    -0.564 OA 
HETATM   14  N   UNL     1     -12.099  12.483  64.705  1.00  0.00    -0.417 N  
HETATM   15  C   UNL     1     -12.414  13.578  65.456  1.00  0.00    -0.491 C  
BRANCH  11  16
HETATM   16  C   UNL     1     -12.278  14.292  67.805  1.00  0.00    -0.164 C  
HETATM   17  H   UNL     1     -11.489  15.875  68.607  1.00  0.00     0.000 HD 
HETATM   18  O   UNL     1     -11.267  15.273  67.906  1.00  0.00    -0.309 OA 
ENDBRANCH  11  16
BRANCH  14  19
HETATM   19  C   UNL     1     -12.127  12.515  63.274  1.00  0.00    -0.430 C  
HETATM   20  O   UNL     1     -12.757  11.349  62.777  1.00  0.00    -0.927 OA 
HETATM   21  H   UNL     1     -12.776  11.370  61.828  1.00  0.00     0.000 HD 
ENDBRANCH  14  19
ENDBRANCH   8   9
BRANCH   8  22
HETATM   22  C   UNL     1      -9.204  12.360  67.493  1.00  0.00    -0.183 C  
HETATM   23  H   UNL     1      -7.434  12.371  68.257  1.00  0.00     0.000 HD 
HETATM   24  O   UNL     1      -8.268  11.974  68.481  1.00  0.00    -0.153 OA 
ENDBRANCH   8  22
ENDBRANCH   6   8
ENDBRANCH   4   6
ENDBRANCH   3   4
TORSDOF 7
ENDMDL
MODEL       41
REMARK 921   NORMALIZED FREE ENERGY PREDICTED BY IDOCK:   -4.64 KCAL/MOL
REMARK 922        TOTAL FREE ENERGY PREDICTED BY IDOCK:   -8.07 KCAL/MOL
REMARK 923 INTER-LIGAND FREE ENERGY PREDICTED BY IDOCK:   -7.12 KCAL/MOL
REMARK 924 INTRA-LIGAND FREE ENERGY PREDICTED BY IDOCK:   -0.95 KCAL/MOL
REMARK 927      BINDING AFFINITY PREDICTED BY RF-SCORE:    0.00 PKD
ROOT
HETATM    1  O   UNL     1     -12.495  14.180  63.359  1.00  0.00    -1.122 OA 
HETATM    2  H   UNL     1     -13.224  13.701  62.985  1.00  0.00     0.000 HD 
HETATM    3  C   UNL     1     -12.659  14.115  64.756  1.00  0.00    -0.302 C  
ENDROOT
BRANCH   3   4
HETATM    4  N   UNL     1     -11.567  14.833  65.316  1.00  0.00    -0.351 N  
HETATM    5  H   UNL     1     -11.690  15.804  65.601  1.00  0.00     0.000 HD 
BRANCH   4   6
HETATM    6  C   UNL     1     -10.357  14.226  65.474  1.00  0.00    -0.355 C  
HETATM    7  O   UNL     1      -9.973  13.344  64.710  1.00  0.00    -0.258 OA 
BRANCH   6   8
HETATM    8  N   UNL     1      -9.564  14.705  66.499  1.00  0.00    -0.275 N  
BRANCH   8   9
HETATM    9  C   UNL     1      -9.875  14.264  67.844  1.00  0.00    -0.226 C  
HETATM   10  O   UNL     1      -9.709  11.828  67.396  1.00  0.00    -0.177 OA 
HETATM   11  N   UNL     1     -11.083  14.813  68.414  1.00  0.00    -0.253 N  
HETATM   12  C   UNL     1     -10.202  12.764  68.017  1.00  0.00    -0.228 C  
HETATM   13  O   UNL     1     -12.597  14.120  70.026  1.00  0.00    -0.332 OA 
HETATM   14  N   UNL     1     -11.118  12.659  69.022  1.00  0.00    -0.254 N  
HETATM   15  C   UNL     1     -11.682  13.880  69.253  1.00  0.00    -0.334 C  
BRANCH  11  16
HETATM   16  C   UNL     1     -11.350  16.215  68.554  1.00  0.00    -0.359 C  
HETATM   17  H   UNL     1     -10.488  17.735  69.400  1.00  0.00     0.000 HD 
HETATM   18  O   UNL     1     -10.312  16.806  69.307  1.00  0.00    -0.300 OA 
ENDBRANCH  11  16
BRANCH  14  19
HETATM   19  C   UNL     1     -11.742  11.445  69.455  1.00  0.00    -0.348 C  
HETATM   20  O   UNL     1     -12.321  10.779  68.349  1.00  0.00    -0.813 OA 
HETATM   21  H   UNL     1     -12.734   9.974  68.637  1.00  0.00     0.000 HD 
ENDBRANCH  14  19
ENDBRANCH   8   9
BRANCH   8  22
HETATM   22  C   UNL     1      -8.616  15.784  66.351  1.00  0.00    -0.311 C  
HETATM   23  H   UNL     1      -8.664  17.570  65.628  1.00  0.00     0.000 HD 
HETATM   24  O   UNL     1      -9.288  16.860  65.725  1.00  0.00    -0.521 OA 
ENDBRANCH   8  22
ENDBRANCH   6   8
ENDBRANCH   4   6
ENDBRANCH   3   4
TORSDOF 7
ENDMDL
MODEL       42
REMARK 921   NORMALIZED FREE ENERGY PREDICTED BY IDOCK:   -4.59 KCAL/MOL
REMARK 922        TOTAL FREE ENERGY PREDICTED BY IDOCK:   -8.00 KCAL/MOL
REMARK 923 INTER-LIGAND FREE ENERGY PREDICTED BY IDOCK:   -7.22 KCAL/MOL
REMARK 924 INTRA-LIGAND FREE ENERGY PREDICTED BY IDOCK:   -0.78 KCAL/MOL
REMARK 927      BINDING AFFINITY PREDICTED BY RF-SCORE:    0.00 PKD
ROOT
HETATM    1  O   UNL     1     -12.380  14.163  63.102  1.00  0.00    -1.125 OA 
HETATM    2  H   UNL     1     -12.874  13.399  62.831  1.00  0.00     0.000 HD 
HETATM    3  C   UNL     1     -11.668  13.782  64.255  1.00  0.00    -0.395 C  
ENDROOT
BRANCH   3   4
HETATM    4  N   UNL     1     -10.929  14.928  64.660  1.00  0.00    -0.607 N  
HETATM    5  H   UNL     1     -10.919  15.760  64.071  1.00  0.00     0.000 HD 
BRANCH   4   6
HETATM    6  C   UNL     1     -10.234  14.916  65.832  1.00  0.00    -0.314 C  
HETATM    7  O   UNL     1      -9.057  14.567  65.881  1.00  0.00    -0.081 OA 
BRANCH   6   8
HETATM    8  N   UNL     1     -10.907  15.381  66.945  1.00  0.00    -0.316 N  
BRANCH   8   9
HETATM    9  C   UNL     1     -10.476  16.645  67.505  1.00  0.00    -0.317 C  
HETATM   10  O   UNL     1     -10.778  17.994  65.444  1.00  0.00    -0.632 OA 
HETATM   11  N   UNL     1      -9.195  16.624  68.174  1.00  0.00    -0.216 N  
HETATM   12  C   UNL     1     -10.189  17.781  66.498  1.00  0.00    -0.358 C  
HETATM   13  O   UNL     1      -7.551  18.197  68.615  1.00  0.00    -0.286 OA 
HETATM   14  N   UNL     1      -9.178  18.539  67.014  1.00  0.00    -0.277 N  
HETATM   15  C   UNL     1      -8.549  17.843  68.005  1.00  0.00    -0.256 C  
BRANCH  11  16
HETATM   16  C   UNL     1      -8.864  15.754  69.264  1.00  0.00    -0.262 C  
HETATM   17  H   UNL     1      -7.574  14.341  69.597  1.00  0.00     0.000 HD 
HETATM   18  O   UNL     1      -7.794  14.918  68.875  1.00  0.00    -0.142 OA 
ENDBRANCH  11  16
BRANCH  14  19
HETATM   19  C   UNL     1      -8.559  19.653  66.363  1.00  0.00    -0.361 C  
HETATM   20  O   UNL     1      -9.544  20.586  65.961  1.00  0.00    -0.654 OA 
HETATM   21  H   UNL     1      -9.133  21.325  65.529  1.00  0.00     0.000 HD 
ENDBRANCH  14  19
ENDBRANCH   8   9
BRANCH   8  22
HETATM   22  C   UNL     1     -11.835  14.588  67.717  1.00  0.00    -0.357 C  
HETATM   23  H   UNL     1     -11.941  12.747  68.277  1.00  0.00     0.000 HD 
HETATM   24  O   UNL     1     -11.330  13.268  67.769  1.00  0.00    -0.266 OA 
ENDBRANCH   8  22
ENDBRANCH   6   8
ENDBRANCH   4   6
ENDBRANCH   3   4
TORSDOF 7
ENDMDL
MODEL       43
REMARK 921   NORMALIZED FREE ENERGY PREDICTED BY IDOCK:   -4.58 KCAL/MOL
REMARK 922        TOTAL FREE ENERGY PREDICTED BY IDOCK:   -7.99 KCAL/MOL
REMARK 923 INTER-LIGAND FREE ENERGY PREDICTED BY IDOCK:   -6.66 KCAL/MOL
REMARK 924 INTRA-LIGAND FREE ENERGY PREDICTED BY IDOCK:   -1.33 KCAL/MOL
REMARK 927      BINDING AFFINITY PREDICTED BY RF-SCORE:    0.00 PKD
ROOT
HETATM    1  O   UNL     1     -14.044   8.901  73.350  1.00  0.00    -1.256 OA 
HETATM    2  H   UNL     1     -14.965   8.673  73.382  1.00  0.00     0.000 HD 
HETATM    3  C   UNL     1     -13.705   8.972  71.985  1.00  0.00    -0.461 C  
ENDROOT
BRANCH   3   4
HETATM    4  N   UNL     1     -12.326   9.315  71.937  1.00  0.00    -0.372 N  
HETATM    5  H   UNL     1     -12.047  10.270  71.715  1.00  0.00     0.000 HD 
BRANCH   4   6
HETATM    6  C   UNL     1     -11.375   8.370  72.187  1.00  0.00    -0.366 C  
HETATM    7  O   UNL     1     -11.339   7.758  73.252  1.00  0.00    -0.321 OA 
BRANCH   6   8
HETATM    8  N   UNL     1     -10.501   8.097  71.154  1.00  0.00    -0.197 N  
BRANCH   8   9
HETATM    9  C   UNL     1     -11.074   7.809  69.855  1.00  0.00    -0.136 C  
HETATM   10  O   UNL     1     -10.823   5.342  69.968  1.00  0.00    -0.245 OA 
HETATM   11  N   UNL     1     -10.506   8.544  68.749  1.00  0.00    -0.210 N  
HETATM   12  C   UNL     1     -10.861   6.378  69.312  1.00  0.00    -0.327 C  
HETATM   13  O   UNL     1     -10.293   8.171  66.471  1.00  0.00    -0.273 OA 
HETATM   14  N   UNL     1     -10.764   6.466  67.955  1.00  0.00    -0.266 N  
HETATM   15  C   UNL     1     -10.518   7.761  67.600  1.00  0.00    -0.239 C  
BRANCH  11  16
HETATM   16  C   UNL     1     -10.443   9.974  68.671  1.00  0.00    -0.204 C  
HETATM   17  H   UNL     1     -11.621  11.460  69.089  1.00  0.00     0.000 HD 
HETATM   18  O   UNL     1     -11.662  10.512  69.141  1.00  0.00    -0.252 OA 
ENDBRANCH  11  16
BRANCH  14  19
HETATM   19  C   UNL     1     -10.494   5.376  67.067  1.00  0.00    -0.257 C  
HETATM   20  O   UNL     1     -11.374   5.425  65.960  1.00  0.00    -0.773 OA 
HETATM   21  H   UNL     1     -11.194   4.702  65.372  1.00  0.00     0.000 HD 
ENDBRANCH  14  19
ENDBRANCH   8   9
BRANCH   8  22
HETATM   22  C   UNL     1      -9.091   7.845  71.335  1.00  0.00    -0.136 C  
HETATM   23  H   UNL     1      -7.585   8.852  71.994  1.00  0.00     0.000 HD 
HETATM   24  O   UNL     1      -8.513   9.017  71.876  1.00  0.00    -0.363 OA 
ENDBRANCH   8  22
ENDBRANCH   6   8
ENDBRANCH   4   6
ENDBRANCH   3   4
TORSDOF 7
ENDMDL
MODEL       44
REMARK 921   NORMALIZED FREE ENERGY PREDICTED BY IDOCK:   -4.58 KCAL/MOL
REMARK 922        TOTAL FREE ENERGY PREDICTED BY IDOCK:   -7.99 KCAL/MOL
REMARK 923 INTER-LIGAND FREE ENERGY PREDICTED BY IDOCK:   -6.87 KCAL/MOL
REMARK 924 INTRA-LIGAND FREE ENERGY PREDICTED BY IDOCK:   -1.12 KCAL/MOL
REMARK 927      BINDING AFFINITY PREDICTED BY RF-SCORE:    0.00 PKD
ROOT
HETATM    1  O   UNL     1     -13.887  15.576  70.456  1.00  0.00    -0.827 OA 
HETATM    2  H   UNL     1     -14.165  15.671  71.359  1.00  0.00     0.000 HD 
HETATM    3  C   UNL     1     -12.877  14.594  70.459  1.00  0.00    -0.317 C  
ENDROOT
BRANCH   3   4
HETATM    4  N   UNL     1     -12.460  14.451  69.107  1.00  0.00    -0.545 N  
HETATM    5  H   UNL     1     -12.850  13.705  68.532  1.00  0.00     0.000 HD 
BRANCH   4   6
HETATM    6  C   UNL     1     -11.542  15.307  68.578  1.00  0.00    -0.352 C  
HETATM    7  O   UNL     1     -11.182  16.318  69.177  1.00  0.00    -0.315 OA 
BRANCH   6   8
HETATM    8  N   UNL     1     -10.994  14.941  67.364  1.00  0.00    -0.305 N  
BRANCH   8   9
HETATM    9  C   UNL     1     -11.205  13.577  66.923  1.00  0.00    -0.311 C  
HETATM   10  O   UNL     1      -8.948  12.728  67.512  1.00  0.00    -0.174 OA 
HETATM   11  N   UNL     1     -11.704  13.430  65.575  1.00  0.00    -0.327 N  
HETATM   12  C   UNL     1      -9.945  12.692  66.798  1.00  0.00    -0.234 C  
HETATM   13  O   UNL     1     -11.586  11.777  63.955  1.00  0.00    -0.390 OA 
HETATM   14  N   UNL     1     -10.156  11.824  65.767  1.00  0.00    -0.228 N  
HETATM   15  C   UNL     1     -11.194  12.272  65.001  1.00  0.00    -0.321 C  
BRANCH  11  16
HETATM   16  C   UNL     1     -12.911  14.030  65.087  1.00  0.00    -0.223 C  
HETATM   17  H   UNL     1     -13.392  15.309  63.707  1.00  0.00     0.000 HD 
HETATM   18  O   UNL     1     -12.592  14.911  64.030  1.00  0.00    -0.832 OA 
ENDBRANCH  11  16
BRANCH  14  19
HETATM   19  C   UNL     1      -9.206  10.876  65.270  1.00  0.00    -0.210 C  
HETATM   20  O   UNL     1      -9.836   9.627  65.058  1.00  0.00    -0.423 OA 
HETATM   21  H   UNL     1      -9.206   8.998  64.729  1.00  0.00     0.000 HD 
ENDBRANCH  14  19
ENDBRANCH   8   9
BRANCH   8  22
HETATM   22  C   UNL     1     -10.038  15.740  66.635  1.00  0.00    -0.279 C  
HETATM   23  H   UNL     1     -10.122  17.305  65.512  1.00  0.00     0.000 HD 
HETATM   24  O   UNL     1     -10.751  16.779  65.992  1.00  0.00    -0.257 OA 
ENDBRANCH   8  22
ENDBRANCH   6   8
ENDBRANCH   4   6
ENDBRANCH   3   4
TORSDOF 7
ENDMDL
MODEL       45
REMARK 921   NORMALIZED FREE ENERGY PREDICTED BY IDOCK:   -4.58 KCAL/MOL
REMARK 922        TOTAL FREE ENERGY PREDICTED BY IDOCK:   -7.98 KCAL/MOL
REMARK 923 INTER-LIGAND FREE ENERGY PREDICTED BY IDOCK:   -7.23 KCAL/MOL
REMARK 924 INTRA-LIGAND FREE ENERGY PREDICTED BY IDOCK:   -0.75 KCAL/MOL
REMARK 927      BINDING AFFINITY PREDICTED BY RF-SCORE:    0.00 PKD
ROOT
HETATM    1  O   UNL     1     -13.002  10.199  70.406  1.00  0.00    -0.571 OA 
HETATM    2  H   UNL     1     -13.710  10.007  71.009  1.00  0.00     0.000 HD 
HETATM    3  C   UNL     1     -12.374  11.360  70.896  1.00  0.00    -0.381 C  
ENDROOT
BRANCH   3   4
HETATM    4  N   UNL     1     -11.314  11.647  69.994  1.00  0.00    -0.499 N  
HETATM    5  H   UNL     1     -10.347  11.606  70.317  1.00  0.00     0.000 HD 
BRANCH   4   6
HETATM    6  C   UNL     1     -11.584  11.978  68.700  1.00  0.00    -0.319 C  
HETATM    7  O   UNL     1     -12.247  11.243  67.972  1.00  0.00    -0.621 OA 
BRANCH   6   8
HETATM    8  N   UNL     1     -11.127  13.210  68.277  1.00  0.00    -0.253 N  
BRANCH   8   9
HETATM    9  C   UNL     1     -10.639  13.309  66.916  1.00  0.00    -0.264 C  
HETATM   10  O   UNL     1     -12.797  13.965  65.880  1.00  0.00    -0.472 OA 
HETATM   11  N   UNL     1      -9.923  12.153  66.428  1.00  0.00    -0.220 N  
HETATM   12  C   UNL     1     -11.710  13.402  65.806  1.00  0.00    -0.349 C  
HETATM   13  O   UNL     1      -9.531  11.232  64.338  1.00  0.00    -0.226 OA 
HETATM   14  N   UNL     1     -11.209  12.774  64.704  1.00  0.00    -0.305 N  
HETATM   15  C   UNL     1     -10.151  11.992  65.066  1.00  0.00    -0.264 C  
BRANCH  11  16
HETATM   16  C   UNL     1      -8.766  11.589  67.058  1.00  0.00    -0.169 C  
HETATM   17  H   UNL     1      -7.081  12.251  67.760  1.00  0.00     0.000 HD 
HETATM   18  O   UNL     1      -7.848  12.624  67.342  1.00  0.00    -0.161 OA 
ENDBRANCH  11  16
BRANCH  14  19
HETATM   19  C   UNL     1     -11.912  12.571  63.472  1.00  0.00    -0.543 C  
HETATM   20  O   UNL     1     -12.479  13.791  63.034  1.00  0.00    -1.068 OA 
HETATM   21  H   UNL     1     -12.944  13.656  62.217  1.00  0.00     0.000 HD 
ENDBRANCH  14  19
ENDBRANCH   8   9
BRANCH   8  22
HETATM   22  C   UNL     1     -10.883  14.328  69.158  1.00  0.00    -0.242 C  
HETATM   23  H   UNL     1     -11.936  15.357  70.403  1.00  0.00     0.000 HD 
HETATM   24  O   UNL     1     -12.097  14.622  69.823  1.00  0.00    -0.302 OA 
ENDBRANCH   8  22
ENDBRANCH   6   8
ENDBRANCH   4   6
ENDBRANCH   3   4
TORSDOF 7
ENDMDL
MODEL       46
REMARK 921   NORMALIZED FREE ENERGY PREDICTED BY IDOCK:   -4.57 KCAL/MOL
REMARK 922        TOTAL FREE ENERGY PREDICTED BY IDOCK:   -7.97 KCAL/MOL
REMARK 923 INTER-LIGAND FREE ENERGY PREDICTED BY IDOCK:   -6.66 KCAL/MOL
REMARK 924 INTRA-LIGAND FREE ENERGY PREDICTED BY IDOCK:   -1.31 KCAL/MOL
REMARK 927      BINDING AFFINITY PREDICTED BY RF-SCORE:    0.00 PKD
ROOT
HETATM    1  O   UNL     1     -11.316  16.614  64.021  1.00  0.00    -1.486 OA 
HETATM    2  H   UNL     1     -11.179  17.457  63.606  1.00  0.00     0.000 HD 
HETATM    3  C   UNL     1     -10.814  16.738  65.332  1.00  0.00    -0.141 C  
ENDROOT
BRANCH   3   4
HETATM    4  N   UNL     1     -11.019  15.476  65.954  1.00  0.00    -0.300 N  
HETATM    5  H   UNL     1     -11.468  15.428  66.869  1.00  0.00     0.000 HD 
BRANCH   4   6
HETATM    6  C   UNL     1     -10.617  14.332  65.334  1.00  0.00    -0.354 C  
HETATM    7  O   UNL     1      -9.690  14.327  64.526  1.00  0.00     0.086 OA 
BRANCH   6   8
HETATM    8  N   UNL     1     -11.265  13.172  65.712  1.00  0.00    -0.284 N  
BRANCH   8   9
HETATM    9  C   UNL     1     -10.519  12.224  66.514  1.00  0.00    -0.227 C  
HETATM   10  O   UNL     1      -9.926  10.682  64.661  1.00  0.00    -0.287 OA 
HETATM   11  N   UNL     1     -11.205  11.721  67.681  1.00  0.00    -0.261 N  
HETATM   12  C   UNL     1     -10.185  10.871  65.845  1.00  0.00    -0.257 C  
HETATM   13  O   UNL     1     -11.082   9.784  68.947  1.00  0.00    -0.191 OA 
HETATM   14  N   UNL     1     -10.189   9.920  66.823  1.00  0.00    -0.233 N  
HETATM   15  C   UNL     1     -10.829  10.406  67.926  1.00  0.00    -0.279 C  
BRANCH  11  16
HETATM   16  C   UNL     1     -11.743  12.545  68.724  1.00  0.00    -0.327 C  
HETATM   17  H   UNL     1     -11.429  14.336  69.407  1.00  0.00     0.000 HD 
HETATM   18  O   UNL     1     -11.074  13.789  68.716  1.00  0.00    -0.246 OA 
ENDBRANCH  11  16
BRANCH  14  19
HETATM   19  C   UNL     1      -9.996   8.516  66.618  1.00  0.00    -0.293 C  
HETATM   20  O   UNL     1     -11.137   7.803  67.058  1.00  0.00    -0.449 OA 
HETATM   21  H   UNL     1     -11.009   6.872  66.922  1.00  0.00     0.000 HD 
ENDBRANCH  14  19
ENDBRANCH   8   9
BRANCH   8  22
HETATM   22  C   UNL     1     -12.531  12.741  65.170  1.00  0.00    -0.501 C  
HETATM   23  H   UNL     1     -13.676  13.306  63.726  1.00  0.00     0.000 HD 
HETATM   24  O   UNL     1     -12.843  13.590  64.082  1.00  0.00    -0.626 OA 
ENDBRANCH   8  22
ENDBRANCH   6   8
ENDBRANCH   4   6
ENDBRANCH   3   4
TORSDOF 7
ENDMDL
MODEL       47
REMARK 921   NORMALIZED FREE ENERGY PREDICTED BY IDOCK:   -4.55 KCAL/MOL
REMARK 922        TOTAL FREE ENERGY PREDICTED BY IDOCK:   -7.95 KCAL/MOL
REMARK 923 INTER-LIGAND FREE ENERGY PREDICTED BY IDOCK:   -6.75 KCAL/MOL
REMARK 924 INTRA-LIGAND FREE ENERGY PREDICTED BY IDOCK:   -1.19 KCAL/MOL
REMARK 927      BINDING AFFINITY PREDICTED BY RF-SCORE:    0.00 PKD
ROOT
HETATM    1  O   UNL     1     -11.128  11.139  63.150  1.00  0.00    -0.811 OA 
HETATM    2  H   UNL     1     -10.926  10.376  62.622  1.00  0.00     0.000 HD 
HETATM    3  C   UNL     1      -9.956  11.920  63.174  1.00  0.00    -0.294 C  
ENDROOT
BRANCH   3   4
HETATM    4  N   UNL     1     -10.258  13.063  63.964  1.00  0.00    -0.611 N  
HETATM    5  H   UNL     1     -10.210  13.994  63.550  1.00  0.00     0.000 HD 
BRANCH   4   6
HETATM    6  C   UNL     1     -10.611  12.918  65.272  1.00  0.00    -0.297 C  
HETATM    7  O   UNL     1     -10.022  12.138  66.017  1.00  0.00    -0.227 OA 
BRANCH   6   8
HETATM    8  N   UNL     1     -11.622  13.742  65.726  1.00  0.00    -0.322 N  
BRANCH   8   9
HETATM    9  C   UNL     1     -11.254  14.810  66.634  1.00  0.00    -0.346 C  
HETATM   10  O   UNL     1     -10.150  16.258  64.947  1.00  0.00    -0.412 OA 
HETATM   11  N   UNL     1     -10.534  14.399  67.817  1.00  0.00    -0.244 N  
HETATM   12  C   UNL     1     -10.243  15.849  66.100  1.00  0.00    -0.324 C  
HETATM   13  O   UNL     1      -9.027  15.417  69.253  1.00  0.00    -0.233 OA 
HETATM   14  N   UNL     1      -9.490  16.266  67.157  1.00  0.00    -0.221 N  
HETATM   15  C   UNL     1      -9.629  15.385  68.191  1.00  0.00    -0.203 C  
BRANCH  11  16
HETATM   16  C   UNL     1     -11.012  13.434  68.763  1.00  0.00    -0.257 C  
HETATM   17  H   UNL     1     -12.397  13.358  70.122  1.00  0.00     0.000 HD 
HETATM   18  O   UNL     1     -12.080  13.998  69.494  1.00  0.00    -0.320 OA 
ENDBRANCH  11  16
BRANCH  14  19
HETATM   19  C   UNL     1      -8.387  17.177  67.085  1.00  0.00    -0.196 C  
HETATM   20  O   UNL     1      -8.751  18.315  66.327  1.00  0.00    -0.398 OA 
HETATM   21  H   UNL     1      -8.020  18.919  66.279  1.00  0.00     0.000 HD 
ENDBRANCH  14  19
ENDBRANCH   8   9
BRANCH   8  22
HETATM   22  C   UNL     1     -13.029  13.468  65.550  1.00  0.00    -0.209 C  
HETATM   23  H   UNL     1     -14.070  12.218  64.516  1.00  0.00     0.000 HD 
HETATM   24  O   UNL     1     -13.145  12.398  64.632  1.00  0.00    -0.825 OA 
ENDBRANCH   8  22
ENDBRANCH   6   8
ENDBRANCH   4   6
ENDBRANCH   3   4
TORSDOF 7
ENDMDL
MODEL       48
REMARK 921   NORMALIZED FREE ENERGY PREDICTED BY IDOCK:   -4.53 KCAL/MOL
REMARK 922        TOTAL FREE ENERGY PREDICTED BY IDOCK:   -7.91 KCAL/MOL
REMARK 923 INTER-LIGAND FREE ENERGY PREDICTED BY IDOCK:   -6.44 KCAL/MOL
REMARK 924 INTRA-LIGAND FREE ENERGY PREDICTED BY IDOCK:   -1.47 KCAL/MOL
REMARK 927      BINDING AFFINITY PREDICTED BY RF-SCORE:    0.00 PKD
ROOT
HETATM    1  O   UNL     1     -11.565  11.307  63.125  1.00  0.00    -0.847 OA 
HETATM    2  H   UNL     1     -11.973  11.312  62.268  1.00  0.00     0.000 HD 
HETATM    3  C   UNL     1     -11.103  12.619  63.347  1.00  0.00    -0.298 C  
ENDROOT
BRANCH   3   4
HETATM    4  N   UNL     1     -10.491  12.611  64.630  1.00  0.00    -0.321 N  
HETATM    5  H   UNL     1      -9.530  12.936  64.737  1.00  0.00     0.000 HD 
BRANCH   4   6
HETATM    6  C   UNL     1     -11.185  12.171  65.718  1.00  0.00    -0.339 C  
HETATM    7  O   UNL     1     -12.402  12.315  65.808  1.00  0.00    -0.622 OA 
BRANCH   6   8
HETATM    8  N   UNL     1     -10.453  11.499  66.677  1.00  0.00    -0.229 N  
BRANCH   8   9
HETATM    9  C   UNL     1     -10.317  12.130  67.974  1.00  0.00    -0.205 C  
HETATM   10  O   UNL     1     -12.394  11.202  68.966  1.00  0.00    -0.479 OA 
HETATM   11  N   UNL     1     -10.101  13.558  67.952  1.00  0.00    -0.242 N  
HETATM   12  C   UNL     1     -11.564  12.101  68.887  1.00  0.00    -0.324 C  
HETATM   13  O   UNL     1     -10.524  15.302  69.418  1.00  0.00    -0.226 OA 
HETATM   14  N   UNL     1     -11.555  13.247  69.626  1.00  0.00    -0.281 N  
HETATM   15  C   UNL     1     -10.702  14.148  69.057  1.00  0.00    -0.231 C  
BRANCH  11  16
HETATM   16  C   UNL     1      -9.027  14.205  67.257  1.00  0.00    -0.214 C  
HETATM   17  H   UNL     1      -8.855  15.491  65.812  1.00  0.00     0.000 HD 
HETATM   18  O   UNL     1      -9.567  15.062  66.273  1.00  0.00    -0.269 OA 
ENDBRANCH  11  16
BRANCH  14  19
HETATM   19  C   UNL     1     -12.573  13.649  70.548  1.00  0.00    -0.267 C  
HETATM   20  O   UNL     1     -13.235  14.802  70.064  1.00  0.00    -0.555 OA 
HETATM   21  H   UNL     1     -13.911  15.069  70.675  1.00  0.00     0.000 HD 
ENDBRANCH  14  19
ENDBRANCH   8   9
BRANCH   8  22
HETATM   22  C   UNL     1      -9.627  10.347  66.403  1.00  0.00    -0.179 C  
HETATM   23  H   UNL     1      -9.466   9.078  64.960  1.00  0.00     0.000 HD 
HETATM   24  O   UNL     1     -10.010   9.837  65.141  1.00  0.00    -0.309 OA 
ENDBRANCH   8  22
ENDBRANCH   6   8
ENDBRANCH   4   6
ENDBRANCH   3   4
TORSDOF 7
ENDMDL
MODEL       49
REMARK 921   NORMALIZED FREE ENERGY PREDICTED BY IDOCK:   -4.42 KCAL/MOL
REMARK 922        TOTAL FREE ENERGY PREDICTED BY IDOCK:   -7.76 KCAL/MOL
REMARK 923 INTER-LIGAND FREE ENERGY PREDICTED BY IDOCK:   -6.94 KCAL/MOL
REMARK 924 INTRA-LIGAND FREE ENERGY PREDICTED BY IDOCK:   -0.82 KCAL/MOL
REMARK 927      BINDING AFFINITY PREDICTED BY RF-SCORE:    0.00 PKD
ROOT
HETATM    1  O   UNL     1     -11.635  16.536  63.763  1.00  0.00    -1.617 OA 
HETATM    2  H   UNL     1     -12.323  16.094  63.281  1.00  0.00     0.000 HD 
HETATM    3  C   UNL     1     -11.287  15.678  64.825  1.00  0.00    -0.343 C  
ENDROOT
BRANCH   3   4
HETATM    4  N   UNL     1     -10.257  16.341  65.547  1.00  0.00    -0.335 N  
HETATM    5  H   UNL     1      -9.322  15.935  65.585  1.00  0.00     0.000 HD 
BRANCH   4   6
HETATM    6  C   UNL     1     -10.514  17.515  66.188  1.00  0.00    -0.288 C  
HETATM    7  O   UNL     1     -10.885  18.515  65.578  1.00  0.00    -0.488 OA 
BRANCH   6   8
HETATM    8  N   UNL     1     -10.399  17.497  67.564  1.00  0.00    -0.344 N  
BRANCH   8   9
HETATM    9  C   UNL     1      -9.273  18.198  68.147  1.00  0.00    -0.291 C  
HETATM   10  O   UNL     1     -10.020  20.490  67.554  1.00  0.00    -0.425 OA 
HETATM   11  N   UNL     1      -7.969  17.733  67.735  1.00  0.00    -0.221 N  
HETATM   12  C   UNL     1      -9.117  19.687  67.764  1.00  0.00    -0.325 C  
HETATM   13  O   UNL     1      -5.864  18.688  67.573  1.00  0.00    -0.168 OA 
HETATM   14  N   UNL     1      -7.781  19.963  67.739  1.00  0.00    -0.287 N  
HETATM   15  C   UNL     1      -7.076  18.796  67.690  1.00  0.00    -0.211 C  
BRANCH  11  16
HETATM   16  C   UNL     1      -7.509  16.382  67.875  1.00  0.00    -0.140 C  
HETATM   17  H   UNL     1      -7.411  14.803  66.748  1.00  0.00     0.000 HD 
HETATM   18  O   UNL     1      -7.716  15.699  66.656  1.00  0.00    -0.193 OA 
ENDBRANCH  11  16
BRANCH  14  19
HETATM   19  C   UNL     1      -7.198  21.215  67.359  1.00  0.00    -0.207 C  
HETATM   20  O   UNL     1      -6.854  21.190  65.987  1.00  0.00    -0.502 OA 
HETATM   21  H   UNL     1      -6.468  22.020  65.735  1.00  0.00     0.000 HD 
ENDBRANCH  14  19
ENDBRANCH   8   9
BRANCH   8  22
HETATM   22  C   UNL     1     -11.174  16.639  68.428  1.00  0.00    -0.239 C  
HETATM   23  H   UNL     1     -11.064  16.074  70.268  1.00  0.00     0.000 HD 
HETATM   24  O   UNL     1     -10.554  16.638  69.699  1.00  0.00    -0.316 OA 
ENDBRANCH   8  22
ENDBRANCH   6   8
ENDBRANCH   4   6
ENDBRANCH   3   4
TORSDOF 7
ENDMDL
MODEL       50
REMARK 921   NORMALIZED FREE ENERGY PREDICTED BY IDOCK:   -4.41 KCAL/MOL
REMARK 922        TOTAL FREE ENERGY PREDICTED BY IDOCK:   -7.74 KCAL/MOL
REMARK 923 INTER-LIGAND FREE ENERGY PREDICTED BY IDOCK:   -7.03 KCAL/MOL
REMARK 924 INTRA-LIGAND FREE ENERGY PREDICTED BY IDOCK:   -0.71 KCAL/MOL
REMARK 927      BINDING AFFINITY PREDICTED BY RF-SCORE:    0.00 PKD
ROOT
HETATM    1  O   UNL     1     -14.142   8.888  73.095  1.00  0.00    -1.125 OA 
HETATM    2  H   UNL     1     -14.686   8.274  73.572  1.00  0.00     0.000 HD 
HETATM    3  C   UNL     1     -14.161   8.467  71.751  1.00  0.00    -0.438 C  
ENDROOT
BRANCH   3   4
HETATM    4  N   UNL     1     -13.346   9.387  71.036  1.00  0.00    -0.569 N  
HETATM    5  H   UNL     1     -13.767  10.012  70.349  1.00  0.00     0.000 HD 
BRANCH   4   6
HETATM    6  C   UNL     1     -12.003   9.436  71.266  1.00  0.00    -0.353 C  
HETATM    7  O   UNL     1     -11.487   8.831  72.202  1.00  0.00    -0.354 OA 
BRANCH   6   8
HETATM    8  N   UNL     1     -11.254  10.149  70.351  1.00  0.00    -0.308 N  
BRANCH   8   9
HETATM    9  C   UNL     1     -11.972  10.951  69.382  1.00  0.00    -0.322 C  
HETATM   10  O   UNL     1     -11.133   9.782  67.359  1.00  0.00    -0.210 OA 
HETATM   11  N   UNL     1     -11.807  12.380  69.512  1.00  0.00    -0.310 N  
HETATM   12  C   UNL     1     -11.534  10.803  67.907  1.00  0.00    -0.227 C  
HETATM   13  O   UNL     1     -11.936  14.184  68.062  1.00  0.00    -0.355 OA 
HETATM   14  N   UNL     1     -11.712  12.014  67.305  1.00  0.00    -0.308 N  
HETATM   15  C   UNL     1     -11.847  12.981  68.259  1.00  0.00    -0.343 C  
BRANCH  11  16
HETATM   16  C   UNL     1     -12.097  13.125  70.701  1.00  0.00    -0.264 C  
HETATM   17  H   UNL     1     -13.472  13.110  72.073  1.00  0.00     0.000 HD 
HETATM   18  O   UNL     1     -13.279  12.616  71.285  1.00  0.00    -0.216 OA 
ENDBRANCH  11  16
BRANCH  14  19
HETATM   19  C   UNL     1     -11.361  12.330  65.954  1.00  0.00    -0.360 C  
HETATM   20  O   UNL     1     -12.527  12.392  65.154  1.00  0.00    -0.583 OA 
HETATM   21  H   UNL     1     -12.295  12.602  64.258  1.00  0.00     0.000 HD 
ENDBRANCH  14  19
ENDBRANCH   8   9
BRANCH   8  22
HETATM   22  C   UNL     1      -9.837   9.963  70.147  1.00  0.00    -0.219 C  
HETATM   23  H   UNL     1      -8.687   8.468  69.747  1.00  0.00     0.000 HD 
HETATM   24  O   UNL     1      -9.620   8.591  69.881  1.00  0.00    -0.168 OA 
ENDBRANCH   8  22
ENDBRANCH   6   8
ENDBRANCH   4   6
ENDBRANCH   3   4
TORSDOF 7
ENDMDL
MODEL       51
REMARK 921   NORMALIZED FREE ENERGY PREDICTED BY IDOCK:   -4.40 KCAL/MOL
REMARK 922        TOTAL FREE ENERGY PREDICTED BY IDOCK:   -7.73 KCAL/MOL
REMARK 923 INTER-LIGAND FREE ENERGY PREDICTED BY IDOCK:   -6.82 KCAL/MOL
REMARK 924 INTRA-LIGAND FREE ENERGY PREDICTED BY IDOCK:   -0.91 KCAL/MOL
REMARK 927      BINDING AFFINITY PREDICTED BY RF-SCORE:    0.00 PKD
ROOT
HETATM    1  O   UNL     1     -10.769  18.582  67.332  1.00  0.00    -0.425 OA 
HETATM    2  H   UNL     1     -10.220  19.353  67.406  1.00  0.00     0.000 HD 
HETATM    3  C   UNL     1      -9.903  17.511  67.037  1.00  0.00    -0.295 C  
ENDROOT
BRANCH   3   4
HETATM    4  N   UNL     1     -10.726  16.356  66.926  1.00  0.00    -0.258 N  
HETATM    5  H   UNL     1     -11.503  16.222  67.573  1.00  0.00     0.000 HD 
BRANCH   4   6
HETATM    6  C   UNL     1     -10.479  15.429  65.958  1.00  0.00    -0.321 C  
HETATM    7  O   UNL     1      -9.334  15.100  65.658  1.00  0.00    -0.268 OA 
BRANCH   6   8
HETATM    8  N   UNL     1     -11.587  14.837  65.384  1.00  0.00    -0.338 N  
BRANCH   8   9
HETATM    9  C   UNL     1     -11.941  13.507  65.836  1.00  0.00    -0.406 C  
HETATM   10  O   UNL     1     -12.119  14.058  68.249  1.00  0.00    -0.355 OA 
HETATM   11  N   UNL     1     -11.062  12.447  65.398  1.00  0.00    -0.296 N  
HETATM   12  C   UNL     1     -11.864  13.255  67.358  1.00  0.00    -0.366 C  
HETATM   13  O   UNL     1     -10.484  10.357  66.214  1.00  0.00    -0.222 OA 
HETATM   14  N   UNL     1     -11.498  11.954  67.538  1.00  0.00    -0.321 N  
HETATM   15  C   UNL     1     -10.982  11.461  66.374  1.00  0.00    -0.260 C  
BRANCH  11  16
HETATM   16  C   UNL     1     -10.756  12.161  64.027  1.00  0.00    -0.384 C  
HETATM   17  H   UNL     1     -11.756  11.714  62.424  1.00  0.00     0.000 HD 
HETATM   18  O   UNL     1     -11.958  11.904  63.333  1.00  0.00    -0.483 OA 
ENDBRANCH  11  16
BRANCH  14  19
HETATM   19  C   UNL     1     -11.243  11.328  68.801  1.00  0.00    -0.250 C  
HETATM   20  O   UNL     1     -12.216  11.734  69.745  1.00  0.00    -0.269 OA 
HETATM   21  H   UNL     1     -12.048  11.319  70.582  1.00  0.00     0.000 HD 
ENDBRANCH  14  19
ENDBRANCH   8   9
BRANCH   8  22
HETATM   22  C   UNL     1     -12.259  15.348  64.213  1.00  0.00    -0.126 C  
HETATM   23  H   UNL     1     -12.057  16.885  63.067  1.00  0.00     0.000 HD 
HETATM   24  O   UNL     1     -11.614  16.549  63.838  1.00  0.00    -1.175 OA 
ENDBRANCH   8  22
ENDBRANCH   6   8
ENDBRANCH   4   6
ENDBRANCH   3   4
TORSDOF 7
ENDMDL
MODEL       52
REMARK 921   NORMALIZED FREE ENERGY PREDICTED BY IDOCK:   -4.35 KCAL/MOL
REMARK 922        TOTAL FREE ENERGY PREDICTED BY IDOCK:   -7.66 KCAL/MOL
REMARK 923 INTER-LIGAND FREE ENERGY PREDICTED BY IDOCK:   -6.29 KCAL/MOL
REMARK 924 INTRA-LIGAND FREE ENERGY PREDICTED BY IDOCK:   -1.37 KCAL/MOL
REMARK 927      BINDING AFFINITY PREDICTED BY RF-SCORE:    0.00 PKD
ROOT
HETATM    1  O   UNL     1     -12.751   6.222  72.235  1.00  0.00    -0.537 OA 
HETATM    2  H   UNL     1     -12.518   5.696  72.990  1.00  0.00     0.000 HD 
HETATM    3  C   UNL     1     -11.604   6.266  71.418  1.00  0.00    -0.278 C  
ENDROOT
BRANCH   3   4
HETATM    4  N   UNL     1     -11.954   7.055  70.287  1.00  0.00    -0.597 N  
HETATM    5  H   UNL     1     -12.913   7.046  69.939  1.00  0.00     0.000 HD 
BRANCH   4   6
HETATM    6  C   UNL     1     -11.013   7.821  69.667  1.00  0.00    -0.122 C  
HETATM    7  O   UNL     1     -10.472   7.459  68.626  1.00  0.00    -0.196 OA 
BRANCH   6   8
HETATM    8  N   UNL     1     -10.754   9.050  70.240  1.00  0.00    -0.221 N  
BRANCH   8   9
HETATM    9  C   UNL     1     -11.789  10.060  70.150  1.00  0.00    -0.173 C  
HETATM   10  O   UNL     1     -10.529  11.637  68.705  1.00  0.00    -0.209 OA 
HETATM   11  N   UNL     1     -12.331  10.509  71.411  1.00  0.00    -0.376 N  
HETATM   12  C   UNL     1     -11.363  11.432  69.582  1.00  0.00    -0.275 C  
HETATM   13  O   UNL     1     -13.344  12.455  72.159  1.00  0.00    -0.528 OA 
HETATM   14  N   UNL     1     -12.116  12.383  70.206  1.00  0.00    -0.341 N  
HETATM   15  C   UNL     1     -12.681  11.851  71.328  1.00  0.00    -0.298 C  
BRANCH  11  16
HETATM   16  C   UNL     1     -12.922   9.648  72.393  1.00  0.00    -0.276 C  
HETATM   17  H   UNL     1     -14.337   8.318  72.433  1.00  0.00     0.000 HD 
HETATM   18  O   UNL     1     -13.945   8.889  71.782  1.00  0.00    -0.397 OA 
ENDBRANCH  11  16
BRANCH  14  19
HETATM   19  C   UNL     1     -11.988  13.797  70.021  1.00  0.00    -0.338 C  
HETATM   20  O   UNL     1     -11.293  14.365  71.115  1.00  0.00    -0.513 OA 
HETATM   21  H   UNL     1     -11.208  15.303  70.993  1.00  0.00     0.000 HD 
ENDBRANCH  14  19
ENDBRANCH   8   9
BRANCH   8  22
HETATM   22  C   UNL     1      -9.451   9.467  70.703  1.00  0.00    -0.262 C  
HETATM   23  H   UNL     1      -8.381   9.153  72.275  1.00  0.00     0.000 HD 
HETATM   24  O   UNL     1      -9.238   8.878  71.971  1.00  0.00    -0.348 OA 
ENDBRANCH   8  22
ENDBRANCH   6   8
ENDBRANCH   4   6
ENDBRANCH   3   4
TORSDOF 7
ENDMDL
MODEL       53
REMARK 921   NORMALIZED FREE ENERGY PREDICTED BY IDOCK:   -4.34 KCAL/MOL
REMARK 922        TOTAL FREE ENERGY PREDICTED BY IDOCK:   -7.65 KCAL/MOL
REMARK 923 INTER-LIGAND FREE ENERGY PREDICTED BY IDOCK:   -6.20 KCAL/MOL
REMARK 924 INTRA-LIGAND FREE ENERGY PREDICTED BY IDOCK:   -1.45 KCAL/MOL
REMARK 927      BINDING AFFINITY PREDICTED BY RF-SCORE:    0.00 PKD
ROOT
HETATM    1  O   UNL     1     -10.623  13.186  69.027  1.00  0.00    -0.392 OA 
HETATM    2  H   UNL     1     -10.486  12.361  69.477  1.00  0.00     0.000 HD 
HETATM    3  C   UNL     1     -11.908  13.112  68.457  1.00  0.00    -0.342 C  
ENDROOT
BRANCH   3   4
HETATM    4  N   UNL     1     -12.113  14.348  67.783  1.00  0.00    -0.596 N  
HETATM    5  H   UNL     1     -12.630  14.367  66.904  1.00  0.00     0.000 HD 
BRANCH   4   6
HETATM    6  C   UNL     1     -11.621  15.505  68.308  1.00  0.00    -0.334 C  
HETATM    7  O   UNL     1     -12.016  15.943  69.386  1.00  0.00    -0.354 OA 
BRANCH   6   8
HETATM    8  N   UNL     1     -10.613  16.119  67.592  1.00  0.00    -0.310 N  
BRANCH   8   9
HETATM    9  C   UNL     1      -9.861  17.162  68.261  1.00  0.00    -0.288 C  
HETATM   10  O   UNL     1     -11.031  19.082  67.211  1.00  0.00    -0.459 OA 
HETATM   11  N   UNL     1      -8.423  17.050  68.165  1.00  0.00    -0.220 N  
HETATM   12  C   UNL     1     -10.017  18.592  67.697  1.00  0.00    -0.338 C  
HETATM   13  O   UNL     1      -6.655  18.545  68.249  1.00  0.00    -0.209 OA 
HETATM   14  N   UNL     1      -8.827  19.233  67.875  1.00  0.00    -0.304 N  
HETATM   15  C   UNL     1      -7.848  18.315  68.127  1.00  0.00    -0.288 C  
BRANCH  11  16
HETATM   16  C   UNL     1      -7.669  15.905  68.583  1.00  0.00    -0.161 C  
HETATM   17  H   UNL     1      -7.925  14.418  69.806  1.00  0.00     0.000 HD 
HETATM   18  O   UNL     1      -8.425  15.178  69.529  1.00  0.00    -0.222 OA 
ENDBRANCH  11  16
BRANCH  14  19
HETATM   19  C   UNL     1      -8.521  20.558  67.428  1.00  0.00    -0.275 C  
HETATM   20  O   UNL     1      -7.656  20.503  66.310  1.00  0.00    -0.472 OA 
HETATM   21  H   UNL     1      -7.453  21.382  66.013  1.00  0.00     0.000 HD 
ENDBRANCH  14  19
ENDBRANCH   8   9
BRANCH   8  22
HETATM   22  C   UNL     1     -10.421  15.962  66.170  1.00  0.00    -0.326 C  
HETATM   23  H   UNL     1      -9.740  14.577  65.015  1.00  0.00     0.000 HD 
HETATM   24  O   UNL     1      -9.867  14.680  65.951  1.00  0.00    -0.305 OA 
ENDBRANCH   8  22
ENDBRANCH   6   8
ENDBRANCH   4   6
ENDBRANCH   3   4
TORSDOF 7
ENDMDL
MODEL       54
REMARK 921   NORMALIZED FREE ENERGY PREDICTED BY IDOCK:   -4.33 KCAL/MOL
REMARK 922        TOTAL FREE ENERGY PREDICTED BY IDOCK:   -7.63 KCAL/MOL
REMARK 923 INTER-LIGAND FREE ENERGY PREDICTED BY IDOCK:   -6.36 KCAL/MOL
REMARK 924 INTRA-LIGAND FREE ENERGY PREDICTED BY IDOCK:   -1.27 KCAL/MOL
REMARK 927      BINDING AFFINITY PREDICTED BY RF-SCORE:    0.00 PKD
ROOT
HETATM    1  O   UNL     1     -14.092   8.706  73.100  1.00  0.00    -1.018 OA 
HETATM    2  H   UNL     1     -14.913   8.623  73.568  1.00  0.00     0.000 HD 
HETATM    3  C   UNL     1     -14.368   8.368  71.761  1.00  0.00    -0.472 C  
ENDROOT
BRANCH   3   4
HETATM    4  N   UNL     1     -13.136   8.493  71.060  1.00  0.00    -0.500 N  
HETATM    5  H   UNL     1     -12.872   7.790  70.370  1.00  0.00     0.000 HD 
BRANCH   4   6
HETATM    6  C   UNL     1     -12.309   9.547  71.308  1.00  0.00    -0.345 C  
HETATM    7  O   UNL     1     -12.749  10.665  71.567  1.00  0.00    -0.391 OA 
BRANCH   6   8
HETATM    8  N   UNL     1     -10.956   9.272  71.316  1.00  0.00    -0.323 N  
BRANCH   8   9
HETATM    9  C   UNL     1     -10.251   9.359  70.053  1.00  0.00    -0.229 C  
HETATM   10  O   UNL     1     -10.945  11.675  69.492  1.00  0.00    -0.200 OA 
HETATM   11  N   UNL     1     -10.506   8.282  69.124  1.00  0.00    -0.220 N  
HETATM   12  C   UNL     1     -10.625  10.545  69.137  1.00  0.00    -0.229 C  
HETATM   13  O   UNL     1     -10.430   8.055  66.819  1.00  0.00    -0.330 OA 
HETATM   14  N   UNL     1     -10.497  10.121  67.847  1.00  0.00    -0.205 N  
HETATM   15  C   UNL     1     -10.455   8.757  67.819  1.00  0.00    -0.229 C  
BRANCH  11  16
HETATM   16  C   UNL     1     -10.304   6.893  69.416  1.00  0.00    -0.204 C  
HETATM   17  H   UNL     1     -11.403   5.401  69.998  1.00  0.00     0.000 HD 
HETATM   18  O   UNL     1     -11.536   6.322  69.804  1.00  0.00    -0.436 OA 
ENDBRANCH  11  16
BRANCH  14  19
HETATM   19  C   UNL     1     -10.816  10.891  66.683  1.00  0.00    -0.197 C  
HETATM   20  O   UNL     1     -10.115  12.120  66.710  1.00  0.00    -0.199 OA 
HETATM   21  H   UNL     1     -10.326  12.630  65.938  1.00  0.00     0.000 HD 
ENDBRANCH  14  19
ENDBRANCH   8   9
BRANCH   8  22
HETATM   22  C   UNL     1     -10.259   8.679  72.433  1.00  0.00    -0.249 C  
HETATM   23  H   UNL     1     -10.636   7.287  73.711  1.00  0.00     0.000 HD 
HETATM   24  O   UNL     1     -11.095   7.677  72.976  1.00  0.00    -0.387 OA 
ENDBRANCH   8  22
ENDBRANCH   6   8
ENDBRANCH   4   6
ENDBRANCH   3   4
TORSDOF 7
ENDMDL
MODEL       55
REMARK 921   NORMALIZED FREE ENERGY PREDICTED BY IDOCK:   -4.31 KCAL/MOL
REMARK 922        TOTAL FREE ENERGY PREDICTED BY IDOCK:   -7.61 KCAL/MOL
REMARK 923 INTER-LIGAND FREE ENERGY PREDICTED BY IDOCK:   -6.70 KCAL/MOL
REMARK 924 INTRA-LIGAND FREE ENERGY PREDICTED BY IDOCK:   -0.90 KCAL/MOL
REMARK 927      BINDING AFFINITY PREDICTED BY RF-SCORE:    0.00 PKD
ROOT
HETATM    1  O   UNL     1     -10.759   7.166  66.502  1.00  0.00    -0.508 OA 
HETATM    2  H   UNL     1     -10.246   6.370  66.573  1.00  0.00     0.000 HD 
HETATM    3  C   UNL     1     -10.111   8.123  67.308  1.00  0.00    -0.241 C  
ENDROOT
BRANCH   3   4
HETATM    4  N   UNL     1     -10.879   9.315  67.201  1.00  0.00    -0.308 N  
HETATM    5  H   UNL     1     -11.711   9.436  67.779  1.00  0.00     0.000 HD 
BRANCH   4   6
HETATM    6  C   UNL     1     -10.509  10.294  66.330  1.00  0.00    -0.144 C  
HETATM    7  O   UNL     1      -9.935  10.035  65.274  1.00  0.00    -0.315 OA 
BRANCH   6   8
HETATM    8  N   UNL     1     -10.871  11.583  66.670  1.00  0.00    -0.276 N  
BRANCH   8   9
HETATM    9  C   UNL     1     -10.700  12.611  65.663  1.00  0.00    -0.269 C  
HETATM   10  O   UNL     1      -9.387  14.178  67.070  1.00  0.00    -0.226 OA 
HETATM   11  N   UNL     1     -11.914  13.059  65.020  1.00  0.00    -0.372 N  
HETATM   12  C   UNL     1     -10.185  13.980  66.160  1.00  0.00    -0.302 C  
HETATM   13  O   UNL     1     -12.590  15.015  63.978  1.00  0.00    -0.817 OA 
HETATM   14  N   UNL     1     -10.750  14.939  65.371  1.00  0.00    -0.349 N  
HETATM   15  C   UNL     1     -11.814  14.408  64.701  1.00  0.00    -0.451 C  
BRANCH  11  16
HETATM   16  C   UNL     1     -12.832  12.200  64.332  1.00  0.00    -0.115 C  
HETATM   17  H   UNL     1     -12.782  11.045  62.771  1.00  0.00     0.000 HD 
HETATM   18  O   UNL     1     -12.174  11.615  63.228  1.00  0.00    -0.430 OA 
ENDBRANCH  11  16
BRANCH  14  19
HETATM   19  C   UNL     1     -10.592  16.352  65.538  1.00  0.00    -0.330 C  
HETATM   20  O   UNL     1      -9.218  16.676  65.631  1.00  0.00    -0.491 OA 
HETATM   21  H   UNL     1      -9.113  17.613  65.741  1.00  0.00     0.000 HD 
ENDBRANCH  14  19
ENDBRANCH   8   9
BRANCH   8  22
HETATM   22  C   UNL     1     -11.177  12.007  68.015  1.00  0.00    -0.258 C  
HETATM   23  H   UNL     1     -12.610  11.697  69.267  1.00  0.00     0.000 HD 
HETATM   24  O   UNL     1     -12.409  11.418  68.382  1.00  0.00    -0.505 OA 
ENDBRANCH   8  22
ENDBRANCH   6   8
ENDBRANCH   4   6
ENDBRANCH   3   4
TORSDOF 7
ENDMDL
MODEL       56
REMARK 921   NORMALIZED FREE ENERGY PREDICTED BY IDOCK:   -4.31 KCAL/MOL
REMARK 922        TOTAL FREE ENERGY PREDICTED BY IDOCK:   -7.60 KCAL/MOL
REMARK 923 INTER-LIGAND FREE ENERGY PREDICTED BY IDOCK:   -6.90 KCAL/MOL
REMARK 924 INTRA-LIGAND FREE ENERGY PREDICTED BY IDOCK:   -0.70 KCAL/MOL
REMARK 927      BINDING AFFINITY PREDICTED BY RF-SCORE:    0.00 PKD
ROOT
HETATM    1  O   UNL     1     -12.361  11.503  63.208  1.00  0.00    -0.857 OA 
HETATM    2  H   UNL     1     -12.079  11.362  62.312  1.00  0.00     0.000 HD 
HETATM    3  C   UNL     1     -11.192  11.765  63.949  1.00  0.00    -0.414 C  
ENDROOT
BRANCH   3   4
HETATM    4  N   UNL     1     -11.614  11.975  65.291  1.00  0.00    -0.316 N  
HETATM    5  H   UNL     1     -12.593  12.182  65.489  1.00  0.00     0.000 HD 
BRANCH   4   6
HETATM    6  C   UNL     1     -10.715  11.901  66.312  1.00  0.00    -0.271 C  
HETATM    7  O   UNL     1      -9.643  11.314  66.186  1.00  0.00    -0.200 OA 
BRANCH   6   8
HETATM    8  N   UNL     1     -11.049  12.577  67.469  1.00  0.00    -0.254 N  
BRANCH   8   9
HETATM    9  C   UNL     1     -10.820  14.007  67.495  1.00  0.00    -0.270 C  
HETATM   10  O   UNL     1     -12.524  14.605  65.792  1.00  0.00    -0.233 OA 
HETATM   11  N   UNL     1      -9.446  14.420  67.320  1.00  0.00    -0.209 N  
HETATM   12  C   UNL     1     -11.453  14.826  66.348  1.00  0.00    -0.319 C  
HETATM   13  O   UNL     1      -8.397  16.325  66.520  1.00  0.00    -0.248 OA 
HETATM   14  N   UNL     1     -10.619  15.874  66.086  1.00  0.00    -0.312 N  
HETATM   15  C   UNL     1      -9.395  15.630  66.639  1.00  0.00    -0.265 C  
BRANCH  11  16
HETATM   16  C   UNL     1      -8.358  13.987  68.147  1.00  0.00    -0.164 C  
HETATM   17  H   UNL     1      -6.764  12.901  67.924  1.00  0.00     0.000 HD 
HETATM   18  O   UNL     1      -7.486  13.188  67.376  1.00  0.00    -0.156 OA 
ENDBRANCH  11  16
BRANCH  14  19
HETATM   19  C   UNL     1     -10.799  16.839  65.044  1.00  0.00    -0.117 C  
HETATM   20  O   UNL     1     -11.485  16.251  63.955  1.00  0.00    -1.484 OA 
HETATM   21  H   UNL     1     -11.604  16.891  63.264  1.00  0.00     0.000 HD 
ENDBRANCH  14  19
ENDBRANCH   8   9
BRANCH   8  22
HETATM   22  C   UNL     1     -11.380  11.929  68.717  1.00  0.00    -0.274 C  
HETATM   23  H   UNL     1     -12.500  10.454  69.249  1.00  0.00     0.000 HD 
HETATM   24  O   UNL     1     -12.283  10.880  68.428  1.00  0.00    -0.540 OA 
ENDBRANCH   8  22
ENDBRANCH   6   8
ENDBRANCH   4   6
ENDBRANCH   3   4
TORSDOF 7
ENDMDL
MODEL       57
REMARK 921   NORMALIZED FREE ENERGY PREDICTED BY IDOCK:   -4.31 KCAL/MOL
REMARK 922        TOTAL FREE ENERGY PREDICTED BY IDOCK:   -7.60 KCAL/MOL
REMARK 923 INTER-LIGAND FREE ENERGY PREDICTED BY IDOCK:   -6.52 KCAL/MOL
REMARK 924 INTRA-LIGAND FREE ENERGY PREDICTED BY IDOCK:   -1.08 KCAL/MOL
REMARK 927      BINDING AFFINITY PREDICTED BY RF-SCORE:    0.00 PKD
ROOT
HETATM    1  O   UNL     1      -8.063  12.941  68.809  1.00  0.00    -0.324 OA 
HETATM    2  H   UNL     1      -7.368  12.679  69.401  1.00  0.00     0.000 HD 
HETATM    3  C   UNL     1      -7.451  13.161  67.560  1.00  0.00    -0.160 C  
ENDROOT
BRANCH   3   4
HETATM    4  N   UNL     1      -8.491  13.554  66.674  1.00  0.00    -0.432 N  
HETATM    5  H   UNL     1      -8.762  12.942  65.904  1.00  0.00     0.000 HD 
BRANCH   4   6
HETATM    6  C   UNL     1      -9.128  14.746  66.849  1.00  0.00    -0.248 C  
HETATM    7  O   UNL     1      -8.557  15.715  67.345  1.00  0.00    -0.161 OA 
BRANCH   6   8
HETATM    8  N   UNL     1     -10.424  14.821  66.379  1.00  0.00    -0.286 N  
BRANCH   8   9
HETATM    9  C   UNL     1     -11.493  14.630  67.338  1.00  0.00    -0.369 C  
HETATM   10  O   UNL     1     -11.307  16.853  68.426  1.00  0.00    -0.230 OA 
HETATM   11  N   UNL     1     -11.407  13.426  68.132  1.00  0.00    -0.269 N  
HETATM   12  C   UNL     1     -11.576  15.657  68.488  1.00  0.00    -0.370 C  
HETATM   13  O   UNL     1     -12.170  12.786  70.225  1.00  0.00    -0.334 OA 
HETATM   14  N   UNL     1     -12.046  15.002  69.588  1.00  0.00    -0.311 N  
HETATM   15  C   UNL     1     -11.922  13.655  69.402  1.00  0.00    -0.342 C  
BRANCH  11  16
HETATM   16  C   UNL     1     -11.331  12.101  67.590  1.00  0.00    -0.314 C  
HETATM   17  H   UNL     1     -12.228  11.096  66.191  1.00  0.00     0.000 HD 
HETATM   18  O   UNL     1     -12.278  11.975  66.550  1.00  0.00    -0.548 OA 
ENDBRANCH  11  16
BRANCH  14  19
HETATM   19  C   UNL     1     -12.207  15.572  70.891  1.00  0.00    -0.400 C  
HETATM   20  O   UNL     1     -11.264  15.010  71.784  1.00  0.00    -0.558 OA 
HETATM   21  H   UNL     1     -11.370  15.389  72.648  1.00  0.00     0.000 HD 
ENDBRANCH  14  19
ENDBRANCH   8   9
BRANCH   8  22
HETATM   22  C   UNL     1     -10.776  14.835  64.978  1.00  0.00    -0.433 C  
HETATM   23  H   UNL     1     -10.622  13.601  63.506  1.00  0.00     0.000 HD 
HETATM   24  O   UNL     1     -10.391  13.591  64.427  1.00  0.00    -0.433 OA 
ENDBRANCH   8  22
ENDBRANCH   6   8
ENDBRANCH   4   6
ENDBRANCH   3   4
TORSDOF 7
ENDMDL
MODEL       58
REMARK 921   NORMALIZED FREE ENERGY PREDICTED BY IDOCK:   -4.27 KCAL/MOL
REMARK 922        TOTAL FREE ENERGY PREDICTED BY IDOCK:   -7.54 KCAL/MOL
REMARK 923 INTER-LIGAND FREE ENERGY PREDICTED BY IDOCK:   -6.08 KCAL/MOL
REMARK 924 INTRA-LIGAND FREE ENERGY PREDICTED BY IDOCK:   -1.47 KCAL/MOL
REMARK 927      BINDING AFFINITY PREDICTED BY RF-SCORE:    0.00 PKD
ROOT
HETATM    1  O   UNL     1     -11.377  11.959  70.125  1.00  0.00    -0.505 OA 
HETATM    2  H   UNL     1     -11.665  12.589  70.775  1.00  0.00     0.000 HD 
HETATM    3  C   UNL     1     -11.874  10.710  70.544  1.00  0.00    -0.357 C  
ENDROOT
BRANCH   3   4
HETATM    4  N   UNL     1     -11.443   9.767  69.570  1.00  0.00    -0.440 N  
HETATM    5  H   UNL     1     -12.038   8.973  69.335  1.00  0.00     0.000 HD 
BRANCH   4   6
HETATM    6  C   UNL     1     -10.239   9.921  68.952  1.00  0.00    -0.196 C  
HETATM    7  O   UNL     1      -9.206  10.109  69.590  1.00  0.00    -0.214 OA 
BRANCH   6   8
HETATM    8  N   UNL     1     -10.238   9.787  67.577  1.00  0.00    -0.204 N  
BRANCH   8   9
HETATM    9  C   UNL     1     -10.052  10.990  66.791  1.00  0.00    -0.220 C  
HETATM   10  O   UNL     1     -12.240  12.030  67.331  1.00  0.00    -0.491 OA 
HETATM   11  N   UNL     1      -9.671  10.779  65.414  1.00  0.00    -0.227 N  
HETATM   12  C   UNL     1     -11.309  11.856  66.552  1.00  0.00    -0.341 C  
HETATM   13  O   UNL     1      -9.913  11.978  63.446  1.00  0.00    -0.417 OA 
HETATM   14  N   UNL     1     -11.179  12.431  65.322  1.00  0.00    -0.308 N  
HETATM   15  C   UNL     1     -10.218  11.773  64.611  1.00  0.00    -0.284 C  
BRANCH  11  16
HETATM   16  C   UNL     1      -8.517  10.039  64.995  1.00  0.00    -0.160 C  
HETATM   17  H   UNL     1      -6.596  10.157  65.254  1.00  0.00     0.000 HD 
HETATM   18  O   UNL     1      -7.361  10.648  65.532  1.00  0.00    -0.135 OA 
ENDBRANCH  11  16
BRANCH  14  19
HETATM   19  C   UNL     1     -12.160  13.255  64.682  1.00  0.00    -0.408 C  
HETATM   20  O   UNL     1     -12.814  12.524  63.662  1.00  0.00    -0.731 OA 
HETATM   21  H   UNL     1     -13.464  13.071  63.238  1.00  0.00     0.000 HD 
ENDBRANCH  14  19
ENDBRANCH   8   9
BRANCH   8  22
HETATM   22  C   UNL     1     -10.643   8.589  66.882  1.00  0.00    -0.209 C  
HETATM   23  H   UNL     1     -10.839   6.727  67.343  1.00  0.00     0.000 HD 
HETATM   24  O   UNL     1     -10.572   7.516  67.801  1.00  0.00    -0.227 OA 
ENDBRANCH   8  22
ENDBRANCH   6   8
ENDBRANCH   4   6
ENDBRANCH   3   4
TORSDOF 7
ENDMDL
MODEL       59
REMARK 921   NORMALIZED FREE ENERGY PREDICTED BY IDOCK:   -4.27 KCAL/MOL
REMARK 922        TOTAL FREE ENERGY PREDICTED BY IDOCK:   -7.54 KCAL/MOL
REMARK 923 INTER-LIGAND FREE ENERGY PREDICTED BY IDOCK:   -6.50 KCAL/MOL
REMARK 924 INTRA-LIGAND FREE ENERGY PREDICTED BY IDOCK:   -1.04 KCAL/MOL
REMARK 927      BINDING AFFINITY PREDICTED BY RF-SCORE:    0.00 PKD
ROOT
HETATM    1  O   UNL     1      -7.119  19.425  68.371  1.00  0.00    -0.278 OA 
HETATM    2  H   UNL     1      -6.238  19.768  68.464  1.00  0.00     0.000 HD 
HETATM    3  C   UNL     1      -7.049  18.063  68.723  1.00  0.00    -0.276 C  
ENDROOT
BRANCH   3   4
HETATM    4  N   UNL     1      -8.368  17.551  68.583  1.00  0.00    -0.274 N  
HETATM    5  H   UNL     1      -9.167  18.182  68.641  1.00  0.00     0.000 HD 
BRANCH   4   6
HETATM    6  C   UNL     1      -8.567  16.219  68.374  1.00  0.00    -0.200 C  
HETATM    7  O   UNL     1      -7.667  15.399  68.534  1.00  0.00    -0.123 OA 
BRANCH   6   8
HETATM    8  N   UNL     1      -9.852  15.841  68.036  1.00  0.00    -0.216 N  
BRANCH   8   9
HETATM    9  C   UNL     1     -10.001  14.830  67.009  1.00  0.00    -0.238 C  
HETATM   10  O   UNL     1     -10.468  16.387  65.134  1.00  0.00    -0.622 OA 
HETATM   11  N   UNL     1     -10.929  13.766  67.314  1.00  0.00    -0.288 N  
HETATM   12  C   UNL     1     -10.617  15.294  65.671  1.00  0.00    -0.362 C  
HETATM   13  O   UNL     1     -12.235  12.321  66.059  1.00  0.00    -0.646 OA 
HETATM   14  N   UNL     1     -11.332  14.248  65.166  1.00  0.00    -0.329 N  
HETATM   15  C   UNL     1     -11.556  13.332  66.152  1.00  0.00    -0.348 C  
BRANCH  11  16
HETATM   16  C   UNL     1     -10.845  12.922  68.471  1.00  0.00    -0.257 C  
HETATM   17  H   UNL     1      -9.525  11.734  69.255  1.00  0.00     0.000 HD 
HETATM   18  O   UNL     1      -9.581  12.293  68.489  1.00  0.00    -0.197 OA 
ENDBRANCH  11  16
BRANCH  14  19
HETATM   19  C   UNL     1     -12.120  14.280  63.971  1.00  0.00    -0.316 C  
HETATM   20  O   UNL     1     -12.649  15.578  63.776  1.00  0.00    -0.847 OA 
HETATM   21  H   UNL     1     -13.172  15.599  62.984  1.00  0.00     0.000 HD 
ENDBRANCH  14  19
ENDBRANCH   8   9
BRANCH   8  22
HETATM   22  C   UNL     1     -11.039  16.546  68.458  1.00  0.00    -0.335 C  
HETATM   23  H   UNL     1     -11.814  17.051  70.149  1.00  0.00     0.000 HD 
HETATM   24  O   UNL     1     -11.033  16.587  69.872  1.00  0.00    -0.349 OA 
ENDBRANCH   8  22
ENDBRANCH   6   8
ENDBRANCH   4   6
ENDBRANCH   3   4
TORSDOF 7
ENDMDL
MODEL       60
REMARK 921   NORMALIZED FREE ENERGY PREDICTED BY IDOCK:   -4.26 KCAL/MOL
REMARK 922        TOTAL FREE ENERGY PREDICTED BY IDOCK:   -7.53 KCAL/MOL
REMARK 923 INTER-LIGAND FREE ENERGY PREDICTED BY IDOCK:   -6.65 KCAL/MOL
REMARK 924 INTRA-LIGAND FREE ENERGY PREDICTED BY IDOCK:   -0.88 KCAL/MOL
REMARK 927      BINDING AFFINITY PREDICTED BY RF-SCORE:    0.00 PKD
ROOT
HETATM    1  O   UNL     1     -10.773  20.082  66.934  1.00  0.00    -0.408 OA 
HETATM    2  H   UNL     1     -10.825  20.857  66.387  1.00  0.00     0.000 HD 
HETATM    3  C   UNL     1     -10.589  18.996  66.056  1.00  0.00    -0.423 C  
ENDROOT
BRANCH   3   4
HETATM    4  N   UNL     1     -10.511  17.835  66.875  1.00  0.00    -0.333 N  
HETATM    5  H   UNL     1     -10.934  17.839  67.803  1.00  0.00     0.000 HD 
BRANCH   4   6
HETATM    6  C   UNL     1      -9.872  16.719  66.424  1.00  0.00    -0.297 C  
HETATM    7  O   UNL     1      -8.757  16.777  65.912  1.00  0.00    -0.504 OA 
BRANCH   6   8
HETATM    8  N   UNL     1     -10.521  15.518  66.635  1.00  0.00    -0.294 N  
BRANCH   8   9
HETATM    9  C   UNL     1     -10.292  14.460  65.673  1.00  0.00    -0.342 C  
HETATM   10  O   UNL     1     -12.054  15.144  64.065  1.00  0.00    -0.546 OA 
HETATM   11  N   UNL     1     -10.287  13.120  66.213  1.00  0.00    -0.282 N  
HETATM   12  C   UNL     1     -11.379  14.266  64.593  1.00  0.00    -0.373 C  
HETATM   13  O   UNL     1     -10.739  11.010  65.367  1.00  0.00    -0.236 OA 
HETATM   14  N   UNL     1     -11.428  12.936  64.296  1.00  0.00    -0.354 N  
HETATM   15  C   UNL     1     -10.802  12.227  65.280  1.00  0.00    -0.293 C  
BRANCH  11  16
HETATM   16  C   UNL     1      -9.426  12.674  67.269  1.00  0.00    -0.199 C  
HETATM   17  H   UNL     1      -7.643  11.918  67.409  1.00  0.00     0.000 HD 
HETATM   18  O   UNL     1      -8.214  12.213  66.709  1.00  0.00    -0.164 OA 
ENDBRANCH  11  16
BRANCH  14  19
HETATM   19  C   UNL     1     -12.352  12.319  63.393  1.00  0.00    -0.517 C  
HETATM   20  O   UNL     1     -13.483  11.853  64.103  1.00  0.00    -0.591 OA 
HETATM   21  H   UNL     1     -14.096  11.444  63.503  1.00  0.00     0.000 HD 
ENDBRANCH  14  19
ENDBRANCH   8   9
BRANCH   8  22
HETATM   22  C   UNL     1     -11.580  15.331  67.599  1.00  0.00    -0.239 C  
HETATM   23  H   UNL     1     -11.806  15.674  69.482  1.00  0.00     0.000 HD 
HETATM   24  O   UNL     1     -11.109  15.798  68.848  1.00  0.00    -0.258 OA 
ENDBRANCH   8  22
ENDBRANCH   6   8
ENDBRANCH   4   6
ENDBRANCH   3   4
TORSDOF 7
ENDMDL
MODEL       61
REMARK 921   NORMALIZED FREE ENERGY PREDICTED BY IDOCK:   -4.22 KCAL/MOL
REMARK 922        TOTAL FREE ENERGY PREDICTED BY IDOCK:   -7.48 KCAL/MOL
REMARK 923 INTER-LIGAND FREE ENERGY PREDICTED BY IDOCK:   -5.99 KCAL/MOL
REMARK 924 INTRA-LIGAND FREE ENERGY PREDICTED BY IDOCK:   -1.49 KCAL/MOL
REMARK 927      BINDING AFFINITY PREDICTED BY RF-SCORE:    0.00 PKD
ROOT
HETATM    1  O   UNL     1     -13.714   9.661  72.511  1.00  0.00    -0.673 OA 
HETATM    2  H   UNL     1     -14.374  10.107  73.027  1.00  0.00     0.000 HD 
HETATM    3  C   UNL     1     -14.320   8.484  72.032  1.00  0.00    -0.447 C  
ENDROOT
BRANCH   3   4
HETATM    4  N   UNL     1     -13.330   7.816  71.259  1.00  0.00    -0.546 N  
HETATM    5  H   UNL     1     -13.610   7.235  70.469  1.00  0.00     0.000 HD 
BRANCH   4   6
HETATM    6  C   UNL     1     -12.011   7.951  71.570  1.00  0.00    -0.301 C  
HETATM    7  O   UNL     1     -11.596   7.768  72.713  1.00  0.00    -0.362 OA 
BRANCH   6   8
HETATM    8  N   UNL     1     -11.162   8.238  70.519  1.00  0.00    -0.255 N  
BRANCH   8   9
HETATM    9  C   UNL     1     -10.707   9.607  70.386  1.00  0.00    -0.298 C  
HETATM   10  O   UNL     1     -12.861  10.553  69.592  1.00  0.00    -0.141 OA 
HETATM   11  N   UNL     1      -9.506   9.789  69.604  1.00  0.00    -0.205 N  
HETATM   12  C   UNL     1     -11.634  10.567  69.607  1.00  0.00    -0.271 C  
HETATM   13  O   UNL     1      -8.614  11.521  68.349  1.00  0.00    -0.151 OA 
HETATM   14  N   UNL     1     -10.839  11.469  68.963  1.00  0.00    -0.214 N  
HETATM   15  C   UNL     1      -9.558  11.000  68.925  1.00  0.00    -0.163 C  
BRANCH  11  16
HETATM   16  C   UNL     1      -8.254   9.146  69.879  1.00  0.00    -0.136 C  
HETATM   17  H   UNL     1      -7.144   8.832  71.442  1.00  0.00     0.000 HD 
HETATM   18  O   UNL     1      -7.974   9.258  71.259  1.00  0.00    -0.322 OA 
ENDBRANCH  11  16
BRANCH  14  19
HETATM   19  C   UNL     1     -11.296  12.492  68.071  1.00  0.00    -0.289 C  
HETATM   20  O   UNL     1     -12.029  11.914  67.008  1.00  0.00    -0.615 OA 
HETATM   21  H   UNL     1     -12.332  12.593  66.417  1.00  0.00     0.000 HD 
ENDBRANCH  14  19
ENDBRANCH   8   9
BRANCH   8  22
HETATM   22  C   UNL     1     -10.897   7.335  69.425  1.00  0.00    -0.190 C  
HETATM   23  H   UNL     1     -11.228   5.470  69.066  1.00  0.00     0.000 HD 
HETATM   24  O   UNL     1     -11.402   6.064  69.787  1.00  0.00    -0.409 OA 
ENDBRANCH   8  22
ENDBRANCH   6   8
ENDBRANCH   4   6
ENDBRANCH   3   4
TORSDOF 7
ENDMDL
MODEL       62
REMARK 921   NORMALIZED FREE ENERGY PREDICTED BY IDOCK:   -4.20 KCAL/MOL
REMARK 922        TOTAL FREE ENERGY PREDICTED BY IDOCK:   -7.45 KCAL/MOL
REMARK 923 INTER-LIGAND FREE ENERGY PREDICTED BY IDOCK:   -6.07 KCAL/MOL
REMARK 924 INTRA-LIGAND FREE ENERGY PREDICTED BY IDOCK:   -1.38 KCAL/MOL
REMARK 927      BINDING AFFINITY PREDICTED BY RF-SCORE:    0.00 PKD
ROOT
HETATM    1  O   UNL     1     -13.097  14.715  70.224  1.00  0.00    -0.566 OA 
HETATM    2  H   UNL     1     -13.732  14.915  70.902  1.00  0.00     0.000 HD 
HETATM    3  C   UNL     1     -11.835  14.746  70.849  1.00  0.00    -0.322 C  
ENDROOT
BRANCH   3   4
HETATM    4  N   UNL     1     -10.885  14.446  69.834  1.00  0.00    -0.457 N  
HETATM    5  H   UNL     1     -10.117  13.804  70.032  1.00  0.00     0.000 HD 
BRANCH   4   6
HETATM    6  C   UNL     1     -10.996  15.013  68.600  1.00  0.00    -0.257 C  
HETATM    7  O   UNL     1     -11.583  16.079  68.431  1.00  0.00    -0.364 OA 
BRANCH   6   8
HETATM    8  N   UNL     1     -10.359  14.355  67.567  1.00  0.00    -0.250 N  
BRANCH   8   9
HETATM    9  C   UNL     1     -11.029  13.203  66.997  1.00  0.00    -0.269 C  
HETATM   10  O   UNL     1     -10.209  11.543  68.650  1.00  0.00    -0.204 OA 
HETATM   11  N   UNL     1     -10.805  12.990  65.585  1.00  0.00    -0.271 N  
HETATM   12  C   UNL     1     -10.575  11.819  67.512  1.00  0.00    -0.214 C  
HETATM   13  O   UNL     1     -10.837  11.147  64.182  1.00  0.00    -0.370 OA 
HETATM   14  N   UNL     1     -10.693  10.940  66.476  1.00  0.00    -0.238 N  
HETATM   15  C   UNL     1     -10.801  11.629  65.303  1.00  0.00    -0.283 C  
BRANCH  11  16
HETATM   16  C   UNL     1     -11.082  13.958  64.565  1.00  0.00    -0.366 C  
HETATM   17  H   UNL     1     -12.647  14.893  63.897  1.00  0.00     0.000 HD 
HETATM   18  O   UNL     1     -12.464  14.251  64.573  1.00  0.00    -0.607 OA 
ENDBRANCH  11  16
BRANCH  14  19
HETATM   19  C   UNL     1     -10.309   9.561  66.509  1.00  0.00    -0.193 C  
HETATM   20  O   UNL     1     -10.859   8.933  67.652  1.00  0.00    -0.468 OA 
HETATM   21  H   UNL     1     -10.605   8.019  67.673  1.00  0.00     0.000 HD 
ENDBRANCH  14  19
ENDBRANCH   8   9
BRANCH   8  22
HETATM   22  C   UNL     1      -8.986  14.587  67.186  1.00  0.00    -0.230 C  
HETATM   23  H   UNL     1      -7.315  14.807  68.122  1.00  0.00     0.000 HD 
HETATM   24  O   UNL     1      -8.218  14.654  68.372  1.00  0.00    -0.139 OA 
ENDBRANCH   8  22
ENDBRANCH   6   8
ENDBRANCH   4   6
ENDBRANCH   3   4
TORSDOF 7
ENDMDL
MODEL       63
REMARK 921   NORMALIZED FREE ENERGY PREDICTED BY IDOCK:   -4.16 KCAL/MOL
REMARK 922        TOTAL FREE ENERGY PREDICTED BY IDOCK:   -7.39 KCAL/MOL
REMARK 923 INTER-LIGAND FREE ENERGY PREDICTED BY IDOCK:   -5.92 KCAL/MOL
REMARK 924 INTRA-LIGAND FREE ENERGY PREDICTED BY IDOCK:   -1.47 KCAL/MOL
REMARK 927      BINDING AFFINITY PREDICTED BY RF-SCORE:    0.00 PKD
ROOT
HETATM    1  O   UNL     1     -12.882  12.398  63.577  1.00  0.00    -0.749 OA 
HETATM    2  H   UNL     1     -13.829  12.461  63.623  1.00  0.00     0.000 HD 
HETATM    3  C   UNL     1     -12.383  13.612  64.085  1.00  0.00    -0.330 C  
ENDROOT
BRANCH   3   4
HETATM    4  N   UNL     1     -10.966  13.517  64.016  1.00  0.00    -0.559 N  
HETATM    5  H   UNL     1     -10.418  14.317  63.700  1.00  0.00     0.000 HD 
BRANCH   4   6
HETATM    6  C   UNL     1     -10.338  12.361  64.371  1.00  0.00    -0.343 C  
HETATM    7  O   UNL     1     -10.042  11.506  63.539  1.00  0.00    -0.329 OA 
BRANCH   6   8
HETATM    8  N   UNL     1      -9.998  12.235  65.703  1.00  0.00    -0.253 N  
BRANCH   8   9
HETATM    9  C   UNL     1     -10.810  11.356  66.519  1.00  0.00    -0.283 C  
HETATM   10  O   UNL     1     -12.125  13.136  67.644  1.00  0.00    -0.331 OA 
HETATM   11  N   UNL     1     -10.082  10.388  67.306  1.00  0.00    -0.191 N  
HETATM   12  C   UNL     1     -11.612  12.022  67.660  1.00  0.00    -0.321 C  
HETATM   13  O   UNL     1     -10.485   9.244  69.281  1.00  0.00    -0.210 OA 
HETATM   14  N   UNL     1     -11.683  11.126  68.686  1.00  0.00    -0.320 N  
HETATM   15  C   UNL     1     -10.745  10.151  68.504  1.00  0.00    -0.230 C  
BRANCH  11  16
HETATM   16  C   UNL     1      -9.161   9.431  66.766  1.00  0.00    -0.143 C  
HETATM   17  H   UNL     1      -9.125   8.205  65.260  1.00  0.00     0.000 HD 
HETATM   18  O   UNL     1      -9.734   8.840  65.619  1.00  0.00    -0.155 OA 
ENDBRANCH  11  16
BRANCH  14  19
HETATM   19  C   UNL     1     -12.280  11.371  69.964  1.00  0.00    -0.301 C  
HETATM   20  O   UNL     1     -11.766  12.569  70.514  1.00  0.00    -0.525 OA 
HETATM   21  H   UNL     1     -12.162  12.732  71.362  1.00  0.00     0.000 HD 
ENDBRANCH  14  19
ENDBRANCH   8   9
BRANCH   8  22
HETATM   22  C   UNL     1      -9.052  13.092  66.380  1.00  0.00    -0.056 C  
HETATM   23  H   UNL     1      -8.892  14.987  66.697  1.00  0.00     0.000 HD 
HETATM   24  O   UNL     1      -9.514  14.423  66.252  1.00  0.00    -0.290 OA 
ENDBRANCH   8  22
ENDBRANCH   6   8
ENDBRANCH   4   6
ENDBRANCH   3   4
TORSDOF 7
ENDMDL
MODEL       64
REMARK 921   NORMALIZED FREE ENERGY PREDICTED BY IDOCK:   -4.15 KCAL/MOL
REMARK 922        TOTAL FREE ENERGY PREDICTED BY IDOCK:   -7.37 KCAL/MOL
REMARK 923 INTER-LIGAND FREE ENERGY PREDICTED BY IDOCK:   -5.94 KCAL/MOL
REMARK 924 INTRA-LIGAND FREE ENERGY PREDICTED BY IDOCK:   -1.44 KCAL/MOL
REMARK 927      BINDING AFFINITY PREDICTED BY RF-SCORE:    0.00 PKD
ROOT
HETATM    1  O   UNL     1     -12.960  15.221  70.132  1.00  0.00    -0.636 OA 
HETATM    2  H   UNL     1     -13.708  15.286  70.714  1.00  0.00     0.000 HD 
HETATM    3  C   UNL     1     -12.344  13.987  70.420  1.00  0.00    -0.359 C  
ENDROOT
BRANCH   3   4
HETATM    4  N   UNL     1     -11.225  13.891  69.548  1.00  0.00    -0.388 N  
HETATM    5  H   UNL     1     -10.306  13.659  69.925  1.00  0.00     0.000 HD 
BRANCH   4   6
HETATM    6  C   UNL     1     -11.376  14.109  68.211  1.00  0.00    -0.291 C  
HETATM    7  O   UNL     1     -12.423  13.837  67.628  1.00  0.00    -0.148 OA 
BRANCH   6   8
HETATM    8  N   UNL     1     -10.313  14.710  67.567  1.00  0.00    -0.234 N  
BRANCH   8   9
HETATM    9  C   UNL     1      -9.662  13.960  66.512  1.00  0.00    -0.294 C  
HETATM   10  O   UNL     1     -11.155  14.698  64.671  1.00  0.00    -0.376 OA 
HETATM   11  N   UNL     1      -9.477  12.552  66.773  1.00  0.00    -0.225 N  
HETATM   12  C   UNL     1     -10.430  13.846  65.176  1.00  0.00    -0.393 C  
HETATM   13  O   UNL     1      -9.271  10.655  65.458  1.00  0.00    -0.178 OA 
HETATM   14  N   UNL     1     -10.124  12.634  64.632  1.00  0.00    -0.270 N  
HETATM   15  C   UNL     1      -9.578  11.830  65.590  1.00  0.00    -0.220 C  
BRANCH  11  16
HETATM   16  C   UNL     1      -8.780  12.022  67.908  1.00  0.00    -0.170 C  
HETATM   17  H   UNL     1      -9.219  10.912  69.440  1.00  0.00     0.000 HD 
HETATM   18  O   UNL     1      -9.681  11.263  68.687  1.00  0.00    -0.196 OA 
ENDBRANCH  11  16
BRANCH  14  19
HETATM   19  C   UNL     1     -10.680  12.100  63.425  1.00  0.00    -0.409 C  
HETATM   20  O   UNL     1     -12.047  12.454  63.326  1.00  0.00    -0.653 OA 
HETATM   21  H   UNL     1     -12.416  12.100  62.525  1.00  0.00     0.000 HD 
ENDBRANCH  14  19
ENDBRANCH   8   9
BRANCH   8  22
HETATM   22  C   UNL     1      -9.664  15.914  68.030  1.00  0.00    -0.216 C  
HETATM   23  H   UNL     1     -10.133  17.366  69.209  1.00  0.00     0.000 HD 
HETATM   24  O   UNL     1     -10.560  16.573  68.905  1.00  0.00    -0.282 OA 
ENDBRANCH   8  22
ENDBRANCH   6   8
ENDBRANCH   4   6
ENDBRANCH   3   4
TORSDOF 7
ENDMDL
MODEL       65
REMARK 921   NORMALIZED FREE ENERGY PREDICTED BY IDOCK:   -4.15 KCAL/MOL
REMARK 922        TOTAL FREE ENERGY PREDICTED BY IDOCK:   -7.37 KCAL/MOL
REMARK 923 INTER-LIGAND FREE ENERGY PREDICTED BY IDOCK:   -6.78 KCAL/MOL
REMARK 924 INTRA-LIGAND FREE ENERGY PREDICTED BY IDOCK:   -0.59 KCAL/MOL
REMARK 927      BINDING AFFINITY PREDICTED BY RF-SCORE:    0.00 PKD
ROOT
HETATM    1  O   UNL     1     -11.547  12.294  70.359  1.00  0.00    -0.528 OA 
HETATM    2  H   UNL     1     -11.270  12.372  71.264  1.00  0.00     0.000 HD 
HETATM    3  C   UNL     1     -11.563  10.915  70.071  1.00  0.00    -0.341 C  
ENDROOT
BRANCH   3   4
HETATM    4  N   UNL     1     -11.979  10.799  68.716  1.00  0.00    -0.481 N  
HETATM    5  H   UNL     1     -12.937  11.034  68.458  1.00  0.00     0.000 HD 
BRANCH   4   6
HETATM    6  C   UNL     1     -11.102  10.374  67.763  1.00  0.00    -0.299 C  
HETATM    7  O   UNL     1     -10.842   9.183  67.611  1.00  0.00    -0.234 OA 
BRANCH   6   8
HETATM    8  N   UNL     1     -10.576  11.350  66.941  1.00  0.00    -0.240 N  
BRANCH   8   9
HETATM    9  C   UNL     1     -11.259  12.627  66.900  1.00  0.00    -0.300 C  
HETATM   10  O   UNL     1     -12.665  12.140  64.913  1.00  0.00    -0.508 OA 
HETATM   11  N   UNL     1     -10.403  13.791  66.912  1.00  0.00    -0.264 N  
HETATM   12  C   UNL     1     -12.053  12.941  65.612  1.00  0.00    -0.458 C  
HETATM   13  O   UNL     1     -10.591  15.972  66.152  1.00  0.00    -0.312 OA 
HETATM   14  N   UNL     1     -11.986  14.288  65.410  1.00  0.00    -0.370 N  
HETATM   15  C   UNL     1     -10.975  14.812  66.163  1.00  0.00    -0.332 C  
BRANCH  11  16
HETATM   16  C   UNL     1      -9.431  14.071  67.928  1.00  0.00    -0.210 C  
HETATM   17  H   UNL     1      -7.514  14.375  67.999  1.00  0.00     0.000 HD 
HETATM   18  O   UNL     1      -8.159  14.189  67.326  1.00  0.00    -0.187 OA 
ENDBRANCH  11  16
BRANCH  14  19
HETATM   19  C   UNL     1     -12.531  14.988  64.286  1.00  0.00    -0.107 C  
HETATM   20  O   UNL     1     -12.618  14.120  63.172  1.00  0.00    -1.058 OA 
HETATM   21  H   UNL     1     -12.979  14.584  62.427  1.00  0.00     0.000 HD 
ENDBRANCH  14  19
ENDBRANCH   8   9
BRANCH   8  22
HETATM   22  C   UNL     1      -9.550  11.108  65.953  1.00  0.00    -0.218 C  
HETATM   23  H   UNL     1      -9.434  10.125  64.299  1.00  0.00     0.000 HD 
HETATM   24  O   UNL     1     -10.109  10.284  64.949  1.00  0.00    -0.334 OA 
ENDBRANCH   8  22
ENDBRANCH   6   8
ENDBRANCH   4   6
ENDBRANCH   3   4
TORSDOF 7
ENDMDL
MODEL       66
REMARK 921   NORMALIZED FREE ENERGY PREDICTED BY IDOCK:   -4.14 KCAL/MOL
REMARK 922        TOTAL FREE ENERGY PREDICTED BY IDOCK:   -7.37 KCAL/MOL
REMARK 923 INTER-LIGAND FREE ENERGY PREDICTED BY IDOCK:   -6.23 KCAL/MOL
REMARK 924 INTRA-LIGAND FREE ENERGY PREDICTED BY IDOCK:   -1.14 KCAL/MOL
REMARK 927      BINDING AFFINITY PREDICTED BY RF-SCORE:    0.00 PKD
ROOT
HETATM    1  O   UNL     1     -11.883  12.810  63.060  1.00  0.00    -0.780 OA 
HETATM    2  H   UNL     1     -11.737  12.057  62.501  1.00  0.00     0.000 HD 
HETATM    3  C   UNL     1     -12.686  12.358  64.125  1.00  0.00    -0.347 C  
ENDROOT
BRANCH   3   4
HETATM    4  N   UNL     1     -12.905  13.487  64.962  1.00  0.00    -0.727 N  
HETATM    5  H   UNL     1     -13.854  13.739  65.235  1.00  0.00     0.000 HD 
BRANCH   4   6
HETATM    6  C   UNL     1     -11.851  14.232  65.399  1.00  0.00    -0.363 C  
HETATM    7  O   UNL     1     -11.376  15.138  64.719  1.00  0.00    -0.400 OA 
BRANCH   6   8
HETATM    8  N   UNL     1     -11.392  13.952  66.671  1.00  0.00    -0.320 N  
BRANCH   8   9
HETATM    9  C   UNL     1     -10.488  12.831  66.822  1.00  0.00    -0.241 C  
HETATM   10  O   UNL     1     -12.146  11.246  67.770  1.00  0.00    -0.631 OA 
HETATM   11  N   UNL     1      -9.264  13.111  67.537  1.00  0.00    -0.197 N  
HETATM   12  C   UNL     1     -10.992  11.652  67.685  1.00  0.00    -0.239 C  
HETATM   13  O   UNL     1      -7.776  11.855  68.794  1.00  0.00    -0.127 OA 
HETATM   14  N   UNL     1      -9.907  11.111  68.310  1.00  0.00    -0.182 N  
HETATM   15  C   UNL     1      -8.866  11.992  68.258  1.00  0.00    -0.182 C  
BRANCH  11  16
HETATM   16  C   UNL     1      -8.324  14.129  67.169  1.00  0.00    -0.169 C  
HETATM   17  H   UNL     1      -7.552  15.703  68.004  1.00  0.00     0.000 HD 
HETATM   18  O   UNL     1      -8.175  15.028  68.248  1.00  0.00    -0.136 OA 
ENDBRANCH  11  16
BRANCH  14  19
HETATM   19  C   UNL     1      -9.943  10.040  69.259  1.00  0.00    -0.213 C  
HETATM   20  O   UNL     1     -10.897   9.074  68.860  1.00  0.00    -0.383 OA 
HETATM   21  H   UNL     1     -10.921   8.363  69.490  1.00  0.00     0.000 HD 
ENDBRANCH  14  19
ENDBRANCH   8   9
BRANCH   8  22
HETATM   22  C   UNL     1     -11.934  14.542  67.873  1.00  0.00    -0.287 C  
HETATM   23  H   UNL     1     -11.835  16.267  68.727  1.00  0.00     0.000 HD 
HETATM   24  O   UNL     1     -11.479  15.879  67.936  1.00  0.00    -0.299 OA 
ENDBRANCH   8  22
ENDBRANCH   6   8
ENDBRANCH   4   6
ENDBRANCH   3   4
TORSDOF 7
ENDMDL
MODEL       67
REMARK 921   NORMALIZED FREE ENERGY PREDICTED BY IDOCK:   -4.13 KCAL/MOL
REMARK 922        TOTAL FREE ENERGY PREDICTED BY IDOCK:   -7.36 KCAL/MOL
REMARK 923 INTER-LIGAND FREE ENERGY PREDICTED BY IDOCK:   -6.27 KCAL/MOL
REMARK 924 INTRA-LIGAND FREE ENERGY PREDICTED BY IDOCK:   -1.08 KCAL/MOL
REMARK 927      BINDING AFFINITY PREDICTED BY RF-SCORE:    0.00 PKD
ROOT
HETATM    1  O   UNL     1     -11.814  16.163  63.905  1.00  0.00    -1.359 OA 
HETATM    2  H   UNL     1     -11.959  16.346  62.985  1.00  0.00     0.000 HD 
HETATM    3  C   UNL     1     -12.204  14.824  64.105  1.00  0.00    -0.295 C  
ENDROOT
BRANCH   3   4
HETATM    4  N   UNL     1     -11.985  14.550  65.483  1.00  0.00    -0.340 N  
HETATM    5  H   UNL     1     -11.704  15.302  66.112  1.00  0.00     0.000 HD 
BRANCH   4   6
HETATM    6  C   UNL     1     -12.151  13.287  65.966  1.00  0.00    -0.436 C  
HETATM    7  O   UNL     1     -12.910  12.485  65.427  1.00  0.00    -0.554 OA 
BRANCH   6   8
HETATM    8  N   UNL     1     -11.371  12.942  67.053  1.00  0.00    -0.293 N  
BRANCH   8   9
HETATM    9  C   UNL     1     -11.047  11.541  67.222  1.00  0.00    -0.293 C  
HETATM   10  O   UNL     1     -12.660  11.088  69.054  1.00  0.00    -0.378 OA 
HETATM   11  N   UNL     1      -9.644  11.245  67.404  1.00  0.00    -0.169 N  
HETATM   12  C   UNL     1     -11.592  10.858  68.496  1.00  0.00    -0.290 C  
HETATM   13  O   UNL     1      -8.448   9.545  68.428  1.00  0.00    -0.117 OA 
HETATM   14  N   UNL     1     -10.683   9.913  68.874  1.00  0.00    -0.216 N  
HETATM   15  C   UNL     1      -9.493  10.151  68.248  1.00  0.00    -0.140 C  
BRANCH  11  16
HETATM   16  C   UNL     1      -8.611  11.621  66.485  1.00  0.00    -0.164 C  
HETATM   17  H   UNL     1      -7.033  12.753  66.525  1.00  0.00     0.000 HD 
HETATM   18  O   UNL     1      -7.718  12.503  67.134  1.00  0.00    -0.162 OA 
ENDBRANCH  11  16
BRANCH  14  19
HETATM   19  C   UNL     1     -10.768   9.099  70.049  1.00  0.00    -0.232 C  
HETATM   20  O   UNL     1     -11.057   9.906  71.175  1.00  0.00    -0.350 OA 
HETATM   21  H   UNL     1     -11.114   9.366  71.954  1.00  0.00     0.000 HD 
ENDBRANCH  14  19
ENDBRANCH   8   9
BRANCH   8  22
HETATM   22  C   UNL     1     -11.066  13.837  68.144  1.00  0.00    -0.259 C  
HETATM   23  H   UNL     1      -9.937  15.380  68.387  1.00  0.00     0.000 HD 
HETATM   24  O   UNL     1     -10.137  14.791  67.669  1.00  0.00    -0.226 OA 
ENDBRANCH   8  22
ENDBRANCH   6   8
ENDBRANCH   4   6
ENDBRANCH   3   4
TORSDOF 7
ENDMDL
MODEL       68
REMARK 921   NORMALIZED FREE ENERGY PREDICTED BY IDOCK:   -4.11 KCAL/MOL
REMARK 922        TOTAL FREE ENERGY PREDICTED BY IDOCK:   -7.32 KCAL/MOL
REMARK 923 INTER-LIGAND FREE ENERGY PREDICTED BY IDOCK:   -6.24 KCAL/MOL
REMARK 924 INTRA-LIGAND FREE ENERGY PREDICTED BY IDOCK:   -1.08 KCAL/MOL
REMARK 927      BINDING AFFINITY PREDICTED BY RF-SCORE:    0.00 PKD
ROOT
HETATM    1  O   UNL     1     -11.782   6.938  69.206  1.00  0.00    -0.580 OA 
HETATM    2  H   UNL     1     -11.764   6.998  68.259  1.00  0.00     0.000 HD 
HETATM    3  C   UNL     1     -10.908   5.888  69.549  1.00  0.00    -0.372 C  
ENDROOT
BRANCH   3   4
HETATM    4  N   UNL     1     -10.935   5.798  70.968  1.00  0.00    -0.259 N  
HETATM    5  H   UNL     1     -10.391   5.077  71.441  1.00  0.00     0.000 HD 
BRANCH   4   6
HETATM    6  C   UNL     1     -11.685   6.672  71.696  1.00  0.00    -0.316 C  
HETATM    7  O   UNL     1     -12.912   6.669  71.643  1.00  0.00    -0.300 OA 
BRANCH   6   8
HETATM    8  N   UNL     1     -10.990   7.513  72.543  1.00  0.00    -0.286 N  
BRANCH   8   9
HETATM    9  C   UNL     1     -10.683   8.843  72.057  1.00  0.00    -0.319 C  
HETATM   10  O   UNL     1     -13.031   9.614  71.819  1.00  0.00    -0.357 OA 
HETATM   11  N   UNL     1      -9.785   8.900  70.927  1.00  0.00    -0.217 N  
HETATM   12  C   UNL     1     -11.860   9.643  71.455  1.00  0.00    -0.407 C  
HETATM   13  O   UNL     1      -9.422  10.398  69.197  1.00  0.00    -0.193 OA 
HETATM   14  N   UNL     1     -11.353  10.428  70.462  1.00  0.00    -0.329 N  
HETATM   15  C   UNL     1     -10.115   9.974  70.110  1.00  0.00    -0.211 C  
BRANCH  11  16
HETATM   16  C   UNL     1      -8.471   8.327  70.906  1.00  0.00    -0.132 C  
HETATM   17  H   UNL     1      -6.853   8.473  71.970  1.00  0.00     0.000 HD 
HETATM   18  O   UNL     1      -7.724   8.852  71.984  1.00  0.00    -0.332 OA 
ENDBRANCH  11  16
BRANCH  14  19
HETATM   19  C   UNL     1     -12.119  11.277  69.600  1.00  0.00    -0.322 C  
HETATM   20  O   UNL     1     -12.235  10.686  68.320  1.00  0.00    -0.799 OA 
HETATM   21  H   UNL     1     -12.743  11.248  67.748  1.00  0.00     0.000 HD 
ENDBRANCH  14  19
ENDBRANCH   8   9
BRANCH   8  22
HETATM   22  C   UNL     1     -10.351   7.082  73.764  1.00  0.00    -0.369 C  
HETATM   23  H   UNL     1      -9.033   5.756  74.236  1.00  0.00     0.000 HD 
HETATM   24  O   UNL     1      -9.454   6.040  73.432  1.00  0.00    -0.138 OA 
ENDBRANCH   8  22
ENDBRANCH   6   8
ENDBRANCH   4   6
ENDBRANCH   3   4
TORSDOF 7
ENDMDL
MODEL       69
REMARK 921   NORMALIZED FREE ENERGY PREDICTED BY IDOCK:   -4.10 KCAL/MOL
REMARK 922        TOTAL FREE ENERGY PREDICTED BY IDOCK:   -7.31 KCAL/MOL
REMARK 923 INTER-LIGAND FREE ENERGY PREDICTED BY IDOCK:   -5.89 KCAL/MOL
REMARK 924 INTRA-LIGAND FREE ENERGY PREDICTED BY IDOCK:   -1.42 KCAL/MOL
REMARK 927      BINDING AFFINITY PREDICTED BY RF-SCORE:    0.00 PKD
ROOT
HETATM    1  O   UNL     1      -8.760   8.132  67.209  1.00  0.00    -0.122 OA 
HETATM    2  H   UNL     1      -8.123   7.666  66.681  1.00  0.00     0.000 HD 
HETATM    3  C   UNL     1     -10.025   7.674  66.791  1.00  0.00    -0.247 C  
ENDROOT
BRANCH   3   4
HETATM    4  N   UNL     1     -10.979   8.371  67.581  1.00  0.00    -0.483 N  
HETATM    5  H   UNL     1     -11.741   7.860  68.026  1.00  0.00     0.000 HD 
BRANCH   4   6
HETATM    6  C   UNL     1     -10.880   9.721  67.744  1.00  0.00    -0.246 C  
HETATM    7  O   UNL     1     -10.783  10.481  66.784  1.00  0.00    -0.240 OA 
BRANCH   6   8
HETATM    8  N   UNL     1     -10.960  10.185  69.042  1.00  0.00    -0.226 N  
BRANCH   8   9
HETATM    9  C   UNL     1     -11.970  11.183  69.332  1.00  0.00    -0.349 C  
HETATM   10  O   UNL     1     -10.592  13.166  68.757  1.00  0.00    -0.248 OA 
HETATM   11  N   UNL     1     -12.586  11.083  70.634  1.00  0.00    -0.344 N  
HETATM   12  C   UNL     1     -11.485  12.647  69.419  1.00  0.00    -0.266 C  
HETATM   13  O   UNL     1     -13.613  12.576  72.079  1.00  0.00    -0.439 OA 
HETATM   14  N   UNL     1     -12.261  13.279  70.346  1.00  0.00    -0.353 N  
HETATM   15  C   UNL     1     -12.908  12.350  71.108  1.00  0.00    -0.205 C  
BRANCH  11  16
HETATM   16  C   UNL     1     -13.255   9.915  71.128  1.00  0.00    -0.347 C  
HETATM   17  H   UNL     1     -12.984   8.639  72.567  1.00  0.00     0.000 HD 
HETATM   18  O   UNL     1     -12.541   9.414  72.239  1.00  0.00    -0.359 OA 
ENDBRANCH  11  16
BRANCH  14  19
HETATM   19  C   UNL     1     -12.098  14.633  70.783  1.00  0.00    -0.320 C  
HETATM   20  O   UNL     1     -13.316  15.337  70.636  1.00  0.00    -0.665 OA 
HETATM   21  H   UNL     1     -13.208  16.235  70.926  1.00  0.00     0.000 HD 
ENDBRANCH  14  19
ENDBRANCH   8   9
BRANCH   8  22
HETATM   22  C   UNL     1      -9.965   9.926  70.056  1.00  0.00    -0.254 C  
HETATM   23  H   UNL     1      -9.216   8.354  70.883  1.00  0.00     0.000 HD 
HETATM   24  O   UNL     1      -9.871   8.524  70.216  1.00  0.00    -0.178 OA 
ENDBRANCH   8  22
ENDBRANCH   6   8
ENDBRANCH   4   6
ENDBRANCH   3   4
TORSDOF 7
ENDMDL
MODEL       70
REMARK 921   NORMALIZED FREE ENERGY PREDICTED BY IDOCK:   -4.10 KCAL/MOL
REMARK 922        TOTAL FREE ENERGY PREDICTED BY IDOCK:   -7.30 KCAL/MOL
REMARK 923 INTER-LIGAND FREE ENERGY PREDICTED BY IDOCK:   -6.18 KCAL/MOL
REMARK 924 INTRA-LIGAND FREE ENERGY PREDICTED BY IDOCK:   -1.13 KCAL/MOL
REMARK 927      BINDING AFFINITY PREDICTED BY RF-SCORE:    0.00 PKD
ROOT
HETATM    1  O   UNL     1      -9.314  19.757  67.834  1.00  0.00    -0.327 OA 
HETATM    2  H   UNL     1      -8.571  20.343  67.911  1.00  0.00     0.000 HD 
HETATM    3  C   UNL     1      -9.479  19.166  69.102  1.00  0.00    -0.221 C  
ENDROOT
BRANCH   3   4
HETATM    4  N   UNL     1     -10.591  18.288  68.987  1.00  0.00    -0.309 N  
HETATM    5  H   UNL     1     -11.492  18.554  69.385  1.00  0.00     0.000 HD 
BRANCH   4   6
HETATM    6  C   UNL     1     -10.458  17.091  68.349  1.00  0.00    -0.370 C  
HETATM    7  O   UNL     1     -10.370  17.020  67.125  1.00  0.00    -0.301 OA 
BRANCH   6   8
HETATM    8  N   UNL     1     -10.364  15.976  69.157  1.00  0.00    -0.230 N  
BRANCH   8   9
HETATM    9  C   UNL     1     -11.573  15.524  69.814  1.00  0.00    -0.334 C  
HETATM   10  O   UNL     1     -11.295  16.864  71.885  1.00  0.00     0.023 OA 
HETATM   11  N   UNL     1     -11.738  14.091  69.897  1.00  0.00    -0.296 N  
HETATM   12  C   UNL     1     -11.703  15.856  71.318  1.00  0.00    -0.448 C  
HETATM   13  O   UNL     1     -12.859  12.651  71.324  1.00  0.00    -0.355 OA 
HETATM   14  N   UNL     1     -12.397  14.837  71.902  1.00  0.00    -0.335 N  
HETATM   15  C   UNL     1     -12.400  13.754  71.071  1.00  0.00    -0.372 C  
BRANCH  11  16
HETATM   16  C   UNL     1     -11.736  13.208  68.767  1.00  0.00    -0.324 C  
HETATM   17  H   UNL     1     -12.074  13.358  66.861  1.00  0.00     0.000 HD 
HETATM   18  O   UNL     1     -12.075  13.943  67.610  1.00  0.00    -0.377 OA 
ENDBRANCH  11  16
BRANCH  14  19
HETATM   19  C   UNL     1     -12.676  14.717  73.301  1.00  0.00    -0.440 C  
HETATM   20  O   UNL     1     -13.320  15.887  73.767  1.00  0.00    -0.772 OA 
HETATM   21  H   UNL     1     -13.505  15.807  74.695  1.00  0.00     0.000 HD 
ENDBRANCH  14  19
ENDBRANCH   8   9
BRANCH   8  22
HETATM   22  C   UNL     1      -9.114  15.384  69.574  1.00  0.00    -0.231 C  
HETATM   23  H   UNL     1      -7.774  14.271  68.750  1.00  0.00     0.000 HD 
HETATM   24  O   UNL     1      -8.596  14.660  68.475  1.00  0.00    -0.159 OA 
ENDBRANCH   8  22
ENDBRANCH   6   8
ENDBRANCH   4   6
ENDBRANCH   3   4
TORSDOF 7
ENDMDL
MODEL       71
REMARK 921   NORMALIZED FREE ENERGY PREDICTED BY IDOCK:   -4.09 KCAL/MOL
REMARK 922        TOTAL FREE ENERGY PREDICTED BY IDOCK:   -7.30 KCAL/MOL
REMARK 923 INTER-LIGAND FREE ENERGY PREDICTED BY IDOCK:   -5.57 KCAL/MOL
REMARK 924 INTRA-LIGAND FREE ENERGY PREDICTED BY IDOCK:   -1.73 KCAL/MOL
REMARK 927      BINDING AFFINITY PREDICTED BY RF-SCORE:    0.00 PKD
ROOT
HETATM    1  O   UNL     1     -13.705   8.883  73.218  1.00  0.00    -1.085 OA 
HETATM    2  H   UNL     1     -14.374   8.849  73.891  1.00  0.00     0.000 HD 
HETATM    3  C   UNL     1     -14.377   8.721  71.990  1.00  0.00    -0.377 C  
ENDROOT
BRANCH   3   4
HETATM    4  N   UNL     1     -13.375   8.771  70.982  1.00  0.00    -0.528 N  
HETATM    5  H   UNL     1     -13.446   8.164  70.165  1.00  0.00     0.000 HD 
BRANCH   4   6
HETATM    6  C   UNL     1     -12.322   9.628  71.103  1.00  0.00    -0.339 C  
HETATM    7  O   UNL     1     -12.487  10.823  71.336  1.00  0.00    -0.369 OA 
BRANCH   6   8
HETATM    8  N   UNL     1     -11.065   9.064  71.015  1.00  0.00    -0.266 N  
BRANCH   8   9
HETATM    9  C   UNL     1     -10.591   8.696  69.696  1.00  0.00    -0.218 C  
HETATM   10  O   UNL     1     -11.330   6.328  69.773  1.00  0.00    -0.405 OA 
HETATM   11  N   UNL     1      -9.209   9.014  69.421  1.00  0.00    -0.147 N  
HETATM   12  C   UNL     1     -10.545   7.185  69.379  1.00  0.00    -0.233 C  
HETATM   13  O   UNL     1      -7.579   8.159  68.012  1.00  0.00    -0.101 OA 
HETATM   14  N   UNL     1      -9.490   6.975  68.541  1.00  0.00    -0.135 N  
HETATM   15  C   UNL     1      -8.657   8.056  68.578  1.00  0.00    -0.128 C  
BRANCH  11  16
HETATM   16  C   UNL     1      -8.643  10.328  69.521  1.00  0.00    -0.138 C  
HETATM   17  H   UNL     1      -7.263  11.191  70.580  1.00  0.00     0.000 HD 
HETATM   18  O   UNL     1      -7.638  10.320  70.513  1.00  0.00    -0.212 OA 
ENDBRANCH  11  16
BRANCH  14  19
HETATM   19  C   UNL     1      -9.051   5.700  68.059  1.00  0.00    -0.107 C  
HETATM   20  O   UNL     1      -7.891   5.294  68.759  1.00  0.00    -0.082 OA 
HETATM   21  H   UNL     1      -7.599   4.448  68.440  1.00  0.00     0.000 HD 
ENDBRANCH  14  19
ENDBRANCH   8   9
BRANCH   8  22
HETATM   22  C   UNL     1     -10.304   8.604  72.152  1.00  0.00    -0.333 C  
HETATM   23  H   UNL     1     -10.628   7.420  73.639  1.00  0.00     0.000 HD 
HETATM   24  O   UNL     1     -11.128   7.722  72.890  1.00  0.00    -0.368 OA 
ENDBRANCH   8  22
ENDBRANCH   6   8
ENDBRANCH   4   6
ENDBRANCH   3   4
TORSDOF 7
ENDMDL
MODEL       72
REMARK 921   NORMALIZED FREE ENERGY PREDICTED BY IDOCK:   -4.09 KCAL/MOL
REMARK 922        TOTAL FREE ENERGY PREDICTED BY IDOCK:   -7.30 KCAL/MOL
REMARK 923 INTER-LIGAND FREE ENERGY PREDICTED BY IDOCK:   -5.93 KCAL/MOL
REMARK 924 INTRA-LIGAND FREE ENERGY PREDICTED BY IDOCK:   -1.37 KCAL/MOL
REMARK 927      BINDING AFFINITY PREDICTED BY RF-SCORE:    0.00 PKD
ROOT
HETATM    1  O   UNL     1      -9.902   5.458  67.133  1.00  0.00    -0.135 OA 
HETATM    2  H   UNL     1      -9.990   4.868  66.394  1.00  0.00     0.000 HD 
HETATM    3  C   UNL     1     -10.998   6.341  67.062  1.00  0.00    -0.364 C  
ENDROOT
BRANCH   3   4
HETATM    4  N   UNL     1     -10.865   7.224  68.169  1.00  0.00    -0.426 N  
HETATM    5  H   UNL     1     -10.963   8.230  68.030  1.00  0.00     0.000 HD 
BRANCH   4   6
HETATM    6  C   UNL     1     -10.608   6.731  69.413  1.00  0.00    -0.233 C  
HETATM    7  O   UNL     1     -11.017   5.628  69.767  1.00  0.00    -0.345 OA 
BRANCH   6   8
HETATM    8  N   UNL     1      -9.810   7.512  70.225  1.00  0.00    -0.183 N  
BRANCH   8   9
HETATM    9  C   UNL     1     -10.452   8.586  70.956  1.00  0.00    -0.212 C  
HETATM   10  O   UNL     1     -12.092   7.171  72.169  1.00  0.00    -0.292 OA 
HETATM   11  N   UNL     1     -10.908   9.698  70.155  1.00  0.00    -0.259 N  
HETATM   12  C   UNL     1     -11.787   8.241  71.652  1.00  0.00    -0.299 C  
HETATM   13  O   UNL     1     -12.567  11.301  70.371  1.00  0.00    -0.270 OA 
HETATM   14  N   UNL     1     -12.562   9.363  71.626  1.00  0.00    -0.349 N  
HETATM   15  C   UNL     1     -12.064  10.239  70.705  1.00  0.00    -0.338 C  
BRANCH  11  16
HETATM   16  C   UNL     1     -10.070  10.468  69.284  1.00  0.00    -0.224 C  
HETATM   17  H   UNL     1      -9.850  10.684  67.367  1.00  0.00     0.000 HD 
HETATM   18  O   UNL     1     -10.405  10.174  67.944  1.00  0.00    -0.170 OA 
ENDBRANCH  11  16
BRANCH  14  19
HETATM   19  C   UNL     1     -13.909   9.455  72.104  1.00  0.00    -0.365 C  
HETATM   20  O   UNL     1     -13.977   9.007  73.444  1.00  0.00    -1.220 OA 
HETATM   21  H   UNL     1     -14.870   9.068  73.761  1.00  0.00     0.000 HD 
ENDBRANCH  14  19
ENDBRANCH   8   9
BRANCH   8  22
HETATM   22  C   UNL     1      -8.366   7.484  70.207  1.00  0.00    -0.133 C  
HETATM   23  H   UNL     1      -7.017   6.720  69.062  1.00  0.00     0.000 HD 
HETATM   24  O   UNL     1      -7.967   6.739  69.073  1.00  0.00    -0.112 OA 
ENDBRANCH   8  22
ENDBRANCH   6   8
ENDBRANCH   4   6
ENDBRANCH   3   4
TORSDOF 7
ENDMDL
MODEL       73
REMARK 921   NORMALIZED FREE ENERGY PREDICTED BY IDOCK:   -4.09 KCAL/MOL
REMARK 922        TOTAL FREE ENERGY PREDICTED BY IDOCK:   -7.29 KCAL/MOL
REMARK 923 INTER-LIGAND FREE ENERGY PREDICTED BY IDOCK:   -6.08 KCAL/MOL
REMARK 924 INTRA-LIGAND FREE ENERGY PREDICTED BY IDOCK:   -1.21 KCAL/MOL
REMARK 927      BINDING AFFINITY PREDICTED BY RF-SCORE:    0.00 PKD
ROOT
HETATM    1  O   UNL     1     -14.311   8.706  73.035  1.00  0.00    -1.043 OA 
HETATM    2  H   UNL     1     -15.067   9.235  72.811  1.00  0.00     0.000 HD 
HETATM    3  C   UNL     1     -13.217   9.279  72.357  1.00  0.00    -0.426 C  
ENDROOT
BRANCH   3   4
HETATM    4  N   UNL     1     -12.085   8.486  72.692  1.00  0.00    -0.436 N  
HETATM    5  H   UNL     1     -11.532   8.714  73.518  1.00  0.00     0.000 HD 
BRANCH   4   6
HETATM    6  C   UNL     1     -11.736   7.424  71.913  1.00  0.00    -0.288 C  
HETATM    7  O   UNL     1     -12.581   6.676  71.427  1.00  0.00    -0.325 OA 
BRANCH   6   8
HETATM    8  N   UNL     1     -10.389   7.278  71.649  1.00  0.00    -0.197 N  
BRANCH   8   9
HETATM    9  C   UNL     1      -9.923   7.653  70.329  1.00  0.00    -0.189 C  
HETATM   10  O   UNL     1     -10.391  10.082  70.537  1.00  0.00    -0.272 OA 
HETATM   11  N   UNL     1     -10.487   6.898  69.234  1.00  0.00    -0.205 N  
HETATM   12  C   UNL     1     -10.297   9.072  69.846  1.00  0.00    -0.207 C  
HETATM   13  O   UNL     1     -10.868   7.311  66.985  1.00  0.00    -0.357 OA 
HETATM   14  N   UNL     1     -10.466   9.011  68.494  1.00  0.00    -0.211 N  
HETATM   15  C   UNL     1     -10.614   7.709  68.112  1.00  0.00    -0.130 C  
BRANCH  11  16
HETATM   16  C   UNL     1     -10.423   5.471  69.114  1.00  0.00    -0.244 C  
HETATM   17  H   UNL     1      -9.032   4.116  69.141  1.00  0.00     0.000 HD 
HETATM   18  O   UNL     1      -9.075   5.062  69.221  1.00  0.00    -0.097 OA 
ENDBRANCH  11  16
BRANCH  14  19
HETATM   19  C   UNL     1     -10.888  10.096  67.660  1.00  0.00    -0.290 C  
HETATM   20  O   UNL     1     -12.040  10.707  68.208  1.00  0.00    -0.817 OA 
HETATM   21  H   UNL     1     -12.320  11.426  67.655  1.00  0.00     0.000 HD 
ENDBRANCH  14  19
ENDBRANCH   8   9
BRANCH   8  22
HETATM   22  C   UNL     1      -9.472   6.561  72.504  1.00  0.00    -0.144 C  
HETATM   23  H   UNL     1      -8.859   6.739  74.323  1.00  0.00     0.000 HD 
HETATM   24  O   UNL     1      -9.463   7.210  73.761  1.00  0.00    -0.200 OA 
ENDBRANCH   8  22
ENDBRANCH   6   8
ENDBRANCH   4   6
ENDBRANCH   3   4
TORSDOF 7
ENDMDL
MODEL       74
REMARK 921   NORMALIZED FREE ENERGY PREDICTED BY IDOCK:   -4.06 KCAL/MOL
REMARK 922        TOTAL FREE ENERGY PREDICTED BY IDOCK:   -7.25 KCAL/MOL
REMARK 923 INTER-LIGAND FREE ENERGY PREDICTED BY IDOCK:   -6.21 KCAL/MOL
REMARK 924 INTRA-LIGAND FREE ENERGY PREDICTED BY IDOCK:   -1.03 KCAL/MOL
REMARK 927      BINDING AFFINITY PREDICTED BY RF-SCORE:    0.00 PKD
ROOT
HETATM    1  O   UNL     1     -11.701  10.025  68.811  1.00  0.00    -0.501 OA 
HETATM    2  H   UNL     1     -11.694   9.678  69.695  1.00  0.00     0.000 HD 
HETATM    3  C   UNL     1     -11.836  11.421  68.939  1.00  0.00    -0.347 C  
ENDROOT
BRANCH   3   4
HETATM    4  N   UNL     1     -11.845  11.940  67.615  1.00  0.00    -0.265 N  
HETATM    5  H   UNL     1     -11.864  11.302  66.819  1.00  0.00     0.000 HD 
BRANCH   4   6
HETATM    6  C   UNL     1     -11.828  13.286  67.405  1.00  0.00    -0.366 C  
HETATM    7  O   UNL     1     -12.130  14.081  68.293  1.00  0.00    -0.355 OA 
BRANCH   6   8
HETATM    8  N   UNL     1     -11.391  13.705  66.164  1.00  0.00    -0.307 N  
BRANCH   8   9
HETATM    9  C   UNL     1     -10.035  14.207  66.070  1.00  0.00    -0.322 C  
HETATM   10  O   UNL     1      -8.907  12.154  66.889  1.00  0.00    -0.192 OA 
HETATM   11  N   UNL     1      -9.795  15.474  66.722  1.00  0.00    -0.235 N  
HETATM   12  C   UNL     1      -8.943  13.375  66.777  1.00  0.00    -0.179 C  
HETATM   13  O   UNL     1      -7.944  16.513  67.651  1.00  0.00    -0.157 OA 
HETATM   14  N   UNL     1      -7.993  14.245  67.226  1.00  0.00    -0.191 N  
HETATM   15  C   UNL     1      -8.501  15.512  67.229  1.00  0.00    -0.193 C  
BRANCH  11  16
HETATM   16  C   UNL     1     -10.518  16.680  66.443  1.00  0.00    -0.266 C  
HETATM   17  H   UNL     1     -10.904  17.761  64.876  1.00  0.00     0.000 HD 
HETATM   18  O   UNL     1     -10.425  16.961  65.062  1.00  0.00    -0.675 OA 
ENDBRANCH  11  16
BRANCH  14  19
HETATM   19  C   UNL     1      -6.840  13.892  67.999  1.00  0.00    -0.144 C  
HETATM   20  O   UNL     1      -7.235  13.177  69.154  1.00  0.00    -0.260 OA 
HETATM   21  H   UNL     1      -6.471  12.943  69.667  1.00  0.00     0.000 HD 
ENDBRANCH  14  19
ENDBRANCH   8   9
BRANCH   8  22
HETATM   22  C   UNL     1     -12.257  13.898  65.025  1.00  0.00    -0.425 C  
HETATM   23  H   UNL     1     -13.667  12.892  64.180  1.00  0.00     0.000 HD 
HETATM   24  O   UNL     1     -13.097  12.765  64.929  1.00  0.00    -0.833 OA 
ENDBRANCH   8  22
ENDBRANCH   6   8
ENDBRANCH   4   6
ENDBRANCH   3   4
TORSDOF 7
ENDMDL
MODEL       75
REMARK 921   NORMALIZED FREE ENERGY PREDICTED BY IDOCK:   -4.02 KCAL/MOL
REMARK 922        TOTAL FREE ENERGY PREDICTED BY IDOCK:   -7.20 KCAL/MOL
REMARK 923 INTER-LIGAND FREE ENERGY PREDICTED BY IDOCK:   -6.15 KCAL/MOL
REMARK 924 INTRA-LIGAND FREE ENERGY PREDICTED BY IDOCK:   -1.05 KCAL/MOL
REMARK 927      BINDING AFFINITY PREDICTED BY RF-SCORE:    0.00 PKD
ROOT
HETATM    1  O   UNL     1     -10.267  10.102  64.184  1.00  0.00    -0.450 OA 
HETATM    2  H   UNL     1      -9.662   9.897  63.482  1.00  0.00     0.000 HD 
HETATM    3  C   UNL     1     -10.000  11.434  64.556  1.00  0.00    -0.271 C  
ENDROOT
BRANCH   3   4
HETATM    4  N   UNL     1     -10.906  11.740  65.608  1.00  0.00    -0.286 N  
HETATM    5  H   UNL     1     -11.663  12.405  65.449  1.00  0.00     0.000 HD 
BRANCH   4   6
HETATM    6  C   UNL     1     -10.768  11.147  66.827  1.00  0.00    -0.276 C  
HETATM    7  O   UNL     1     -10.743   9.924  66.950  1.00  0.00    -0.203 OA 
BRANCH   6   8
HETATM    8  N   UNL     1     -10.592  11.996  67.902  1.00  0.00    -0.196 N  
BRANCH   8   9
HETATM    9  C   UNL     1     -11.783  12.509  68.547  1.00  0.00    -0.324 C  
HETATM   10  O   UNL     1     -11.326  14.913  68.132  1.00  0.00    -0.285 OA 
HETATM   11  N   UNL     1     -12.013  12.038  69.894  1.00  0.00    -0.328 N  
HETATM   12  C   UNL     1     -11.813  14.028  68.828  1.00  0.00    -0.361 C  
HETATM   13  O   UNL     1     -13.120  12.867  71.753  1.00  0.00    -0.399 OA 
HETATM   14  N   UNL     1     -12.521  14.217  69.978  1.00  0.00    -0.335 N  
HETATM   15  C   UNL     1     -12.623  13.032  70.649  1.00  0.00    -0.193 C  
BRANCH  11  16
HETATM   16  C   UNL     1     -12.116  10.657  70.263  1.00  0.00    -0.338 C  
HETATM   17  H   UNL     1     -10.926   9.295  70.971  1.00  0.00     0.000 HD 
HETATM   18  O   UNL     1     -10.858  10.211  70.726  1.00  0.00    -0.307 OA 
ENDBRANCH  11  16
BRANCH  14  19
HETATM   19  C   UNL     1     -12.728  15.474  70.631  1.00  0.00    -0.436 C  
HETATM   20  O   UNL     1     -14.099  15.640  70.935  1.00  0.00    -0.821 OA 
HETATM   21  H   UNL     1     -14.236  16.474  71.368  1.00  0.00     0.000 HD 
ENDBRANCH  14  19
ENDBRANCH   8   9
BRANCH   8  22
HETATM   22  C   UNL     1      -9.326  12.587  68.266  1.00  0.00    -0.193 C  
HETATM   23  H   UNL     1      -7.493  12.371  67.709  1.00  0.00     0.000 HD 
HETATM   24  O   UNL     1      -8.326  11.982  67.469  1.00  0.00    -0.148 OA 
ENDBRANCH   8  22
ENDBRANCH   6   8
ENDBRANCH   4   6
ENDBRANCH   3   4
TORSDOF 7
ENDMDL
MODEL       76
REMARK 921   NORMALIZED FREE ENERGY PREDICTED BY IDOCK:   -4.01 KCAL/MOL
REMARK 922        TOTAL FREE ENERGY PREDICTED BY IDOCK:   -7.19 KCAL/MOL
REMARK 923 INTER-LIGAND FREE ENERGY PREDICTED BY IDOCK:   -6.39 KCAL/MOL
REMARK 924 INTRA-LIGAND FREE ENERGY PREDICTED BY IDOCK:   -0.79 KCAL/MOL
REMARK 927      BINDING AFFINITY PREDICTED BY RF-SCORE:    0.00 PKD
ROOT
HETATM    1  O   UNL     1     -11.547  16.298  63.726  1.00  0.00    -1.539 OA 
HETATM    2  H   UNL     1     -12.056  16.912  63.212  1.00  0.00     0.000 HD 
HETATM    3  C   UNL     1     -12.374  15.176  63.930  1.00  0.00     0.187 C  
ENDROOT
BRANCH   3   4
HETATM    4  N   UNL     1     -11.611  14.257  64.701  1.00  0.00    -0.403 N  
HETATM    5  H   UNL     1     -10.697  14.532  65.061  1.00  0.00     0.000 HD 
BRANCH   4   6
HETATM    6  C   UNL     1     -12.096  13.010  64.960  1.00  0.00    -0.427 C  
HETATM    7  O   UNL     1     -13.282  12.733  64.798  1.00  0.00    -0.812 OA 
BRANCH   6   8
HETATM    8  N   UNL     1     -11.169  12.064  65.350  1.00  0.00    -0.325 N  
BRANCH   8   9
HETATM    9  C   UNL     1     -10.606  12.190  66.679  1.00  0.00    -0.235 C  
HETATM   10  O   UNL     1      -9.124  14.118  66.185  1.00  0.00    -0.127 OA 
HETATM   11  N   UNL     1     -10.054  10.978  67.238  1.00  0.00    -0.185 N  
HETATM   12  C   UNL     1      -9.360  13.093  66.815  1.00  0.00    -0.244 C  
HETATM   13  O   UNL     1      -8.419  10.494  68.807  1.00  0.00    -0.125 OA 
HETATM   14  N   UNL     1      -8.579  12.565  67.801  1.00  0.00    -0.166 N  
HETATM   15  C   UNL     1      -8.964  11.278  68.046  1.00  0.00    -0.156 C  
BRANCH  11  16
HETATM   16  C   UNL     1     -10.783   9.754  67.401  1.00  0.00    -0.249 C  
HETATM   17  H   UNL     1     -10.607   7.917  66.797  1.00  0.00     0.000 HD 
HETATM   18  O   UNL     1     -10.124   8.728  66.689  1.00  0.00    -0.258 OA 
ENDBRANCH  11  16
BRANCH  14  19
HETATM   19  C   UNL     1      -7.295  13.058  68.198  1.00  0.00    -0.118 C  
HETATM   20  O   UNL     1      -6.482  13.259  67.057  1.00  0.00    -0.460 OA 
HETATM   21  H   UNL     1      -5.630  13.586  67.320  1.00  0.00     0.000 HD 
ENDBRANCH  14  19
ENDBRANCH   8   9
BRANCH   8  22
HETATM   22  C   UNL     1     -10.555  11.116  64.450  1.00  0.00    -0.343 C  
HETATM   23  H   UNL     1      -9.820  11.182  62.670  1.00  0.00     0.000 HD 
HETATM   24  O   UNL     1     -10.223  11.806  63.261  1.00  0.00    -0.412 OA 
ENDBRANCH   8  22
ENDBRANCH   6   8
ENDBRANCH   4   6
ENDBRANCH   3   4
TORSDOF 7
ENDMDL
MODEL       77
REMARK 921   NORMALIZED FREE ENERGY PREDICTED BY IDOCK:   -4.01 KCAL/MOL
REMARK 922        TOTAL FREE ENERGY PREDICTED BY IDOCK:   -7.19 KCAL/MOL
REMARK 923 INTER-LIGAND FREE ENERGY PREDICTED BY IDOCK:   -5.68 KCAL/MOL
REMARK 924 INTRA-LIGAND FREE ENERGY PREDICTED BY IDOCK:   -1.51 KCAL/MOL
REMARK 927      BINDING AFFINITY PREDICTED BY RF-SCORE:    0.00 PKD
ROOT
HETATM    1  O   UNL     1     -11.340  13.999  70.016  1.00  0.00    -0.432 OA 
HETATM    2  H   UNL     1     -11.722  13.738  70.845  1.00  0.00     0.000 HD 
HETATM    3  C   UNL     1     -12.410  14.447  69.216  1.00  0.00    -0.153 C  
ENDROOT
BRANCH   3   4
HETATM    4  N   UNL     1     -11.837  14.838  67.974  1.00  0.00    -0.480 N  
HETATM    5  H   UNL     1     -11.366  15.738  67.893  1.00  0.00     0.000 HD 
BRANCH   4   6
HETATM    6  C   UNL     1     -11.918  14.013  66.892  1.00  0.00    -0.447 C  
HETATM    7  O   UNL     1     -12.838  14.100  66.082  1.00  0.00    -0.377 OA 
BRANCH   6   8
HETATM    8  N   UNL     1     -10.876  13.122  66.726  1.00  0.00    -0.274 N  
BRANCH   8   9
HETATM    9  C   UNL     1     -11.208  11.713  66.666  1.00  0.00    -0.299 C  
HETATM   10  O   UNL     1     -11.189  11.307  69.115  1.00  0.00    -0.230 OA 
HETATM   11  N   UNL     1     -10.377  10.915  65.794  1.00  0.00    -0.251 N  
HETATM   12  C   UNL     1     -11.014  10.905  67.969  1.00  0.00    -0.265 C  
HETATM   13  O   UNL     1      -9.758   8.684  65.711  1.00  0.00    -0.167 OA 
HETATM   14  N   UNL     1     -10.648   9.640  67.614  1.00  0.00    -0.262 N  
HETATM   15  C   UNL     1     -10.231   9.635  66.314  1.00  0.00    -0.216 C  
BRANCH  11  16
HETATM   16  C   UNL     1     -10.183  11.175  64.398  1.00  0.00    -0.330 C  
HETATM   17  H   UNL     1     -11.290  11.717  62.898  1.00  0.00     0.000 HD 
HETATM   18  O   UNL     1     -11.419  11.545  63.824  1.00  0.00    -0.402 OA 
ENDBRANCH  11  16
BRANCH  14  19
HETATM   19  C   UNL     1     -10.301   8.589  68.523  1.00  0.00    -0.198 C  
HETATM   20  O   UNL     1     -11.011   7.411  68.190  1.00  0.00    -0.441 OA 
HETATM   21  H   UNL     1     -10.781   6.714  68.793  1.00  0.00     0.000 HD 
ENDBRANCH  14  19
ENDBRANCH   8   9
BRANCH   8  22
HETATM   22  C   UNL     1      -9.482  13.477  66.847  1.00  0.00    -0.258 C  
HETATM   23  H   UNL     1      -8.287  13.890  68.303  1.00  0.00     0.000 HD 
HETATM   24  O   UNL     1      -9.204  13.656  68.223  1.00  0.00    -0.196 OA 
ENDBRANCH   8  22
ENDBRANCH   6   8
ENDBRANCH   4   6
ENDBRANCH   3   4
TORSDOF 7
ENDMDL
MODEL       78
REMARK 921   NORMALIZED FREE ENERGY PREDICTED BY IDOCK:   -3.98 KCAL/MOL
REMARK 922        TOTAL FREE ENERGY PREDICTED BY IDOCK:   -7.14 KCAL/MOL
REMARK 923 INTER-LIGAND FREE ENERGY PREDICTED BY IDOCK:   -6.11 KCAL/MOL
REMARK 924 INTRA-LIGAND FREE ENERGY PREDICTED BY IDOCK:   -1.03 KCAL/MOL
REMARK 927      BINDING AFFINITY PREDICTED BY RF-SCORE:    0.00 PKD
ROOT
HETATM    1  O   UNL     1     -12.067  12.256  66.542  1.00  0.00    -0.616 OA 
HETATM    2  H   UNL     1     -12.710  11.650  66.889  1.00  0.00     0.000 HD 
HETATM    3  C   UNL     1     -11.692  13.088  67.616  1.00  0.00    -0.366 C  
ENDROOT
BRANCH   3   4
HETATM    4  N   UNL     1     -10.729  13.995  67.096  1.00  0.00    -0.282 N  
HETATM    5  H   UNL     1      -9.867  13.639  66.682  1.00  0.00     0.000 HD 
BRANCH   4   6
HETATM    6  C   UNL     1     -10.954  15.338  67.148  1.00  0.00    -0.331 C  
HETATM    7  O   UNL     1     -11.519  15.861  68.106  1.00  0.00    -0.350 OA 
BRANCH   6   8
HETATM    8  N   UNL     1     -10.452  16.082  66.098  1.00  0.00    -0.319 N  
BRANCH   8   9
HETATM    9  C   UNL     1      -9.357  16.985  66.384  1.00  0.00    -0.270 C  
HETATM   10  O   UNL     1      -7.723  15.250  67.078  1.00  0.00    -0.208 OA 
HETATM   11  N   UNL     1      -9.670  18.080  67.273  1.00  0.00    -0.289 N  
HETATM   12  C   UNL     1      -8.162  16.392  67.164  1.00  0.00    -0.180 C  
HETATM   13  O   UNL     1      -8.454  19.400  68.740  1.00  0.00    -0.366 OA 
HETATM   14  N   UNL     1      -7.651  17.387  67.945  1.00  0.00    -0.190 N  
HETATM   15  C   UNL     1      -8.561  18.399  68.047  1.00  0.00    -0.272 C  
BRANCH  11  16
HETATM   16  C   UNL     1     -10.716  19.035  67.047  1.00  0.00    -0.432 C  
HETATM   17  H   UNL     1     -11.228  20.254  65.624  1.00  0.00     0.000 HD 
HETATM   18  O   UNL     1     -10.535  19.621  65.775  1.00  0.00    -0.495 OA 
ENDBRANCH  11  16
BRANCH  14  19
HETATM   19  C   UNL     1      -6.577  17.240  68.881  1.00  0.00    -0.212 C  
HETATM   20  O   UNL     1      -5.701  18.348  68.787  1.00  0.00    -0.189 OA 
HETATM   21  H   UNL     1      -4.989  18.251  69.408  1.00  0.00     0.000 HD 
ENDBRANCH  14  19
ENDBRANCH   8   9
BRANCH   8  22
HETATM   22  C   UNL     1     -11.095  16.195  64.810  1.00  0.00    -0.333 C  
HETATM   23  H   UNL     1     -12.339  15.132  63.792  1.00  0.00     0.000 HD 
HETATM   24  O   UNL     1     -11.917  15.057  64.639  1.00  0.00    -0.414 OA 
ENDBRANCH   8  22
ENDBRANCH   6   8
ENDBRANCH   4   6
ENDBRANCH   3   4
TORSDOF 7
ENDMDL
MODEL       79
REMARK 921   NORMALIZED FREE ENERGY PREDICTED BY IDOCK:   -3.98 KCAL/MOL
REMARK 922        TOTAL FREE ENERGY PREDICTED BY IDOCK:   -7.14 KCAL/MOL
REMARK 923 INTER-LIGAND FREE ENERGY PREDICTED BY IDOCK:   -5.65 KCAL/MOL
REMARK 924 INTRA-LIGAND FREE ENERGY PREDICTED BY IDOCK:   -1.49 KCAL/MOL
REMARK 927      BINDING AFFINITY PREDICTED BY RF-SCORE:    0.00 PKD
ROOT
HETATM    1  O   UNL     1      -7.735  10.901  64.491  1.00  0.00    -0.344 OA 
HETATM    2  H   UNL     1      -6.800  10.840  64.337  1.00  0.00     0.000 HD 
HETATM    3  C   UNL     1      -8.214   9.577  64.523  1.00  0.00    -0.152 C  
ENDROOT
BRANCH   3   4
HETATM    4  N   UNL     1      -9.614   9.669  64.754  1.00  0.00    -0.435 N  
HETATM    5  H   UNL     1     -10.132   8.848  65.070  1.00  0.00     0.000 HD 
BRANCH   4   6
HETATM    6  C   UNL     1     -10.267  10.848  64.554  1.00  0.00    -0.356 C  
HETATM    7  O   UNL     1     -10.551  11.244  63.426  1.00  0.00    -0.375 OA 
BRANCH   6   8
HETATM    8  N   UNL     1     -10.645  11.536  65.690  1.00  0.00    -0.267 N  
BRANCH   8   9
HETATM    9  C   UNL     1     -10.299  12.941  65.765  1.00  0.00    -0.284 C  
HETATM   10  O   UNL     1      -8.157  12.648  66.983  1.00  0.00    -0.162 OA 
HETATM   11  N   UNL     1     -11.324  13.806  66.301  1.00  0.00    -0.314 N  
HETATM   12  C   UNL     1      -9.154  13.317  66.731  1.00  0.00    -0.210 C  
HETATM   13  O   UNL     1     -11.336  15.847  67.399  1.00  0.00    -0.202 OA 
HETATM   14  N   UNL     1      -9.430  14.556  67.229  1.00  0.00    -0.211 N  
HETATM   15  C   UNL     1     -10.743  14.853  67.006  1.00  0.00    -0.307 C  
BRANCH  11  16
HETATM   16  C   UNL     1     -12.652  13.914  65.773  1.00  0.00    -0.494 C  
HETATM   17  H   UNL     1     -13.457  14.186  64.027  1.00  0.00     0.000 HD 
HETATM   18  O   UNL     1     -12.577  14.114  64.377  1.00  0.00    -0.658 OA 
ENDBRANCH  11  16
BRANCH  14  19
HETATM   19  C   UNL     1      -8.656  15.247  68.216  1.00  0.00    -0.159 C  
HETATM   20  O   UNL     1      -8.469  14.420  69.348  1.00  0.00    -0.369 OA 
HETATM   21  H   UNL     1      -7.955  14.878  70.003  1.00  0.00     0.000 HD 
ENDBRANCH  14  19
ENDBRANCH   8   9
BRANCH   8  22
HETATM   22  C   UNL     1     -11.139  10.904  66.890  1.00  0.00    -0.167 C  
HETATM   23  H   UNL     1     -10.413   9.710  68.218  1.00  0.00     0.000 HD 
HETATM   24  O   UNL     1     -10.088  10.126  67.429  1.00  0.00    -0.185 OA 
ENDBRANCH   8  22
ENDBRANCH   6   8
ENDBRANCH   4   6
ENDBRANCH   3   4
TORSDOF 7
ENDMDL
MODEL       80
REMARK 921   NORMALIZED FREE ENERGY PREDICTED BY IDOCK:   -3.96 KCAL/MOL
REMARK 922        TOTAL FREE ENERGY PREDICTED BY IDOCK:   -7.10 KCAL/MOL
REMARK 923 INTER-LIGAND FREE ENERGY PREDICTED BY IDOCK:   -5.65 KCAL/MOL
REMARK 924 INTRA-LIGAND FREE ENERGY PREDICTED BY IDOCK:   -1.45 KCAL/MOL
REMARK 927      BINDING AFFINITY PREDICTED BY RF-SCORE:    0.00 PKD
ROOT
HETATM    1  O   UNL     1     -11.143  15.125  65.862  1.00  0.00    -0.339 OA 
HETATM    2  H   UNL     1     -11.399  15.930  65.428  1.00  0.00     0.000 HD 
HETATM    3  C   UNL     1     -10.691  14.259  64.848  1.00  0.00    -0.432 C  
ENDROOT
BRANCH   3   4
HETATM    4  N   UNL     1     -10.309  13.054  65.498  1.00  0.00    -0.290 N  
HETATM    5  H   UNL     1      -9.412  12.621  65.279  1.00  0.00     0.000 HD 
BRANCH   4   6
HETATM    6  C   UNL     1     -11.136  12.476  66.414  1.00  0.00    -0.290 C  
HETATM    7  O   UNL     1     -12.352  12.426  66.243  1.00  0.00    -0.577 OA 
BRANCH   6   8
HETATM    8  N   UNL     1     -10.525  11.894  67.507  1.00  0.00    -0.205 N  
BRANCH   8   9
HETATM    9  C   UNL     1     -11.223  10.805  68.159  1.00  0.00    -0.302 C  
HETATM   10  O   UNL     1     -12.246  12.158  69.971  1.00  0.00    -0.269 OA 
HETATM   11  N   UNL     1     -10.412   9.654  68.485  1.00  0.00    -0.205 N  
HETATM   12  C   UNL     1     -11.786  11.095  69.568  1.00  0.00    -0.353 C  
HETATM   13  O   UNL     1     -10.519   7.972  70.076  1.00  0.00    -0.218 OA 
HETATM   14  N   UNL     1     -11.719   9.934  70.281  1.00  0.00    -0.242 N  
HETATM   15  C   UNL     1     -10.869   9.066  69.658  1.00  0.00    -0.186 C  
BRANCH  11  16
HETATM   16  C   UNL     1      -9.641   8.909  67.534  1.00  0.00    -0.145 C  
HETATM   17  H   UNL     1     -10.002   7.843  65.952  1.00  0.00     0.000 HD 
HETATM   18  O   UNL     1     -10.513   8.337  66.582  1.00  0.00    -0.305 OA 
ENDBRANCH  11  16
BRANCH  14  19
HETATM   19  C   UNL     1     -12.076   9.783  71.660  1.00  0.00    -0.394 C  
HETATM   20  O   UNL     1     -13.102  10.697  71.995  1.00  0.00    -0.481 OA 
HETATM   21  H   UNL     1     -13.339  10.597  72.909  1.00  0.00     0.000 HD 
ENDBRANCH  14  19
ENDBRANCH   8   9
BRANCH   8  22
HETATM   22  C   UNL     1      -9.373  12.448  68.178  1.00  0.00    -0.209 C  
HETATM   23  H   UNL     1      -8.778  14.217  68.662  1.00  0.00     0.000 HD 
HETATM   24  O   UNL     1      -9.536  13.852  68.220  1.00  0.00    -0.209 OA 
ENDBRANCH   8  22
ENDBRANCH   6   8
ENDBRANCH   4   6
ENDBRANCH   3   4
TORSDOF 7
ENDMDL
MODEL       81
REMARK 921   NORMALIZED FREE ENERGY PREDICTED BY IDOCK:   -3.95 KCAL/MOL
REMARK 922        TOTAL FREE ENERGY PREDICTED BY IDOCK:   -7.09 KCAL/MOL
REMARK 923 INTER-LIGAND FREE ENERGY PREDICTED BY IDOCK:   -6.18 KCAL/MOL
REMARK 924 INTRA-LIGAND FREE ENERGY PREDICTED BY IDOCK:   -0.92 KCAL/MOL
REMARK 927      BINDING AFFINITY PREDICTED BY RF-SCORE:    0.00 PKD
ROOT
HETATM    1  O   UNL     1     -13.227  15.517  70.085  1.00  0.00    -0.680 OA 
HETATM    2  H   UNL     1     -13.136  15.922  70.939  1.00  0.00     0.000 HD 
HETATM    3  C   UNL     1     -11.971  15.637  69.459  1.00  0.00    -0.345 C  
ENDROOT
BRANCH   3   4
HETATM    4  N   UNL     1     -12.107  15.032  68.180  1.00  0.00    -0.544 N  
HETATM    5  H   UNL     1     -12.325  15.607  67.367  1.00  0.00     0.000 HD 
BRANCH   4   6
HETATM    6  C   UNL     1     -11.948  13.686  68.037  1.00  0.00    -0.350 C  
HETATM    7  O   UNL     1     -12.256  12.902  68.931  1.00  0.00    -0.213 OA 
BRANCH   6   8
HETATM    8  N   UNL     1     -11.483  13.253  66.811  1.00  0.00    -0.333 N  
BRANCH   8   9
HETATM    9  C   UNL     1     -10.058  13.347  66.568  1.00  0.00    -0.280 C  
HETATM   10  O   UNL     1      -9.352  11.815  68.389  1.00  0.00    -0.191 OA 
HETATM   11  N   UNL     1      -9.525  14.688  66.503  1.00  0.00    -0.282 N  
HETATM   12  C   UNL     1      -9.134  12.786  67.672  1.00  0.00    -0.193 C  
HETATM   13  O   UNL     1      -7.454  15.649  66.901  1.00  0.00    -0.209 OA 
HETATM   14  N   UNL     1      -8.001  13.546  67.681  1.00  0.00    -0.161 N  
HETATM   15  C   UNL     1      -8.230  14.711  67.007  1.00  0.00    -0.157 C  
BRANCH  11  16
HETATM   16  C   UNL     1      -9.988  15.702  65.603  1.00  0.00    -0.354 C  
HETATM   17  H   UNL     1     -10.960  17.378  65.747  1.00  0.00     0.000 HD 
HETATM   18  O   UNL     1     -10.652  16.705  66.344  1.00  0.00    -0.284 OA 
ENDBRANCH  11  16
BRANCH  14  19
HETATM   19  C   UNL     1      -6.914  13.408  68.603  1.00  0.00    -0.101 C  
HETATM   20  O   UNL     1      -7.258  12.485  69.619  1.00  0.00    -0.313 OA 
HETATM   21  H   UNL     1      -6.537  12.393  70.230  1.00  0.00     0.000 HD 
ENDBRANCH  14  19
ENDBRANCH   8   9
BRANCH   8  22
HETATM   22  C   UNL     1     -12.335  12.946  65.687  1.00  0.00    -0.423 C  
HETATM   23  H   UNL     1     -13.706  13.877  64.702  1.00  0.00     0.000 HD 
HETATM   24  O   UNL     1     -13.145  14.079  65.441  1.00  0.00    -0.763 OA 
ENDBRANCH   8  22
ENDBRANCH   6   8
ENDBRANCH   4   6
ENDBRANCH   3   4
TORSDOF 7
ENDMDL
MODEL       82
REMARK 921   NORMALIZED FREE ENERGY PREDICTED BY IDOCK:   -3.93 KCAL/MOL
REMARK 922        TOTAL FREE ENERGY PREDICTED BY IDOCK:   -7.06 KCAL/MOL
REMARK 923 INTER-LIGAND FREE ENERGY PREDICTED BY IDOCK:   -5.93 KCAL/MOL
REMARK 924 INTRA-LIGAND FREE ENERGY PREDICTED BY IDOCK:   -1.14 KCAL/MOL
REMARK 927      BINDING AFFINITY PREDICTED BY RF-SCORE:    0.00 PKD
ROOT
HETATM    1  O   UNL     1      -7.321  19.659  69.044  1.00  0.00    -0.355 OA 
HETATM    2  H   UNL     1      -6.836  20.476  69.035  1.00  0.00     0.000 HD 
HETATM    3  C   UNL     1      -6.850  18.912  67.946  1.00  0.00    -0.220 C  
ENDROOT
BRANCH   3   4
HETATM    4  N   UNL     1      -7.575  17.689  67.960  1.00  0.00    -0.219 N  
HETATM    5  H   UNL     1      -7.759  17.217  68.845  1.00  0.00     0.000 HD 
BRANCH   4   6
HETATM    6  C   UNL     1      -8.026  17.146  66.794  1.00  0.00    -0.235 C  
HETATM    7  O   UNL     1      -7.893  17.726  65.719  1.00  0.00    -0.541 OA 
BRANCH   6   8
HETATM    8  N   UNL     1      -8.578  15.884  66.883  1.00  0.00    -0.217 N  
BRANCH   8   9
HETATM    9  C   UNL     1      -9.999  15.796  67.153  1.00  0.00    -0.242 C  
HETATM   10  O   UNL     1      -9.801  15.175  69.548  1.00  0.00    -0.224 OA 
HETATM   11  N   UNL     1     -10.753  14.958  66.248  1.00  0.00    -0.312 N  
HETATM   12  C   UNL     1     -10.406  15.121  68.482  1.00  0.00    -0.230 C  
HETATM   13  O   UNL     1     -12.722  13.746  66.395  1.00  0.00    -0.334 OA 
HETATM   14  N   UNL     1     -11.591  14.481  68.269  1.00  0.00    -0.312 N  
HETATM   15  C   UNL     1     -11.800  14.346  66.926  1.00  0.00    -0.410 C  
BRANCH  11  16
HETATM   16  C   UNL     1     -10.789  15.128  64.826  1.00  0.00    -0.357 C  
HETATM   17  H   UNL     1     -11.000  16.610  63.588  1.00  0.00     0.000 HD 
HETATM   18  O   UNL     1     -10.976  16.497  64.531  1.00  0.00    -0.827 OA 
ENDBRANCH  11  16
BRANCH  14  19
HETATM   19  C   UNL     1     -12.283  13.671  69.226  1.00  0.00    -0.238 C  
HETATM   20  O   UNL     1     -11.353  12.924  69.987  1.00  0.00    -0.504 OA 
HETATM   21  H   UNL     1     -11.812  12.387  70.622  1.00  0.00     0.000 HD 
ENDBRANCH  14  19
ENDBRANCH   8   9
BRANCH   8  22
HETATM   22  C   UNL     1      -7.805  14.667  66.964  1.00  0.00    -0.021 C  
HETATM   23  H   UNL     1      -6.270  14.074  67.968  1.00  0.00     0.000 HD 
HETATM   24  O   UNL     1      -6.779  14.875  67.915  1.00  0.00    -0.128 OA 
ENDBRANCH   8  22
ENDBRANCH   6   8
ENDBRANCH   4   6
ENDBRANCH   3   4
TORSDOF 7
ENDMDL
MODEL       83
REMARK 921   NORMALIZED FREE ENERGY PREDICTED BY IDOCK:   -3.91 KCAL/MOL
REMARK 922        TOTAL FREE ENERGY PREDICTED BY IDOCK:   -7.04 KCAL/MOL
REMARK 923 INTER-LIGAND FREE ENERGY PREDICTED BY IDOCK:   -6.19 KCAL/MOL
REMARK 924 INTRA-LIGAND FREE ENERGY PREDICTED BY IDOCK:   -0.85 KCAL/MOL
REMARK 927      BINDING AFFINITY PREDICTED BY RF-SCORE:    0.00 PKD
ROOT
HETATM    1  O   UNL     1      -9.135  13.745  68.510  1.00  0.00    -0.246 OA 
HETATM    2  H   UNL     1      -8.755  13.378  69.299  1.00  0.00     0.000 HD 
HETATM    3  C   UNL     1      -8.405  13.204  67.434  1.00  0.00    -0.188 C  
ENDROOT
BRANCH   3   4
HETATM    4  N   UNL     1      -8.974  13.754  66.253  1.00  0.00    -0.465 N  
HETATM    5  H   UNL     1      -8.444  13.743  65.382  1.00  0.00     0.000 HD 
BRANCH   4   6
HETATM    6  C   UNL     1     -10.224  14.296  66.282  1.00  0.00    -0.301 C  
HETATM    7  O   UNL     1     -10.437  15.401  66.775  1.00  0.00    -0.286 OA 
BRANCH   6   8
HETATM    8  N   UNL     1     -11.221  13.562  65.669  1.00  0.00    -0.292 N  
BRANCH   8   9
HETATM    9  C   UNL     1     -11.784  12.453  66.412  1.00  0.00    -0.391 C  
HETATM   10  O   UNL     1     -12.270  13.714  68.494  1.00  0.00    -0.342 OA 
HETATM   11  N   UNL     1     -10.969  11.261  66.461  1.00  0.00    -0.272 N  
HETATM   12  C   UNL     1     -11.971  12.666  67.931  1.00  0.00    -0.249 C  
HETATM   13  O   UNL     1     -10.756   9.482  67.931  1.00  0.00    -0.250 OA 
HETATM   14  N   UNL     1     -11.781  11.460  68.538  1.00  0.00    -0.318 N  
HETATM   15  C   UNL     1     -11.149  10.610  67.676  1.00  0.00    -0.319 C  
BRANCH  11  16
HETATM   16  C   UNL     1     -10.488  10.558  65.308  1.00  0.00    -0.162 C  
HETATM   17  H   UNL     1      -8.803  10.397  64.357  1.00  0.00     0.000 HD 
HETATM   18  O   UNL     1      -9.122  10.863  65.122  1.00  0.00    -0.197 OA 
ENDBRANCH  11  16
BRANCH  14  19
HETATM   19  C   UNL     1     -11.794  11.229  69.951  1.00  0.00    -0.360 C  
HETATM   20  O   UNL     1     -10.566  10.656  70.358  1.00  0.00    -0.429 OA 
HETATM   21  H   UNL     1     -10.575  10.503  71.295  1.00  0.00     0.000 HD 
ENDBRANCH  14  19
ENDBRANCH   8   9
BRANCH   8  22
HETATM   22  C   UNL     1     -11.564  13.675  64.271  1.00  0.00    -0.382 C  
HETATM   23  H   UNL     1     -12.760  14.771  63.230  1.00  0.00     0.000 HD 
HETATM   24  O   UNL     1     -12.534  14.697  64.150  1.00  0.00    -0.736 OA 
ENDBRANCH   8  22
ENDBRANCH   6   8
ENDBRANCH   4   6
ENDBRANCH   3   4
TORSDOF 7
ENDMDL
MODEL       84
REMARK 921   NORMALIZED FREE ENERGY PREDICTED BY IDOCK:   -3.91 KCAL/MOL
REMARK 922        TOTAL FREE ENERGY PREDICTED BY IDOCK:   -7.04 KCAL/MOL
REMARK 923 INTER-LIGAND FREE ENERGY PREDICTED BY IDOCK:   -5.48 KCAL/MOL
REMARK 924 INTRA-LIGAND FREE ENERGY PREDICTED BY IDOCK:   -1.56 KCAL/MOL
REMARK 927      BINDING AFFINITY PREDICTED BY RF-SCORE:    0.00 PKD
ROOT
HETATM    1  O   UNL     1     -10.003  10.679  69.845  1.00  0.00    -0.430 OA 
HETATM    2  H   UNL     1      -9.422  10.065  70.278  1.00  0.00     0.000 HD 
HETATM    3  C   UNL     1     -10.866   9.906  69.045  1.00  0.00    -0.215 C  
ENDROOT
BRANCH   3   4
HETATM    4  N   UNL     1     -11.735  10.827  68.397  1.00  0.00    -0.438 N  
HETATM    5  H   UNL     1     -12.266  10.533  67.577  1.00  0.00     0.000 HD 
BRANCH   4   6
HETATM    6  C   UNL     1     -11.860  12.100  68.867  1.00  0.00    -0.304 C  
HETATM    7  O   UNL     1     -12.202  12.329  70.025  1.00  0.00    -0.271 OA 
BRANCH   6   8
HETATM    8  N   UNL     1     -11.518  13.110  67.990  1.00  0.00    -0.290 N  
BRANCH   8   9
HETATM    9  C   UNL     1     -10.456  14.010  68.391  1.00  0.00    -0.253 C  
HETATM   10  O   UNL     1     -11.911  15.932  68.981  1.00  0.00    -0.389 OA 
HETATM   11  N   UNL     1      -9.389  14.178  67.432  1.00  0.00    -0.208 N  
HETATM   12  C   UNL     1     -10.842  15.496  68.566  1.00  0.00    -0.272 C  
HETATM   13  O   UNL     1      -7.857  15.852  66.961  1.00  0.00    -0.187 OA 
HETATM   14  N   UNL     1      -9.758  16.243  68.212  1.00  0.00    -0.219 N  
HETATM   15  C   UNL     1      -8.886  15.472  67.500  1.00  0.00    -0.182 C  
BRANCH  11  16
HETATM   16  C   UNL     1      -8.604  13.105  66.895  1.00  0.00    -0.109 C  
HETATM   17  H   UNL     1      -7.593  11.606  67.605  1.00  0.00     0.000 HD 
HETATM   18  O   UNL     1      -8.113  12.318  67.960  1.00  0.00    -0.137 OA 
ENDBRANCH  11  16
BRANCH  14  19
HETATM   19  C   UNL     1      -9.715  17.674  68.162  1.00  0.00    -0.310 C  
HETATM   20  O   UNL     1     -10.259  18.215  69.351  1.00  0.00    -0.363 OA 
HETATM   21  H   UNL     1     -10.230  19.163  69.318  1.00  0.00     0.000 HD 
ENDBRANCH  14  19
ENDBRANCH   8   9
BRANCH   8  22
HETATM   22  C   UNL     1     -12.298  13.471  66.830  1.00  0.00    -0.274 C  
HETATM   23  H   UNL     1     -12.834  12.589  65.202  1.00  0.00     0.000 HD 
HETATM   24  O   UNL     1     -12.321  12.352  65.965  1.00  0.00    -0.627 OA 
ENDBRANCH   8  22
ENDBRANCH   6   8
ENDBRANCH   4   6
ENDBRANCH   3   4
TORSDOF 7
ENDMDL
MODEL       85
REMARK 921   NORMALIZED FREE ENERGY PREDICTED BY IDOCK:   -3.88 KCAL/MOL
REMARK 922        TOTAL FREE ENERGY PREDICTED BY IDOCK:   -7.00 KCAL/MOL
REMARK 923 INTER-LIGAND FREE ENERGY PREDICTED BY IDOCK:   -5.42 KCAL/MOL
REMARK 924 INTRA-LIGAND FREE ENERGY PREDICTED BY IDOCK:   -1.58 KCAL/MOL
REMARK 927      BINDING AFFINITY PREDICTED BY RF-SCORE:    0.00 PKD
ROOT
HETATM    1  O   UNL     1      -7.625   4.276  69.410  1.00  0.00    -0.054 OA 
HETATM    2  H   UNL     1      -6.889   3.741  69.138  1.00  0.00     0.000 HD 
HETATM    3  C   UNL     1      -8.453   3.439  70.182  1.00  0.00    -0.056 C  
ENDROOT
BRANCH   3   4
HETATM    4  N   UNL     1      -9.555   4.240  70.590  1.00  0.00    -0.175 N  
HETATM    5  H   UNL     1     -10.495   3.843  70.603  1.00  0.00     0.000 HD 
BRANCH   4   6
HETATM    6  C   UNL     1      -9.361   5.537  70.961  1.00  0.00    -0.153 C  
HETATM    7  O   UNL     1      -8.432   5.864  71.697  1.00  0.00    -0.126 OA 
BRANCH   6   8
HETATM    8  N   UNL     1     -10.224   6.465  70.412  1.00  0.00    -0.188 N  
BRANCH   8   9
HETATM    9  C   UNL     1     -10.644   7.564  71.256  1.00  0.00    -0.215 C  
HETATM   10  O   UNL     1     -12.831   6.600  71.923  1.00  0.00    -0.328 OA 
HETATM   11  N   UNL     1     -10.586   8.873  70.647  1.00  0.00    -0.216 N  
HETATM   12  C   UNL     1     -12.129   7.576  71.682  1.00  0.00    -0.311 C  
HETATM   13  O   UNL     1     -11.700  10.880  70.965  1.00  0.00    -0.273 OA 
HETATM   14  N   UNL     1     -12.514   8.880  71.784  1.00  0.00    -0.339 N  
HETATM   15  C   UNL     1     -11.611   9.673  71.137  1.00  0.00    -0.381 C  
BRANCH  11  16
HETATM   16  C   UNL     1      -9.405   9.449  70.073  1.00  0.00    -0.226 C  
HETATM   17  H   UNL     1      -7.601   9.852  70.668  1.00  0.00     0.000 HD 
HETATM   18  O   UNL     1      -8.384   9.471  71.048  1.00  0.00    -0.294 OA 
ENDBRANCH  11  16
BRANCH  14  19
HETATM   19  C   UNL     1     -13.837   9.336  72.087  1.00  0.00    -0.413 C  
HETATM   20  O   UNL     1     -14.271   8.778  73.313  1.00  0.00    -1.164 OA 
HETATM   21  H   UNL     1     -15.148   9.080  73.514  1.00  0.00     0.000 HD 
ENDBRANCH  14  19
ENDBRANCH   8   9
BRANCH   8  22
HETATM   22  C   UNL     1     -10.912   6.283  69.156  1.00  0.00    -0.377 C  
HETATM   23  H   UNL     1     -10.388   5.937  67.334  1.00  0.00     0.000 HD 
HETATM   24  O   UNL     1      -9.934   6.056  68.160  1.00  0.00    -0.131 OA 
ENDBRANCH   8  22
ENDBRANCH   6   8
ENDBRANCH   4   6
ENDBRANCH   3   4
TORSDOF 7
ENDMDL
MODEL       86
REMARK 921   NORMALIZED FREE ENERGY PREDICTED BY IDOCK:   -3.86 KCAL/MOL
REMARK 922        TOTAL FREE ENERGY PREDICTED BY IDOCK:   -6.97 KCAL/MOL
REMARK 923 INTER-LIGAND FREE ENERGY PREDICTED BY IDOCK:   -5.54 KCAL/MOL
REMARK 924 INTRA-LIGAND FREE ENERGY PREDICTED BY IDOCK:   -1.44 KCAL/MOL
REMARK 927      BINDING AFFINITY PREDICTED BY RF-SCORE:    0.00 PKD
ROOT
HETATM    1  O   UNL     1      -9.877   5.004  72.430  1.00  0.00    -0.160 OA 
HETATM    2  H   UNL     1      -9.309   4.282  72.669  1.00  0.00     0.000 HD 
HETATM    3  C   UNL     1     -11.002   4.912  73.273  1.00  0.00    -0.320 C  
ENDROOT
BRANCH   3   4
HETATM    4  N   UNL     1     -11.853   5.993  72.915  1.00  0.00    -0.509 N  
HETATM    5  H   UNL     1     -12.858   5.842  72.830  1.00  0.00     0.000 HD 
BRANCH   4   6
HETATM    6  C   UNL     1     -11.331   7.231  72.684  1.00  0.00    -0.291 C  
HETATM    7  O   UNL     1     -10.437   7.694  73.388  1.00  0.00    -0.351 OA 
BRANCH   6   8
HETATM    8  N   UNL     1     -11.816   7.901  71.579  1.00  0.00    -0.280 N  
BRANCH   8   9
HETATM    9  C   UNL     1     -10.865   8.266  70.549  1.00  0.00    -0.232 C  
HETATM   10  O   UNL     1     -11.269  10.714  70.635  1.00  0.00    -0.289 OA 
HETATM   11  N   UNL     1     -10.998   7.554  69.299  1.00  0.00    -0.108 N  
HETATM   12  C   UNL     1     -10.962   9.708  70.003  1.00  0.00    -0.260 C  
HETATM   13  O   UNL     1     -10.469   8.011  67.090  1.00  0.00    -0.298 OA 
HETATM   14  N   UNL     1     -10.603   9.671  68.688  1.00  0.00    -0.216 N  
HETATM   15  C   UNL     1     -10.650   8.383  68.239  1.00  0.00    -0.109 C  
BRANCH  11  16
HETATM   16  C   UNL     1     -10.955   6.127  69.170  1.00  0.00    -0.381 C  
HETATM   17  H   UNL     1      -9.706   4.709  69.616  1.00  0.00     0.000 HD 
HETATM   18  O   UNL     1      -9.735   5.655  69.702  1.00  0.00    -0.152 OA 
ENDBRANCH  11  16
BRANCH  14  19
HETATM   19  C   UNL     1     -10.624  10.785  67.788  1.00  0.00    -0.228 C  
HETATM   20  O   UNL     1     -11.928  11.331  67.728  1.00  0.00    -0.637 OA 
HETATM   21  H   UNL     1     -11.942  12.070  67.131  1.00  0.00     0.000 HD 
ENDBRANCH  14  19
ENDBRANCH   8   9
BRANCH   8  22
HETATM   22  C   UNL     1     -13.143   8.466  71.495  1.00  0.00    -0.296 C  
HETATM   23  H   UNL     1     -14.939   7.767  71.470  1.00  0.00     0.000 HD 
HETATM   24  O   UNL     1     -14.066   7.396  71.526  1.00  0.00    -0.422 OA 
ENDBRANCH   8  22
ENDBRANCH   6   8
ENDBRANCH   4   6
ENDBRANCH   3   4
TORSDOF 7
ENDMDL
MODEL       87
REMARK 921   NORMALIZED FREE ENERGY PREDICTED BY IDOCK:   -3.85 KCAL/MOL
REMARK 922        TOTAL FREE ENERGY PREDICTED BY IDOCK:   -6.95 KCAL/MOL
REMARK 923 INTER-LIGAND FREE ENERGY PREDICTED BY IDOCK:   -5.66 KCAL/MOL
REMARK 924 INTRA-LIGAND FREE ENERGY PREDICTED BY IDOCK:   -1.29 KCAL/MOL
REMARK 927      BINDING AFFINITY PREDICTED BY RF-SCORE:    0.00 PKD
ROOT
HETATM    1  O   UNL     1     -10.752  14.129  67.089  1.00  0.00    -0.277 OA 
HETATM    2  H   UNL     1     -10.660  14.818  66.442  1.00  0.00     0.000 HD 
HETATM    3  C   UNL     1      -9.573  14.156  67.859  1.00  0.00    -0.223 C  
ENDROOT
BRANCH   3   4
HETATM    4  N   UNL     1      -9.710  13.124  68.828  1.00  0.00    -0.418 N  
HETATM    5  H   UNL     1     -10.025  13.352  69.771  1.00  0.00     0.000 HD 
BRANCH   4   6
HETATM    6  C   UNL     1      -9.422  11.833  68.501  1.00  0.00    -0.163 C  
HETATM    7  O   UNL     1      -8.329  11.514  68.040  1.00  0.00    -0.132 OA 
BRANCH   6   8
HETATM    8  N   UNL     1     -10.402  10.901  68.778  1.00  0.00    -0.189 N  
BRANCH   8   9
HETATM    9  C   UNL     1      -9.975   9.538  69.022  1.00  0.00    -0.180 C  
HETATM   10  O   UNL     1     -10.186   8.745  66.679  1.00  0.00    -0.277 OA 
HETATM   11  N   UNL     1     -10.671   8.849  70.084  1.00  0.00    -0.221 N  
HETATM   12  C   UNL     1     -10.231   8.523  67.885  1.00  0.00    -0.218 C  
HETATM   13  O   UNL     1     -11.133   6.631  70.572  1.00  0.00    -0.263 OA 
HETATM   14  N   UNL     1     -10.481   7.315  68.465  1.00  0.00    -0.193 N  
HETATM   15  C   UNL     1     -10.779   7.496  69.785  1.00  0.00    -0.242 C  
BRANCH  11  16
HETATM   16  C   UNL     1     -10.757   9.319  71.436  1.00  0.00    -0.362 C  
HETATM   17  H   UNL     1     -12.080  10.223  72.532  1.00  0.00     0.000 HD 
HETATM   18  O   UNL     1     -12.023   9.911  71.637  1.00  0.00    -0.393 OA 
ENDBRANCH  11  16
BRANCH  14  19
HETATM   19  C   UNL     1     -10.837   6.115  67.769  1.00  0.00    -0.325 C  
HETATM   20  O   UNL     1     -11.620   6.432  66.634  1.00  0.00    -0.671 OA 
HETATM   21  H   UNL     1     -11.857   5.637  66.171  1.00  0.00     0.000 HD 
ENDBRANCH  14  19
ENDBRANCH   8   9
BRANCH   8  22
HETATM   22  C   UNL     1     -11.816  11.139  68.606  1.00  0.00    -0.287 C  
HETATM   23  H   UNL     1     -12.944  11.757  67.170  1.00  0.00     0.000 HD 
HETATM   24  O   UNL     1     -12.014  11.600  67.284  1.00  0.00    -0.627 OA 
ENDBRANCH   8  22
ENDBRANCH   6   8
ENDBRANCH   4   6
ENDBRANCH   3   4
TORSDOF 7
ENDMDL
MODEL       88
REMARK 921   NORMALIZED FREE ENERGY PREDICTED BY IDOCK:   -3.83 KCAL/MOL
REMARK 922        TOTAL FREE ENERGY PREDICTED BY IDOCK:   -6.93 KCAL/MOL
REMARK 923 INTER-LIGAND FREE ENERGY PREDICTED BY IDOCK:   -5.39 KCAL/MOL
REMARK 924 INTRA-LIGAND FREE ENERGY PREDICTED BY IDOCK:   -1.55 KCAL/MOL
REMARK 927      BINDING AFFINITY PREDICTED BY RF-SCORE:    0.00 PKD
ROOT
HETATM    1  O   UNL     1     -10.036   4.050  73.229  1.00  0.00    -0.128 OA 
HETATM    2  H   UNL     1      -9.696   3.224  73.552  1.00  0.00     0.000 HD 
HETATM    3  C   UNL     1     -11.410   4.056  73.538  1.00  0.00    -0.186 C  
ENDROOT
BRANCH   3   4
HETATM    4  N   UNL     1     -11.918   5.292  73.054  1.00  0.00    -0.503 N  
HETATM    5  H   UNL     1     -12.897   5.365  72.776  1.00  0.00     0.000 HD 
BRANCH   4   6
HETATM    6  C   UNL     1     -11.103   6.380  72.962  1.00  0.00    -0.200 C  
HETATM    7  O   UNL     1     -10.512   6.828  73.942  1.00  0.00    -0.347 OA 
BRANCH   6   8
HETATM    8  N   UNL     1     -10.928   6.906  71.697  1.00  0.00    -0.230 N  
BRANCH   8   9
HETATM    9  C   UNL     1     -10.559   8.304  71.602  1.00  0.00    -0.242 C  
HETATM   10  O   UNL     1     -12.861   9.196  71.353  1.00  0.00    -0.320 OA 
HETATM   11  N   UNL     1      -9.551   8.614  70.613  1.00  0.00    -0.176 N  
HETATM   12  C   UNL     1     -11.659   9.275  71.119  1.00  0.00    -0.327 C  
HETATM   13  O   UNL     1      -9.000  10.490  69.370  1.00  0.00    -0.170 OA 
HETATM   14  N   UNL     1     -11.046  10.268  70.414  1.00  0.00    -0.310 N  
HETATM   15  C   UNL     1      -9.785   9.873  70.074  1.00  0.00    -0.227 C  
BRANCH  11  16
HETATM   16  C   UNL     1      -8.249   8.018  70.568  1.00  0.00    -0.118 C  
HETATM   17  H   UNL     1      -7.237   6.936  69.312  1.00  0.00     0.000 HD 
HETATM   18  O   UNL     1      -8.100   7.332  69.342  1.00  0.00    -0.125 OA 
ENDBRANCH  11  16
BRANCH  14  19
HETATM   19  C   UNL     1     -11.713  11.337  69.733  1.00  0.00    -0.349 C  
HETATM   20  O   UNL     1     -12.504  10.819  68.680  1.00  0.00    -0.793 OA 
HETATM   21  H   UNL     1     -12.946  11.528  68.228  1.00  0.00     0.000 HD 
ENDBRANCH  14  19
ENDBRANCH   8   9
BRANCH   8  22
HETATM   22  C   UNL     1     -11.319   6.232  70.481  1.00  0.00    -0.361 C  
HETATM   23  H   UNL     1     -10.672   4.721  69.475  1.00  0.00     0.000 HD 
HETATM   24  O   UNL     1     -10.416   5.164  70.275  1.00  0.00    -0.275 OA 
ENDBRANCH   8  22
ENDBRANCH   6   8
ENDBRANCH   4   6
ENDBRANCH   3   4
TORSDOF 7
ENDMDL
MODEL       89
REMARK 921   NORMALIZED FREE ENERGY PREDICTED BY IDOCK:   -3.83 KCAL/MOL
REMARK 922        TOTAL FREE ENERGY PREDICTED BY IDOCK:   -6.93 KCAL/MOL
REMARK 923 INTER-LIGAND FREE ENERGY PREDICTED BY IDOCK:   -5.99 KCAL/MOL
REMARK 924 INTRA-LIGAND FREE ENERGY PREDICTED BY IDOCK:   -0.94 KCAL/MOL
REMARK 927      BINDING AFFINITY PREDICTED BY RF-SCORE:    0.00 PKD
ROOT
HETATM    1  O   UNL     1     -10.759   8.657  69.846  1.00  0.00    -0.227 OA 
HETATM    2  H   UNL     1     -10.440   8.045  70.498  1.00  0.00     0.000 HD 
HETATM    3  C   UNL     1     -10.426   8.106  68.594  1.00  0.00    -0.165 C  
ENDROOT
BRANCH   3   4
HETATM    4  N   UNL     1     -10.904   9.023  67.618  1.00  0.00    -0.481 N  
HETATM    5  H   UNL     1     -11.114   8.697  66.675  1.00  0.00     0.000 HD 
BRANCH   4   6
HETATM    6  C   UNL     1     -11.082  10.335  67.939  1.00  0.00    -0.276 C  
HETATM    7  O   UNL     1     -12.102  10.729  68.499  1.00  0.00    -0.493 OA 
BRANCH   6   8
HETATM    8  N   UNL     1     -10.027  11.180  67.658  1.00  0.00    -0.172 N  
BRANCH   8   9
HETATM    9  C   UNL     1     -10.167  12.067  66.522  1.00  0.00    -0.206 C  
HETATM   10  O   UNL     1     -11.538  13.791  67.667  1.00  0.00    -0.307 OA 
HETATM   11  N   UNL     1     -10.648  11.450  65.307  1.00  0.00    -0.280 N  
HETATM   12  C   UNL     1     -11.229  13.183  66.648  1.00  0.00    -0.304 C  
HETATM   13  O   UNL     1     -11.800  12.191  63.438  1.00  0.00    -0.463 OA 
HETATM   14  N   UNL     1     -11.740  13.402  65.402  1.00  0.00    -0.319 N  
HETATM   15  C   UNL     1     -11.425  12.352  64.590  1.00  0.00    -0.331 C  
BRANCH  11  16
HETATM   16  C   UNL     1     -10.023  10.333  64.663  1.00  0.00    -0.307 C  
HETATM   17  H   UNL     1      -8.334   9.984  63.770  1.00  0.00     0.000 HD 
HETATM   18  O   UNL     1      -8.749  10.725  64.198  1.00  0.00    -0.159 OA 
ENDBRANCH  11  16
BRANCH  14  19
HETATM   19  C   UNL     1     -12.802  14.309  65.087  1.00  0.00    -0.238 C  
HETATM   20  O   UNL     1     -12.530  14.966  63.864  1.00  0.00    -1.009 OA 
HETATM   21  H   UNL     1     -13.234  15.567  63.655  1.00  0.00     0.000 HD 
ENDBRANCH  14  19
ENDBRANCH   8   9
BRANCH   8  22
HETATM   22  C   UNL     1      -8.720  11.070  68.264  1.00  0.00    -0.144 C  
HETATM   23  H   UNL     1      -7.057  10.209  67.806  1.00  0.00     0.000 HD 
HETATM   24  O   UNL     1      -7.917  10.282  67.407  1.00  0.00    -0.106 OA 
ENDBRANCH   8  22
ENDBRANCH   6   8
ENDBRANCH   4   6
ENDBRANCH   3   4
TORSDOF 7
ENDMDL
MODEL       90
REMARK 921   NORMALIZED FREE ENERGY PREDICTED BY IDOCK:   -3.82 KCAL/MOL
REMARK 922        TOTAL FREE ENERGY PREDICTED BY IDOCK:   -6.92 KCAL/MOL
REMARK 923 INTER-LIGAND FREE ENERGY PREDICTED BY IDOCK:   -6.00 KCAL/MOL
REMARK 924 INTRA-LIGAND FREE ENERGY PREDICTED BY IDOCK:   -0.92 KCAL/MOL
REMARK 927      BINDING AFFINITY PREDICTED BY RF-SCORE:    0.00 PKD
ROOT
HETATM    1  O   UNL     1     -11.793  16.337  63.625  1.00  0.00    -1.404 OA 
HETATM    2  H   UNL     1     -12.599  16.806  63.446  1.00  0.00     0.000 HD 
HETATM    3  C   UNL     1     -12.171  15.139  64.262  1.00  0.00    -0.240 C  
ENDROOT
BRANCH   3   4
HETATM    4  N   UNL     1     -10.964  14.436  64.529  1.00  0.00    -0.600 N  
HETATM    5  H   UNL     1     -10.126  14.640  63.984  1.00  0.00     0.000 HD 
BRANCH   4   6
HETATM    6  C   UNL     1     -10.923  13.491  65.510  1.00  0.00    -0.288 C  
HETATM    7  O   UNL     1     -11.166  12.309  65.277  1.00  0.00    -0.309 OA 
BRANCH   6   8
HETATM    8  N   UNL     1     -10.531  13.926  66.760  1.00  0.00    -0.269 N  
BRANCH   8   9
HETATM    9  C   UNL     1      -9.117  14.154  66.973  1.00  0.00    -0.243 C  
HETATM   10  O   UNL     1      -8.606  11.929  67.947  1.00  0.00    -0.147 OA 
HETATM   11  N   UNL     1      -8.785  15.357  67.703  1.00  0.00    -0.163 N  
HETATM   12  C   UNL     1      -8.382  13.133  67.870  1.00  0.00    -0.170 C  
HETATM   13  O   UNL     1      -7.013  16.026  69.038  1.00  0.00    -0.142 OA 
HETATM   14  N   UNL     1      -7.403  13.806  68.538  1.00  0.00    -0.111 N  
HETATM   15  C   UNL     1      -7.648  15.147  68.474  1.00  0.00    -0.120 C  
BRANCH  11  16
HETATM   16  C   UNL     1      -9.186  16.677  67.315  1.00  0.00    -0.221 C  
HETATM   17  H   UNL     1      -9.352  17.669  65.654  1.00  0.00     0.000 HD 
HETATM   18  O   UNL     1      -9.087  16.794  65.911  1.00  0.00    -0.492 OA 
ENDBRANCH  11  16
BRANCH  14  19
HETATM   19  C   UNL     1      -6.533  13.244  69.527  1.00  0.00    -0.078 C  
HETATM   20  O   UNL     1      -6.745  13.879  70.773  1.00  0.00    -0.371 OA 
HETATM   21  H   UNL     1      -6.168  13.506  71.429  1.00  0.00     0.000 HD 
ENDBRANCH  14  19
ENDBRANCH   8   9
BRANCH   8  22
HETATM   22  C   UNL     1     -11.393  13.935  67.919  1.00  0.00    -0.292 C  
HETATM   23  H   UNL     1     -12.497  12.641  68.826  1.00  0.00     0.000 HD 
HETATM   24  O   UNL     1     -11.930  12.635  68.064  1.00  0.00    -0.343 OA 
ENDBRANCH   8  22
ENDBRANCH   6   8
ENDBRANCH   4   6
ENDBRANCH   3   4
TORSDOF 7
ENDMDL
MODEL       91
REMARK 921   NORMALIZED FREE ENERGY PREDICTED BY IDOCK:   -3.80 KCAL/MOL
REMARK 922        TOTAL FREE ENERGY PREDICTED BY IDOCK:   -6.89 KCAL/MOL
REMARK 923 INTER-LIGAND FREE ENERGY PREDICTED BY IDOCK:   -5.98 KCAL/MOL
REMARK 924 INTRA-LIGAND FREE ENERGY PREDICTED BY IDOCK:   -0.91 KCAL/MOL
REMARK 927      BINDING AFFINITY PREDICTED BY RF-SCORE:    0.00 PKD
ROOT
HETATM    1  O   UNL     1     -12.893  13.650  63.956  1.00  0.00    -0.582 OA 
HETATM    2  H   UNL     1     -13.841  13.632  64.016  1.00  0.00     0.000 HD 
HETATM    3  C   UNL     1     -12.490  14.888  64.495  1.00  0.00    -0.206 C  
ENDROOT
BRANCH   3   4
HETATM    4  N   UNL     1     -11.071  14.915  64.405  1.00  0.00    -0.645 N  
HETATM    5  H   UNL     1     -10.602  15.731  64.013  1.00  0.00     0.000 HD 
BRANCH   4   6
HETATM    6  C   UNL     1     -10.336  13.853  64.841  1.00  0.00    -0.406 C  
HETATM    7  O   UNL     1     -10.247  12.818  64.185  1.00  0.00    -0.384 OA 
BRANCH   6   8
HETATM    8  N   UNL     1      -9.648  14.033  66.025  1.00  0.00    -0.249 N  
BRANCH   8   9
HETATM    9  C   UNL     1      -9.873  13.065  67.079  1.00  0.00    -0.238 C  
HETATM   10  O   UNL     1      -8.573  11.214  66.057  1.00  0.00    -0.172 OA 
HETATM   11  N   UNL     1     -11.254  12.860  67.451  1.00  0.00    -0.277 N  
HETATM   12  C   UNL     1      -9.503  11.600  66.759  1.00  0.00    -0.186 C  
HETATM   13  O   UNL     1     -12.458  11.114  68.384  1.00  0.00    -0.390 OA 
HETATM   14  N   UNL     1     -10.377  10.801  67.435  1.00  0.00    -0.200 N  
HETATM   15  C   UNL     1     -11.455  11.539  67.831  1.00  0.00    -0.301 C  
BRANCH  11  16
HETATM   16  C   UNL     1     -12.140  13.900  67.886  1.00  0.00    -0.283 C  
HETATM   17  H   UNL     1     -12.341  15.009  69.467  1.00  0.00     0.000 HD 
HETATM   18  O   UNL     1     -11.754  14.320  69.178  1.00  0.00    -0.280 OA 
ENDBRANCH  11  16
BRANCH  14  19
HETATM   19  C   UNL     1     -10.428   9.372  67.357  1.00  0.00    -0.278 C  
HETATM   20  O   UNL     1     -10.727   8.830  68.630  1.00  0.00    -0.373 OA 
HETATM   21  H   UNL     1     -10.761   7.883  68.579  1.00  0.00     0.000 HD 
ENDBRANCH  14  19
ENDBRANCH   8   9
BRANCH   8  22
HETATM   22  C   UNL     1      -8.918  15.232  66.361  1.00  0.00    -0.304 C  
HETATM   23  H   UNL     1      -9.385  17.037  66.853  1.00  0.00     0.000 HD 
HETATM   24  O   UNL     1      -9.865  16.247  66.632  1.00  0.00    -0.232 OA 
ENDBRANCH   8  22
ENDBRANCH   6   8
ENDBRANCH   4   6
ENDBRANCH   3   4
TORSDOF 7
ENDMDL
MODEL       92
REMARK 921   NORMALIZED FREE ENERGY PREDICTED BY IDOCK:   -3.80 KCAL/MOL
REMARK 922        TOTAL FREE ENERGY PREDICTED BY IDOCK:   -6.88 KCAL/MOL
REMARK 923 INTER-LIGAND FREE ENERGY PREDICTED BY IDOCK:   -5.75 KCAL/MOL
REMARK 924 INTRA-LIGAND FREE ENERGY PREDICTED BY IDOCK:   -1.13 KCAL/MOL
REMARK 927      BINDING AFFINITY PREDICTED BY RF-SCORE:    0.00 PKD
ROOT
HETATM    1  O   UNL     1      -9.445  10.334  68.250  1.00  0.00    -0.138 OA 
HETATM    2  H   UNL     1      -9.312   9.849  69.055  1.00  0.00     0.000 HD 
HETATM    3  C   UNL     1      -9.980   9.417  67.324  1.00  0.00    -0.196 C  
ENDROOT
BRANCH   3   4
HETATM    4  N   UNL     1     -10.179  10.144  66.118  1.00  0.00    -0.235 N  
HETATM    5  H   UNL     1      -9.869   9.749  65.230  1.00  0.00     0.000 HD 
BRANCH   4   6
HETATM    6  C   UNL     1     -10.782  11.365  66.145  1.00  0.00    -0.267 C  
HETATM    7  O   UNL     1     -11.672  11.628  66.950  1.00  0.00    -0.552 OA 
BRANCH   6   8
HETATM    8  N   UNL     1     -10.292  12.307  65.261  1.00  0.00    -0.275 N  
BRANCH   8   9
HETATM    9  C   UNL     1      -9.954  13.610  65.796  1.00  0.00    -0.261 C  
HETATM   10  O   UNL     1      -8.405  12.807  67.562  1.00  0.00    -0.157 OA 
HETATM   11  N   UNL     1     -11.077  14.449  66.146  1.00  0.00    -0.323 N  
HETATM   12  C   UNL     1      -9.223  13.626  67.158  1.00  0.00    -0.244 C  
HETATM   13  O   UNL     1     -11.423  16.183  67.644  1.00  0.00    -0.143 OA 
HETATM   14  N   UNL     1      -9.623  14.748  67.822  1.00  0.00    -0.207 N  
HETATM   15  C   UNL     1     -10.758  15.239  67.244  1.00  0.00    -0.311 C  
BRANCH  11  16
HETATM   16  C   UNL     1     -12.122  14.825  65.240  1.00  0.00    -0.198 C  
HETATM   17  H   UNL     1     -13.921  14.218  64.832  1.00  0.00     0.000 HD 
HETATM   18  O   UNL     1     -13.228  13.969  65.433  1.00  0.00    -0.761 OA 
ENDBRANCH  11  16
BRANCH  14  19
HETATM   19  C   UNL     1      -9.237  15.109  69.153  1.00  0.00    -0.215 C  
HETATM   20  O   UNL     1     -10.366  15.088  70.005  1.00  0.00    -0.437 OA 
HETATM   21  H   UNL     1     -10.110  15.327  70.888  1.00  0.00     0.000 HD 
ENDBRANCH  14  19
ENDBRANCH   8   9
BRANCH   8  22
HETATM   22  C   UNL     1     -10.321  12.160  63.825  1.00  0.00    -0.437 C  
HETATM   23  H   UNL     1     -11.577  11.471  62.536  1.00  0.00     0.000 HD 
HETATM   24  O   UNL     1     -11.558  11.568  63.481  1.00  0.00    -0.397 OA 
ENDBRANCH   8  22
ENDBRANCH   6   8
ENDBRANCH   4   6
ENDBRANCH   3   4
TORSDOF 7
ENDMDL
MODEL       93
REMARK 921   NORMALIZED FREE ENERGY PREDICTED BY IDOCK:   -3.79 KCAL/MOL
REMARK 922        TOTAL FREE ENERGY PREDICTED BY IDOCK:   -6.87 KCAL/MOL
REMARK 923 INTER-LIGAND FREE ENERGY PREDICTED BY IDOCK:   -6.18 KCAL/MOL
REMARK 924 INTRA-LIGAND FREE ENERGY PREDICTED BY IDOCK:   -0.69 KCAL/MOL
REMARK 927      BINDING AFFINITY PREDICTED BY RF-SCORE:    0.00 PKD
ROOT
HETATM    1  O   UNL     1     -13.622  15.588  70.390  1.00  0.00    -0.806 OA 
HETATM    2  H   UNL     1     -13.612  15.915  71.281  1.00  0.00     0.000 HD 
HETATM    3  C   UNL     1     -12.289  15.250  70.082  1.00  0.00    -0.353 C  
ENDROOT
BRANCH   3   4
HETATM    4  N   UNL     1     -12.304  14.760  68.747  1.00  0.00    -0.588 N  
HETATM    5  H   UNL     1     -12.934  13.999  68.492  1.00  0.00     0.000 HD 
BRANCH   4   6
HETATM    6  C   UNL     1     -11.480  15.303  67.807  1.00  0.00    -0.303 C  
HETATM    7  O   UNL     1     -10.906  16.374  67.994  1.00  0.00    -0.330 OA 
BRANCH   6   8
HETATM    8  N   UNL     1     -11.278  14.553  66.666  1.00  0.00    -0.337 N  
BRANCH   8   9
HETATM    9  C   UNL     1     -10.458  13.365  66.786  1.00  0.00    -0.275 C  
HETATM   10  O   UNL     1     -12.198  11.911  67.795  1.00  0.00    -0.508 OA 
HETATM   11  N   UNL     1      -9.191  13.550  67.457  1.00  0.00    -0.209 N  
HETATM   12  C   UNL     1     -11.020  12.228  67.668  1.00  0.00    -0.244 C  
HETATM   13  O   UNL     1      -7.760  12.181  68.661  1.00  0.00    -0.125 OA 
HETATM   14  N   UNL     1      -9.958  11.604  68.255  1.00  0.00    -0.195 N  
HETATM   15  C   UNL     1      -8.855  12.402  68.164  1.00  0.00    -0.191 C  
BRANCH  11  16
HETATM   16  C   UNL     1      -8.190  14.493  67.053  1.00  0.00    -0.135 C  
HETATM   17  H   UNL     1      -7.235  15.971  67.874  1.00  0.00     0.000 HD 
HETATM   18  O   UNL     1      -7.898  15.345  68.141  1.00  0.00    -0.119 OA 
ENDBRANCH  11  16
BRANCH  14  19
HETATM   19  C   UNL     1     -10.043  10.537  69.206  1.00  0.00    -0.224 C  
HETATM   20  O   UNL     1     -10.882  10.915  70.281  1.00  0.00    -0.459 OA 
HETATM   21  H   UNL     1     -10.938  10.207  70.912  1.00  0.00     0.000 HD 
ENDBRANCH  14  19
ENDBRANCH   8   9
BRANCH   8  22
HETATM   22  C   UNL     1     -11.623  14.996  65.336  1.00  0.00    -0.229 C  
HETATM   23  H   UNL     1     -10.826  16.157  64.020  1.00  0.00     0.000 HD 
HETATM   24  O   UNL     1     -10.598  15.865  64.895  1.00  0.00    -0.546 OA 
ENDBRANCH   8  22
ENDBRANCH   6   8
ENDBRANCH   4   6
ENDBRANCH   3   4
TORSDOF 7
ENDMDL
MODEL       94
REMARK 921   NORMALIZED FREE ENERGY PREDICTED BY IDOCK:   -3.78 KCAL/MOL
REMARK 922        TOTAL FREE ENERGY PREDICTED BY IDOCK:   -6.85 KCAL/MOL
REMARK 923 INTER-LIGAND FREE ENERGY PREDICTED BY IDOCK:   -5.75 KCAL/MOL
REMARK 924 INTRA-LIGAND FREE ENERGY PREDICTED BY IDOCK:   -1.10 KCAL/MOL
REMARK 927      BINDING AFFINITY PREDICTED BY RF-SCORE:    0.00 PKD
ROOT
HETATM    1  O   UNL     1     -13.768  14.271  71.612  1.00  0.00    -0.362 OA 
HETATM    2  H   UNL     1     -14.287  14.605  72.334  1.00  0.00     0.000 HD 
HETATM    3  C   UNL     1     -13.504  15.375  70.777  1.00  0.00    -0.268 C  
ENDROOT
BRANCH   3   4
HETATM    4  N   UNL     1     -12.727  14.875  69.696  1.00  0.00    -0.593 N  
HETATM    5  H   UNL     1     -13.092  14.922  68.744  1.00  0.00     0.000 HD 
BRANCH   4   6
HETATM    6  C   UNL     1     -11.498  14.334  69.926  1.00  0.00    -0.243 C  
HETATM    7  O   UNL     1     -10.756  14.769  70.804  1.00  0.00     0.012 OA 
BRANCH   6   8
HETATM    8  N   UNL     1     -11.163  13.233  69.163  1.00  0.00    -0.264 N  
BRANCH   8   9
HETATM    9  C   UNL     1     -10.468  13.474  67.915  1.00  0.00    -0.250 C  
HETATM   10  O   UNL     1      -8.435  14.496  68.907  1.00  0.00    -0.163 OA 
HETATM   11  N   UNL     1     -11.222  14.191  66.912  1.00  0.00    -0.308 N  
HETATM   12  C   UNL     1      -9.236  14.404  67.982  1.00  0.00    -0.193 C  
HETATM   13  O   UNL     1     -10.680  15.554  65.118  1.00  0.00    -0.389 OA 
HETATM   14  N   UNL     1      -9.172  15.083  66.801  1.00  0.00    -0.240 N  
HETATM   15  C   UNL     1     -10.372  14.991  66.158  1.00  0.00    -0.299 C  
BRANCH  11  16
HETATM   16  C   UNL     1     -12.495  13.773  66.401  1.00  0.00    -0.355 C  
HETATM   17  H   UNL     1     -13.229  12.170  65.587  1.00  0.00     0.000 HD 
HETATM   18  O   UNL     1     -12.386  12.447  65.926  1.00  0.00    -0.638 OA 
ENDBRANCH  11  16
BRANCH  14  19
HETATM   19  C   UNL     1      -8.217  16.100  66.477  1.00  0.00    -0.308 C  
HETATM   20  O   UNL     1      -6.904  15.598  66.637  1.00  0.00    -0.194 OA 
HETATM   21  H   UNL     1      -6.271  16.272  66.422  1.00  0.00     0.000 HD 
ENDBRANCH  14  19
ENDBRANCH   8   9
BRANCH   8  22
HETATM   22  C   UNL     1     -11.663  11.901  69.404  1.00  0.00    -0.339 C  
HETATM   23  H   UNL     1     -12.704  11.048  70.785  1.00  0.00     0.000 HD 
HETATM   24  O   UNL     1     -12.374  11.925  70.626  1.00  0.00    -0.356 OA 
ENDBRANCH   8  22
ENDBRANCH   6   8
ENDBRANCH   4   6
ENDBRANCH   3   4
TORSDOF 7
ENDMDL
MODEL       95
REMARK 921   NORMALIZED FREE ENERGY PREDICTED BY IDOCK:   -3.77 KCAL/MOL
REMARK 922        TOTAL FREE ENERGY PREDICTED BY IDOCK:   -6.84 KCAL/MOL
REMARK 923 INTER-LIGAND FREE ENERGY PREDICTED BY IDOCK:   -5.67 KCAL/MOL
REMARK 924 INTRA-LIGAND FREE ENERGY PREDICTED BY IDOCK:   -1.18 KCAL/MOL
REMARK 927      BINDING AFFINITY PREDICTED BY RF-SCORE:    0.00 PKD
ROOT
HETATM    1  O   UNL     1     -13.835   9.028  70.834  1.00  0.00    -0.587 OA 
HETATM    2  H   UNL     1     -14.709   9.277  70.561  1.00  0.00     0.000 HD 
HETATM    3  C   UNL     1     -13.860   8.990  72.242  1.00  0.00    -0.484 C  
ENDROOT
BRANCH   3   4
HETATM    4  N   UNL     1     -12.550   8.617  72.651  1.00  0.00    -0.529 N  
HETATM    5  H   UNL     1     -11.996   9.254  73.223  1.00  0.00     0.000 HD 
BRANCH   4   6
HETATM    6  C   UNL     1     -12.033   7.412  72.281  1.00  0.00    -0.239 C  
HETATM    7  O   UNL     1     -12.747   6.507  71.855  1.00  0.00    -0.325 OA 
BRANCH   6   8
HETATM    8  N   UNL     1     -10.659   7.291  72.349  1.00  0.00    -0.225 N  
BRANCH   8   9
HETATM    9  C   UNL     1      -9.945   7.090  71.105  1.00  0.00    -0.184 C  
HETATM   10  O   UNL     1     -10.847   9.081  69.928  1.00  0.00    -0.228 OA 
HETATM   11  N   UNL     1     -10.080   5.778  70.515  1.00  0.00    -0.196 N  
HETATM   12  C   UNL     1     -10.415   7.933  69.898  1.00  0.00    -0.229 C  
HETATM   13  O   UNL     1      -9.945   4.926  68.364  1.00  0.00    -0.157 OA 
HETATM   14  N   UNL     1     -10.225   7.181  68.777  1.00  0.00    -0.174 N  
HETATM   15  C   UNL     1     -10.054   5.873  69.129  1.00  0.00    -0.190 C  
BRANCH  11  16
HETATM   16  C   UNL     1      -9.751   4.552  71.181  1.00  0.00    -0.186 C  
HETATM   17  H   UNL     1      -8.147   3.722  71.895  1.00  0.00     0.000 HD 
HETATM   18  O   UNL     1      -8.366   4.535  71.454  1.00  0.00    -0.096 OA 
ENDBRANCH  11  16
BRANCH  14  19
HETATM   19  C   UNL     1     -10.597   7.561  67.447  1.00  0.00    -0.294 C  
HETATM   20  O   UNL     1     -11.437   6.574  66.880  1.00  0.00    -0.762 OA 
HETATM   21  H   UNL     1     -11.684   6.827  65.998  1.00  0.00     0.000 HD 
ENDBRANCH  14  19
ENDBRANCH   8   9
BRANCH   8  22
HETATM   22  C   UNL     1      -9.924   7.113  73.579  1.00  0.00    -0.302 C  
HETATM   23  H   UNL     1     -10.007   5.894  75.070  1.00  0.00     0.000 HD 
HETATM   24  O   UNL     1     -10.490   6.011  74.260  1.00  0.00    -0.280 OA 
ENDBRANCH   8  22
ENDBRANCH   6   8
ENDBRANCH   4   6
ENDBRANCH   3   4
TORSDOF 7
ENDMDL
MODEL       96
REMARK 921   NORMALIZED FREE ENERGY PREDICTED BY IDOCK:   -3.75 KCAL/MOL
REMARK 922        TOTAL FREE ENERGY PREDICTED BY IDOCK:   -6.81 KCAL/MOL
REMARK 923 INTER-LIGAND FREE ENERGY PREDICTED BY IDOCK:   -5.75 KCAL/MOL
REMARK 924 INTRA-LIGAND FREE ENERGY PREDICTED BY IDOCK:   -1.06 KCAL/MOL
REMARK 927      BINDING AFFINITY PREDICTED BY RF-SCORE:    0.00 PKD
ROOT
HETATM    1  O   UNL     1     -11.811  13.320  63.107  1.00  0.00    -0.764 OA 
HETATM    2  H   UNL     1     -12.216  13.336  62.248  1.00  0.00     0.000 HD 
HETATM    3  C   UNL     1     -12.305  12.169  63.752  1.00  0.00    -0.532 C  
ENDROOT
BRANCH   3   4
HETATM    4  N   UNL     1     -11.699  12.146  65.038  1.00  0.00    -0.340 N  
HETATM    5  H   UNL     1     -10.972  11.461  65.244  1.00  0.00     0.000 HD 
BRANCH   4   6
HETATM    6  C   UNL     1     -12.087  13.034  65.995  1.00  0.00    -0.432 C  
HETATM    7  O   UNL     1     -12.793  14.004  65.728  1.00  0.00    -0.516 OA 
BRANCH   6   8
HETATM    8  N   UNL     1     -11.696  12.747  67.288  1.00  0.00    -0.369 N  
BRANCH   8   9
HETATM    9  C   UNL     1     -10.716  13.623  67.898  1.00  0.00    -0.247 C  
HETATM   10  O   UNL     1     -12.285  15.456  68.477  1.00  0.00    -0.154 OA 
HETATM   11  N   UNL     1      -9.545  13.898  67.098  1.00  0.00    -0.239 N  
HETATM   12  C   UNL     1     -11.163  15.079  68.159  1.00  0.00    -0.308 C  
HETATM   13  O   UNL     1      -8.016  15.635  66.975  1.00  0.00    -0.194 OA 
HETATM   14  N   UNL     1     -10.065  15.875  68.011  1.00  0.00    -0.228 N  
HETATM   15  C   UNL     1      -9.091  15.188  67.345  1.00  0.00    -0.191 C  
BRANCH  11  16
HETATM   16  C   UNL     1      -8.671  12.894  66.566  1.00  0.00     0.052 C  
HETATM   17  H   UNL     1      -7.556  11.474  67.281  1.00  0.00     0.000 HD 
HETATM   18  O   UNL     1      -8.136  12.139  67.633  1.00  0.00    -0.138 OA 
ENDBRANCH  11  16
BRANCH  14  19
HETATM   19  C   UNL     1     -10.057  17.304  68.098  1.00  0.00    -0.325 C  
HETATM   20  O   UNL     1     -10.632  17.716  69.323  1.00  0.00    -0.410 OA 
HETATM   21  H   UNL     1     -10.627  18.664  69.380  1.00  0.00     0.000 HD 
ENDBRANCH  14  19
ENDBRANCH   8   9
BRANCH   8  22
HETATM   22  C   UNL     1     -12.011  11.516  67.973  1.00  0.00    -0.104 C  
HETATM   23  H   UNL     1     -11.364   9.701  67.914  1.00  0.00     0.000 HD 
HETATM   24  O   UNL     1     -11.157  10.511  67.463  1.00  0.00    -0.310 OA 
ENDBRANCH   8  22
ENDBRANCH   6   8
ENDBRANCH   4   6
ENDBRANCH   3   4
TORSDOF 7
ENDMDL
MODEL       97
REMARK 921   NORMALIZED FREE ENERGY PREDICTED BY IDOCK:   -3.74 KCAL/MOL
REMARK 922        TOTAL FREE ENERGY PREDICTED BY IDOCK:   -6.79 KCAL/MOL
REMARK 923 INTER-LIGAND FREE ENERGY PREDICTED BY IDOCK:   -5.42 KCAL/MOL
REMARK 924 INTRA-LIGAND FREE ENERGY PREDICTED BY IDOCK:   -1.37 KCAL/MOL
REMARK 927      BINDING AFFINITY PREDICTED BY RF-SCORE:    0.00 PKD
ROOT
HETATM    1  O   UNL     1      -9.155   5.783  68.360  1.00  0.00    -0.118 OA 
HETATM    2  H   UNL     1      -9.008   5.096  67.722  1.00  0.00     0.000 HD 
HETATM    3  C   UNL     1      -9.858   6.800  67.685  1.00  0.00    -0.128 C  
ENDROOT
BRANCH   3   4
HETATM    4  N   UNL     1     -10.077   7.831  68.641  1.00  0.00    -0.194 N  
HETATM    5  H   UNL     1      -9.621   8.736  68.525  1.00  0.00     0.000 HD 
BRANCH   4   6
HETATM    6  C   UNL     1     -10.892   7.612  69.710  1.00  0.00    -0.217 C  
HETATM    7  O   UNL     1     -11.484   6.546  69.863  1.00  0.00    -0.390 OA 
BRANCH   6   8
HETATM    8  N   UNL     1     -10.962   8.629  70.642  1.00  0.00    -0.235 N  
BRANCH   8   9
HETATM    9  C   UNL     1     -11.955   9.662  70.427  1.00  0.00    -0.106 C  
HETATM   10  O   UNL     1     -10.521  11.167  69.071  1.00  0.00    -0.207 OA 
HETATM   11  N   UNL     1     -12.602  10.160  71.619  1.00  0.00    -0.411 N  
HETATM   12  C   UNL     1     -11.439  11.007  69.869  1.00  0.00    -0.320 C  
HETATM   13  O   UNL     1     -13.626  12.150  72.218  1.00  0.00    -0.432 OA 
HETATM   14  N   UNL     1     -12.221  11.994  70.394  1.00  0.00    -0.325 N  
HETATM   15  C   UNL     1     -12.905  11.508  71.470  1.00  0.00    -0.380 C  
BRANCH  11  16
HETATM   16  C   UNL     1     -13.307   9.341  72.561  1.00  0.00    -0.391 C  
HETATM   17  H   UNL     1     -14.848   8.160  72.526  1.00  0.00     0.000 HD 
HETATM   18  O   UNL     1     -14.381   8.703  71.902  1.00  0.00    -0.423 OA 
ENDBRANCH  11  16
BRANCH  14  19
HETATM   19  C   UNL     1     -12.036  13.399  70.188  1.00  0.00    -0.344 C  
HETATM   20  O   UNL     1     -12.005  13.683  68.802  1.00  0.00    -0.345 OA 
HETATM   21  H   UNL     1     -11.883  14.615  68.665  1.00  0.00     0.000 HD 
ENDBRANCH  14  19
ENDBRANCH   8   9
BRANCH   8  22
HETATM   22  C   UNL     1      -9.969   8.858  71.665  1.00  0.00    -0.327 C  
HETATM   23  H   UNL     1      -8.149   8.299  71.968  1.00  0.00     0.000 HD 
HETATM   24  O   UNL     1      -8.802   8.149  71.295  1.00  0.00    -0.130 OA 
ENDBRANCH   8  22
ENDBRANCH   6   8
ENDBRANCH   4   6
ENDBRANCH   3   4
TORSDOF 7
ENDMDL
MODEL       98
REMARK 921   NORMALIZED FREE ENERGY PREDICTED BY IDOCK:   -3.73 KCAL/MOL
REMARK 922        TOTAL FREE ENERGY PREDICTED BY IDOCK:   -6.79 KCAL/MOL
REMARK 923 INTER-LIGAND FREE ENERGY PREDICTED BY IDOCK:   -5.92 KCAL/MOL
REMARK 924 INTRA-LIGAND FREE ENERGY PREDICTED BY IDOCK:   -0.87 KCAL/MOL
REMARK 927      BINDING AFFINITY PREDICTED BY RF-SCORE:    0.00 PKD
ROOT
HETATM    1  O   UNL     1     -13.875  12.706  72.756  1.00  0.00    -0.653 OA 
HETATM    2  H   UNL     1     -14.541  12.887  73.408  1.00  0.00     0.000 HD 
HETATM    3  C   UNL     1     -13.304  13.951  72.424  1.00  0.00    -0.529 C  
ENDROOT
BRANCH   3   4
HETATM    4  N   UNL     1     -12.307  13.681  71.447  1.00  0.00    -0.315 N  
HETATM    5  H   UNL     1     -11.573  13.000  71.645  1.00  0.00     0.000 HD 
BRANCH   4   6
HETATM    6  C   UNL     1     -12.328  14.328  70.248  1.00  0.00    -0.354 C  
HETATM    7  O   UNL     1     -13.076  15.280  70.043  1.00  0.00    -0.088 OA 
BRANCH   6   8
HETATM    8  N   UNL     1     -11.416  13.895  69.305  1.00  0.00    -0.281 N  
BRANCH   8   9
HETATM    9  C   UNL     1     -11.758  12.712  68.543  1.00  0.00    -0.330 C  
HETATM   10  O   UNL     1     -11.243  11.061  70.323  1.00  0.00    -0.256 OA 
HETATM   11  N   UNL     1     -11.124  12.601  67.249  1.00  0.00    -0.266 N  
HETATM   12  C   UNL     1     -11.306  11.358  69.135  1.00  0.00    -0.288 C  
HETATM   13  O   UNL     1     -10.543  10.845  65.854  1.00  0.00    -0.241 OA 
HETATM   14  N   UNL     1     -11.024  10.529  68.089  1.00  0.00    -0.256 N  
HETATM   15  C   UNL     1     -10.880  11.266  66.950  1.00  0.00    -0.282 C  
BRANCH  11  16
HETATM   16  C   UNL     1     -11.217  13.589  66.214  1.00  0.00    -0.297 C  
HETATM   17  H   UNL     1     -12.599  14.743  65.487  1.00  0.00     0.000 HD 
HETATM   18  O   UNL     1     -12.537  14.088  66.173  1.00  0.00    -0.468 OA 
ENDBRANCH  11  16
BRANCH  14  19
HETATM   19  C   UNL     1     -10.504   9.199  68.199  1.00  0.00    -0.211 C  
HETATM   20  O   UNL     1     -11.152   8.513  69.253  1.00  0.00    -0.435 OA 
HETATM   21  H   UNL     1     -10.808   7.631  69.326  1.00  0.00     0.000 HD 
ENDBRANCH  14  19
ENDBRANCH   8   9
BRANCH   8  22
HETATM   22  C   UNL     1     -10.065  14.392  69.200  1.00  0.00    -0.098 C  
HETATM   23  H   UNL     1      -9.054  15.819  70.012  1.00  0.00     0.000 HD 
HETATM   24  O   UNL     1      -9.943  15.492  70.081  1.00  0.00    -0.275 OA 
ENDBRANCH   8  22
ENDBRANCH   6   8
ENDBRANCH   4   6
ENDBRANCH   3   4
TORSDOF 7
ENDMDL
MODEL       99
REMARK 921   NORMALIZED FREE ENERGY PREDICTED BY IDOCK:   -3.73 KCAL/MOL
REMARK 922        TOTAL FREE ENERGY PREDICTED BY IDOCK:   -6.78 KCAL/MOL
REMARK 923 INTER-LIGAND FREE ENERGY PREDICTED BY IDOCK:   -5.72 KCAL/MOL
REMARK 924 INTRA-LIGAND FREE ENERGY PREDICTED BY IDOCK:   -1.07 KCAL/MOL
REMARK 927      BINDING AFFINITY PREDICTED BY RF-SCORE:    0.00 PKD
ROOT
HETATM    1  O   UNL     1     -11.163   5.901  66.306  1.00  0.00    -0.737 OA 
HETATM    2  H   UNL     1     -10.816   5.018  66.361  1.00  0.00     0.000 HD 
HETATM    3  C   UNL     1     -10.437   6.666  67.239  1.00  0.00    -0.275 C  
ENDROOT
BRANCH   3   4
HETATM    4  N   UNL     1     -10.955   7.987  67.156  1.00  0.00    -0.447 N  
HETATM    5  H   UNL     1     -11.910   8.178  67.459  1.00  0.00     0.000 HD 
BRANCH   4   6
HETATM    6  C   UNL     1     -10.181   8.999  66.673  1.00  0.00    -0.263 C  
HETATM    7  O   UNL     1      -9.275   8.791  65.869  1.00  0.00    -0.204 OA 
BRANCH   6   8
HETATM    8  N   UNL     1     -10.515  10.274  67.086  1.00  0.00    -0.241 N  
BRANCH   8   9
HETATM    9  C   UNL     1      -9.750  11.374  66.538  1.00  0.00    -0.200 C  
HETATM   10  O   UNL     1      -8.382  11.815  68.562  1.00  0.00    -0.156 OA 
HETATM   11  N   UNL     1     -10.528  12.438  65.945  1.00  0.00    -0.250 N  
HETATM   12  C   UNL     1      -8.939  12.219  67.546  1.00  0.00    -0.180 C  
HETATM   13  O   UNL     1     -10.198  14.703  65.582  1.00  0.00    -0.317 OA 
HETATM   14  N   UNL     1      -8.918  13.501  67.081  1.00  0.00    -0.219 N  
HETATM   15  C   UNL     1      -9.892  13.658  66.137  1.00  0.00    -0.293 C  
BRANCH  11  16
HETATM   16  C   UNL     1     -11.477  12.255  64.887  1.00  0.00    -0.332 C  
HETATM   17  H   UNL     1     -13.377  12.564  64.629  1.00  0.00     0.000 HD 
HETATM   18  O   UNL     1     -12.747  12.686  65.330  1.00  0.00    -0.635 OA 
ENDBRANCH  11  16
BRANCH  14  19
HETATM   19  C   UNL     1      -8.331  14.620  67.754  1.00  0.00    -0.162 C  
HETATM   20  O   UNL     1      -8.691  14.604  69.122  1.00  0.00    -0.322 OA 
HETATM   21  H   UNL     1      -8.302  15.346  69.569  1.00  0.00     0.000 HD 
ENDBRANCH  14  19
ENDBRANCH   8   9
BRANCH   8  22
HETATM   22  C   UNL     1     -11.399  10.558  68.192  1.00  0.00    -0.254 C  
HETATM   23  H   UNL     1     -11.512  10.020  70.040  1.00  0.00     0.000 HD 
HETATM   24  O   UNL     1     -10.930   9.833  69.312  1.00  0.00    -0.228 OA 
ENDBRANCH   8  22
ENDBRANCH   6   8
ENDBRANCH   4   6
ENDBRANCH   3   4
TORSDOF 7
ENDMDL
MODEL      100
REMARK 921   NORMALIZED FREE ENERGY PREDICTED BY IDOCK:   -3.73 KCAL/MOL
REMARK 922        TOTAL FREE ENERGY PREDICTED BY IDOCK:   -6.78 KCAL/MOL
REMARK 923 INTER-LIGAND FREE ENERGY PREDICTED BY IDOCK:   -5.96 KCAL/MOL
REMARK 924 INTRA-LIGAND FREE ENERGY PREDICTED BY IDOCK:   -0.83 KCAL/MOL
REMARK 927      BINDING AFFINITY PREDICTED BY RF-SCORE:    0.00 PKD
ROOT
HETATM    1  O   UNL     1     -14.114   8.823  73.239  1.00  0.00    -1.180 OA 
HETATM    2  H   UNL     1     -14.216   9.533  73.860  1.00  0.00     0.000 HD 
HETATM    3  C   UNL     1     -13.769   9.423  72.012  1.00  0.00    -0.395 C  
ENDROOT
BRANCH   3   4
HETATM    4  N   UNL     1     -13.616   8.359  71.081  1.00  0.00    -0.558 N  
HETATM    5  H   UNL     1     -14.141   8.370  70.207  1.00  0.00     0.000 HD 
BRANCH   4   6
HETATM    6  C   UNL     1     -12.770   7.326  71.353  1.00  0.00    -0.389 C  
HETATM    7  O   UNL     1     -13.101   6.399  72.089  1.00  0.00    -0.130 OA 
BRANCH   6   8
HETATM    8  N   UNL     1     -11.551   7.348  70.704  1.00  0.00    -0.288 N  
BRANCH   8   9
HETATM    9  C   UNL     1     -10.630   8.410  71.054  1.00  0.00    -0.214 C  
HETATM   10  O   UNL     1     -10.397   9.356  68.771  1.00  0.00    -0.198 OA 
HETATM   11  N   UNL     1      -9.457   7.998  71.790  1.00  0.00    -0.157 N  
HETATM   12  C   UNL     1      -9.924   9.123  69.879  1.00  0.00    -0.197 C  
HETATM   13  O   UNL     1      -7.305   8.822  72.038  1.00  0.00    -0.255 OA 
HETATM   14  N   UNL     1      -8.683   9.488  70.309  1.00  0.00    -0.224 N  
HETATM   15  C   UNL     1      -8.372   8.795  71.444  1.00  0.00    -0.168 C  
BRANCH  11  16
HETATM   16  C   UNL     1      -9.488   7.288  73.034  1.00  0.00    -0.168 C  
HETATM   17  H   UNL     1      -9.204   5.459  73.621  1.00  0.00     0.000 HD 
HETATM   18  O   UNL     1      -9.183   5.930  72.796  1.00  0.00    -0.142 OA 
ENDBRANCH  11  16
BRANCH  14  19
HETATM   19  C   UNL     1      -7.675  10.114  69.507  1.00  0.00    -0.155 C  
HETATM   20  O   UNL     1      -7.073  11.172  70.228  1.00  0.00    -0.461 OA 
HETATM   21  H   UNL     1      -6.405  11.587  69.696  1.00  0.00     0.000 HD 
ENDBRANCH  14  19
ENDBRANCH   8   9
BRANCH   8  22
HETATM   22  C   UNL     1     -11.236   6.542  69.549  1.00  0.00    -0.372 C  
HETATM   23  H   UNL     1     -10.396   4.833  69.248  1.00  0.00     0.000 HD 
HETATM   24  O   UNL     1     -10.603   5.363  70.008  1.00  0.00    -0.305 OA 
ENDBRANCH   8  22
ENDBRANCH   6   8
ENDBRANCH   4   6
ENDBRANCH   3   4
TORSDOF 7
ENDMDL
MODEL      101
REMARK 921   NORMALIZED FREE ENERGY PREDICTED BY IDOCK:   -3.71 KCAL/MOL
REMARK 922        TOTAL FREE ENERGY PREDICTED BY IDOCK:   -6.76 KCAL/MOL
REMARK 923 INTER-LIGAND FREE ENERGY PREDICTED BY IDOCK:   -6.24 KCAL/MOL
REMARK 924 INTRA-LIGAND FREE ENERGY PREDICTED BY IDOCK:   -0.51 KCAL/MOL
REMARK 927      BINDING AFFINITY PREDICTED BY RF-SCORE:    0.00 PKD
ROOT
HETATM    1  O   UNL     1      -8.607  10.878  64.648  1.00  0.00    -0.336 OA 
HETATM    2  H   UNL     1      -8.076  10.136  64.387  1.00  0.00     0.000 HD 
HETATM    3  C   UNL     1      -9.944  10.434  64.611  1.00  0.00    -0.338 C  
ENDROOT
BRANCH   3   4
HETATM    4  N   UNL     1     -10.740  11.546  65.002  1.00  0.00    -0.293 N  
HETATM    5  H   UNL     1     -11.490  11.873  64.393  1.00  0.00     0.000 HD 
BRANCH   4   6
HETATM    6  C   UNL     1     -10.505  12.176  66.187  1.00  0.00    -0.248 C  
HETATM    7  O   UNL     1      -9.899  11.622  67.102  1.00  0.00    -0.187 OA 
BRANCH   6   8
HETATM    8  N   UNL     1     -10.927  13.487  66.276  1.00  0.00    -0.288 N  
BRANCH   8   9
HETATM    9  C   UNL     1      -9.910  14.518  66.241  1.00  0.00    -0.304 C  
HETATM   10  O   UNL     1      -9.293  14.398  68.643  1.00  0.00    -0.201 OA 
HETATM   11  N   UNL     1     -10.320  15.777  65.662  1.00  0.00    -0.363 N  
HETATM   12  C   UNL     1      -9.418  15.045  67.608  1.00  0.00    -0.195 C  
HETATM   13  O   UNL     1      -9.654  17.984  65.900  1.00  0.00    -0.520 OA 
HETATM   14  N   UNL     1      -9.105  16.363  67.449  1.00  0.00    -0.199 N  
HETATM   15  C   UNL     1      -9.668  16.828  66.296  1.00  0.00    -0.297 C  
BRANCH  11  16
HETATM   16  C   UNL     1     -10.856  15.925  64.341  1.00  0.00     0.163 C  
HETATM   17  H   UNL     1     -11.828  17.291  63.360  1.00  0.00     0.000 HD 
HETATM   18  O   UNL     1     -11.472  17.192  64.235  1.00  0.00    -1.062 OA 
ENDBRANCH  11  16
BRANCH  14  19
HETATM   19  C   UNL     1      -8.677  17.247  68.491  1.00  0.00    -0.273 C  
HETATM   20  O   UNL     1      -7.746  18.182  67.977  1.00  0.00    -0.241 OA 
HETATM   21  H   UNL     1      -7.462  18.768  68.668  1.00  0.00     0.000 HD 
ENDBRANCH  14  19
ENDBRANCH   8   9
BRANCH   8  22
HETATM   22  C   UNL     1     -12.268  13.882  66.636  1.00  0.00    -0.424 C  
HETATM   23  H   UNL     1     -13.983  13.900  65.757  1.00  0.00     0.000 HD 
HETATM   24  O   UNL     1     -13.101  13.640  65.519  1.00  0.00    -0.639 OA 
ENDBRANCH   8  22
ENDBRANCH   6   8
ENDBRANCH   4   6
ENDBRANCH   3   4
TORSDOF 7
ENDMDL
MODEL      102
REMARK 921   NORMALIZED FREE ENERGY PREDICTED BY IDOCK:   -3.69 KCAL/MOL
REMARK 922        TOTAL FREE ENERGY PREDICTED BY IDOCK:   -6.73 KCAL/MOL
REMARK 923 INTER-LIGAND FREE ENERGY PREDICTED BY IDOCK:   -5.15 KCAL/MOL
REMARK 924 INTRA-LIGAND FREE ENERGY PREDICTED BY IDOCK:   -1.58 KCAL/MOL
REMARK 927      BINDING AFFINITY PREDICTED BY RF-SCORE:    0.00 PKD
ROOT
HETATM    1  O   UNL     1     -10.616  12.415  69.053  1.00  0.00    -0.376 OA 
HETATM    2  H   UNL     1     -10.631  13.329  68.795  1.00  0.00     0.000 HD 
HETATM    3  C   UNL     1     -11.683  11.798  68.370  1.00  0.00    -0.325 C  
ENDROOT
BRANCH   3   4
HETATM    4  N   UNL     1     -11.660  10.429  68.757  1.00  0.00    -0.497 N  
HETATM    5  H   UNL     1     -11.752   9.700  68.050  1.00  0.00     0.000 HD 
BRANCH   4   6
HETATM    6  C   UNL     1     -11.518  10.089  70.069  1.00  0.00    -0.248 C  
HETATM    7  O   UNL     1     -12.173  10.638  70.952  1.00  0.00    -0.327 OA 
BRANCH   6   8
HETATM    8  N   UNL     1     -10.646   9.053  70.339  1.00  0.00    -0.207 N  
BRANCH   8   9
HETATM    9  C   UNL     1     -11.222   7.754  70.620  1.00  0.00    -0.268 C  
HETATM   10  O   UNL     1     -11.479   8.072  73.068  1.00  0.00    -0.370 OA 
HETATM   11  N   UNL     1     -10.481   6.622  70.111  1.00  0.00    -0.202 N  
HETATM   12  C   UNL     1     -11.286   7.336  72.106  1.00  0.00    -0.252 C  
HETATM   13  O   UNL     1     -10.274   4.395  70.714  1.00  0.00    -0.172 OA 
HETATM   14  N   UNL     1     -11.128   5.982  72.156  1.00  0.00    -0.265 N  
HETATM   15  C   UNL     1     -10.614   5.540  70.972  1.00  0.00    -0.230 C  
BRANCH  11  16
HETATM   16  C   UNL     1     -10.129   6.436  68.734  1.00  0.00    -0.158 C  
HETATM   17  H   UNL     1     -11.060   6.429  67.030  1.00  0.00     0.000 HD 
HETATM   18  O   UNL     1     -11.293   6.553  67.943  1.00  0.00    -0.245 OA 
ENDBRANCH  11  16
BRANCH  14  19
HETATM   19  C   UNL     1     -11.054   5.198  73.352  1.00  0.00    -0.320 C  
HETATM   20  O   UNL     1     -10.186   5.816  74.282  1.00  0.00    -0.241 OA 
HETATM   21  H   UNL     1     -10.137   5.296  75.075  1.00  0.00     0.000 HD 
ENDBRANCH  14  19
ENDBRANCH   8   9
BRANCH   8  22
HETATM   22  C   UNL     1      -9.236   9.229  70.594  1.00  0.00    -0.264 C  
HETATM   23  H   UNL     1      -7.804  10.234  69.785  1.00  0.00     0.000 HD 
HETATM   24  O   UNL     1      -8.732  10.119  69.617  1.00  0.00    -0.186 OA 
ENDBRANCH   8  22
ENDBRANCH   6   8
ENDBRANCH   4   6
ENDBRANCH   3   4
TORSDOF 7
ENDMDL
MODEL      103
REMARK 921   NORMALIZED FREE ENERGY PREDICTED BY IDOCK:   -3.67 KCAL/MOL
REMARK 922        TOTAL FREE ENERGY PREDICTED BY IDOCK:   -6.70 KCAL/MOL
REMARK 923 INTER-LIGAND FREE ENERGY PREDICTED BY IDOCK:   -5.86 KCAL/MOL
REMARK 924 INTRA-LIGAND FREE ENERGY PREDICTED BY IDOCK:   -0.84 KCAL/MOL
REMARK 927      BINDING AFFINITY PREDICTED BY RF-SCORE:    0.00 PKD
ROOT
HETATM    1  O   UNL     1     -12.126  13.744  65.851  1.00  0.00    -0.381 OA 
HETATM    2  H   UNL     1     -12.918  13.267  65.632  1.00  0.00     0.000 HD 
HETATM    3  C   UNL     1     -11.066  13.046  65.241  1.00  0.00    -0.286 C  
ENDROOT
BRANCH   3   4
HETATM    4  N   UNL     1      -9.882  13.761  65.568  1.00  0.00    -0.504 N  
HETATM    5  H   UNL     1      -9.361  14.243  64.836  1.00  0.00     0.000 HD 
BRANCH   4   6
HETATM    6  C   UNL     1      -9.440  13.803  66.857  1.00  0.00    -0.262 C  
HETATM    7  O   UNL     1      -9.418  12.799  67.564  1.00  0.00    -0.178 OA 
BRANCH   6   8
HETATM    8  N   UNL     1      -8.959  15.021  67.297  1.00  0.00    -0.189 N  
BRANCH   8   9
HETATM    9  C   UNL     1      -9.591  16.215  66.775  1.00  0.00    -0.240 C  
HETATM   10  O   UNL     1      -7.552  17.201  65.758  1.00  0.00    -0.381 OA 
HETATM   11  N   UNL     1     -10.365  16.976  67.728  1.00  0.00    -0.322 N  
HETATM   12  C   UNL     1      -8.646  17.340  66.296  1.00  0.00    -0.229 C  
HETATM   13  O   UNL     1     -10.989  19.199  67.928  1.00  0.00    -0.308 OA 
HETATM   14  N   UNL     1      -9.268  18.528  66.544  1.00  0.00    -0.310 N  
HETATM   15  C   UNL     1     -10.287  18.332  67.431  1.00  0.00    -0.392 C  
BRANCH  11  16
HETATM   16  C   UNL     1     -11.453  16.447  68.497  1.00  0.00    -0.209 C  
HETATM   17  H   UNL     1     -11.742  15.900  70.338  1.00  0.00     0.000 HD 
HETATM   18  O   UNL     1     -11.021  16.252  69.827  1.00  0.00    -0.322 OA 
ENDBRANCH  11  16
BRANCH  14  19
HETATM   19  C   UNL     1      -8.705  19.825  66.316  1.00  0.00    -0.363 C  
HETATM   20  O   UNL     1      -9.674  20.676  65.734  1.00  0.00    -0.603 OA 
HETATM   21  H   UNL     1      -9.300  21.536  65.583  1.00  0.00     0.000 HD 
ENDBRANCH  14  19
ENDBRANCH   8   9
BRANCH   8  22
HETATM   22  C   UNL     1      -7.734  15.183  68.043  1.00  0.00    -0.124 C  
HETATM   23  H   UNL     1      -5.901  14.628  67.822  1.00  0.00     0.000 HD 
HETATM   24  O   UNL     1      -6.708  14.521  67.330  1.00  0.00    -0.258 OA 
ENDBRANCH   8  22
ENDBRANCH   6   8
ENDBRANCH   4   6
ENDBRANCH   3   4
TORSDOF 7
ENDMDL
MODEL      104
REMARK 921   NORMALIZED FREE ENERGY PREDICTED BY IDOCK:   -3.66 KCAL/MOL
REMARK 922        TOTAL FREE ENERGY PREDICTED BY IDOCK:   -6.68 KCAL/MOL
REMARK 923 INTER-LIGAND FREE ENERGY PREDICTED BY IDOCK:   -6.23 KCAL/MOL
REMARK 924 INTRA-LIGAND FREE ENERGY PREDICTED BY IDOCK:   -0.46 KCAL/MOL
REMARK 927      BINDING AFFINITY PREDICTED BY RF-SCORE:    0.00 PKD
ROOT
HETATM    1  O   UNL     1     -12.481  14.988  64.182  1.00  0.00    -0.809 OA 
HETATM    2  H   UNL     1     -13.212  15.065  63.581  1.00  0.00     0.000 HD 
HETATM    3  C   UNL     1     -12.963  14.269  65.293  1.00  0.00    -0.173 C  
ENDROOT
BRANCH   3   4
HETATM    4  N   UNL     1     -11.868  14.153  66.193  1.00  0.00    -0.391 N  
HETATM    5  H   UNL     1     -11.444  14.992  66.588  1.00  0.00     0.000 HD 
BRANCH   4   6
HETATM    6  C   UNL     1     -11.385  12.924  66.531  1.00  0.00    -0.318 C  
HETATM    7  O   UNL     1     -11.865  11.892  66.067  1.00  0.00    -0.497 OA 
BRANCH   6   8
HETATM    8  N   UNL     1     -10.287  12.910  67.369  1.00  0.00    -0.232 N  
BRANCH   8   9
HETATM    9  C   UNL     1     -10.533  12.730  68.785  1.00  0.00    -0.156 C  
HETATM   10  O   UNL     1     -11.283  10.368  68.653  1.00  0.00    -0.256 OA 
HETATM   11  N   UNL     1     -11.382  13.725  69.400  1.00  0.00    -0.261 N  
HETATM   12  C   UNL     1     -11.329  11.469  69.191  1.00  0.00    -0.286 C  
HETATM   13  O   UNL     1     -12.791  13.767  71.239  1.00  0.00    -0.337 OA 
HETATM   14  N   UNL     1     -12.069  11.790  70.291  1.00  0.00    -0.351 N  
HETATM   15  C   UNL     1     -12.137  13.148  70.413  1.00  0.00    -0.317 C  
BRANCH  11  16
HETATM   16  C   UNL     1     -11.125  15.136  69.377  1.00  0.00    -0.276 C  
HETATM   17  H   UNL     1     -11.840  16.683  68.448  1.00  0.00     0.000 HD 
HETATM   18  O   UNL     1     -12.010  15.749  68.463  1.00  0.00    -0.314 OA 
ENDBRANCH  11  16
BRANCH  14  19
HETATM   19  C   UNL     1     -13.003  10.925  70.946  1.00  0.00    -0.257 C  
HETATM   20  O   UNL     1     -13.351  11.458  72.209  1.00  0.00    -0.629 OA 
HETATM   21  H   UNL     1     -13.971  10.885  72.643  1.00  0.00     0.000 HD 
ENDBRANCH  14  19
ENDBRANCH   8   9
BRANCH   8  22
HETATM   22  C   UNL     1      -8.957  13.296  66.964  1.00  0.00    -0.228 C  
HETATM   23  H   UNL     1      -7.386  13.970  67.856  1.00  0.00     0.000 HD 
HETATM   24  O   UNL     1      -8.262  13.715  68.122  1.00  0.00    -0.140 OA 
ENDBRANCH   8  22
ENDBRANCH   6   8
ENDBRANCH   4   6
ENDBRANCH   3   4
TORSDOF 7
ENDMDL
MODEL      105
REMARK 921   NORMALIZED FREE ENERGY PREDICTED BY IDOCK:   -3.66 KCAL/MOL
REMARK 922        TOTAL FREE ENERGY PREDICTED BY IDOCK:   -6.68 KCAL/MOL
REMARK 923 INTER-LIGAND FREE ENERGY PREDICTED BY IDOCK:   -5.86 KCAL/MOL
REMARK 924 INTRA-LIGAND FREE ENERGY PREDICTED BY IDOCK:   -0.82 KCAL/MOL
REMARK 927      BINDING AFFINITY PREDICTED BY RF-SCORE:    0.00 PKD
ROOT
HETATM    1  O   UNL     1     -13.388  15.837  70.729  1.00  0.00    -0.719 OA 
HETATM    2  H   UNL     1     -13.270  16.252  71.575  1.00  0.00     0.000 HD 
HETATM    3  C   UNL     1     -12.596  14.672  70.750  1.00  0.00    -0.350 C  
ENDROOT
BRANCH   3   4
HETATM    4  N   UNL     1     -12.773  14.051  69.483  1.00  0.00    -0.330 N  
HETATM    5  H   UNL     1     -13.683  13.669  69.227  1.00  0.00     0.000 HD 
BRANCH   4   6
HETATM    6  C   UNL     1     -11.730  13.964  68.610  1.00  0.00    -0.361 C  
HETATM    7  O   UNL     1     -10.674  14.561  68.806  1.00  0.00    -0.238 OA 
BRANCH   6   8
HETATM    8  N   UNL     1     -11.905  13.118  67.533  1.00  0.00    -0.367 N  
BRANCH   8   9
HETATM    9  C   UNL     1     -11.428  11.757  67.670  1.00  0.00    -0.300 C  
HETATM   10  O   UNL     1     -12.969  11.091  69.497  1.00  0.00    -0.092 OA 
HETATM   11  N   UNL     1     -10.000  11.613  67.839  1.00  0.00    -0.178 N  
HETATM   12  C   UNL     1     -11.886  10.991  68.931  1.00  0.00    -0.308 C  
HETATM   13  O   UNL     1      -8.618  10.034  68.821  1.00  0.00    -0.119 OA 
HETATM   14  N   UNL     1     -10.877  10.145  69.283  1.00  0.00    -0.223 N  
HETATM   15  C   UNL     1      -9.724  10.525  68.658  1.00  0.00    -0.173 C  
BRANCH  11  16
HETATM   16  C   UNL     1      -9.020  12.121  66.925  1.00  0.00    -0.201 C  
HETATM   17  H   UNL     1      -7.469  13.285  67.024  1.00  0.00     0.000 HD 
HETATM   18  O   UNL     1      -8.119  12.948  67.630  1.00  0.00    -0.142 OA 
ENDBRANCH  11  16
BRANCH  14  19
HETATM   19  C   UNL     1     -10.865   9.301  70.440  1.00  0.00    -0.254 C  
HETATM   20  O   UNL     1     -12.027   8.493  70.460  1.00  0.00    -0.486 OA 
HETATM   21  H   UNL     1     -12.019   7.933  71.227  1.00  0.00     0.000 HD 
ENDBRANCH  14  19
ENDBRANCH   8   9
BRANCH   8  22
HETATM   22  C   UNL     1     -12.306  13.558  66.218  1.00  0.00    -0.383 C  
HETATM   23  H   UNL     1     -12.791  12.694  64.564  1.00  0.00     0.000 HD 
HETATM   24  O   UNL     1     -12.528  12.405  65.430  1.00  0.00    -0.637 OA 
ENDBRANCH   8  22
ENDBRANCH   6   8
ENDBRANCH   4   6
ENDBRANCH   3   4
TORSDOF 7
ENDMDL
MODEL      106
REMARK 921   NORMALIZED FREE ENERGY PREDICTED BY IDOCK:   -3.66 KCAL/MOL
REMARK 922        TOTAL FREE ENERGY PREDICTED BY IDOCK:   -6.68 KCAL/MOL
REMARK 923 INTER-LIGAND FREE ENERGY PREDICTED BY IDOCK:   -5.76 KCAL/MOL
REMARK 924 INTRA-LIGAND FREE ENERGY PREDICTED BY IDOCK:   -0.92 KCAL/MOL
REMARK 927      BINDING AFFINITY PREDICTED BY RF-SCORE:    0.00 PKD
ROOT
HETATM    1  O   UNL     1     -13.280  15.036  70.181  1.00  0.00    -0.627 OA 
HETATM    2  H   UNL     1     -14.035  15.128  70.749  1.00  0.00     0.000 HD 
HETATM    3  C   UNL     1     -12.170  14.860  71.031  1.00  0.00    -0.317 C  
ENDROOT
BRANCH   3   4
HETATM    4  N   UNL     1     -11.039  14.721  70.181  1.00  0.00    -0.400 N  
HETATM    5  H   UNL     1     -10.213  14.223  70.512  1.00  0.00     0.000 HD 
BRANCH   4   6
HETATM    6  C   UNL     1     -11.055  15.252  68.926  1.00  0.00    -0.266 C  
HETATM    7  O   UNL     1     -11.258  16.448  68.734  1.00  0.00    -0.337 OA 
BRANCH   6   8
HETATM    8  N   UNL     1     -10.765  14.383  67.892  1.00  0.00    -0.242 N  
BRANCH   8   9
HETATM    9  C   UNL     1      -9.551  14.624  67.140  1.00  0.00    -0.233 C  
HETATM   10  O   UNL     1      -7.967  14.226  69.009  1.00  0.00    -0.117 OA 
HETATM   11  N   UNL     1      -9.509  15.869  66.409  1.00  0.00    -0.270 N  
HETATM   12  C   UNL     1      -8.255  14.798  67.963  1.00  0.00    -0.142 C  
HETATM   13  O   UNL     1      -7.825  17.276  65.664  1.00  0.00    -0.417 OA 
HETATM   14  N   UNL     1      -7.460  15.680  67.292  1.00  0.00    -0.204 N  
HETATM   15  C   UNL     1      -8.208  16.357  66.372  1.00  0.00    -0.331 C  
BRANCH  11  16
HETATM   16  C   UNL     1     -10.479  16.270  65.433  1.00  0.00    -0.343 C  
HETATM   17  H   UNL     1     -11.361  17.922  64.918  1.00  0.00     0.000 HD 
HETATM   18  O   UNL     1     -10.717  17.656  65.564  1.00  0.00    -0.565 OA 
ENDBRANCH  11  16
BRANCH  14  19
HETATM   19  C   UNL     1      -6.195  16.173  67.747  1.00  0.00    -0.137 C  
HETATM   20  O   UNL     1      -6.304  16.617  69.086  1.00  0.00    -0.170 OA 
HETATM   21  H   UNL     1      -5.465  16.943  69.388  1.00  0.00     0.000 HD 
ENDBRANCH  14  19
ENDBRANCH   8   9
BRANCH   8  22
HETATM   22  C   UNL     1     -11.697  13.413  67.367  1.00  0.00    -0.373 C  
HETATM   23  H   UNL     1     -12.076  11.551  67.689  1.00  0.00     0.000 HD 
HETATM   24  O   UNL     1     -11.463  12.189  68.035  1.00  0.00    -0.274 OA 
ENDBRANCH   8  22
ENDBRANCH   6   8
ENDBRANCH   4   6
ENDBRANCH   3   4
TORSDOF 7
ENDMDL
MODEL      107
REMARK 921   NORMALIZED FREE ENERGY PREDICTED BY IDOCK:   -3.64 KCAL/MOL
REMARK 922        TOTAL FREE ENERGY PREDICTED BY IDOCK:   -6.66 KCAL/MOL
REMARK 923 INTER-LIGAND FREE ENERGY PREDICTED BY IDOCK:   -5.96 KCAL/MOL
REMARK 924 INTRA-LIGAND FREE ENERGY PREDICTED BY IDOCK:   -0.71 KCAL/MOL
REMARK 927      BINDING AFFINITY PREDICTED BY RF-SCORE:    0.00 PKD
ROOT
HETATM    1  O   UNL     1      -9.960   9.665  64.755  1.00  0.00    -0.399 OA 
HETATM    2  H   UNL     1      -9.511   9.366  63.974  1.00  0.00     0.000 HD 
HETATM    3  C   UNL     1      -9.146  10.668  65.317  1.00  0.00    -0.195 C  
ENDROOT
BRANCH   3   4
HETATM    4  N   UNL     1      -9.820  11.115  66.487  1.00  0.00    -0.203 N  
HETATM    5  H   UNL     1     -10.536  10.529  66.916  1.00  0.00     0.000 HD 
BRANCH   4   6
HETATM    6  C   UNL     1      -9.512  12.324  67.035  1.00  0.00    -0.204 C  
HETATM    7  O   UNL     1      -8.348  12.677  67.205  1.00  0.00    -0.181 OA 
BRANCH   6   8
HETATM    8  N   UNL     1     -10.580  13.150  67.327  1.00  0.00    -0.246 N  
BRANCH   8   9
HETATM    9  C   UNL     1     -10.724  13.592  68.699  1.00  0.00    -0.256 C  
HETATM   10  O   UNL     1     -11.587  11.449  69.605  1.00  0.00    -0.274 OA 
HETATM   11  N   UNL     1     -11.477  14.811  68.883  1.00  0.00    -0.282 N  
HETATM   12  C   UNL     1     -11.542  12.674  69.635  1.00  0.00    -0.251 C  
HETATM   13  O   UNL     1     -12.738  15.714  70.605  1.00  0.00    -0.454 OA 
HETATM   14  N   UNL     1     -12.180  13.475  70.536  1.00  0.00    -0.362 N  
HETATM   15  C   UNL     1     -12.178  14.762  70.082  1.00  0.00    -0.337 C  
BRANCH  11  16
HETATM   16  C   UNL     1     -11.160  16.063  68.260  1.00  0.00    -0.351 C  
HETATM   17  H   UNL     1      -9.617  17.237  68.162  1.00  0.00     0.000 HD 
HETATM   18  O   UNL     1      -9.827  16.408  68.575  1.00  0.00    -0.217 OA 
ENDBRANCH  11  16
BRANCH  14  19
HETATM   19  C   UNL     1     -13.100  13.029  71.539  1.00  0.00    -0.310 C  
HETATM   20  O   UNL     1     -13.047  13.892  72.659  1.00  0.00    -0.454 OA 
HETATM   21  H   UNL     1     -13.657  13.597  73.324  1.00  0.00     0.000 HD 
ENDBRANCH  14  19
ENDBRANCH   8   9
BRANCH   8  22
HETATM   22  C   UNL     1     -11.677  13.402  66.423  1.00  0.00    -0.368 C  
HETATM   23  H   UNL     1     -12.972  12.319  65.493  1.00  0.00     0.000 HD 
HETATM   24  O   UNL     1     -12.250  12.153  66.088  1.00  0.00    -0.611 OA 
ENDBRANCH   8  22
ENDBRANCH   6   8
ENDBRANCH   4   6
ENDBRANCH   3   4
TORSDOF 7
ENDMDL
MODEL      108
REMARK 921   NORMALIZED FREE ENERGY PREDICTED BY IDOCK:   -3.63 KCAL/MOL
REMARK 922        TOTAL FREE ENERGY PREDICTED BY IDOCK:   -6.65 KCAL/MOL
REMARK 923 INTER-LIGAND FREE ENERGY PREDICTED BY IDOCK:   -6.02 KCAL/MOL
REMARK 924 INTRA-LIGAND FREE ENERGY PREDICTED BY IDOCK:   -0.64 KCAL/MOL
REMARK 927      BINDING AFFINITY PREDICTED BY RF-SCORE:    0.00 PKD
ROOT
HETATM    1  O   UNL     1      -7.161  15.419  67.891  1.00  0.00    -0.115 OA 
HETATM    2  H   UNL     1      -6.350  15.522  68.374  1.00  0.00     0.000 HD 
HETATM    3  C   UNL     1      -7.176  14.088  67.430  1.00  0.00    -0.095 C  
ENDROOT
BRANCH   3   4
HETATM    4  N   UNL     1      -8.390  13.934  66.705  1.00  0.00    -0.422 N  
HETATM    5  H   UNL     1      -8.495  14.374  65.791  1.00  0.00     0.000 HD 
BRANCH   4   6
HETATM    6  C   UNL     1      -9.412  13.201  67.228  1.00  0.00    -0.225 C  
HETATM    7  O   UNL     1      -9.218  12.345  68.088  1.00  0.00    -0.196 OA 
BRANCH   6   8
HETATM    8  N   UNL     1     -10.681  13.521  66.786  1.00  0.00    -0.277 N  
BRANCH   8   9
HETATM    9  C   UNL     1     -11.135  14.881  66.993  1.00  0.00    -0.338 C  
HETATM   10  O   UNL     1     -10.316  15.793  64.835  1.00  0.00    -0.487 OA 
HETATM   11  N   UNL     1     -10.727  15.490  68.238  1.00  0.00    -0.262 N  
HETATM   12  C   UNL     1     -10.579  15.948  66.023  1.00  0.00    -0.323 C  
HETATM   13  O   UNL     1     -10.373  17.664  68.960  1.00  0.00    -0.360 OA 
HETATM   14  N   UNL     1     -10.470  17.115  66.720  1.00  0.00    -0.297 N  
HETATM   15  C   UNL     1     -10.525  16.853  68.058  1.00  0.00    -0.347 C  
BRANCH  11  16
HETATM   16  C   UNL     1     -11.000  14.945  69.535  1.00  0.00    -0.273 C  
HETATM   17  H   UNL     1     -12.564  14.314  70.498  1.00  0.00     0.000 HD 
HETATM   18  O   UNL     1     -12.382  14.674  69.638  1.00  0.00    -0.298 OA 
ENDBRANCH  11  16
BRANCH  14  19
HETATM   19  C   UNL     1      -9.928  18.339  66.211  1.00  0.00    -0.357 C  
HETATM   20  O   UNL     1     -10.738  19.428  66.610  1.00  0.00    -0.443 OA 
HETATM   21  H   UNL     1     -10.379  20.240  66.273  1.00  0.00     0.000 HD 
ENDBRANCH  14  19
ENDBRANCH   8   9
BRANCH   8  22
HETATM   22  C   UNL     1     -11.656  12.547  66.357  1.00  0.00    -0.391 C  
HETATM   23  H   UNL     1     -12.842  11.306  67.234  1.00  0.00     0.000 HD 
HETATM   24  O   UNL     1     -12.200  11.947  67.516  1.00  0.00    -0.510 OA 
ENDBRANCH   8  22
ENDBRANCH   6   8
ENDBRANCH   4   6
ENDBRANCH   3   4
TORSDOF 7
ENDMDL
MODEL      109
REMARK 921   NORMALIZED FREE ENERGY PREDICTED BY IDOCK:   -3.63 KCAL/MOL
REMARK 922        TOTAL FREE ENERGY PREDICTED BY IDOCK:   -6.65 KCAL/MOL
REMARK 923 INTER-LIGAND FREE ENERGY PREDICTED BY IDOCK:   -5.55 KCAL/MOL
REMARK 924 INTRA-LIGAND FREE ENERGY PREDICTED BY IDOCK:   -1.10 KCAL/MOL
REMARK 927      BINDING AFFINITY PREDICTED BY RF-SCORE:    0.00 PKD
ROOT
HETATM    1  O   UNL     1     -11.509   4.508  64.997  1.00  0.00    -1.101 OA 
HETATM    2  H   UNL     1     -11.279   3.619  64.754  1.00  0.00     0.000 HD 
HETATM    3  C   UNL     1     -10.642   4.862  66.050  1.00  0.00    -0.261 C  
ENDROOT
BRANCH   3   4
HETATM    4  N   UNL     1     -10.986   6.192  66.415  1.00  0.00    -0.680 N  
HETATM    5  H   UNL     1     -11.403   6.817  65.724  1.00  0.00     0.000 HD 
BRANCH   4   6
HETATM    6  C   UNL     1     -10.760   6.636  67.683  1.00  0.00    -0.302 C  
HETATM    7  O   UNL     1     -11.218   6.051  68.662  1.00  0.00    -0.307 OA 
BRANCH   6   8
HETATM    8  N   UNL     1      -9.937   7.737  67.807  1.00  0.00    -0.164 N  
BRANCH   8   9
HETATM    9  C   UNL     1     -10.551   9.045  67.694  1.00  0.00    -0.231 C  
HETATM   10  O   UNL     1      -9.843   9.498  65.359  1.00  0.00    -0.302 OA 
HETATM   11  N   UNL     1     -10.220   9.979  68.745  1.00  0.00    -0.177 N  
HETATM   12  C   UNL     1     -10.125   9.903  66.482  1.00  0.00    -0.232 C  
HETATM   13  O   UNL     1     -10.130  12.289  68.915  1.00  0.00    -0.123 OA 
HETATM   14  N   UNL     1     -10.157  11.208  66.875  1.00  0.00    -0.208 N  
HETATM   15  C   UNL     1     -10.182  11.273  68.238  1.00  0.00    -0.186 C  
BRANCH  11  16
HETATM   16  C   UNL     1     -10.428   9.736  70.142  1.00  0.00    -0.286 C  
HETATM   17  H   UNL     1      -9.317   9.334  71.683  1.00  0.00     0.000 HD 
HETATM   18  O   UNL     1      -9.180   9.496  70.757  1.00  0.00    -0.236 OA 
ENDBRANCH  11  16
BRANCH  14  19
HETATM   19  C   UNL     1      -9.764  12.328  66.073  1.00  0.00    -0.242 C  
HETATM   20  O   UNL     1     -10.679  13.392  66.249  1.00  0.00    -0.283 OA 
HETATM   21  H   UNL     1     -10.419  14.135  65.718  1.00  0.00     0.000 HD 
ENDBRANCH  14  19
ENDBRANCH   8   9
BRANCH   8  22
HETATM   22  C   UNL     1      -8.494   7.672  67.799  1.00  0.00    -0.122 C  
HETATM   23  H   UNL     1      -7.151   7.009  66.585  1.00  0.00     0.000 HD 
HETATM   24  O   UNL     1      -8.100   7.052  66.590  1.00  0.00    -0.106 OA 
ENDBRANCH   8  22
ENDBRANCH   6   8
ENDBRANCH   4   6
ENDBRANCH   3   4
TORSDOF 7
ENDMDL
MODEL      110
REMARK 921   NORMALIZED FREE ENERGY PREDICTED BY IDOCK:   -3.63 KCAL/MOL
REMARK 922        TOTAL FREE ENERGY PREDICTED BY IDOCK:   -6.65 KCAL/MOL
REMARK 923 INTER-LIGAND FREE ENERGY PREDICTED BY IDOCK:   -5.18 KCAL/MOL
REMARK 924 INTRA-LIGAND FREE ENERGY PREDICTED BY IDOCK:   -1.47 KCAL/MOL
REMARK 927      BINDING AFFINITY PREDICTED BY RF-SCORE:    0.00 PKD
ROOT
HETATM    1  O   UNL     1      -8.358  10.913  64.619  1.00  0.00    -0.365 OA 
HETATM    2  H   UNL     1      -7.642  10.471  64.180  1.00  0.00     0.000 HD 
HETATM    3  C   UNL     1      -9.542  10.366  64.088  1.00  0.00    -0.322 C  
ENDROOT
BRANCH   3   4
HETATM    4  N   UNL     1     -10.614  11.028  64.746  1.00  0.00    -0.308 N  
HETATM    5  H   UNL     1     -11.482  10.526  64.934  1.00  0.00     0.000 HD 
BRANCH   4   6
HETATM    6  C   UNL     1     -10.487  12.331  65.125  1.00  0.00    -0.288 C  
HETATM    7  O   UNL     1     -10.523  13.247  64.307  1.00  0.00    -0.424 OA 
BRANCH   6   8
HETATM    8  N   UNL     1     -10.381  12.563  66.482  1.00  0.00    -0.234 N  
BRANCH   8   9
HETATM    9  C   UNL     1      -9.624  13.725  66.902  1.00  0.00    -0.262 C  
HETATM   10  O   UNL     1      -7.424  12.591  67.080  1.00  0.00    -0.143 OA 
HETATM   11  N   UNL     1     -10.163  14.441  68.035  1.00  0.00    -0.225 N  
HETATM   12  C   UNL     1      -8.205  13.460  67.452  1.00  0.00    -0.183 C  
HETATM   13  O   UNL     1      -9.273  15.798  69.690  1.00  0.00    -0.265 OA 
HETATM   14  N   UNL     1      -7.956  14.401  68.409  1.00  0.00    -0.133 N  
HETATM   15  C   UNL     1      -9.131  14.980  68.794  1.00  0.00    -0.197 C  
BRANCH  11  16
HETATM   16  C   UNL     1     -11.489  14.983  68.097  1.00  0.00    -0.339 C  
HETATM   17  H   UNL     1     -13.089  14.676  69.154  1.00  0.00     0.000 HD 
HETATM   18  O   UNL     1     -12.210  14.318  69.113  1.00  0.00    -0.316 OA 
ENDBRANCH  11  16
BRANCH  14  19
HETATM   19  C   UNL     1      -6.778  14.470  69.220  1.00  0.00    -0.127 C  
HETATM   20  O   UNL     1      -7.132  14.422  70.589  1.00  0.00    -0.300 OA 
HETATM   21  H   UNL     1      -6.350  14.468  71.127  1.00  0.00     0.000 HD 
ENDBRANCH  14  19
ENDBRANCH   8   9
BRANCH   8  22
HETATM   22  C   UNL     1     -10.761  11.610  67.497  1.00  0.00    -0.215 C  
HETATM   23  H   UNL     1     -12.392  10.716  68.007  1.00  0.00     0.000 HD 
HETATM   24  O   UNL     1     -12.141  11.343  67.339  1.00  0.00    -0.533 OA 
ENDBRANCH   8  22
ENDBRANCH   6   8
ENDBRANCH   4   6
ENDBRANCH   3   4
TORSDOF 7
ENDMDL
MODEL      111
REMARK 921   NORMALIZED FREE ENERGY PREDICTED BY IDOCK:   -3.62 KCAL/MOL
REMARK 922        TOTAL FREE ENERGY PREDICTED BY IDOCK:   -6.63 KCAL/MOL
REMARK 923 INTER-LIGAND FREE ENERGY PREDICTED BY IDOCK:   -5.87 KCAL/MOL
REMARK 924 INTRA-LIGAND FREE ENERGY PREDICTED BY IDOCK:   -0.76 KCAL/MOL
REMARK 927      BINDING AFFINITY PREDICTED BY RF-SCORE:    0.00 PKD
ROOT
HETATM    1  O   UNL     1     -13.207  15.360  70.198  1.00  0.00    -0.659 OA 
HETATM    2  H   UNL     1     -13.411  14.818  70.950  1.00  0.00     0.000 HD 
HETATM    3  C   UNL     1     -12.189  14.687  69.495  1.00  0.00    -0.258 C  
ENDROOT
BRANCH   3   4
HETATM    4  N   UNL     1     -11.883  15.499  68.369  1.00  0.00    -0.491 N  
HETATM    5  H   UNL     1     -12.396  15.372  67.497  1.00  0.00     0.000 HD 
BRANCH   4   6
HETATM    6  C   UNL     1     -10.906  16.446  68.451  1.00  0.00    -0.342 C  
HETATM    7  O   UNL     1     -10.557  16.920  69.529  1.00  0.00    -0.327 OA 
BRANCH   6   8
HETATM    8  N   UNL     1     -10.291  16.792  67.264  1.00  0.00    -0.300 N  
BRANCH   8   9
HETATM    9  C   UNL     1      -9.664  15.729  66.504  1.00  0.00    -0.265 C  
HETATM   10  O   UNL     1     -11.728  14.909  65.397  1.00  0.00    -0.326 OA 
HETATM   11  N   UNL     1      -8.842  14.820  67.269  1.00  0.00    -0.192 N  
HETATM   12  C   UNL     1     -10.613  14.694  65.859  1.00  0.00    -0.311 C  
HETATM   13  O   UNL     1      -8.181  12.612  67.026  1.00  0.00    -0.171 OA 
HETATM   14  N   UNL     1      -9.965  13.494  65.857  1.00  0.00    -0.297 N  
HETATM   15  C   UNL     1      -8.914  13.542  66.726  1.00  0.00    -0.176 C  
BRANCH  11  16
HETATM   16  C   UNL     1      -7.732  15.219  68.083  1.00  0.00    -0.117 C  
HETATM   17  H   UNL     1      -5.870  15.688  67.795  1.00  0.00     0.000 HD 
HETATM   18  O   UNL     1      -6.606  15.423  67.256  1.00  0.00    -0.265 OA 
ENDBRANCH  11  16
BRANCH  14  19
HETATM   19  C   UNL     1     -10.519  12.251  65.411  1.00  0.00    -0.269 C  
HETATM   20  O   UNL     1      -9.543  11.516  64.698  1.00  0.00    -0.297 OA 
HETATM   21  H   UNL     1      -9.910  10.691  64.403  1.00  0.00     0.000 HD 
ENDBRANCH  14  19
ENDBRANCH   8   9
BRANCH   8  22
HETATM   22  C   UNL     1     -10.025  18.152  66.858  1.00  0.00    -0.342 C  
HETATM   23  H   UNL     1      -8.978  18.999  65.479  1.00  0.00     0.000 HD 
HETATM   24  O   UNL     1      -9.153  18.104  65.746  1.00  0.00    -0.466 OA 
ENDBRANCH   8  22
ENDBRANCH   6   8
ENDBRANCH   4   6
ENDBRANCH   3   4
TORSDOF 7
ENDMDL
MODEL      112
REMARK 921   NORMALIZED FREE ENERGY PREDICTED BY IDOCK:   -3.61 KCAL/MOL
REMARK 922        TOTAL FREE ENERGY PREDICTED BY IDOCK:   -6.62 KCAL/MOL
REMARK 923 INTER-LIGAND FREE ENERGY PREDICTED BY IDOCK:   -5.41 KCAL/MOL
REMARK 924 INTRA-LIGAND FREE ENERGY PREDICTED BY IDOCK:   -1.21 KCAL/MOL
REMARK 927      BINDING AFFINITY PREDICTED BY RF-SCORE:    0.00 PKD
ROOT
HETATM    1  O   UNL     1     -12.070  13.249  62.716  1.00  0.00    -0.657 OA 
HETATM    2  H   UNL     1     -11.866  12.707  61.964  1.00  0.00     0.000 HD 
HETATM    3  C   UNL     1     -12.439  12.364  63.748  1.00  0.00    -0.492 C  
ENDROOT
BRANCH   3   4
HETATM    4  N   UNL     1     -12.745  13.175  64.875  1.00  0.00    -0.697 N  
HETATM    5  H   UNL     1     -13.633  13.054  65.362  1.00  0.00     0.000 HD 
BRANCH   4   6
HETATM    6  C   UNL     1     -11.856  14.113  65.306  1.00  0.00    -0.367 C  
HETATM    7  O   UNL     1     -11.735  15.197  64.738  1.00  0.00    -0.384 OA 
BRANCH   6   8
HETATM    8  N   UNL     1     -11.148  13.803  66.451  1.00  0.00    -0.305 N  
BRANCH   8   9
HETATM    9  C   UNL     1      -9.711  13.671  66.330  1.00  0.00    -0.292 C  
HETATM   10  O   UNL     1      -9.650  11.190  66.294  1.00  0.00    -0.194 OA 
HETATM   11  N   UNL     1      -8.936  14.399  67.308  1.00  0.00    -0.201 N  
HETATM   12  C   UNL     1      -9.127  12.262  66.579  1.00  0.00    -0.188 C  
HETATM   13  O   UNL     1      -6.832  14.150  68.248  1.00  0.00    -0.085 OA 
HETATM   14  N   UNL     1      -7.895  12.425  67.141  1.00  0.00    -0.163 N  
HETATM   15  C   UNL     1      -7.775  13.699  67.614  1.00  0.00    -0.178 C  
BRANCH  11  16
HETATM   16  C   UNL     1      -9.029  15.813  67.527  1.00  0.00    -0.194 C  
HETATM   17  H   UNL     1      -9.525  16.982  68.996  1.00  0.00     0.000 HD 
HETATM   18  O   UNL     1      -9.463  16.045  68.851  1.00  0.00    -0.210 OA 
ENDBRANCH  11  16
BRANCH  14  19
HETATM   19  C   UNL     1      -7.041  11.368  67.594  1.00  0.00    -0.092 C  
HETATM   20  O   UNL     1      -6.968  10.352  66.611  1.00  0.00    -0.099 OA 
HETATM   21  H   UNL     1      -6.401   9.652  66.911  1.00  0.00     0.000 HD 
ENDBRANCH  14  19
ENDBRANCH   8   9
BRANCH   8  22
HETATM   22  C   UNL     1     -11.760  13.372  67.686  1.00  0.00    -0.359 C  
HETATM   23  H   UNL     1     -12.646  14.239  69.161  1.00  0.00     0.000 HD 
HETATM   24  O   UNL     1     -12.245  14.523  68.348  1.00  0.00    -0.251 OA 
ENDBRANCH   8  22
ENDBRANCH   6   8
ENDBRANCH   4   6
ENDBRANCH   3   4
TORSDOF 7
ENDMDL
MODEL      113
REMARK 921   NORMALIZED FREE ENERGY PREDICTED BY IDOCK:   -3.61 KCAL/MOL
REMARK 922        TOTAL FREE ENERGY PREDICTED BY IDOCK:   -6.61 KCAL/MOL
REMARK 923 INTER-LIGAND FREE ENERGY PREDICTED BY IDOCK:   -5.46 KCAL/MOL
REMARK 924 INTRA-LIGAND FREE ENERGY PREDICTED BY IDOCK:   -1.16 KCAL/MOL
REMARK 927      BINDING AFFINITY PREDICTED BY RF-SCORE:    0.00 PKD
ROOT
HETATM    1  O   UNL     1      -6.899   9.510  68.699  1.00  0.00    -0.056 OA 
HETATM    2  H   UNL     1      -5.992   9.343  68.921  1.00  0.00     0.000 HD 
HETATM    3  C   UNL     1      -7.475  10.118  69.832  1.00  0.00    -0.170 C  
ENDROOT
BRANCH   3   4
HETATM    4  N   UNL     1      -8.835  10.368  69.498  1.00  0.00    -0.348 N  
HETATM    5  H   UNL     1      -9.578   9.880  69.997  1.00  0.00     0.000 HD 
BRANCH   4   6
HETATM    6  C   UNL     1      -9.147  11.257  68.514  1.00  0.00    -0.173 C  
HETATM    7  O   UNL     1      -8.741  12.417  68.540  1.00  0.00    -0.152 OA 
BRANCH   6   8
HETATM    8  N   UNL     1      -9.887  10.764  67.458  1.00  0.00    -0.170 N  
BRANCH   8   9
HETATM    9  C   UNL     1      -9.862  11.513  66.219  1.00  0.00    -0.217 C  
HETATM   10  O   UNL     1     -12.128  12.505  66.433  1.00  0.00    -0.576 OA 
HETATM   11  N   UNL     1      -9.514  10.753  65.040  1.00  0.00    -0.224 N  
HETATM   12  C   UNL     1     -11.214  12.083  65.732  1.00  0.00    -0.334 C  
HETATM   13  O   UNL     1      -9.958  10.949  62.774  1.00  0.00    -0.268 OA 
HETATM   14  N   UNL     1     -11.194  12.071  64.369  1.00  0.00    -0.328 N  
HETATM   15  C   UNL     1     -10.195  11.249  63.935  1.00  0.00    -0.365 C  
BRANCH  11  16
HETATM   16  C   UNL     1      -8.304  10.000  64.889  1.00  0.00    -0.157 C  
HETATM   17  H   UNL     1      -6.515  10.040  65.645  1.00  0.00     0.000 HD 
HETATM   18  O   UNL     1      -7.318  10.539  65.745  1.00  0.00    -0.142 OA 
ENDBRANCH  11  16
BRANCH  14  19
HETATM   19  C   UNL     1     -12.281  12.452  63.518  1.00  0.00    -0.563 C  
HETATM   20  O   UNL     1     -12.573  11.407  62.610  1.00  0.00    -0.831 OA 
HETATM   21  H   UNL     1     -13.294  11.659  62.047  1.00  0.00     0.000 HD 
ENDBRANCH  14  19
ENDBRANCH   8   9
BRANCH   8  22
HETATM   22  C   UNL     1     -10.859   9.702  67.579  1.00  0.00    -0.198 C  
HETATM   23  H   UNL     1     -10.792   7.778  67.684  1.00  0.00     0.000 HD 
HETATM   24  O   UNL     1     -10.153   8.477  67.605  1.00  0.00    -0.184 OA 
ENDBRANCH   8  22
ENDBRANCH   6   8
ENDBRANCH   4   6
ENDBRANCH   3   4
TORSDOF 7
ENDMDL
MODEL      114
REMARK 921   NORMALIZED FREE ENERGY PREDICTED BY IDOCK:   -3.60 KCAL/MOL
REMARK 922        TOTAL FREE ENERGY PREDICTED BY IDOCK:   -6.60 KCAL/MOL
REMARK 923 INTER-LIGAND FREE ENERGY PREDICTED BY IDOCK:   -5.43 KCAL/MOL
REMARK 924 INTRA-LIGAND FREE ENERGY PREDICTED BY IDOCK:   -1.18 KCAL/MOL
REMARK 927      BINDING AFFINITY PREDICTED BY RF-SCORE:    0.00 PKD
ROOT
HETATM    1  O   UNL     1     -11.535  16.353  70.691  1.00  0.00    -0.517 OA 
HETATM    2  H   UNL     1     -11.328  16.245  71.612  1.00  0.00     0.000 HD 
HETATM    3  C   UNL     1     -10.870  15.312  70.015  1.00  0.00    -0.286 C  
ENDROOT
BRANCH   3   4
HETATM    4  N   UNL     1     -11.180  15.474  68.637  1.00  0.00    -0.304 N  
HETATM    5  H   UNL     1     -11.735  14.767  68.154  1.00  0.00     0.000 HD 
BRANCH   4   6
HETATM    6  C   UNL     1     -10.738  16.570  67.959  1.00  0.00    -0.343 C  
HETATM    7  O   UNL     1     -11.179  17.693  68.191  1.00  0.00    -0.080 OA 
BRANCH   6   8
HETATM    8  N   UNL     1      -9.724  16.355  67.046  1.00  0.00    -0.242 N  
BRANCH   8   9
HETATM    9  C   UNL     1      -8.486  17.082  67.241  1.00  0.00    -0.194 C  
HETATM   10  O   UNL     1      -9.127  19.099  65.945  1.00  0.00    -0.436 OA 
HETATM   11  N   UNL     1      -7.281  16.359  66.906  1.00  0.00    -0.220 N  
HETATM   12  C   UNL     1      -8.268  18.320  66.344  1.00  0.00    -0.251 C  
HETATM   13  O   UNL     1      -5.147  16.956  66.229  1.00  0.00    -0.364 OA 
HETATM   14  N   UNL     1      -6.928  18.419  66.104  1.00  0.00    -0.244 N  
HETATM   15  C   UNL     1      -6.323  17.234  66.408  1.00  0.00    -0.222 C  
BRANCH  11  16
HETATM   16  C   UNL     1      -6.909  15.096  67.472  1.00  0.00    -0.174 C  
HETATM   17  H   UNL     1      -7.118  14.202  69.183  1.00  0.00     0.000 HD 
HETATM   18  O   UNL     1      -7.364  15.039  68.807  1.00  0.00    -0.111 OA 
ENDBRANCH  11  16
BRANCH  14  19
HETATM   19  C   UNL     1      -6.305  19.390  65.256  1.00  0.00    -0.273 C  
HETATM   20  O   UNL     1      -6.954  20.640  65.395  1.00  0.00    -0.480 OA 
HETATM   21  H   UNL     1      -6.540  21.283  64.833  1.00  0.00     0.000 HD 
ENDBRANCH  14  19
ENDBRANCH   8   9
BRANCH   8  22
HETATM   22  C   UNL     1      -9.898  15.651  65.797  1.00  0.00    -0.351 C  
HETATM   23  H   UNL     1     -11.255  14.516  65.032  1.00  0.00     0.000 HD 
HETATM   24  O   UNL     1     -11.141  14.979  65.853  1.00  0.00    -0.336 OA 
ENDBRANCH   8  22
ENDBRANCH   6   8
ENDBRANCH   4   6
ENDBRANCH   3   4
TORSDOF 7
ENDMDL
MODEL      115
REMARK 921   NORMALIZED FREE ENERGY PREDICTED BY IDOCK:   -3.59 KCAL/MOL
REMARK 922        TOTAL FREE ENERGY PREDICTED BY IDOCK:   -6.59 KCAL/MOL
REMARK 923 INTER-LIGAND FREE ENERGY PREDICTED BY IDOCK:   -5.79 KCAL/MOL
REMARK 924 INTRA-LIGAND FREE ENERGY PREDICTED BY IDOCK:   -0.80 KCAL/MOL
REMARK 927      BINDING AFFINITY PREDICTED BY RF-SCORE:    0.00 PKD
ROOT
HETATM    1  O   UNL     1     -12.404  10.832  68.384  1.00  0.00    -0.813 OA 
HETATM    2  H   UNL     1     -12.205  10.107  68.964  1.00  0.00     0.000 HD 
HETATM    3  C   UNL     1     -11.713  11.946  68.897  1.00  0.00    -0.323 C  
ENDROOT
BRANCH   3   4
HETATM    4  N   UNL     1     -12.012  13.031  68.027  1.00  0.00    -0.337 N  
HETATM    5  H   UNL     1     -12.414  13.889  68.405  1.00  0.00     0.000 HD 
BRANCH   4   6
HETATM    6  C   UNL     1     -11.762  12.929  66.692  1.00  0.00    -0.390 C  
HETATM    7  O   UNL     1     -12.409  12.173  65.971  1.00  0.00    -0.550 OA 
BRANCH   6   8
HETATM    8  N   UNL     1     -10.789  13.769  66.187  1.00  0.00    -0.279 N  
BRANCH   8   9
HETATM    9  C   UNL     1      -9.961  14.478  67.140  1.00  0.00    -0.252 C  
HETATM   10  O   UNL     1     -10.728  16.763  66.549  1.00  0.00    -0.234 OA 
HETATM   11  N   UNL     1      -8.553  14.155  67.102  1.00  0.00    -0.218 N  
HETATM   12  C   UNL     1      -9.850  16.007  66.951  1.00  0.00    -0.245 C  
HETATM   13  O   UNL     1      -6.601  15.269  67.664  1.00  0.00    -0.151 OA 
HETATM   14  N   UNL     1      -8.601  16.379  67.354  1.00  0.00    -0.175 N  
HETATM   15  C   UNL     1      -7.798  15.277  67.419  1.00  0.00    -0.194 C  
BRANCH  11  16
HETATM   16  C   UNL     1      -8.020  12.833  67.257  1.00  0.00    -0.156 C  
HETATM   17  H   UNL     1      -7.739  11.590  68.721  1.00  0.00     0.000 HD 
HETATM   18  O   UNL     1      -8.092  12.466  68.618  1.00  0.00    -0.114 OA 
ENDBRANCH  11  16
BRANCH  14  19
HETATM   19  C   UNL     1      -8.062  17.703  67.277  1.00  0.00    -0.209 C  
HETATM   20  O   UNL     1      -8.854  18.592  68.042  1.00  0.00    -0.284 OA 
HETATM   21  H   UNL     1      -8.497  19.470  67.991  1.00  0.00     0.000 HD 
ENDBRANCH  14  19
ENDBRANCH   8   9
BRANCH   8  22
HETATM   22  C   UNL     1     -10.704  14.165  64.801  1.00  0.00    -0.419 C  
HETATM   23  H   UNL     1     -11.889  15.004  63.532  1.00  0.00     0.000 HD 
HETATM   24  O   UNL     1     -11.945  14.743  64.444  1.00  0.00    -0.451 OA 
ENDBRANCH   8  22
ENDBRANCH   6   8
ENDBRANCH   4   6
ENDBRANCH   3   4
TORSDOF 7
ENDMDL
MODEL      116
REMARK 921   NORMALIZED FREE ENERGY PREDICTED BY IDOCK:   -3.59 KCAL/MOL
REMARK 922        TOTAL FREE ENERGY PREDICTED BY IDOCK:   -6.59 KCAL/MOL
REMARK 923 INTER-LIGAND FREE ENERGY PREDICTED BY IDOCK:   -5.43 KCAL/MOL
REMARK 924 INTRA-LIGAND FREE ENERGY PREDICTED BY IDOCK:   -1.16 KCAL/MOL
REMARK 927      BINDING AFFINITY PREDICTED BY RF-SCORE:    0.00 PKD
ROOT
HETATM    1  O   UNL     1      -9.720   6.741  69.484  1.00  0.00    -0.150 OA 
HETATM    2  H   UNL     1      -9.579   5.912  69.924  1.00  0.00     0.000 HD 
HETATM    3  C   UNL     1     -10.878   7.298  70.060  1.00  0.00    -0.253 C  
ENDROOT
BRANCH   3   4
HETATM    4  N   UNL     1     -11.090   8.540  69.400  1.00  0.00    -0.432 N  
HETATM    5  H   UNL     1     -11.382   8.553  68.423  1.00  0.00     0.000 HD 
BRANCH   4   6
HETATM    6  C   UNL     1     -10.903   9.713  70.069  1.00  0.00    -0.264 C  
HETATM    7  O   UNL     1     -11.041   9.789  71.287  1.00  0.00    -0.355 OA 
BRANCH   6   8
HETATM    8  N   UNL     1     -10.488  10.789  69.309  1.00  0.00    -0.219 N  
BRANCH   8   9
HETATM    9  C   UNL     1     -11.506  11.529  68.591  1.00  0.00    -0.293 C  
HETATM   10  O   UNL     1     -10.931  10.691  66.327  1.00  0.00    -0.099 OA 
HETATM   11  N   UNL     1     -11.538  12.950  68.850  1.00  0.00    -0.294 N  
HETATM   12  C   UNL     1     -11.363  11.579  67.054  1.00  0.00    -0.269 C  
HETATM   13  O   UNL     1     -12.240  14.815  67.666  1.00  0.00    -0.215 OA 
HETATM   14  N   UNL     1     -11.846  12.786  66.638  1.00  0.00    -0.401 N  
HETATM   15  C   UNL     1     -11.928  13.634  67.704  1.00  0.00    -0.351 C  
BRANCH  11  16
HETATM   16  C   UNL     1     -11.689  13.535  70.150  1.00  0.00    -0.210 C  
HETATM   17  H   UNL     1     -12.712  13.156  71.756  1.00  0.00     0.000 HD 
HETATM   18  O   UNL     1     -12.612  12.768  70.894  1.00  0.00    -0.337 OA 
ENDBRANCH  11  16
BRANCH  14  19
HETATM   19  C   UNL     1     -11.834  13.266  65.289  1.00  0.00    -0.357 C  
HETATM   20  O   UNL     1     -13.077  13.868  64.981  1.00  0.00    -0.749 OA 
HETATM   21  H   UNL     1     -13.069  14.187  64.086  1.00  0.00     0.000 HD 
ENDBRANCH  14  19
ENDBRANCH   8   9
BRANCH   8  22
HETATM   22  C   UNL     1      -9.108  11.071  68.995  1.00  0.00    -0.063 C  
HETATM   23  H   UNL     1      -7.543  10.020  68.591  1.00  0.00     0.000 HD 
HETATM   24  O   UNL     1      -8.452   9.834  68.797  1.00  0.00    -0.114 OA 
ENDBRANCH   8  22
ENDBRANCH   6   8
ENDBRANCH   4   6
ENDBRANCH   3   4
TORSDOF 7
ENDMDL
MODEL      117
REMARK 921   NORMALIZED FREE ENERGY PREDICTED BY IDOCK:   -3.57 KCAL/MOL
REMARK 922        TOTAL FREE ENERGY PREDICTED BY IDOCK:   -6.56 KCAL/MOL
REMARK 923 INTER-LIGAND FREE ENERGY PREDICTED BY IDOCK:   -5.73 KCAL/MOL
REMARK 924 INTRA-LIGAND FREE ENERGY PREDICTED BY IDOCK:   -0.83 KCAL/MOL
REMARK 927      BINDING AFFINITY PREDICTED BY RF-SCORE:    0.00 PKD
ROOT
HETATM    1  O   UNL     1      -8.318  16.675  66.271  1.00  0.00    -0.290 OA 
HETATM    2  H   UNL     1      -8.155  17.283  65.561  1.00  0.00     0.000 HD 
HETATM    3  C   UNL     1      -9.717  16.527  66.348  1.00  0.00    -0.285 C  
ENDROOT
BRANCH   3   4
HETATM    4  N   UNL     1      -9.960  15.616  67.412  1.00  0.00    -0.230 N  
HETATM    5  H   UNL     1     -10.082  15.965  68.362  1.00  0.00     0.000 HD 
BRANCH   4   6
HETATM    6  C   UNL     1     -10.032  14.277  67.166  1.00  0.00    -0.255 C  
HETATM    7  O   UNL     1      -9.129  13.679  66.584  1.00  0.00    -0.238 OA 
BRANCH   6   8
HETATM    8  N   UNL     1     -11.142  13.624  67.664  1.00  0.00    -0.266 N  
BRANCH   8   9
HETATM    9  C   UNL     1     -11.055  13.093  69.009  1.00  0.00    -0.234 C  
HETATM   10  O   UNL     1     -10.840  10.705  68.365  1.00  0.00    -0.203 OA 
HETATM   11  N   UNL     1     -12.105  13.508  69.910  1.00  0.00    -0.344 N  
HETATM   12  C   UNL     1     -11.218  11.564  69.156  1.00  0.00    -0.274 C  
HETATM   13  O   UNL     1     -13.086  12.609  71.807  1.00  0.00    -0.416 OA 
HETATM   14  N   UNL     1     -11.826  11.332  70.355  1.00  0.00    -0.348 N  
HETATM   15  C   UNL     1     -12.394  12.487  70.808  1.00  0.00    -0.286 C  
BRANCH  11  16
HETATM   16  C   UNL     1     -12.424  14.872  70.211  1.00  0.00    -0.336 C  
HETATM   17  H   UNL     1     -12.713  16.507  69.203  1.00  0.00     0.000 HD 
HETATM   18  O   UNL     1     -12.502  15.602  69.004  1.00  0.00    -0.088 OA 
ENDBRANCH  11  16
BRANCH  14  19
HETATM   19  C   UNL     1     -12.226  10.049  70.850  1.00  0.00    -0.346 C  
HETATM   20  O   UNL     1     -13.598   9.834  70.581  1.00  0.00    -0.600 OA 
HETATM   21  H   UNL     1     -13.863   8.983  70.909  1.00  0.00     0.000 HD 
ENDBRANCH  14  19
ENDBRANCH   8   9
BRANCH   8  22
HETATM   22  C   UNL     1     -12.275  13.230  66.860  1.00  0.00    -0.257 C  
HETATM   23  H   UNL     1     -13.235  13.984  65.368  1.00  0.00     0.000 HD 
HETATM   24  O   UNL     1     -12.489  14.242  65.896  1.00  0.00    -0.437 OA 
ENDBRANCH   8  22
ENDBRANCH   6   8
ENDBRANCH   4   6
ENDBRANCH   3   4
TORSDOF 7
ENDMDL
MODEL      118
REMARK 921   NORMALIZED FREE ENERGY PREDICTED BY IDOCK:   -3.57 KCAL/MOL
REMARK 922        TOTAL FREE ENERGY PREDICTED BY IDOCK:   -6.56 KCAL/MOL
REMARK 923 INTER-LIGAND FREE ENERGY PREDICTED BY IDOCK:   -5.48 KCAL/MOL
REMARK 924 INTRA-LIGAND FREE ENERGY PREDICTED BY IDOCK:   -1.08 KCAL/MOL
REMARK 927      BINDING AFFINITY PREDICTED BY RF-SCORE:    0.00 PKD
ROOT
HETATM    1  O   UNL     1     -11.069  10.807  63.489  1.00  0.00    -0.390 OA 
HETATM    2  H   UNL     1     -11.404  10.319  62.747  1.00  0.00     0.000 HD 
HETATM    3  C   UNL     1     -10.006  11.589  62.997  1.00  0.00    -0.322 C  
ENDROOT
BRANCH   3   4
HETATM    4  N   UNL     1      -9.505  12.320  64.109  1.00  0.00    -0.451 N  
HETATM    5  H   UNL     1      -8.569  12.723  64.072  1.00  0.00     0.000 HD 
BRANCH   4   6
HETATM    6  C   UNL     1     -10.271  12.483  65.224  1.00  0.00    -0.282 C  
HETATM    7  O   UNL     1     -10.680  11.522  65.872  1.00  0.00    -0.265 OA 
BRANCH   6   8
HETATM    8  N   UNL     1     -10.504  13.785  65.619  1.00  0.00    -0.296 N  
BRANCH   8   9
HETATM    9  C   UNL     1     -10.268  14.112  67.010  1.00  0.00    -0.260 C  
HETATM   10  O   UNL     1     -12.630  13.941  67.754  1.00  0.00     0.045 OA 
HETATM   11  N   UNL     1      -9.522  15.327  67.245  1.00  0.00    -0.205 N  
HETATM   12  C   UNL     1     -11.515  14.442  67.861  1.00  0.00    -0.321 C  
HETATM   13  O   UNL     1      -9.389  16.859  68.979  1.00  0.00    -0.255 OA 
HETATM   14  N   UNL     1     -11.143  15.370  68.788  1.00  0.00    -0.266 N  
HETATM   15  C   UNL     1      -9.958  15.936  68.416  1.00  0.00    -0.222 C  
BRANCH  11  16
HETATM   16  C   UNL     1      -8.219  15.594  66.711  1.00  0.00    -0.265 C  
HETATM   17  H   UNL     1      -6.428  14.880  66.941  1.00  0.00     0.000 HD 
HETATM   18  O   UNL     1      -7.292  14.702  67.294  1.00  0.00    -0.193 OA 
ENDBRANCH  11  16
BRANCH  14  19
HETATM   19  C   UNL     1     -12.017  15.999  69.732  1.00  0.00    -0.176 C  
HETATM   20  O   UNL     1     -11.332  16.222  70.950  1.00  0.00    -0.411 OA 
HETATM   21  H   UNL     1     -11.911  16.639  71.576  1.00  0.00     0.000 HD 
ENDBRANCH  14  19
ENDBRANCH   8   9
BRANCH   8  22
HETATM   22  C   UNL     1     -11.186  14.765  64.807  1.00  0.00    -0.385 C  
HETATM   23  H   UNL     1     -12.667  14.743  63.573  1.00  0.00     0.000 HD 
HETATM   24  O   UNL     1     -12.218  14.098  64.107  1.00  0.00    -0.556 OA 
ENDBRANCH   8  22
ENDBRANCH   6   8
ENDBRANCH   4   6
ENDBRANCH   3   4
TORSDOF 7
ENDMDL
MODEL      119
REMARK 921   NORMALIZED FREE ENERGY PREDICTED BY IDOCK:   -3.56 KCAL/MOL
REMARK 922        TOTAL FREE ENERGY PREDICTED BY IDOCK:   -6.55 KCAL/MOL
REMARK 923 INTER-LIGAND FREE ENERGY PREDICTED BY IDOCK:   -5.66 KCAL/MOL
REMARK 924 INTRA-LIGAND FREE ENERGY PREDICTED BY IDOCK:   -0.90 KCAL/MOL
REMARK 927      BINDING AFFINITY PREDICTED BY RF-SCORE:    0.00 PKD
ROOT
HETATM    1  O   UNL     1      -7.479  14.546  67.162  1.00  0.00    -0.294 OA 
HETATM    2  H   UNL     1      -6.969  15.257  67.530  1.00  0.00     0.000 HD 
HETATM    3  C   UNL     1      -6.684  13.389  67.283  1.00  0.00     0.118 C  
ENDROOT
BRANCH   3   4
HETATM    4  N   UNL     1      -7.449  12.325  66.731  1.00  0.00    -0.382 N  
HETATM    5  H   UNL     1      -7.226  11.968  65.802  1.00  0.00     0.000 HD 
BRANCH   4   6
HETATM    6  C   UNL     1      -8.477  11.780  67.440  1.00  0.00    -0.158 C  
HETATM    7  O   UNL     1      -8.350  11.462  68.620  1.00  0.00    -0.153 OA 
BRANCH   6   8
HETATM    8  N   UNL     1      -9.683  11.666  66.776  1.00  0.00    -0.198 N  
BRANCH   8   9
HETATM    9  C   UNL     1      -9.937  12.594  65.692  1.00  0.00    -0.242 C  
HETATM   10  O   UNL     1     -10.625  14.512  67.109  1.00  0.00    -0.269 OA 
HETATM   11  N   UNL     1     -10.816  12.110  64.653  1.00  0.00    -0.292 N  
HETATM   12  C   UNL     1     -10.703  13.884  66.058  1.00  0.00    -0.287 C  
HETATM   13  O   UNL     1     -12.242  13.103  63.119  1.00  0.00    -0.631 OA 
HETATM   14  N   UNL     1     -11.461  14.229  64.977  1.00  0.00    -0.347 N  
HETATM   15  C   UNL     1     -11.565  13.159  64.135  1.00  0.00    -0.410 C  
BRANCH  11  16
HETATM   16  C   UNL     1     -10.595  10.912  63.896  1.00  0.00    -0.214 C  
HETATM   17  H   UNL     1      -9.069  10.001  63.113  1.00  0.00     0.000 HD 
HETATM   18  O   UNL     1      -9.216  10.795  63.615  1.00  0.00    -0.213 OA 
ENDBRANCH  11  16
BRANCH  14  19
HETATM   19  C   UNL     1     -12.379  15.326  64.921  1.00  0.00     0.124 C  
HETATM   20  O   UNL     1     -12.203  16.041  63.713  1.00  0.00    -1.269 OA 
HETATM   21  H   UNL     1     -12.812  16.769  63.675  1.00  0.00     0.000 HD 
ENDBRANCH  14  19
ENDBRANCH   8   9
BRANCH   8  22
HETATM   22  C   UNL     1     -10.786  10.858  67.238  1.00  0.00    -0.287 C  
HETATM   23  H   UNL     1     -12.204  11.068  68.527  1.00  0.00     0.000 HD 
HETATM   24  O   UNL     1     -11.478  11.600  68.223  1.00  0.00    -0.252 OA 
ENDBRANCH   8  22
ENDBRANCH   6   8
ENDBRANCH   4   6
ENDBRANCH   3   4
TORSDOF 7
ENDMDL
MODEL      120
REMARK 921   NORMALIZED FREE ENERGY PREDICTED BY IDOCK:   -3.56 KCAL/MOL
REMARK 922        TOTAL FREE ENERGY PREDICTED BY IDOCK:   -6.55 KCAL/MOL
REMARK 923 INTER-LIGAND FREE ENERGY PREDICTED BY IDOCK:   -4.96 KCAL/MOL
REMARK 924 INTRA-LIGAND FREE ENERGY PREDICTED BY IDOCK:   -1.59 KCAL/MOL
REMARK 927      BINDING AFFINITY PREDICTED BY RF-SCORE:    0.00 PKD
ROOT
HETATM    1  O   UNL     1     -11.177  15.122  65.957  1.00  0.00    -0.338 OA 
HETATM    2  H   UNL     1     -11.483  15.998  65.756  1.00  0.00     0.000 HD 
HETATM    3  C   UNL     1     -10.826  14.537  64.724  1.00  0.00    -0.393 C  
ENDROOT
BRANCH   3   4
HETATM    4  N   UNL     1     -10.369  13.225  65.025  1.00  0.00    -0.384 N  
HETATM    5  H   UNL     1      -9.534  12.860  64.566  1.00  0.00     0.000 HD 
BRANCH   4   6
HETATM    6  C   UNL     1     -11.042  12.453  65.924  1.00  0.00    -0.313 C  
HETATM    7  O   UNL     1     -12.267  12.359  65.904  1.00  0.00    -0.629 OA 
BRANCH   6   8
HETATM    8  N   UNL     1     -10.266  11.735  66.813  1.00  0.00    -0.208 N  
BRANCH   8   9
HETATM    9  C   UNL     1     -10.747  10.428  67.213  1.00  0.00    -0.273 C  
HETATM   10  O   UNL     1     -11.465  11.071  69.501  1.00  0.00    -0.245 OA 
HETATM   11  N   UNL     1      -9.816   9.339  67.026  1.00  0.00    -0.183 N  
HETATM   12  C   UNL     1     -11.030  10.231  68.719  1.00  0.00    -0.243 C  
HETATM   13  O   UNL     1      -9.492   7.272  68.021  1.00  0.00    -0.136 OA 
HETATM   14  N   UNL     1     -10.746   8.932  69.021  1.00  0.00    -0.176 N  
HETATM   15  C   UNL     1      -9.988   8.388  68.025  1.00  0.00    -0.182 C  
BRANCH  11  16
HETATM   16  C   UNL     1      -9.207   8.998  65.774  1.00  0.00    -0.232 C  
HETATM   17  H   UNL     1      -7.435   9.115  64.990  1.00  0.00     0.000 HD 
HETATM   18  O   UNL     1      -7.838   9.340  65.820  1.00  0.00    -0.097 OA 
ENDBRANCH  11  16
BRANCH  14  19
HETATM   19  C   UNL     1     -10.806   8.349  70.328  1.00  0.00    -0.239 C  
HETATM   20  O   UNL     1     -10.338   9.275  71.290  1.00  0.00    -0.302 OA 
HETATM   21  H   UNL     1     -10.378   8.889  72.157  1.00  0.00     0.000 HD 
ENDBRANCH  14  19
ENDBRANCH   8   9
BRANCH   8  22
HETATM   22  C   UNL     1      -9.151  12.291  67.543  1.00  0.00    -0.182 C  
HETATM   23  H   UNL     1      -8.799  13.939  68.478  1.00  0.00     0.000 HD 
HETATM   24  O   UNL     1      -9.533  13.574  67.998  1.00  0.00    -0.206 OA 
ENDBRANCH   8  22
ENDBRANCH   6   8
ENDBRANCH   4   6
ENDBRANCH   3   4
TORSDOF 7
ENDMDL
MODEL      121
REMARK 921   NORMALIZED FREE ENERGY PREDICTED BY IDOCK:   -3.55 KCAL/MOL
REMARK 922        TOTAL FREE ENERGY PREDICTED BY IDOCK:   -6.53 KCAL/MOL
REMARK 923 INTER-LIGAND FREE ENERGY PREDICTED BY IDOCK:   -5.17 KCAL/MOL
REMARK 924 INTRA-LIGAND FREE ENERGY PREDICTED BY IDOCK:   -1.36 KCAL/MOL
REMARK 927      BINDING AFFINITY PREDICTED BY RF-SCORE:    0.00 PKD
ROOT
HETATM    1  O   UNL     1     -12.600  10.658  68.812  1.00  0.00    -0.733 OA 
HETATM    2  H   UNL     1     -12.974  11.187  68.118  1.00  0.00     0.000 HD 
HETATM    3  C   UNL     1     -11.905  11.549  69.653  1.00  0.00    -0.354 C  
ENDROOT
BRANCH   3   4
HETATM    4  N   UNL     1     -11.344  10.757  70.691  1.00  0.00    -0.421 N  
HETATM    5  H   UNL     1     -11.361  11.095  71.654  1.00  0.00     0.000 HD 
BRANCH   4   6
HETATM    6  C   UNL     1     -10.782   9.549  70.406  1.00  0.00    -0.284 C  
HETATM    7  O   UNL     1     -10.164   9.356  69.361  1.00  0.00    -0.190 OA 
BRANCH   6   8
HETATM    8  N   UNL     1     -10.890   8.579  71.383  1.00  0.00    -0.244 N  
BRANCH   8   9
HETATM    9  C   UNL     1      -9.894   7.527  71.391  1.00  0.00    -0.177 C  
HETATM   10  O   UNL     1     -11.114   5.959  69.904  1.00  0.00    -0.366 OA 
HETATM   11  N   UNL     1      -9.459   7.094  72.699  1.00  0.00    -0.144 N  
HETATM   12  C   UNL     1     -10.336   6.157  70.831  1.00  0.00    -0.215 C  
HETATM   13  O   UNL     1      -8.582   5.132  73.567  1.00  0.00    -0.112 OA 
HETATM   14  N   UNL     1      -9.668   5.196  71.531  1.00  0.00    -0.159 N  
HETATM   15  C   UNL     1      -9.160   5.737  72.676  1.00  0.00    -0.131 C  
BRANCH  11  16
HETATM   16  C   UNL     1      -8.903   7.959  73.697  1.00  0.00    -0.274 C  
HETATM   17  H   UNL     1      -7.578   9.378  73.752  1.00  0.00     0.000 HD 
HETATM   18  O   UNL     1      -7.947   8.804  73.091  1.00  0.00    -0.405 OA 
ENDBRANCH  11  16
BRANCH  14  19
HETATM   19  C   UNL     1      -9.841   3.783  71.375  1.00  0.00    -0.155 C  
HETATM   20  O   UNL     1      -9.896   3.452  70.001  1.00  0.00    -0.113 OA 
HETATM   21  H   UNL     1     -10.010   2.515  69.897  1.00  0.00     0.000 HD 
ENDBRANCH  14  19
ENDBRANCH   8   9
BRANCH   8  22
HETATM   22  C   UNL     1     -12.047   8.412  72.230  1.00  0.00    -0.392 C  
HETATM   23  H   UNL     1     -13.947   8.243  71.951  1.00  0.00     0.000 HD 
HETATM   24  O   UNL     1     -13.186   8.353  71.393  1.00  0.00    -0.300 OA 
ENDBRANCH   8  22
ENDBRANCH   6   8
ENDBRANCH   4   6
ENDBRANCH   3   4
TORSDOF 7
ENDMDL
MODEL      122
REMARK 921   NORMALIZED FREE ENERGY PREDICTED BY IDOCK:   -3.53 KCAL/MOL
REMARK 922        TOTAL FREE ENERGY PREDICTED BY IDOCK:   -6.51 KCAL/MOL
REMARK 923 INTER-LIGAND FREE ENERGY PREDICTED BY IDOCK:   -5.31 KCAL/MOL
REMARK 924 INTRA-LIGAND FREE ENERGY PREDICTED BY IDOCK:   -1.19 KCAL/MOL
REMARK 927      BINDING AFFINITY PREDICTED BY RF-SCORE:    0.00 PKD
ROOT
HETATM    1  O   UNL     1     -12.780  10.820  68.995  1.00  0.00    -0.655 OA 
HETATM    2  H   UNL     1     -13.156  11.189  68.206  1.00  0.00     0.000 HD 
HETATM    3  C   UNL     1     -11.567  11.504  69.207  1.00  0.00    -0.322 C  
ENDROOT
BRANCH   3   4
HETATM    4  N   UNL     1     -11.002  10.951  70.390  1.00  0.00    -0.422 N  
HETATM    5  H   UNL     1     -10.493  11.552  71.038  1.00  0.00     0.000 HD 
BRANCH   4   6
HETATM    6  C   UNL     1     -11.140   9.623  70.660  1.00  0.00    -0.319 C  
HETATM    7  O   UNL     1     -12.055   9.199  71.363  1.00  0.00    -0.301 OA 
BRANCH   6   8
HETATM    8  N   UNL     1     -10.236   8.779  70.047  1.00  0.00    -0.192 N  
BRANCH   8   9
HETATM    9  C   UNL     1     -10.562   8.305  68.717  1.00  0.00    -0.123 C  
HETATM   10  O   UNL     1     -11.449   6.092  69.407  1.00  0.00    -0.423 OA 
HETATM   11  N   UNL     1      -9.492   8.386  67.749  1.00  0.00    -0.147 N  
HETATM   12  C   UNL     1     -10.879   6.799  68.582  1.00  0.00    -0.224 C  
HETATM   13  O   UNL     1      -8.948   7.241  65.809  1.00  0.00    -0.123 OA 
HETATM   14  N   UNL     1     -10.444   6.399  67.353  1.00  0.00    -0.214 N  
HETATM   15  C   UNL     1      -9.582   7.330  66.850  1.00  0.00    -0.174 C  
BRANCH  11  16
HETATM   16  C   UNL     1      -8.795   9.592  67.410  1.00  0.00    -0.128 C  
HETATM   17  H   UNL     1      -6.997  10.290  67.635  1.00  0.00     0.000 HD 
HETATM   18  O   UNL     1      -7.459   9.491  67.859  1.00  0.00    -0.083 OA 
ENDBRANCH  11  16
BRANCH  14  19
HETATM   19  C   UNL     1     -10.483   5.058  66.853  1.00  0.00    -0.186 C  
HETATM   20  O   UNL     1     -11.186   5.020  65.626  1.00  0.00    -0.817 OA 
HETATM   21  H   UNL     1     -11.211   4.131  65.294  1.00  0.00     0.000 HD 
ENDBRANCH  14  19
ENDBRANCH   8   9
BRANCH   8  22
HETATM   22  C   UNL     1      -9.124   8.156  70.726  1.00  0.00    -0.146 C  
HETATM   23  H   UNL     1      -7.690   8.760  71.864  1.00  0.00     0.000 HD 
HETATM   24  O   UNL     1      -8.422   9.170  71.417  1.00  0.00    -0.317 OA 
ENDBRANCH   8  22
ENDBRANCH   6   8
ENDBRANCH   4   6
ENDBRANCH   3   4
TORSDOF 7
ENDMDL
MODEL      123
REMARK 921   NORMALIZED FREE ENERGY PREDICTED BY IDOCK:   -3.52 KCAL/MOL
REMARK 922        TOTAL FREE ENERGY PREDICTED BY IDOCK:   -6.50 KCAL/MOL
REMARK 923 INTER-LIGAND FREE ENERGY PREDICTED BY IDOCK:   -5.53 KCAL/MOL
REMARK 924 INTRA-LIGAND FREE ENERGY PREDICTED BY IDOCK:   -0.96 KCAL/MOL
REMARK 927      BINDING AFFINITY PREDICTED BY RF-SCORE:    0.00 PKD
ROOT
HETATM    1  O   UNL     1     -13.249  12.487  64.442  1.00  0.00    -0.782 OA 
HETATM    2  H   UNL     1     -13.528  12.809  63.594  1.00  0.00     0.000 HD 
HETATM    3  C   UNL     1     -12.438  13.496  64.997  1.00  0.00    -0.417 C  
ENDROOT
BRANCH   3   4
HETATM    4  N   UNL     1     -12.020  13.014  66.268  1.00  0.00    -0.410 N  
HETATM    5  H   UNL     1     -12.666  12.473  66.843  1.00  0.00     0.000 HD 
BRANCH   4   6
HETATM    6  C   UNL     1     -10.761  13.273  66.720  1.00  0.00    -0.276 C  
HETATM    7  O   UNL     1     -10.253  14.386  66.609  1.00  0.00    -0.268 OA 
BRANCH   6   8
HETATM    8  N   UNL     1     -10.120  12.234  67.366  1.00  0.00    -0.199 N  
BRANCH   8   9
HETATM    9  C   UNL     1     -10.725  10.921  67.280  1.00  0.00    -0.268 C  
HETATM   10  O   UNL     1     -11.008  10.572  69.721  1.00  0.00    -0.257 OA 
HETATM   11  N   UNL     1     -10.000   9.953  66.490  1.00  0.00    -0.215 N  
HETATM   12  C   UNL     1     -10.817  10.119  68.598  1.00  0.00    -0.235 C  
HETATM   13  O   UNL     1      -9.844   7.641  66.471  1.00  0.00    -0.216 OA 
HETATM   14  N   UNL     1     -10.687   8.799  68.282  1.00  0.00    -0.127 N  
HETATM   15  C   UNL     1     -10.165   8.681  67.026  1.00  0.00    -0.290 C  
BRANCH  11  16
HETATM   16  C   UNL     1      -9.633  10.138  65.117  1.00  0.00    -0.292 C  
HETATM   17  H   UNL     1     -10.449  10.904  63.531  1.00  0.00     0.000 HD 
HETATM   18  O   UNL     1     -10.692  10.782  64.441  1.00  0.00    -0.301 OA 
ENDBRANCH  11  16
BRANCH  14  19
HETATM   19  C   UNL     1     -10.645   7.719  69.221  1.00  0.00    -0.192 C  
HETATM   20  O   UNL     1     -11.845   7.683  69.969  1.00  0.00    -0.473 OA 
HETATM   21  H   UNL     1     -11.818   6.967  70.591  1.00  0.00     0.000 HD 
ENDBRANCH  14  19
ENDBRANCH   8   9
BRANCH   8  22
HETATM   22  C   UNL     1      -9.037  12.413  68.304  1.00  0.00    -0.183 C  
HETATM   23  H   UNL     1      -7.125  12.168  68.266  1.00  0.00     0.000 HD 
HETATM   24  O   UNL     1      -7.838  12.051  67.648  1.00  0.00    -0.129 OA 
ENDBRANCH   8  22
ENDBRANCH   6   8
ENDBRANCH   4   6
ENDBRANCH   3   4
TORSDOF 7
ENDMDL
MODEL      124
REMARK 921   NORMALIZED FREE ENERGY PREDICTED BY IDOCK:   -3.51 KCAL/MOL
REMARK 922        TOTAL FREE ENERGY PREDICTED BY IDOCK:   -6.48 KCAL/MOL
REMARK 923 INTER-LIGAND FREE ENERGY PREDICTED BY IDOCK:   -5.22 KCAL/MOL
REMARK 924 INTRA-LIGAND FREE ENERGY PREDICTED BY IDOCK:   -1.26 KCAL/MOL
REMARK 927      BINDING AFFINITY PREDICTED BY RF-SCORE:    0.00 PKD
ROOT
HETATM    1  O   UNL     1      -8.827   8.509  63.593  1.00  0.00    -0.411 OA 
HETATM    2  H   UNL     1      -8.820   7.892  62.871  1.00  0.00     0.000 HD 
HETATM    3  C   UNL     1      -7.699   8.203  64.380  1.00  0.00    -0.126 C  
ENDROOT
BRANCH   3   4
HETATM    4  N   UNL     1      -7.710   9.126  65.462  1.00  0.00    -0.093 N  
HETATM    5  H   UNL     1      -6.846   9.588  65.744  1.00  0.00     0.000 HD 
BRANCH   4   6
HETATM    6  C   UNL     1      -8.871   9.395  66.122  1.00  0.00    -0.151 C  
HETATM    7  O   UNL     1      -9.526   8.507  66.662  1.00  0.00    -0.173 OA 
BRANCH   6   8
HETATM    8  N   UNL     1      -9.232  10.726  66.204  1.00  0.00    -0.174 N  
BRANCH   8   9
HETATM    9  C   UNL     1     -10.619  11.057  65.951  1.00  0.00    -0.206 C  
HETATM   10  O   UNL     1     -10.505  10.911  63.476  1.00  0.00    -0.333 OA 
HETATM   11  N   UNL     1     -11.095  12.266  66.583  1.00  0.00    -0.281 N  
HETATM   12  C   UNL     1     -10.988  11.402  64.491  1.00  0.00    -0.277 C  
HETATM   13  O   UNL     1     -12.767  13.805  66.126  1.00  0.00    -0.407 OA 
HETATM   14  N   UNL     1     -11.987  12.330  64.531  1.00  0.00    -0.388 N  
HETATM   15  C   UNL     1     -12.044  12.884  65.777  1.00  0.00    -0.457 C  
BRANCH  11  16
HETATM   16  C   UNL     1     -11.042  12.519  67.993  1.00  0.00    -0.245 C  
HETATM   17  H   UNL     1     -10.185  13.812  69.161  1.00  0.00     0.000 HD 
HETATM   18  O   UNL     1     -10.221  13.644  68.227  1.00  0.00    -0.231 OA 
ENDBRANCH  11  16
BRANCH  14  19
HETATM   19  C   UNL     1     -12.571  12.972  63.392  1.00  0.00    -0.127 C  
HETATM   20  O   UNL     1     -12.551  14.376  63.566  1.00  0.00    -1.043 OA 
HETATM   21  H   UNL     1     -12.939  14.802  62.811  1.00  0.00     0.000 HD 
ENDBRANCH  14  19
ENDBRANCH   8   9
BRANCH   8  22
HETATM   22  C   UNL     1      -8.288  11.815  66.286  1.00  0.00     0.024 C  
HETATM   23  H   UNL     1      -6.877  12.329  67.495  1.00  0.00     0.000 HD 
HETATM   24  O   UNL     1      -7.498  11.612  67.442  1.00  0.00    -0.118 OA 
ENDBRANCH   8  22
ENDBRANCH   6   8
ENDBRANCH   4   6
ENDBRANCH   3   4
TORSDOF 7
ENDMDL
MODEL      125
REMARK 921   NORMALIZED FREE ENERGY PREDICTED BY IDOCK:   -3.51 KCAL/MOL
REMARK 922        TOTAL FREE ENERGY PREDICTED BY IDOCK:   -6.48 KCAL/MOL
REMARK 923 INTER-LIGAND FREE ENERGY PREDICTED BY IDOCK:   -5.22 KCAL/MOL
REMARK 924 INTRA-LIGAND FREE ENERGY PREDICTED BY IDOCK:   -1.26 KCAL/MOL
REMARK 927      BINDING AFFINITY PREDICTED BY RF-SCORE:    0.00 PKD
ROOT
HETATM    1  O   UNL     1     -10.222   9.920  64.194  1.00  0.00    -0.401 OA 
HETATM    2  H   UNL     1     -10.940   9.698  63.613  1.00  0.00     0.000 HD 
HETATM    3  C   UNL     1     -10.355  11.294  64.473  1.00  0.00    -0.322 C  
ENDROOT
BRANCH   3   4
HETATM    4  N   UNL     1      -9.280  11.627  65.342  1.00  0.00    -0.397 N  
HETATM    5  H   UNL     1      -8.777  12.505  65.214  1.00  0.00     0.000 HD 
BRANCH   4   6
HETATM    6  C   UNL     1      -8.919  10.777  66.344  1.00  0.00    -0.166 C  
HETATM    7  O   UNL     1      -8.291   9.745  66.119  1.00  0.00    -0.118 OA 
BRANCH   6   8
HETATM    8  N   UNL     1      -9.242  11.174  67.627  1.00  0.00    -0.149 N  
BRANCH   8   9
HETATM    9  C   UNL     1      -9.992  10.242  68.444  1.00  0.00    -0.157 C  
HETATM   10  O   UNL     1     -12.151  11.464  68.369  1.00  0.00    -0.575 OA 
HETATM   11  N   UNL     1      -9.393   9.909  69.716  1.00  0.00    -0.220 N  
HETATM   12  C   UNL     1     -11.365  10.730  68.958  1.00  0.00    -0.284 C  
HETATM   13  O   UNL     1     -10.198   9.198  71.769  1.00  0.00    -0.338 OA 
HETATM   14  N   UNL     1     -11.568  10.160  70.180  1.00  0.00    -0.271 N  
HETATM   15  C   UNL     1     -10.383   9.688  70.666  1.00  0.00    -0.297 C  
BRANCH  11  16
HETATM   16  C   UNL     1      -8.078   9.362  69.874  1.00  0.00    -0.138 C  
HETATM   17  H   UNL     1      -6.376   9.968  70.587  1.00  0.00     0.000 HD 
HETATM   18  O   UNL     1      -7.248  10.330  70.482  1.00  0.00    -0.297 OA 
ENDBRANCH  11  16
BRANCH  14  19
HETATM   19  C   UNL     1     -12.690  10.405  71.036  1.00  0.00    -0.394 C  
HETATM   20  O   UNL     1     -12.695  11.758  71.450  1.00  0.00    -0.372 OA 
HETATM   21  H   UNL     1     -13.439  11.921  72.017  1.00  0.00     0.000 HD 
ENDBRANCH  14  19
ENDBRANCH   8   9
BRANCH   8  22
HETATM   22  C   UNL     1      -9.094  12.525  68.115  1.00  0.00    -0.204 C  
HETATM   23  H   UNL     1      -7.625  13.748  68.361  1.00  0.00     0.000 HD 
HETATM   24  O   UNL     1      -7.722  12.860  68.040  1.00  0.00    -0.118 OA 
ENDBRANCH   8  22
ENDBRANCH   6   8
ENDBRANCH   4   6
ENDBRANCH   3   4
TORSDOF 7
ENDMDL
MODEL      126
REMARK 921   NORMALIZED FREE ENERGY PREDICTED BY IDOCK:   -3.50 KCAL/MOL
REMARK 922        TOTAL FREE ENERGY PREDICTED BY IDOCK:   -6.47 KCAL/MOL
REMARK 923 INTER-LIGAND FREE ENERGY PREDICTED BY IDOCK:   -5.71 KCAL/MOL
REMARK 924 INTRA-LIGAND FREE ENERGY PREDICTED BY IDOCK:   -0.76 KCAL/MOL
REMARK 927      BINDING AFFINITY PREDICTED BY RF-SCORE:    0.00 PKD
ROOT
HETATM    1  O   UNL     1      -8.305  13.528  68.756  1.00  0.00    -0.324 OA 
HETATM    2  H   UNL     1      -7.882  14.074  69.407  1.00  0.00     0.000 HD 
HETATM    3  C   UNL     1      -7.397  13.420  67.685  1.00  0.00    -0.168 C  
ENDROOT
BRANCH   3   4
HETATM    4  N   UNL     1      -8.031  12.604  66.709  1.00  0.00    -0.401 N  
HETATM    5  H   UNL     1      -7.946  12.835  65.719  1.00  0.00     0.000 HD 
BRANCH   4   6
HETATM    6  C   UNL     1      -8.754  11.513  67.091  1.00  0.00    -0.160 C  
HETATM    7  O   UNL     1      -8.511  10.913  68.136  1.00  0.00    -0.121 OA 
BRANCH   6   8
HETATM    8  N   UNL     1      -9.810  11.164  66.273  1.00  0.00    -0.207 N  
BRANCH   8   9
HETATM    9  C   UNL     1     -10.859  12.145  66.084  1.00  0.00    -0.282 C  
HETATM   10  O   UNL     1      -9.938  13.161  64.016  1.00  0.00    -0.304 OA 
HETATM   11  N   UNL     1     -11.149  12.974  67.231  1.00  0.00    -0.265 N  
HETATM   12  C   UNL     1     -10.578  13.264  65.058  1.00  0.00    -0.346 C  
HETATM   13  O   UNL     1     -12.025  15.097  67.539  1.00  0.00    -0.217 OA 
HETATM   14  N   UNL     1     -11.208  14.391  65.499  1.00  0.00    -0.320 N  
HETATM   15  C   UNL     1     -11.530  14.245  66.817  1.00  0.00    -0.367 C  
BRANCH  11  16
HETATM   16  C   UNL     1     -11.518  12.473  68.522  1.00  0.00    -0.305 C  
HETATM   17  H   UNL     1     -12.629  11.037  69.212  1.00  0.00     0.000 HD 
HETATM   18  O   UNL     1     -12.384  11.370  68.356  1.00  0.00    -0.505 OA 
ENDBRANCH  11  16
BRANCH  14  19
HETATM   19  C   UNL     1     -11.143  15.678  64.875  1.00  0.00    -0.402 C  
HETATM   20  O   UNL     1     -10.227  16.504  65.568  1.00  0.00    -0.525 OA 
HETATM   21  H   UNL     1     -10.183  17.358  65.155  1.00  0.00     0.000 HD 
ENDBRANCH  14  19
ENDBRANCH   8   9
BRANCH   8  22
HETATM   22  C   UNL     1     -10.053   9.823  65.797  1.00  0.00    -0.238 C  
HETATM   23  H   UNL     1      -9.599   8.818  64.216  1.00  0.00     0.000 HD 
HETATM   24  O   UNL     1      -9.439   9.701  64.529  1.00  0.00    -0.253 OA 
ENDBRANCH   8  22
ENDBRANCH   6   8
ENDBRANCH   4   6
ENDBRANCH   3   4
TORSDOF 7
ENDMDL
MODEL      127
REMARK 921   NORMALIZED FREE ENERGY PREDICTED BY IDOCK:   -3.49 KCAL/MOL
REMARK 922        TOTAL FREE ENERGY PREDICTED BY IDOCK:   -6.45 KCAL/MOL
REMARK 923 INTER-LIGAND FREE ENERGY PREDICTED BY IDOCK:   -4.89 KCAL/MOL
REMARK 924 INTRA-LIGAND FREE ENERGY PREDICTED BY IDOCK:   -1.56 KCAL/MOL
REMARK 927      BINDING AFFINITY PREDICTED BY RF-SCORE:    0.00 PKD
ROOT
HETATM    1  O   UNL     1     -10.707   7.015  72.226  1.00  0.00    -0.210 OA 
HETATM    2  H   UNL     1     -10.798   6.490  73.012  1.00  0.00     0.000 HD 
HETATM    3  C   UNL     1     -11.972   7.013  71.606  1.00  0.00    -0.329 C  
ENDROOT
BRANCH   3   4
HETATM    4  N   UNL     1     -11.836   7.799  70.429  1.00  0.00    -0.484 N  
HETATM    5  H   UNL     1     -12.554   8.483  70.190  1.00  0.00     0.000 HD 
BRANCH   4   6
HETATM    6  C   UNL     1     -10.751   7.641  69.620  1.00  0.00    -0.228 C  
HETATM    7  O   UNL     1     -10.317   6.528  69.333  1.00  0.00    -0.182 OA 
BRANCH   6   8
HETATM    8  N   UNL     1     -10.212   8.798  69.091  1.00  0.00    -0.203 N  
BRANCH   8   9
HETATM    9  C   UNL     1     -10.684   9.218  67.788  1.00  0.00    -0.207 C  
HETATM   10  O   UNL     1      -8.889   8.130  66.464  1.00  0.00    -0.133 OA 
HETATM   11  N   UNL     1     -10.932  10.634  67.644  1.00  0.00    -0.292 N  
HETATM   12  C   UNL     1      -9.702   9.037  66.609  1.00  0.00    -0.230 C  
HETATM   13  O   UNL     1     -10.941  12.124  65.869  1.00  0.00    -0.271 OA 
HETATM   14  N   UNL     1      -9.929  10.054  65.729  1.00  0.00    -0.275 N  
HETATM   15  C   UNL     1     -10.643  11.040  66.347  1.00  0.00    -0.251 C  
BRANCH  11  16
HETATM   16  C   UNL     1     -11.821  11.391  68.477  1.00  0.00    -0.294 C  
HETATM   17  H   UNL     1     -11.665  12.872  69.724  1.00  0.00     0.000 HD 
HETATM   18  O   UNL     1     -11.077  12.370  69.171  1.00  0.00    -0.244 OA 
ENDBRANCH  11  16
BRANCH  14  19
HETATM   19  C   UNL     1      -9.184  10.299  64.531  1.00  0.00    -0.250 C  
HETATM   20  O   UNL     1      -9.246   9.166  63.685  1.00  0.00    -0.397 OA 
HETATM   21  H   UNL     1      -8.752   9.329  62.890  1.00  0.00     0.000 HD 
ENDBRANCH  14  19
ENDBRANCH   8   9
BRANCH   8  22
HETATM   22  C   UNL     1      -9.054   9.470  69.633  1.00  0.00    -0.196 C  
HETATM   23  H   UNL     1      -8.167   9.525  71.344  1.00  0.00     0.000 HD 
HETATM   24  O   UNL     1      -8.929   9.082  70.987  1.00  0.00    -0.211 OA 
ENDBRANCH   8  22
ENDBRANCH   6   8
ENDBRANCH   4   6
ENDBRANCH   3   4
TORSDOF 7
ENDMDL
MODEL      128
REMARK 921   NORMALIZED FREE ENERGY PREDICTED BY IDOCK:   -3.49 KCAL/MOL
REMARK 922        TOTAL FREE ENERGY PREDICTED BY IDOCK:   -6.44 KCAL/MOL
REMARK 923 INTER-LIGAND FREE ENERGY PREDICTED BY IDOCK:   -5.15 KCAL/MOL
REMARK 924 INTRA-LIGAND FREE ENERGY PREDICTED BY IDOCK:   -1.29 KCAL/MOL
REMARK 927      BINDING AFFINITY PREDICTED BY RF-SCORE:    0.00 PKD
ROOT
HETATM    1  O   UNL     1     -11.996  11.655  67.113  1.00  0.00    -0.614 OA 
HETATM    2  H   UNL     1     -11.612  10.788  67.073  1.00  0.00     0.000 HD 
HETATM    3  C   UNL     1     -11.647  12.181  68.372  1.00  0.00    -0.327 C  
ENDROOT
BRANCH   3   4
HETATM    4  N   UNL     1     -12.222  13.480  68.432  1.00  0.00    -0.309 N  
HETATM    5  H   UNL     1     -13.000  13.662  69.066  1.00  0.00     0.000 HD 
BRANCH   4   6
HETATM    6  C   UNL     1     -11.739  14.481  67.644  1.00  0.00    -0.382 C  
HETATM    7  O   UNL     1     -12.141  14.649  66.495  1.00  0.00    -0.340 OA 
BRANCH   6   8
HETATM    8  N   UNL     1     -10.823  15.331  68.232  1.00  0.00    -0.253 N  
BRANCH   8   9
HETATM    9  C   UNL     1      -9.769  15.860  67.390  1.00  0.00    -0.227 C  
HETATM   10  O   UNL     1      -8.179  13.979  67.702  1.00  0.00    -0.153 OA 
HETATM   11  N   UNL     1      -9.356  17.212  67.686  1.00  0.00    -0.237 N  
HETATM   12  C   UNL     1      -8.390  15.171  67.501  1.00  0.00    -0.172 C  
HETATM   13  O   UNL     1      -7.408  18.432  67.394  1.00  0.00    -0.213 OA 
HETATM   14  N   UNL     1      -7.439  16.126  67.293  1.00  0.00    -0.165 N  
HETATM   15  C   UNL     1      -7.998  17.363  67.432  1.00  0.00    -0.198 C  
BRANCH  11  16
HETATM   16  C   UNL     1     -10.237  18.343  67.705  1.00  0.00    -0.385 C  
HETATM   17  H   UNL     1     -10.798  19.671  69.006  1.00  0.00     0.000 HD 
HETATM   18  O   UNL     1     -10.214  18.922  68.993  1.00  0.00    -0.346 OA 
ENDBRANCH  11  16
BRANCH  14  19
HETATM   19  C   UNL     1      -6.024  15.923  67.378  1.00  0.00    -0.092 C  
HETATM   20  O   UNL     1      -5.524  16.504  68.568  1.00  0.00    -0.113 OA 
HETATM   21  H   UNL     1      -4.586  16.369  68.624  1.00  0.00     0.000 HD 
ENDBRANCH  14  19
ENDBRANCH   8   9
BRANCH   8  22
HETATM   22  C   UNL     1     -10.707  15.533  69.657  1.00  0.00    -0.271 C  
HETATM   23  H   UNL     1     -11.928  15.914  71.099  1.00  0.00     0.000 HD 
HETATM   24  O   UNL     1     -12.004  15.781  70.161  1.00  0.00    -0.353 OA 
ENDBRANCH   8  22
ENDBRANCH   6   8
ENDBRANCH   4   6
ENDBRANCH   3   4
TORSDOF 7
ENDMDL
MODEL      129
REMARK 921   NORMALIZED FREE ENERGY PREDICTED BY IDOCK:   -3.48 KCAL/MOL
REMARK 922        TOTAL FREE ENERGY PREDICTED BY IDOCK:   -6.44 KCAL/MOL
REMARK 923 INTER-LIGAND FREE ENERGY PREDICTED BY IDOCK:   -5.47 KCAL/MOL
REMARK 924 INTRA-LIGAND FREE ENERGY PREDICTED BY IDOCK:   -0.97 KCAL/MOL
REMARK 927      BINDING AFFINITY PREDICTED BY RF-SCORE:    0.00 PKD
ROOT
HETATM    1  O   UNL     1      -7.914   9.891  70.592  1.00  0.00    -0.377 OA 
HETATM    2  H   UNL     1      -7.012   9.665  70.781  1.00  0.00     0.000 HD 
HETATM    3  C   UNL     1      -7.870  10.857  69.569  1.00  0.00     0.027 C  
ENDROOT
BRANCH   3   4
HETATM    4  N   UNL     1      -9.222  11.195  69.286  1.00  0.00    -0.399 N  
HETATM    5  H   UNL     1      -9.978  10.631  69.674  1.00  0.00     0.000 HD 
BRANCH   4   6
HETATM    6  C   UNL     1      -9.511  12.269  68.498  1.00  0.00    -0.112 C  
HETATM    7  O   UNL     1      -8.692  13.164  68.304  1.00  0.00    -0.176 OA 
BRANCH   6   8
HETATM    8  N   UNL     1     -10.746  12.259  67.882  1.00  0.00    -0.209 N  
BRANCH   8   9
HETATM    9  C   UNL     1     -11.852  12.864  68.596  1.00  0.00    -0.312 C  
HETATM   10  O   UNL     1     -11.064  15.211  68.416  1.00  0.00    -0.258 OA 
HETATM   11  N   UNL     1     -12.140  12.295  69.892  1.00  0.00    -0.282 N  
HETATM   12  C   UNL     1     -11.668  14.336  69.028  1.00  0.00    -0.317 C  
HETATM   13  O   UNL     1     -13.115  13.076  71.845  1.00  0.00    -0.400 OA 
HETATM   14  N   UNL     1     -12.339  14.503  70.204  1.00  0.00    -0.335 N  
HETATM   15  C   UNL     1     -12.603  13.282  70.754  1.00  0.00    -0.280 C  
BRANCH  11  16
HETATM   16  C   UNL     1     -12.434  10.911  70.123  1.00  0.00    -0.283 C  
HETATM   17  H   UNL     1     -11.575   9.419  71.021  1.00  0.00     0.000 HD 
HETATM   18  O   UNL     1     -11.381  10.337  70.868  1.00  0.00    -0.337 OA 
ENDBRANCH  11  16
BRANCH  14  19
HETATM   19  C   UNL     1     -12.365  15.704  70.983  1.00  0.00    -0.428 C  
HETATM   20  O   UNL     1     -13.680  15.953  71.442  1.00  0.00    -0.452 OA 
HETATM   21  H   UNL     1     -13.697  16.750  71.959  1.00  0.00     0.000 HD 
ENDBRANCH  14  19
ENDBRANCH   8   9
BRANCH   8  22
HETATM   22  C   UNL     1     -11.054  11.486  66.702  1.00  0.00    -0.295 C  
HETATM   23  H   UNL     1     -10.927   9.629  66.199  1.00  0.00     0.000 HD 
HETATM   24  O   UNL     1     -10.725  10.138  66.975  1.00  0.00    -0.244 OA 
ENDBRANCH   8  22
ENDBRANCH   6   8
ENDBRANCH   4   6
ENDBRANCH   3   4
TORSDOF 7
ENDMDL
MODEL      130
REMARK 921   NORMALIZED FREE ENERGY PREDICTED BY IDOCK:   -3.46 KCAL/MOL
REMARK 922        TOTAL FREE ENERGY PREDICTED BY IDOCK:   -6.40 KCAL/MOL
REMARK 923 INTER-LIGAND FREE ENERGY PREDICTED BY IDOCK:   -5.24 KCAL/MOL
REMARK 924 INTRA-LIGAND FREE ENERGY PREDICTED BY IDOCK:   -1.16 KCAL/MOL
REMARK 927      BINDING AFFINITY PREDICTED BY RF-SCORE:    0.00 PKD
ROOT
HETATM    1  O   UNL     1     -12.585  14.897  69.581  1.00  0.00    -0.565 OA 
HETATM    2  H   UNL     1     -13.017  15.610  70.034  1.00  0.00     0.000 HD 
HETATM    3  C   UNL     1     -11.335  14.733  70.210  1.00  0.00    -0.231 C  
ENDROOT
BRANCH   3   4
HETATM    4  N   UNL     1     -10.688  13.664  69.531  1.00  0.00    -0.443 N  
HETATM    5  H   UNL     1     -10.416  12.826  70.045  1.00  0.00     0.000 HD 
BRANCH   4   6
HETATM    6  C   UNL     1     -10.429  13.756  68.196  1.00  0.00    -0.249 C  
HETATM    7  O   UNL     1      -9.748  14.668  67.733  1.00  0.00    -0.211 OA 
BRANCH   6   8
HETATM    8  N   UNL     1     -10.920  12.734  67.408  1.00  0.00    -0.246 N  
BRANCH   8   9
HETATM    9  C   UNL     1      -9.959  11.811  66.839  1.00  0.00    -0.199 C  
HETATM   10  O   UNL     1      -9.917  12.802  64.564  1.00  0.00    -0.251 OA 
HETATM   11  N   UNL     1     -10.264  10.410  67.013  1.00  0.00    -0.215 N  
HETATM   12  C   UNL     1      -9.818  11.826  65.301  1.00  0.00    -0.239 C  
HETATM   13  O   UNL     1      -9.749   8.466  65.862  1.00  0.00    -0.148 OA 
HETATM   14  N   UNL     1      -9.522  10.555  64.906  1.00  0.00    -0.227 N  
HETATM   15  C   UNL     1      -9.816   9.684  65.916  1.00  0.00    -0.288 C  
BRANCH  11  16
HETATM   16  C   UNL     1     -10.482   9.778  68.281  1.00  0.00    -0.216 C  
HETATM   17  H   UNL     1      -9.388   9.233  69.790  1.00  0.00     0.000 HD 
HETATM   18  O   UNL     1      -9.244   9.652  68.949  1.00  0.00    -0.140 OA 
ENDBRANCH  11  16
BRANCH  14  19
HETATM   19  C   UNL     1      -9.380  10.117  63.550  1.00  0.00    -0.290 C  
HETATM   20  O   UNL     1     -10.418  10.658  62.756  1.00  0.00    -0.724 OA 
HETATM   21  H   UNL     1     -10.324  10.368  61.857  1.00  0.00     0.000 HD 
ENDBRANCH  14  19
ENDBRANCH   8   9
BRANCH   8  22
HETATM   22  C   UNL     1     -12.279  12.668  66.924  1.00  0.00     0.037 C  
HETATM   23  H   UNL     1     -13.544  13.925  66.192  1.00  0.00     0.000 HD 
HETATM   24  O   UNL     1     -12.649  13.969  66.510  1.00  0.00    -0.393 OA 
ENDBRANCH   8  22
ENDBRANCH   6   8
ENDBRANCH   4   6
ENDBRANCH   3   4
TORSDOF 7
ENDMDL
MODEL      131
REMARK 921   NORMALIZED FREE ENERGY PREDICTED BY IDOCK:   -3.46 KCAL/MOL
REMARK 922        TOTAL FREE ENERGY PREDICTED BY IDOCK:   -6.40 KCAL/MOL
REMARK 923 INTER-LIGAND FREE ENERGY PREDICTED BY IDOCK:   -5.07 KCAL/MOL
REMARK 924 INTRA-LIGAND FREE ENERGY PREDICTED BY IDOCK:   -1.33 KCAL/MOL
REMARK 927      BINDING AFFINITY PREDICTED BY RF-SCORE:    0.00 PKD
ROOT
HETATM    1  O   UNL     1      -7.681   8.626  72.479  1.00  0.00    -0.320 OA 
HETATM    2  H   UNL     1      -7.511   9.179  73.233  1.00  0.00     0.000 HD 
HETATM    3  C   UNL     1      -8.428   7.532  72.956  1.00  0.00    -0.132 C  
ENDROOT
BRANCH   3   4
HETATM    4  N   UNL     1      -8.682   6.705  71.827  1.00  0.00    -0.130 N  
HETATM    5  H   UNL     1      -8.873   5.712  71.958  1.00  0.00     0.000 HD 
BRANCH   4   6
HETATM    6  C   UNL     1      -8.670   7.235  70.572  1.00  0.00    -0.148 C  
HETATM    7  O   UNL     1      -7.641   7.284  69.902  1.00  0.00    -0.090 OA 
BRANCH   6   8
HETATM    8  N   UNL     1      -9.889   7.651  70.074  1.00  0.00    -0.180 N  
BRANCH   8   9
HETATM    9  C   UNL     1     -10.248   9.041  70.267  1.00  0.00    -0.201 C  
HETATM   10  O   UNL     1     -11.461   8.732  72.410  1.00  0.00    -0.350 OA 
HETATM   11  N   UNL     1     -10.907   9.674  69.147  1.00  0.00    -0.214 N  
HETATM   12  C   UNL     1     -11.309   9.333  71.351  1.00  0.00    -0.364 C  
HETATM   13  O   UNL     1     -12.381  11.445  68.902  1.00  0.00    -0.446 OA 
HETATM   14  N   UNL     1     -12.030  10.414  70.937  1.00  0.00    -0.348 N  
HETATM   15  C   UNL     1     -11.823  10.615  69.603  1.00  0.00    -0.286 C  
BRANCH  11  16
HETATM   16  C   UNL     1     -10.363   9.749  67.823  1.00  0.00    -0.225 C  
HETATM   17  H   UNL     1      -8.678  10.281  67.019  1.00  0.00     0.000 HD 
HETATM   18  O   UNL     1      -9.038  10.231  67.897  1.00  0.00    -0.131 OA 
ENDBRANCH  11  16
BRANCH  14  19
HETATM   19  C   UNL     1     -13.159  10.972  71.618  1.00  0.00    -0.438 C  
HETATM   20  O   UNL     1     -13.879   9.947  72.278  1.00  0.00    -0.486 OA 
HETATM   21  H   UNL     1     -14.627  10.317  72.730  1.00  0.00     0.000 HD 
ENDBRANCH  14  19
ENDBRANCH   8   9
BRANCH   8  22
HETATM   22  C   UNL     1     -10.915   6.754  69.596  1.00  0.00    -0.288 C  
HETATM   23  H   UNL     1     -11.955   5.320  70.356  1.00  0.00     0.000 HD 
HETATM   24  O   UNL     1     -11.280   5.910  70.671  1.00  0.00    -0.294 OA 
ENDBRANCH   8  22
ENDBRANCH   6   8
ENDBRANCH   4   6
ENDBRANCH   3   4
TORSDOF 7
ENDMDL
MODEL      132
REMARK 921   NORMALIZED FREE ENERGY PREDICTED BY IDOCK:   -3.44 KCAL/MOL
REMARK 922        TOTAL FREE ENERGY PREDICTED BY IDOCK:   -6.38 KCAL/MOL
REMARK 923 INTER-LIGAND FREE ENERGY PREDICTED BY IDOCK:   -6.51 KCAL/MOL
REMARK 924 INTRA-LIGAND FREE ENERGY PREDICTED BY IDOCK:    0.12 KCAL/MOL
REMARK 927      BINDING AFFINITY PREDICTED BY RF-SCORE:    0.00 PKD
ROOT
HETATM    1  O   UNL     1      -9.987  12.956  63.719  1.00  0.00    -0.693 OA 
HETATM    2  H   UNL     1     -10.242  12.459  62.951  1.00  0.00     0.000 HD 
HETATM    3  C   UNL     1     -10.947  12.668  64.708  1.00  0.00    -0.302 C  
ENDROOT
BRANCH   3   4
HETATM    4  N   UNL     1     -10.565  13.412  65.858  1.00  0.00    -0.279 N  
HETATM    5  H   UNL     1      -9.743  13.132  66.394  1.00  0.00     0.000 HD 
BRANCH   4   6
HETATM    6  C   UNL     1     -11.292  14.497  66.247  1.00  0.00    -0.352 C  
HETATM    7  O   UNL     1     -12.349  14.378  66.861  1.00  0.00    -0.371 OA 
BRANCH   6   8
HETATM    8  N   UNL     1     -10.740  15.732  65.969  1.00  0.00    -0.323 N  
BRANCH   8   9
HETATM    9  C   UNL     1     -10.397  16.577  67.094  1.00  0.00    -0.298 C  
HETATM   10  O   UNL     1     -10.772  18.749  65.952  1.00  0.00    -0.438 OA 
HETATM   11  N   UNL     1      -9.123  16.297  67.715  1.00  0.00    -0.194 N  
HETATM   12  C   UNL     1     -10.177  18.075  66.787  1.00  0.00    -0.364 C  
HETATM   13  O   UNL     1      -7.588  17.533  68.935  1.00  0.00    -0.267 OA 
HETATM   14  N   UNL     1      -9.223  18.533  67.647  1.00  0.00    -0.279 N  
HETATM   15  C   UNL     1      -8.556  17.473  68.192  1.00  0.00    -0.258 C  
BRANCH  11  16
HETATM   16  C   UNL     1      -8.743  15.022  68.248  1.00  0.00    -0.166 C  
HETATM   17  H   UNL     1      -9.358  13.848  69.668  1.00  0.00     0.000 HD 
HETATM   18  O   UNL     1      -9.610  14.693  69.314  1.00  0.00    -0.133 OA 
ENDBRANCH  11  16
BRANCH  14  19
HETATM   19  C   UNL     1      -8.673  19.855  67.653  1.00  0.00    -0.334 C  
HETATM   20  O   UNL     1      -9.404  20.685  66.771  1.00  0.00    -0.605 OA 
HETATM   21  H   UNL     1      -9.040  21.562  66.775  1.00  0.00     0.000 HD 
ENDBRANCH  14  19
ENDBRANCH   8   9
BRANCH   8  22
HETATM   22  C   UNL     1     -10.708  16.324  64.652  1.00  0.00     0.046 C  
HETATM   23  H   UNL     1     -11.950  16.496  63.188  1.00  0.00     0.000 HD 
HETATM   24  O   UNL     1     -11.971  16.106  64.054  1.00  0.00    -0.897 OA 
ENDBRANCH   8  22
ENDBRANCH   6   8
ENDBRANCH   4   6
ENDBRANCH   3   4
TORSDOF 7
ENDMDL
MODEL      133
REMARK 921   NORMALIZED FREE ENERGY PREDICTED BY IDOCK:   -3.44 KCAL/MOL
REMARK 922        TOTAL FREE ENERGY PREDICTED BY IDOCK:   -6.38 KCAL/MOL
REMARK 923 INTER-LIGAND FREE ENERGY PREDICTED BY IDOCK:   -5.34 KCAL/MOL
REMARK 924 INTRA-LIGAND FREE ENERGY PREDICTED BY IDOCK:   -1.04 KCAL/MOL
REMARK 927      BINDING AFFINITY PREDICTED BY RF-SCORE:    0.00 PKD
ROOT
HETATM    1  O   UNL     1      -7.340  16.993  67.833  1.00  0.00    -0.163 OA 
HETATM    2  H   UNL     1      -6.953  17.774  68.211  1.00  0.00     0.000 HD 
HETATM    3  C   UNL     1      -7.852  17.379  66.579  1.00  0.00    -0.285 C  
ENDROOT
BRANCH   3   4
HETATM    4  N   UNL     1      -8.431  16.210  66.012  1.00  0.00    -0.256 N  
HETATM    5  H   UNL     1      -7.831  15.494  65.603  1.00  0.00     0.000 HD 
BRANCH   4   6
HETATM    6  C   UNL     1      -9.783  16.044  66.014  1.00  0.00    -0.344 C  
HETATM    7  O   UNL     1     -10.462  16.271  65.015  1.00  0.00    -0.621 OA 
BRANCH   6   8
HETATM    8  N   UNL     1     -10.335  15.545  67.177  1.00  0.00    -0.266 N  
BRANCH   8   9
HETATM    9  C   UNL     1     -10.158  14.132  67.446  1.00  0.00    -0.240 C  
HETATM   10  O   UNL     1      -7.735  14.238  67.975  1.00  0.00    -0.116 OA 
HETATM   11  N   UNL     1     -10.635  13.239  66.415  1.00  0.00    -0.281 N  
HETATM   12  C   UNL     1      -8.701  13.625  67.531  1.00  0.00    -0.198 C  
HETATM   13  O   UNL     1     -10.097  11.091  65.730  1.00  0.00    -0.233 OA 
HETATM   14  N   UNL     1      -8.685  12.346  67.058  1.00  0.00    -0.203 N  
HETATM   15  C   UNL     1      -9.831  12.107  66.355  1.00  0.00    -0.227 C  
BRANCH  11  16
HETATM   16  C   UNL     1     -11.978  13.221  65.915  1.00  0.00    -0.419 C  
HETATM   17  H   UNL     1     -12.853  13.557  64.214  1.00  0.00     0.000 HD 
HETATM   18  O   UNL     1     -11.963  13.568  64.546  1.00  0.00    -0.376 OA 
ENDBRANCH  11  16
BRANCH  14  19
HETATM   19  C   UNL     1      -7.518  11.533  66.898  1.00  0.00    -0.145 C  
HETATM   20  O   UNL     1      -7.270  11.309  65.523  1.00  0.00    -0.341 OA 
HETATM   21  H   UNL     1      -6.496  10.770  65.417  1.00  0.00     0.000 HD 
ENDBRANCH  14  19
ENDBRANCH   8   9
BRANCH   8  22
HETATM   22  C   UNL     1     -11.266  16.273  68.007  1.00  0.00    -0.260 C  
HETATM   23  H   UNL     1     -11.478  18.108  68.556  1.00  0.00     0.000 HD 
HETATM   24  O   UNL     1     -10.866  17.629  68.009  1.00  0.00    -0.369 OA 
ENDBRANCH   8  22
ENDBRANCH   6   8
ENDBRANCH   4   6
ENDBRANCH   3   4
TORSDOF 7
ENDMDL
MODEL      134
REMARK 921   NORMALIZED FREE ENERGY PREDICTED BY IDOCK:   -3.43 KCAL/MOL
REMARK 922        TOTAL FREE ENERGY PREDICTED BY IDOCK:   -6.36 KCAL/MOL
REMARK 923 INTER-LIGAND FREE ENERGY PREDICTED BY IDOCK:   -4.98 KCAL/MOL
REMARK 924 INTRA-LIGAND FREE ENERGY PREDICTED BY IDOCK:   -1.38 KCAL/MOL
REMARK 927      BINDING AFFINITY PREDICTED BY RF-SCORE:    0.00 PKD
ROOT
HETATM    1  O   UNL     1      -7.757  17.900  67.712  1.00  0.00    -0.213 OA 
HETATM    2  H   UNL     1      -7.700  18.706  68.212  1.00  0.00     0.000 HD 
HETATM    3  C   UNL     1      -8.752  18.113  66.738  1.00  0.00    -0.263 C  
ENDROOT
BRANCH   3   4
HETATM    4  N   UNL     1      -8.837  16.908  65.990  1.00  0.00    -0.224 N  
HETATM    5  H   UNL     1      -7.997  16.510  65.570  1.00  0.00     0.000 HD 
BRANCH   4   6
HETATM    6  C   UNL     1     -10.037  16.282  65.831  1.00  0.00    -0.357 C  
HETATM    7  O   UNL     1     -10.795  16.565  64.906  1.00  0.00    -0.684 OA 
BRANCH   6   8
HETATM    8  N   UNL     1     -10.321  15.271  66.729  1.00  0.00    -0.273 N  
BRANCH   8   9
HETATM    9  C   UNL     1      -9.650  14.002  66.537  1.00  0.00    -0.293 C  
HETATM   10  O   UNL     1     -11.639  12.736  65.761  1.00  0.00    -0.336 OA 
HETATM   11  N   UNL     1      -8.885  13.526  67.667  1.00  0.00    -0.189 N  
HETATM   12  C   UNL     1     -10.557  12.767  66.339  1.00  0.00    -0.255 C  
HETATM   13  O   UNL     1      -8.218  11.444  68.434  1.00  0.00    -0.137 OA 
HETATM   14  N   UNL     1      -9.917  11.697  66.891  1.00  0.00    -0.200 N  
HETATM   15  C   UNL     1      -8.926  12.138  67.720  1.00  0.00    -0.179 C  
BRANCH  11  16
HETATM   16  C   UNL     1      -7.831  14.262  68.300  1.00  0.00    -0.141 C  
HETATM   17  H   UNL     1      -6.450  15.508  67.742  1.00  0.00     0.000 HD 
HETATM   18  O   UNL     1      -7.149  15.020  67.323  1.00  0.00    -0.193 OA 
ENDBRANCH  11  16
BRANCH  14  19
HETATM   19  C   UNL     1     -10.445  10.370  66.986  1.00  0.00    -0.251 C  
HETATM   20  O   UNL     1      -9.443   9.427  66.654  1.00  0.00    -0.156 OA 
HETATM   21  H   UNL     1      -9.793   8.547  66.717  1.00  0.00     0.000 HD 
ENDBRANCH  14  19
ENDBRANCH   8   9
BRANCH   8  22
HETATM   22  C   UNL     1     -11.405  15.318  67.682  1.00  0.00    -0.312 C  
HETATM   23  H   UNL     1     -11.755  16.265  69.324  1.00  0.00     0.000 HD 
HETATM   24  O   UNL     1     -11.042  16.234  68.697  1.00  0.00    -0.324 OA 
ENDBRANCH   8  22
ENDBRANCH   6   8
ENDBRANCH   4   6
ENDBRANCH   3   4
TORSDOF 7
ENDMDL
MODEL      135
REMARK 921   NORMALIZED FREE ENERGY PREDICTED BY IDOCK:   -3.42 KCAL/MOL
REMARK 922        TOTAL FREE ENERGY PREDICTED BY IDOCK:   -6.35 KCAL/MOL
REMARK 923 INTER-LIGAND FREE ENERGY PREDICTED BY IDOCK:   -5.30 KCAL/MOL
REMARK 924 INTRA-LIGAND FREE ENERGY PREDICTED BY IDOCK:   -1.05 KCAL/MOL
REMARK 927      BINDING AFFINITY PREDICTED BY RF-SCORE:    0.00 PKD
ROOT
HETATM    1  O   UNL     1     -11.016  16.615  70.172  1.00  0.00    -0.400 OA 
HETATM    2  H   UNL     1     -10.341  16.691  70.836  1.00  0.00     0.000 HD 
HETATM    3  C   UNL     1     -10.498  15.756  69.184  1.00  0.00    -0.240 C  
ENDROOT
BRANCH   3   4
HETATM    4  N   UNL     1     -11.508  15.643  68.189  1.00  0.00    -0.347 N  
HETATM    5  H   UNL     1     -12.459  15.952  68.394  1.00  0.00     0.000 HD 
BRANCH   4   6
HETATM    6  C   UNL     1     -11.211  15.124  66.965  1.00  0.00    -0.308 C  
HETATM    7  O   UNL     1     -11.016  15.846  65.989  1.00  0.00    -0.261 OA 
BRANCH   6   8
HETATM    8  N   UNL     1     -11.078  13.751  66.900  1.00  0.00    -0.297 N  
BRANCH   8   9
HETATM    9  C   UNL     1     -10.080  13.221  65.993  1.00  0.00    -0.299 C  
HETATM   10  O   UNL     1     -11.657  12.490  64.221  1.00  0.00    -0.327 OA 
HETATM   11  N   UNL     1      -9.155  12.275  66.573  1.00  0.00    -0.208 N  
HETATM   12  C   UNL     1     -10.603  12.347  64.831  1.00  0.00    -0.294 C  
HETATM   13  O   UNL     1      -7.878  10.521  65.756  1.00  0.00    -0.149 OA 
HETATM   14  N   UNL     1      -9.654  11.402  64.573  1.00  0.00    -0.220 N  
HETATM   15  C   UNL     1      -8.791  11.323  65.627  1.00  0.00    -0.118 C  
BRANCH  11  16
HETATM   16  C   UNL     1      -8.326  12.544  67.711  1.00  0.00    -0.170 C  
HETATM   17  H   UNL     1      -6.842  13.726  68.125  1.00  0.00     0.000 HD 
HETATM   18  O   UNL     1      -7.392  13.548  67.371  1.00  0.00    -0.165 OA 
ENDBRANCH  11  16
BRANCH  14  19
HETATM   19  C   UNL     1      -9.772  10.346  63.613  1.00  0.00    -0.277 C  
HETATM   20  O   UNL     1     -10.193  10.870  62.368  1.00  0.00    -0.648 OA 
HETATM   21  H   UNL     1     -10.272  10.169  61.732  1.00  0.00     0.000 HD 
ENDBRANCH  14  19
ENDBRANCH   8   9
BRANCH   8  22
HETATM   22  C   UNL     1     -12.015  12.821  67.484  1.00  0.00    -0.281 C  
HETATM   23  H   UNL     1     -12.301  12.070  69.236  1.00  0.00     0.000 HD 
HETATM   24  O   UNL     1     -11.684  12.683  68.852  1.00  0.00    -0.290 OA 
ENDBRANCH   8  22
ENDBRANCH   6   8
ENDBRANCH   4   6
ENDBRANCH   3   4
TORSDOF 7
ENDMDL
MODEL      136
REMARK 921   NORMALIZED FREE ENERGY PREDICTED BY IDOCK:   -3.42 KCAL/MOL
REMARK 922        TOTAL FREE ENERGY PREDICTED BY IDOCK:   -6.35 KCAL/MOL
REMARK 923 INTER-LIGAND FREE ENERGY PREDICTED BY IDOCK:   -5.76 KCAL/MOL
REMARK 924 INTRA-LIGAND FREE ENERGY PREDICTED BY IDOCK:   -0.59 KCAL/MOL
REMARK 927      BINDING AFFINITY PREDICTED BY RF-SCORE:    0.00 PKD
ROOT
HETATM    1  O   UNL     1     -11.521  16.240  63.752  1.00  0.00    -1.475 OA 
HETATM    2  H   UNL     1     -12.399  16.509  63.510  1.00  0.00     0.000 HD 
HETATM    3  C   UNL     1     -11.368  16.576  65.111  1.00  0.00     0.113 C  
ENDROOT
BRANCH   3   4
HETATM    4  N   UNL     1     -10.054  16.173  65.473  1.00  0.00    -0.323 N  
HETATM    5  H   UNL     1      -9.250  16.708  65.145  1.00  0.00     0.000 HD 
BRANCH   4   6
HETATM    6  C   UNL     1      -9.865  15.075  66.257  1.00  0.00    -0.285 C  
HETATM    7  O   UNL     1      -9.316  14.063  65.828  1.00  0.00    -0.081 OA 
BRANCH   6   8
HETATM    8  N   UNL     1     -10.265  15.189  67.574  1.00  0.00    -0.237 N  
BRANCH   8   9
HETATM    9  C   UNL     1      -9.432  15.981  68.457  1.00  0.00    -0.216 C  
HETATM   10  O   UNL     1     -10.418  18.186  67.886  1.00  0.00    -0.380 OA 
HETATM   11  N   UNL     1      -8.009  15.769  68.326  1.00  0.00    -0.128 N  
HETATM   12  C   UNL     1      -9.457  17.510  68.237  1.00  0.00    -0.296 C  
HETATM   13  O   UNL     1      -6.118  17.044  68.734  1.00  0.00    -0.143 OA 
HETATM   14  N   UNL     1      -8.217  17.986  68.547  1.00  0.00    -0.303 N  
HETATM   15  C   UNL     1      -7.325  16.953  68.573  1.00  0.00    -0.206 C  
BRANCH  11  16
HETATM   16  C   UNL     1      -7.363  14.496  68.463  1.00  0.00    -0.120 C  
HETATM   17  H   UNL     1      -6.027  13.481  67.485  1.00  0.00     0.000 HD 
HETATM   18  O   UNL     1      -6.456  14.324  67.395  1.00  0.00    -0.307 OA 
ENDBRANCH  11  16
BRANCH  14  19
HETATM   19  C   UNL     1      -7.791  19.347  68.412  1.00  0.00    -0.342 C  
HETATM   20  O   UNL     1      -7.128  19.764  69.591  1.00  0.00    -0.315 OA 
HETATM   21  H   UNL     1      -6.845  20.666  69.501  1.00  0.00     0.000 HD 
ENDBRANCH  14  19
ENDBRANCH   8   9
BRANCH   8  22
HETATM   22  C   UNL     1     -11.306  14.389  68.175  1.00  0.00    -0.294 C  
HETATM   23  H   UNL     1     -12.936  13.563  67.561  1.00  0.00     0.000 HD 
HETATM   24  O   UNL     1     -12.251  14.090  67.166  1.00  0.00    -0.419 OA 
ENDBRANCH   8  22
ENDBRANCH   6   8
ENDBRANCH   4   6
ENDBRANCH   3   4
TORSDOF 7
ENDMDL
MODEL      137
REMARK 921   NORMALIZED FREE ENERGY PREDICTED BY IDOCK:   -3.41 KCAL/MOL
REMARK 922        TOTAL FREE ENERGY PREDICTED BY IDOCK:   -6.33 KCAL/MOL
REMARK 923 INTER-LIGAND FREE ENERGY PREDICTED BY IDOCK:   -5.24 KCAL/MOL
REMARK 924 INTRA-LIGAND FREE ENERGY PREDICTED BY IDOCK:   -1.10 KCAL/MOL
REMARK 927      BINDING AFFINITY PREDICTED BY RF-SCORE:    0.00 PKD
ROOT
HETATM    1  O   UNL     1      -7.153  19.638  69.753  1.00  0.00    -0.269 OA 
HETATM    2  H   UNL     1      -6.542  20.362  69.816  1.00  0.00     0.000 HD 
HETATM    3  C   UNL     1      -7.109  19.204  68.414  1.00  0.00    -0.279 C  
ENDROOT
BRANCH   3   4
HETATM    4  N   UNL     1      -8.024  18.119  68.319  1.00  0.00    -0.286 N  
HETATM    5  H   UNL     1      -7.674  17.165  68.233  1.00  0.00     0.000 HD 
BRANCH   4   6
HETATM    6  C   UNL     1      -9.367  18.351  68.343  1.00  0.00    -0.329 C  
HETATM    7  O   UNL     1      -9.832  19.403  68.775  1.00  0.00    -0.413 OA 
BRANCH   6   8
HETATM    8  N   UNL     1     -10.165  17.366  67.797  1.00  0.00    -0.329 N  
BRANCH   8   9
HETATM    9  C   UNL     1      -9.963  16.009  68.263  1.00  0.00    -0.220 C  
HETATM   10  O   UNL     1      -8.565  15.252  66.357  1.00  0.00    -0.276 OA 
HETATM   11  N   UNL     1     -11.165  15.286  68.610  1.00  0.00    -0.279 N  
HETATM   12  C   UNL     1      -9.383  15.009  67.238  1.00  0.00    -0.202 C  
HETATM   13  O   UNL     1     -11.769  13.049  68.680  1.00  0.00    -0.285 OA 
HETATM   14  N   UNL     1      -9.916  13.785  67.515  1.00  0.00    -0.230 N  
HETATM   15  C   UNL     1     -11.011  13.936  68.316  1.00  0.00    -0.255 C  
BRANCH  11  16
HETATM   16  C   UNL     1     -12.129  15.730  69.574  1.00  0.00    -0.242 C  
HETATM   17  H   UNL     1     -12.110  16.270  71.439  1.00  0.00     0.000 HD 
HETATM   18  O   UNL     1     -11.472  15.976  70.800  1.00  0.00    -0.373 OA 
ENDBRANCH  11  16
BRANCH  14  19
HETATM   19  C   UNL     1      -9.694  12.590  66.758  1.00  0.00    -0.234 C  
HETATM   20  O   UNL     1      -9.912  12.844  65.383  1.00  0.00    -0.369 OA 
HETATM   21  H   UNL     1      -9.765  12.051  64.880  1.00  0.00     0.000 HD 
ENDBRANCH  14  19
ENDBRANCH   8   9
BRANCH   8  22
HETATM   22  C   UNL     1     -11.006  17.557  66.638  1.00  0.00     0.210 C  
HETATM   23  H   UNL     1     -10.721  18.049  64.796  1.00  0.00     0.000 HD 
HETATM   24  O   UNL     1     -10.169  17.922  65.558  1.00  0.00    -0.576 OA 
ENDBRANCH   8  22
ENDBRANCH   6   8
ENDBRANCH   4   6
ENDBRANCH   3   4
TORSDOF 7
ENDMDL
MODEL      138
REMARK 921   NORMALIZED FREE ENERGY PREDICTED BY IDOCK:   -3.40 KCAL/MOL
REMARK 922        TOTAL FREE ENERGY PREDICTED BY IDOCK:   -6.33 KCAL/MOL
REMARK 923 INTER-LIGAND FREE ENERGY PREDICTED BY IDOCK:   -5.36 KCAL/MOL
REMARK 924 INTRA-LIGAND FREE ENERGY PREDICTED BY IDOCK:   -0.97 KCAL/MOL
REMARK 927      BINDING AFFINITY PREDICTED BY RF-SCORE:    0.00 PKD
ROOT
HETATM    1  O   UNL     1     -12.383  14.717  67.269  1.00  0.00    -0.554 OA 
HETATM    2  H   UNL     1     -12.354  15.614  67.578  1.00  0.00     0.000 HD 
HETATM    3  C   UNL     1     -11.173  14.500  66.581  1.00  0.00    -0.346 C  
ENDROOT
BRANCH   3   4
HETATM    4  N   UNL     1     -11.217  13.156  66.118  1.00  0.00    -0.290 N  
HETATM    5  H   UNL     1     -12.082  12.781  65.729  1.00  0.00     0.000 HD 
BRANCH   4   6
HETATM    6  C   UNL     1     -10.108  12.368  66.193  1.00  0.00    -0.248 C  
HETATM    7  O   UNL     1      -9.045  12.791  66.641  1.00  0.00    -0.226 OA 
BRANCH   6   8
HETATM    8  N   UNL     1     -10.266  11.054  65.799  1.00  0.00    -0.252 N  
BRANCH   8   9
HETATM    9  C   UNL     1     -10.374  10.054  66.841  1.00  0.00    -0.234 C  
HETATM   10  O   UNL     1     -12.279  11.094  68.045  1.00  0.00    -0.584 OA 
HETATM   11  N   UNL     1      -9.148   9.756  67.546  1.00  0.00    -0.131 N  
HETATM   12  C   UNL     1     -11.254  10.420  68.057  1.00  0.00    -0.272 C  
HETATM   13  O   UNL     1      -8.625   8.957  69.657  1.00  0.00    -0.124 OA 
HETATM   14  N   UNL     1     -10.705   9.821  69.153  1.00  0.00    -0.217 N  
HETATM   15  C   UNL     1      -9.424   9.443  68.872  1.00  0.00    -0.154 C  
BRANCH  11  16
HETATM   16  C   UNL     1      -7.937   9.317  66.917  1.00  0.00    -0.105 C  
HETATM   17  H   UNL     1      -7.354   7.760  65.915  1.00  0.00     0.000 HD 
HETATM   18  O   UNL     1      -8.157   8.051  66.332  1.00  0.00    -0.101 OA 
ENDBRANCH  11  16
BRANCH  14  19
HETATM   19  C   UNL     1     -11.172   9.963  70.499  1.00  0.00    -0.330 C  
HETATM   20  O   UNL     1     -12.527   9.564  70.584  1.00  0.00    -0.478 OA 
HETATM   21  H   UNL     1     -12.837   9.658  71.477  1.00  0.00     0.000 HD 
ENDBRANCH  14  19
ENDBRANCH   8   9
BRANCH   8  22
HETATM   22  C   UNL     1     -10.091  10.591  64.442  1.00  0.00    -0.325 C  
HETATM   23  H   UNL     1     -10.913  10.968  62.740  1.00  0.00     0.000 HD 
HETATM   24  O   UNL     1     -11.028  11.273  63.632  1.00  0.00    -0.385 OA 
ENDBRANCH   8  22
ENDBRANCH   6   8
ENDBRANCH   4   6
ENDBRANCH   3   4
TORSDOF 7
ENDMDL
MODEL      139
REMARK 921   NORMALIZED FREE ENERGY PREDICTED BY IDOCK:   -3.40 KCAL/MOL
REMARK 922        TOTAL FREE ENERGY PREDICTED BY IDOCK:   -6.32 KCAL/MOL
REMARK 923 INTER-LIGAND FREE ENERGY PREDICTED BY IDOCK:   -5.88 KCAL/MOL
REMARK 924 INTRA-LIGAND FREE ENERGY PREDICTED BY IDOCK:   -0.44 KCAL/MOL
REMARK 927      BINDING AFFINITY PREDICTED BY RF-SCORE:    0.00 PKD
ROOT
HETATM    1  O   UNL     1      -7.413  10.751  70.107  1.00  0.00    -0.424 OA 
HETATM    2  H   UNL     1      -7.689  10.826  71.012  1.00  0.00     0.000 HD 
HETATM    3  C   UNL     1      -8.558  10.373  69.379  1.00  0.00    -0.130 C  
ENDROOT
BRANCH   3   4
HETATM    4  N   UNL     1      -8.144  10.260  68.023  1.00  0.00    -0.105 N  
HETATM    5  H   UNL     1      -7.354   9.662  67.781  1.00  0.00     0.000 HD 
BRANCH   4   6
HETATM    6  C   UNL     1      -8.800  10.947  67.046  1.00  0.00    -0.140 C  
HETATM    7  O   UNL     1      -8.307  11.939  66.514  1.00  0.00    -0.155 OA 
BRANCH   6   8
HETATM    8  N   UNL     1     -10.015  10.428  66.646  1.00  0.00    -0.202 N  
BRANCH   8   9
HETATM    9  C   UNL     1     -11.106  11.361  66.451  1.00  0.00    -0.240 C  
HETATM   10  O   UNL     1     -10.790  11.670  64.008  1.00  0.00    -0.334 OA 
HETATM   11  N   UNL     1     -11.109  12.507  67.331  1.00  0.00    -0.259 N  
HETATM   12  C   UNL     1     -11.137  12.110  65.100  1.00  0.00    -0.322 C  
HETATM   13  O   UNL     1     -11.938  14.668  67.205  1.00  0.00    -0.391 OA 
HETATM   14  N   UNL     1     -11.662  13.347  65.331  1.00  0.00    -0.319 N  
HETATM   15  C   UNL     1     -11.624  13.615  66.669  1.00  0.00    -0.364 C  
BRANCH  11  16
HETATM   16  C   UNL     1     -11.113  12.430  68.762  1.00  0.00    -0.262 C  
HETATM   17  H   UNL     1     -12.181  11.549  70.124  1.00  0.00     0.000 HD 
HETATM   18  O   UNL     1     -12.178  11.600  69.175  1.00  0.00    -0.275 OA 
ENDBRANCH  11  16
BRANCH  14  19
HETATM   19  C   UNL     1     -11.802  14.387  64.356  1.00  0.00    -0.415 C  
HETATM   20  O   UNL     1     -12.314  13.852  63.150  1.00  0.00    -1.122 OA 
HETATM   21  H   UNL     1     -12.406  14.542  62.504  1.00  0.00     0.000 HD 
ENDBRANCH  14  19
ENDBRANCH   8   9
BRANCH   8  22
HETATM   22  C   UNL     1     -10.331   9.019  66.644  1.00  0.00    -0.219 C  
HETATM   23  H   UNL     1      -9.530   7.429  65.906  1.00  0.00     0.000 HD 
HETATM   24  O   UNL     1      -9.323   8.356  65.907  1.00  0.00    -0.200 OA 
ENDBRANCH   8  22
ENDBRANCH   6   8
ENDBRANCH   4   6
ENDBRANCH   3   4
TORSDOF 7
ENDMDL
MODEL      140
REMARK 921   NORMALIZED FREE ENERGY PREDICTED BY IDOCK:   -3.40 KCAL/MOL
REMARK 922        TOTAL FREE ENERGY PREDICTED BY IDOCK:   -6.32 KCAL/MOL
REMARK 923 INTER-LIGAND FREE ENERGY PREDICTED BY IDOCK:   -5.38 KCAL/MOL
REMARK 924 INTRA-LIGAND FREE ENERGY PREDICTED BY IDOCK:   -0.94 KCAL/MOL
REMARK 927      BINDING AFFINITY PREDICTED BY RF-SCORE:    0.00 PKD
ROOT
HETATM    1  O   UNL     1     -11.066   9.629  68.880  1.00  0.00    -0.403 OA 
HETATM    2  H   UNL     1     -10.485   9.228  69.514  1.00  0.00     0.000 HD 
HETATM    3  C   UNL     1     -11.265  10.954  69.314  1.00  0.00    -0.265 C  
ENDROOT
BRANCH   3   4
HETATM    4  N   UNL     1     -12.135  11.556  68.364  1.00  0.00    -0.183 N  
HETATM    5  H   UNL     1     -12.879  11.004  67.936  1.00  0.00     0.000 HD 
BRANCH   4   6
HETATM    6  C   UNL     1     -11.979  12.865  68.022  1.00  0.00    -0.275 C  
HETATM    7  O   UNL     1     -11.980  13.757  68.868  1.00  0.00    -0.337 OA 
BRANCH   6   8
HETATM    8  N   UNL     1     -11.754  13.125  66.685  1.00  0.00    -0.356 N  
BRANCH   8   9
HETATM    9  C   UNL     1     -10.388  13.041  66.210  1.00  0.00    -0.285 C  
HETATM   10  O   UNL     1     -10.301  10.568  66.011  1.00  0.00    -0.248 OA 
HETATM   11  N   UNL     1      -9.408  13.737  67.010  1.00  0.00    -0.239 N  
HETATM   12  C   UNL     1      -9.740  11.638  66.223  1.00  0.00    -0.218 C  
HETATM   13  O   UNL     1      -7.135  13.498  67.391  1.00  0.00    -0.163 OA 
HETATM   14  N   UNL     1      -8.411  11.806  66.476  1.00  0.00    -0.137 N  
HETATM   15  C   UNL     1      -8.197  13.056  66.981  1.00  0.00    -0.062 C  
BRANCH  11  16
HETATM   16  C   UNL     1      -9.466  15.134  67.330  1.00  0.00    -0.210 C  
HETATM   17  H   UNL     1      -9.763  16.790  66.361  1.00  0.00     0.000 HD 
HETATM   18  O   UNL     1      -9.725  15.864  66.150  1.00  0.00    -0.274 OA 
ENDBRANCH  11  16
BRANCH  14  19
HETATM   19  C   UNL     1      -7.457  10.751  66.642  1.00  0.00    -0.135 C  
HETATM   20  O   UNL     1      -6.331  10.984  65.817  1.00  0.00    -0.321 OA 
HETATM   21  H   UNL     1      -5.698  10.285  65.928  1.00  0.00     0.000 HD 
ENDBRANCH  14  19
ENDBRANCH   8   9
BRANCH   8  22
HETATM   22  C   UNL     1     -12.738  13.699  65.797  1.00  0.00    -0.416 C  
HETATM   23  H   UNL     1     -13.750  13.082  64.277  1.00  0.00     0.000 HD 
HETATM   24  O   UNL     1     -13.103  12.704  64.861  1.00  0.00    -0.850 OA 
ENDBRANCH   8  22
ENDBRANCH   6   8
ENDBRANCH   4   6
ENDBRANCH   3   4
TORSDOF 7
ENDMDL
MODEL      141
REMARK 921   NORMALIZED FREE ENERGY PREDICTED BY IDOCK:   -3.39 KCAL/MOL
REMARK 922        TOTAL FREE ENERGY PREDICTED BY IDOCK:   -6.31 KCAL/MOL
REMARK 923 INTER-LIGAND FREE ENERGY PREDICTED BY IDOCK:   -5.70 KCAL/MOL
REMARK 924 INTRA-LIGAND FREE ENERGY PREDICTED BY IDOCK:   -0.62 KCAL/MOL
REMARK 927      BINDING AFFINITY PREDICTED BY RF-SCORE:    0.00 PKD
ROOT
HETATM    1  O   UNL     1      -9.577  12.513  63.491  1.00  0.00    -0.660 OA 
HETATM    2  H   UNL     1     -10.104  12.364  62.716  1.00  0.00     0.000 HD 
HETATM    3  C   UNL     1     -10.480  12.597  64.569  1.00  0.00    -0.355 C  
ENDROOT
BRANCH   3   4
HETATM    4  N   UNL     1      -9.690  12.820  65.730  1.00  0.00    -0.410 N  
HETATM    5  H   UNL     1      -9.513  13.773  66.049  1.00  0.00     0.000 HD 
BRANCH   4   6
HETATM    6  C   UNL     1      -9.167  11.766  66.417  1.00  0.00    -0.217 C  
HETATM    7  O   UNL     1      -8.182  11.892  67.141  1.00  0.00    -0.158 OA 
BRANCH   6   8
HETATM    8  N   UNL     1      -9.846  10.568  66.304  1.00  0.00    -0.208 N  
BRANCH   8   9
HETATM    9  C   UNL     1     -10.630  10.136  67.443  1.00  0.00    -0.272 C  
HETATM   10  O   UNL     1     -12.081  12.146  67.574  1.00  0.00    -0.534 OA 
HETATM   11  N   UNL     1      -9.870   9.716  68.598  1.00  0.00    -0.157 N  
HETATM   12  C   UNL     1     -11.504  11.214  68.124  1.00  0.00    -0.303 C  
HETATM   13  O   UNL     1     -10.267   9.637  70.880  1.00  0.00    -0.295 OA 
HETATM   14  N   UNL     1     -11.554  10.917  69.454  1.00  0.00    -0.289 N  
HETATM   15  C   UNL     1     -10.555  10.040  69.763  1.00  0.00    -0.267 C  
BRANCH  11  16
HETATM   16  C   UNL     1      -8.879   8.681  68.584  1.00  0.00    -0.142 C  
HETATM   17  H   UNL     1      -8.825   6.787  68.156  1.00  0.00     0.000 HD 
HETATM   18  O   UNL     1      -9.481   7.474  68.165  1.00  0.00    -0.143 OA 
ENDBRANCH  11  16
BRANCH  14  19
HETATM   19  C   UNL     1     -12.203  11.706  70.458  1.00  0.00    -0.361 C  
HETATM   20  O   UNL     1     -11.736  13.040  70.401  1.00  0.00    -0.525 OA 
HETATM   21  H   UNL     1     -12.167  13.563  71.066  1.00  0.00     0.000 HD 
ENDBRANCH  14  19
ENDBRANCH   8   9
BRANCH   8  22
HETATM   22  C   UNL     1      -9.635   9.617  65.238  1.00  0.00    -0.277 C  
HETATM   23  H   UNL     1      -8.100   8.855  64.355  1.00  0.00     0.000 HD 
HETATM   24  O   UNL     1      -8.239   9.480  65.057  1.00  0.00    -0.124 OA 
ENDBRANCH   8  22
ENDBRANCH   6   8
ENDBRANCH   4   6
ENDBRANCH   3   4
TORSDOF 7
ENDMDL
MODEL      142
REMARK 921   NORMALIZED FREE ENERGY PREDICTED BY IDOCK:   -3.38 KCAL/MOL
REMARK 922        TOTAL FREE ENERGY PREDICTED BY IDOCK:   -6.29 KCAL/MOL
REMARK 923 INTER-LIGAND FREE ENERGY PREDICTED BY IDOCK:   -5.44 KCAL/MOL
REMARK 924 INTRA-LIGAND FREE ENERGY PREDICTED BY IDOCK:   -0.85 KCAL/MOL
REMARK 927      BINDING AFFINITY PREDICTED BY RF-SCORE:    0.00 PKD
ROOT
HETATM    1  O   UNL     1     -12.500  14.439  63.064  1.00  0.00    -0.861 OA 
HETATM    2  H   UNL     1     -12.833  14.216  62.203  1.00  0.00     0.000 HD 
HETATM    3  C   UNL     1     -12.366  13.221  63.760  1.00  0.00    -0.367 C  
ENDROOT
BRANCH   3   4
HETATM    4  N   UNL     1     -11.867  13.555  65.049  1.00  0.00    -0.338 N  
HETATM    5  H   UNL     1     -12.513  13.664  65.830  1.00  0.00     0.000 HD 
BRANCH   4   6
HETATM    6  C   UNL     1     -10.530  13.730  65.243  1.00  0.00    -0.363 C  
HETATM    7  O   UNL     1      -9.697  13.191  64.517  1.00  0.00    -0.035 OA 
BRANCH   6   8
HETATM    8  N   UNL     1     -10.168  14.596  66.256  1.00  0.00    -0.281 N  
BRANCH   8   9
HETATM    9  C   UNL     1      -9.679  14.012  67.489  1.00  0.00    -0.232 C  
HETATM   10  O   UNL     1      -7.261  14.231  66.974  1.00  0.00    -0.032 OA 
HETATM   11  N   UNL     1     -10.233  12.721  67.827  1.00  0.00    -0.218 N  
HETATM   12  C   UNL     1      -8.182  13.635  67.524  1.00  0.00    -0.184 C  
HETATM   13  O   UNL     1      -9.509  10.902  69.068  1.00  0.00    -0.197 OA 
HETATM   14  N   UNL     1      -8.057  12.533  68.318  1.00  0.00    -0.161 N  
HETATM   15  C   UNL     1      -9.281  11.951  68.484  1.00  0.00    -0.134 C  
BRANCH  11  16
HETATM   16  C   UNL     1     -11.634  12.452  67.974  1.00  0.00    -0.347 C  
HETATM   17  H   UNL     1     -12.905  11.172  67.257  1.00  0.00     0.000 HD 
HETATM   18  O   UNL     1     -11.977  11.350  67.160  1.00  0.00    -0.532 OA 
ENDBRANCH  11  16
BRANCH  14  19
HETATM   19  C   UNL     1      -6.841  11.816  68.561  1.00  0.00    -0.075 C  
HETATM   20  O   UNL     1      -5.966  12.603  69.347  1.00  0.00    -0.085 OA 
HETATM   21  H   UNL     1      -5.160  12.128  69.508  1.00  0.00     0.000 HD 
ENDBRANCH  14  19
ENDBRANCH   8   9
BRANCH   8  22
HETATM   22  C   UNL     1     -10.468  16.008  66.257  1.00  0.00    -0.320 C  
HETATM   23  H   UNL     1     -10.892  17.328  64.917  1.00  0.00     0.000 HD 
HETATM   24  O   UNL     1     -10.695  16.398  64.917  1.00  0.00    -0.675 OA 
ENDBRANCH   8  22
ENDBRANCH   6   8
ENDBRANCH   4   6
ENDBRANCH   3   4
TORSDOF 7
ENDMDL
MODEL      143
REMARK 921   NORMALIZED FREE ENERGY PREDICTED BY IDOCK:   -3.36 KCAL/MOL
REMARK 922        TOTAL FREE ENERGY PREDICTED BY IDOCK:   -6.26 KCAL/MOL
REMARK 923 INTER-LIGAND FREE ENERGY PREDICTED BY IDOCK:   -4.65 KCAL/MOL
REMARK 924 INTRA-LIGAND FREE ENERGY PREDICTED BY IDOCK:   -1.62 KCAL/MOL
REMARK 927      BINDING AFFINITY PREDICTED BY RF-SCORE:    0.00 PKD
ROOT
HETATM    1  O   UNL     1      -9.911  12.787  66.927  1.00  0.00    -0.224 OA 
HETATM    2  H   UNL     1      -9.780  13.665  66.589  1.00  0.00     0.000 HD 
HETATM    3  C   UNL     1     -10.133  11.964  65.806  1.00  0.00    -0.241 C  
ENDROOT
BRANCH   3   4
HETATM    4  N   UNL     1     -10.330  10.650  66.312  1.00  0.00    -0.245 N  
HETATM    5  H   UNL     1     -10.069   9.843  65.746  1.00  0.00     0.000 HD 
BRANCH   4   6
HETATM    6  C   UNL     1     -10.865  10.466  67.552  1.00  0.00    -0.301 C  
HETATM    7  O   UNL     1     -11.938  10.973  67.873  1.00  0.00    -0.620 OA 
BRANCH   6   8
HETATM    8  N   UNL     1     -10.168   9.627  68.399  1.00  0.00    -0.180 N  
BRANCH   8   9
HETATM    9  C   UNL     1     -10.932   8.645  69.140  1.00  0.00     0.063 C  
HETATM   10  O   UNL     1     -11.146   9.962  71.233  1.00  0.00    -0.351 OA 
HETATM   11  N   UNL     1     -10.366   7.316  69.177  1.00  0.00    -0.201 N  
HETATM   12  C   UNL     1     -11.061   8.880  70.662  1.00  0.00    -0.262 C  
HETATM   13  O   UNL     1     -10.493   5.520  70.636  1.00  0.00    -0.248 OA 
HETATM   14  N   UNL     1     -11.107   7.656  71.262  1.00  0.00    -0.243 N  
HETATM   15  C   UNL     1     -10.660   6.705  70.390  1.00  0.00    -0.223 C  
BRANCH  11  16
HETATM   16  C   UNL     1     -10.041   6.541  68.016  1.00  0.00    -0.150 C  
HETATM   17  H   UNL     1      -8.423   5.873  67.174  1.00  0.00     0.000 HD 
HETATM   18  O   UNL     1      -8.639   6.387  67.944  1.00  0.00    -0.117 OA 
ENDBRANCH  11  16
BRANCH  14  19
HETATM   19  C   UNL     1     -11.154   7.423  72.674  1.00  0.00    -0.331 C  
HETATM   20  O   UNL     1     -11.887   6.243  72.944  1.00  0.00    -0.490 OA 
HETATM   21  H   UNL     1     -11.918   6.088  73.880  1.00  0.00     0.000 HD 
ENDBRANCH  14  19
ENDBRANCH   8   9
BRANCH   8  22
HETATM   22  C   UNL     1      -8.786   9.821  68.770  1.00  0.00    -0.129 C  
HETATM   23  H   UNL     1      -7.660  11.339  69.145  1.00  0.00     0.000 HD 
HETATM   24  O   UNL     1      -8.569  11.212  68.901  1.00  0.00    -0.153 OA 
ENDBRANCH   8  22
ENDBRANCH   6   8
ENDBRANCH   4   6
ENDBRANCH   3   4
TORSDOF 7
ENDMDL
MODEL      144
REMARK 921   NORMALIZED FREE ENERGY PREDICTED BY IDOCK:   -3.35 KCAL/MOL
REMARK 922        TOTAL FREE ENERGY PREDICTED BY IDOCK:   -6.26 KCAL/MOL
REMARK 923 INTER-LIGAND FREE ENERGY PREDICTED BY IDOCK:   -5.39 KCAL/MOL
REMARK 924 INTRA-LIGAND FREE ENERGY PREDICTED BY IDOCK:   -0.87 KCAL/MOL
REMARK 927      BINDING AFFINITY PREDICTED BY RF-SCORE:    0.00 PKD
ROOT
HETATM    1  O   UNL     1     -13.772  15.772  71.441  1.00  0.00    -0.531 OA 
HETATM    2  H   UNL     1     -13.635  16.116  72.315  1.00  0.00     0.000 HD 
HETATM    3  C   UNL     1     -12.518  15.817  70.802  1.00  0.00    -0.374 C  
ENDROOT
BRANCH   3   4
HETATM    4  N   UNL     1     -12.723  15.301  69.492  1.00  0.00    -0.555 N  
HETATM    5  H   UNL     1     -13.610  14.858  69.255  1.00  0.00     0.000 HD 
BRANCH   4   6
HETATM    6  C   UNL     1     -11.739  15.398  68.555  1.00  0.00    -0.338 C  
HETATM    7  O   UNL     1     -11.201  16.471  68.293  1.00  0.00    -0.356 OA 
BRANCH   6   8
HETATM    8  N   UNL     1     -11.338  14.214  67.968  1.00  0.00    -0.283 N  
BRANCH   8   9
HETATM    9  C   UNL     1     -10.168  13.560  68.517  1.00  0.00    -0.229 C  
HETATM   10  O   UNL     1      -8.513  14.579  66.973  1.00  0.00    -0.214 OA 
HETATM   11  N   UNL     1     -10.257  12.123  68.636  1.00  0.00    -0.206 N  
HETATM   12  C   UNL     1      -8.875  13.640  67.674  1.00  0.00    -0.194 C  
HETATM   13  O   UNL     1      -8.727  10.383  68.665  1.00  0.00    -0.124 OA 
HETATM   14  N   UNL     1      -8.181  12.485  67.882  1.00  0.00    -0.153 N  
HETATM   15  C   UNL     1      -9.008  11.549  68.433  1.00  0.00    -0.173 C  
BRANCH  11  16
HETATM   16  C   UNL     1     -11.282  11.431  69.362  1.00  0.00    -0.268 C  
HETATM   17  H   UNL     1     -12.759  10.247  68.932  1.00  0.00     0.000 HD 
HETATM   18  O   UNL     1     -12.080  10.705  68.451  1.00  0.00    -0.423 OA 
ENDBRANCH  11  16
BRANCH  14  19
HETATM   19  C   UNL     1      -6.957  12.122  67.233  1.00  0.00    -0.148 C  
HETATM   20  O   UNL     1      -6.035  11.626  68.185  1.00  0.00    -0.046 OA 
HETATM   21  H   UNL     1      -5.223  11.385  67.754  1.00  0.00     0.000 HD 
ENDBRANCH  14  19
ENDBRANCH   8   9
BRANCH   8  22
HETATM   22  C   UNL     1     -11.853  13.720  66.713  1.00  0.00    -0.420 C  
HETATM   23  H   UNL     1     -11.967  14.391  64.909  1.00  0.00     0.000 HD 
HETATM   24  O   UNL     1     -11.628  14.716  65.735  1.00  0.00    -0.351 OA 
ENDBRANCH   8  22
ENDBRANCH   6   8
ENDBRANCH   4   6
ENDBRANCH   3   4
TORSDOF 7
ENDMDL
MODEL      145
REMARK 921   NORMALIZED FREE ENERGY PREDICTED BY IDOCK:   -3.35 KCAL/MOL
REMARK 922        TOTAL FREE ENERGY PREDICTED BY IDOCK:   -6.25 KCAL/MOL
REMARK 923 INTER-LIGAND FREE ENERGY PREDICTED BY IDOCK:   -5.25 KCAL/MOL
REMARK 924 INTRA-LIGAND FREE ENERGY PREDICTED BY IDOCK:   -1.00 KCAL/MOL
REMARK 927      BINDING AFFINITY PREDICTED BY RF-SCORE:    0.00 PKD
ROOT
HETATM    1  O   UNL     1      -6.141  18.123  68.136  1.00  0.00    -0.173 OA 
HETATM    2  H   UNL     1      -5.273  18.332  67.814  1.00  0.00     0.000 HD 
HETATM    3  C   UNL     1      -5.969  17.102  69.091  1.00  0.00    -0.195 C  
ENDROOT
BRANCH   3   4
HETATM    4  N   UNL     1      -7.269  16.789  69.574  1.00  0.00    -0.099 N  
HETATM    5  H   UNL     1      -7.712  17.391  70.268  1.00  0.00     0.000 HD 
BRANCH   4   6
HETATM    6  C   UNL     1      -7.925  15.687  69.114  1.00  0.00    -0.227 C  
HETATM    7  O   UNL     1      -7.454  14.558  69.236  1.00  0.00    -0.141 OA 
BRANCH   6   8
HETATM    8  N   UNL     1      -9.173  15.905  68.564  1.00  0.00    -0.193 N  
BRANCH   8   9
HETATM    9  C   UNL     1      -9.225  16.499  67.244  1.00  0.00    -0.216 C  
HETATM   10  O   UNL     1      -9.055  18.863  67.982  1.00  0.00    -0.289 OA 
HETATM   11  N   UNL     1     -10.331  16.078  66.415  1.00  0.00    -0.296 N  
HETATM   12  C   UNL     1      -9.463  18.024  67.185  1.00  0.00    -0.264 C  
HETATM   13  O   UNL     1     -11.509  17.015  64.654  1.00  0.00    -0.750 OA 
HETATM   14  N   UNL     1     -10.182  18.282  66.055  1.00  0.00    -0.360 N  
HETATM   15  C   UNL     1     -10.739  17.123  65.596  1.00  0.00    -0.136 C  
BRANCH  11  16
HETATM   16  C   UNL     1     -10.617  14.715  66.076  1.00  0.00    -0.309 C  
HETATM   17  H   UNL     1     -10.341  13.556  64.543  1.00  0.00     0.000 HD 
HETATM   18  O   UNL     1     -10.151  14.459  64.768  1.00  0.00    -0.354 OA 
ENDBRANCH  11  16
BRANCH  14  19
HETATM   19  C   UNL     1     -10.676  19.566  65.658  1.00  0.00    -0.325 C  
HETATM   20  O   UNL     1      -9.603  20.482  65.544  1.00  0.00    -0.535 OA 
HETATM   21  H   UNL     1      -9.931  21.333  65.281  1.00  0.00     0.000 HD 
ENDBRANCH  14  19
ENDBRANCH   8   9
BRANCH   8  22
HETATM   22  C   UNL     1     -10.410  15.806  69.303  1.00  0.00    -0.245 C  
HETATM   23  H   UNL     1     -11.411  14.381  70.130  1.00  0.00     0.000 HD 
HETATM   24  O   UNL     1     -10.597  14.446  69.644  1.00  0.00    -0.138 OA 
ENDBRANCH   8  22
ENDBRANCH   6   8
ENDBRANCH   4   6
ENDBRANCH   3   4
TORSDOF 7
ENDMDL
MODEL      146
REMARK 921   NORMALIZED FREE ENERGY PREDICTED BY IDOCK:   -3.34 KCAL/MOL
REMARK 922        TOTAL FREE ENERGY PREDICTED BY IDOCK:   -6.23 KCAL/MOL
REMARK 923 INTER-LIGAND FREE ENERGY PREDICTED BY IDOCK:   -5.96 KCAL/MOL
REMARK 924 INTRA-LIGAND FREE ENERGY PREDICTED BY IDOCK:   -0.27 KCAL/MOL
REMARK 927      BINDING AFFINITY PREDICTED BY RF-SCORE:    0.00 PKD
ROOT
HETATM    1  O   UNL     1     -11.686  16.331  63.585  1.00  0.00    -1.447 OA 
HETATM    2  H   UNL     1     -12.355  17.005  63.586  1.00  0.00     0.000 HD 
HETATM    3  C   UNL     1     -11.753  15.710  64.847  1.00  0.00    -0.055 C  
ENDROOT
BRANCH   3   4
HETATM    4  N   UNL     1     -10.751  14.702  64.845  1.00  0.00    -0.469 N  
HETATM    5  H   UNL     1      -9.995  14.738  64.162  1.00  0.00     0.000 HD 
BRANCH   4   6
HETATM    6  C   UNL     1     -10.797  13.687  65.753  1.00  0.00    -0.273 C  
HETATM    7  O   UNL     1     -10.708  12.510  65.410  1.00  0.00    -0.268 OA 
BRANCH   6   8
HETATM    8  N   UNL     1     -10.885  14.059  67.080  1.00  0.00    -0.283 N  
BRANCH   8   9
HETATM    9  C   UNL     1      -9.685  14.574  67.708  1.00  0.00    -0.216 C  
HETATM   10  O   UNL     1      -9.882  16.895  66.849  1.00  0.00    -0.256 OA 
HETATM   11  N   UNL     1      -8.481  13.813  67.467  1.00  0.00    -0.183 N  
HETATM   12  C   UNL     1      -9.188  15.951  67.215  1.00  0.00    -0.206 C  
HETATM   13  O   UNL     1      -6.216  14.299  67.429  1.00  0.00    -0.335 OA 
HETATM   14  N   UNL     1      -7.827  15.947  67.297  1.00  0.00    -0.168 N  
HETATM   15  C   UNL     1      -7.382  14.662  67.417  1.00  0.00    -0.168 C  
BRANCH  11  16
HETATM   16  C   UNL     1      -8.329  12.420  67.766  1.00  0.00    -0.164 C  
HETATM   17  H   UNL     1      -7.684  10.841  66.838  1.00  0.00     0.000 HD 
HETATM   18  O   UNL     1      -7.785  11.765  66.639  1.00  0.00    -0.119 OA 
ENDBRANCH  11  16
BRANCH  14  19
HETATM   19  C   UNL     1      -6.965  17.008  66.869  1.00  0.00    -0.216 C  
HETATM   20  O   UNL     1      -7.490  17.617  65.705  1.00  0.00    -0.512 OA 
HETATM   21  H   UNL     1      -6.919  18.321  65.422  1.00  0.00     0.000 HD 
ENDBRANCH  14  19
ENDBRANCH   8   9
BRANCH   8  22
HETATM   22  C   UNL     1     -12.007  13.748  67.934  1.00  0.00    -0.356 C  
HETATM   23  H   UNL     1     -12.388  12.421  69.280  1.00  0.00     0.000 HD 
HETATM   24  O   UNL     1     -11.650  12.626  68.718  1.00  0.00    -0.269 OA 
ENDBRANCH   8  22
ENDBRANCH   6   8
ENDBRANCH   4   6
ENDBRANCH   3   4
TORSDOF 7
ENDMDL
MODEL      147
REMARK 921   NORMALIZED FREE ENERGY PREDICTED BY IDOCK:   -3.29 KCAL/MOL
REMARK 922        TOTAL FREE ENERGY PREDICTED BY IDOCK:   -6.17 KCAL/MOL
REMARK 923 INTER-LIGAND FREE ENERGY PREDICTED BY IDOCK:   -4.86 KCAL/MOL
REMARK 924 INTRA-LIGAND FREE ENERGY PREDICTED BY IDOCK:   -1.31 KCAL/MOL
REMARK 927      BINDING AFFINITY PREDICTED BY RF-SCORE:    0.00 PKD
ROOT
HETATM    1  O   UNL     1     -10.033  12.947  65.242  1.00  0.00    -0.402 OA 
HETATM    2  H   UNL     1     -10.345  13.642  64.675  1.00  0.00     0.000 HD 
HETATM    3  C   UNL     1     -10.423  11.739  64.631  1.00  0.00    -0.299 C  
ENDROOT
BRANCH   3   4
HETATM    4  N   UNL     1      -9.956  10.698  65.480  1.00  0.00    -0.256 N  
HETATM    5  H   UNL     1      -9.325   9.986  65.111  1.00  0.00     0.000 HD 
BRANCH   4   6
HETATM    6  C   UNL     1     -10.349  10.648  66.784  1.00  0.00    -0.245 C  
HETATM    7  O   UNL     1     -11.529  10.759  67.107  1.00  0.00    -0.400 OA 
BRANCH   6   8
HETATM    8  N   UNL     1      -9.355  10.400  67.711  1.00  0.00    -0.144 N  
BRANCH   8   9
HETATM    9  C   UNL     1      -9.288   9.068  68.276  1.00  0.00    -0.139 C  
HETATM   10  O   UNL     1      -8.984   7.858  66.130  1.00  0.00    -0.168 OA 
HETATM   11  N   UNL     1     -10.374   8.712  69.160  1.00  0.00    -0.215 N  
HETATM   12  C   UNL     1      -9.408   7.892  67.281  1.00  0.00    -0.148 C  
HETATM   13  O   UNL     1     -11.377   6.725  69.805  1.00  0.00    -0.309 OA 
HETATM   14  N   UNL     1     -10.040   6.872  67.928  1.00  0.00    -0.154 N  
HETATM   15  C   UNL     1     -10.655   7.355  69.047  1.00  0.00    -0.192 C  
BRANCH  11  16
HETATM   16  C   UNL     1     -10.742   9.451  70.332  1.00  0.00    -0.263 C  
HETATM   17  H   UNL     1     -10.000   9.745  72.102  1.00  0.00     0.000 HD 
HETATM   18  O   UNL     1      -9.757   9.256  71.325  1.00  0.00    -0.282 OA 
ENDBRANCH  11  16
BRANCH  14  19
HETATM   19  C   UNL     1     -10.414   5.620  67.343  1.00  0.00    -0.241 C  
HETATM   20  O   UNL     1     -10.979   5.836  66.064  1.00  0.00    -0.643 OA 
HETATM   21  H   UNL     1     -11.227   5.005  65.675  1.00  0.00     0.000 HD 
ENDBRANCH  14  19
ENDBRANCH   8   9
BRANCH   8  22
HETATM   22  C   UNL     1      -8.547  11.429  68.323  1.00  0.00    -0.156 C  
HETATM   23  H   UNL     1      -8.647  13.347  68.484  1.00  0.00     0.000 HD 
HETATM   24  O   UNL     1      -9.179  12.670  68.082  1.00  0.00    -0.201 OA 
ENDBRANCH   8  22
ENDBRANCH   6   8
ENDBRANCH   4   6
ENDBRANCH   3   4
TORSDOF 7
ENDMDL
MODEL      148
REMARK 921   NORMALIZED FREE ENERGY PREDICTED BY IDOCK:   -3.29 KCAL/MOL
REMARK 922        TOTAL FREE ENERGY PREDICTED BY IDOCK:   -6.17 KCAL/MOL
REMARK 923 INTER-LIGAND FREE ENERGY PREDICTED BY IDOCK:   -4.83 KCAL/MOL
REMARK 924 INTRA-LIGAND FREE ENERGY PREDICTED BY IDOCK:   -1.34 KCAL/MOL
REMARK 927      BINDING AFFINITY PREDICTED BY RF-SCORE:    0.00 PKD
ROOT
HETATM    1  O   UNL     1      -8.183   8.506  72.878  1.00  0.00    -0.344 OA 
HETATM    2  H   UNL     1      -7.742   9.095  73.478  1.00  0.00     0.000 HD 
HETATM    3  C   UNL     1      -9.157   7.830  73.637  1.00  0.00    -0.286 C  
ENDROOT
BRANCH   3   4
HETATM    4  N   UNL     1      -9.817   6.947  72.738  1.00  0.00    -0.164 N  
HETATM    5  H   UNL     1     -10.737   6.576  72.975  1.00  0.00     0.000 HD 
BRANCH   4   6
HETATM    6  C   UNL     1      -9.223   6.595  71.563  1.00  0.00    -0.146 C  
HETATM    7  O   UNL     1      -8.103   6.091  71.532  1.00  0.00    -0.112 OA 
BRANCH   6   8
HETATM    8  N   UNL     1      -9.977   6.777  70.421  1.00  0.00    -0.179 N  
BRANCH   8   9
HETATM    9  C   UNL     1      -9.582   7.844  69.524  1.00  0.00    -0.160 C  
HETATM   10  O   UNL     1     -10.945   9.630  70.578  1.00  0.00    -0.262 OA 
HETATM   11  N   UNL     1      -9.728   7.559  68.115  1.00  0.00    -0.151 N  
HETATM   12  C   UNL     1     -10.422   9.140  69.583  1.00  0.00    -0.223 C  
HETATM   13  O   UNL     1     -10.052   8.837  66.209  1.00  0.00    -0.291 OA 
HETATM   14  N   UNL     1     -10.445   9.669  68.327  1.00  0.00    -0.209 N  
HETATM   15  C   UNL     1     -10.060   8.719  67.425  1.00  0.00    -0.226 C  
BRANCH  11  16
HETATM   16  C   UNL     1      -9.122   6.445  67.446  1.00  0.00    -0.111 C  
HETATM   17  H   UNL     1      -7.388   5.571  67.453  1.00  0.00     0.000 HD 
HETATM   18  O   UNL     1      -7.790   6.309  67.897  1.00  0.00    -0.101 OA 
ENDBRANCH  11  16
BRANCH  14  19
HETATM   19  C   UNL     1     -11.174  10.835  67.929  1.00  0.00    -0.318 C  
HETATM   20  O   UNL     1     -12.372  10.934  68.676  1.00  0.00    -0.805 OA 
HETATM   21  H   UNL     1     -12.855  11.707  68.412  1.00  0.00     0.000 HD 
ENDBRANCH  14  19
ENDBRANCH   8   9
BRANCH   8  22
HETATM   22  C   UNL     1     -11.254   6.144  70.186  1.00  0.00    -0.382 C  
HETATM   23  H   UNL     1     -13.004   6.232  70.989  1.00  0.00     0.000 HD 
HETATM   24  O   UNL     1     -12.164   6.649  71.143  1.00  0.00    -0.363 OA 
ENDBRANCH   8  22
ENDBRANCH   6   8
ENDBRANCH   4   6
ENDBRANCH   3   4
TORSDOF 7
ENDMDL
MODEL      149
REMARK 921   NORMALIZED FREE ENERGY PREDICTED BY IDOCK:   -3.29 KCAL/MOL
REMARK 922        TOTAL FREE ENERGY PREDICTED BY IDOCK:   -6.17 KCAL/MOL
REMARK 923 INTER-LIGAND FREE ENERGY PREDICTED BY IDOCK:   -4.79 KCAL/MOL
REMARK 924 INTRA-LIGAND FREE ENERGY PREDICTED BY IDOCK:   -1.38 KCAL/MOL
REMARK 927      BINDING AFFINITY PREDICTED BY RF-SCORE:    0.00 PKD
ROOT
HETATM    1  O   UNL     1     -12.885   6.308  72.372  1.00  0.00    -0.546 OA 
HETATM    2  H   UNL     1     -13.581   5.903  72.876  1.00  0.00     0.000 HD 
HETATM    3  C   UNL     1     -13.498   7.305  71.588  1.00  0.00    -0.354 C  
ENDROOT
BRANCH   3   4
HETATM    4  N   UNL     1     -12.457   7.911  70.833  1.00  0.00    -0.514 N  
HETATM    5  H   UNL     1     -12.632   8.783  70.336  1.00  0.00     0.000 HD 
BRANCH   4   6
HETATM    6  C   UNL     1     -11.226   7.329  70.773  1.00  0.00    -0.274 C  
HETATM    7  O   UNL     1     -11.070   6.193  70.331  1.00  0.00    -0.309 OA 
BRANCH   6   8
HETATM    8  N   UNL     1     -10.161   8.112  71.175  1.00  0.00    -0.192 N  
BRANCH   8   9
HETATM    9  C   UNL     1      -9.400   8.783  70.142  1.00  0.00    -0.169 C  
HETATM   10  O   UNL     1     -11.266  10.159  69.255  1.00  0.00    -0.227 OA 
HETATM   11  N   UNL     1      -8.655   7.918  69.257  1.00  0.00    -0.137 N  
HETATM   12  C   UNL     1     -10.215   9.552  69.078  1.00  0.00    -0.200 C  
HETATM   13  O   UNL     1      -7.886   8.074  67.076  1.00  0.00    -0.101 OA 
HETATM   14  N   UNL     1      -9.529   9.470  67.901  1.00  0.00    -0.132 N  
HETATM   15  C   UNL     1      -8.606   8.468  67.981  1.00  0.00    -0.134 C  
BRANCH  11  16
HETATM   16  C   UNL     1      -7.679   6.961  69.689  1.00  0.00    -0.110 C  
HETATM   17  H   UNL     1      -7.511   5.026  69.700  1.00  0.00     0.000 HD 
HETATM   18  O   UNL     1      -8.157   5.661  69.413  1.00  0.00    -0.097 OA 
ENDBRANCH  11  16
BRANCH  14  19
HETATM   19  C   UNL     1      -9.973   9.990  66.643  1.00  0.00    -0.216 C  
HETATM   20  O   UNL     1     -10.140   8.933  65.717  1.00  0.00    -0.427 OA 
HETATM   21  H   UNL     1     -10.434   9.277  64.882  1.00  0.00     0.000 HD 
ENDBRANCH  14  19
ENDBRANCH   8   9
BRANCH   8  22
HETATM   22  C   UNL     1      -9.618   8.111  72.513  1.00  0.00    -0.277 C  
HETATM   23  H   UNL     1     -10.213   7.499  74.242  1.00  0.00     0.000 HD 
HETATM   24  O   UNL     1     -10.570   7.499  73.361  1.00  0.00    -0.375 OA 
ENDBRANCH   8  22
ENDBRANCH   6   8
ENDBRANCH   4   6
ENDBRANCH   3   4
TORSDOF 7
ENDMDL
MODEL      150
REMARK 921   NORMALIZED FREE ENERGY PREDICTED BY IDOCK:   -3.28 KCAL/MOL
REMARK 922        TOTAL FREE ENERGY PREDICTED BY IDOCK:   -6.16 KCAL/MOL
REMARK 923 INTER-LIGAND FREE ENERGY PREDICTED BY IDOCK:   -5.01 KCAL/MOL
REMARK 924 INTRA-LIGAND FREE ENERGY PREDICTED BY IDOCK:   -1.14 KCAL/MOL
REMARK 927      BINDING AFFINITY PREDICTED BY RF-SCORE:    0.00 PKD
ROOT
HETATM    1  O   UNL     1     -13.328   9.912  70.605  1.00  0.00    -0.617 OA 
HETATM    2  H   UNL     1     -13.667  10.349  71.376  1.00  0.00     0.000 HD 
HETATM    3  C   UNL     1     -12.196  10.648  70.204  1.00  0.00    -0.320 C  
ENDROOT
BRANCH   3   4
HETATM    4  N   UNL     1     -11.688   9.992  69.048  1.00  0.00    -0.486 N  
HETATM    5  H   UNL     1     -12.170  10.090  68.155  1.00  0.00     0.000 HD 
BRANCH   4   6
HETATM    6  C   UNL     1     -10.559   9.234  69.131  1.00  0.00    -0.212 C  
HETATM    7  O   UNL     1      -9.580   9.602  69.776  1.00  0.00    -0.190 OA 
BRANCH   6   8
HETATM    8  N   UNL     1     -10.603   8.004  68.505  1.00  0.00    -0.153 N  
BRANCH   8   9
HETATM    9  C   UNL     1     -10.444   6.827  69.335  1.00  0.00    -0.217 C  
HETATM   10  O   UNL     1     -12.357   7.281  70.850  1.00  0.00    -0.314 OA 
HETATM   11  N   UNL     1      -9.122   6.625  69.880  1.00  0.00    -0.144 N  
HETATM   12  C   UNL     1     -11.242   6.806  70.658  1.00  0.00    -0.312 C  
HETATM   13  O   UNL     1      -8.266   5.558  71.750  1.00  0.00    -0.116 OA 
HETATM   14  N   UNL     1     -10.497   6.122  71.573  1.00  0.00    -0.215 N  
HETATM   15  C   UNL     1      -9.208   6.032  71.134  1.00  0.00    -0.150 C  
BRANCH  11  16
HETATM   16  C   UNL     1      -7.927   6.527  69.094  1.00  0.00    -0.111 C  
HETATM   17  H   UNL     1      -6.384   7.648  68.730  1.00  0.00     0.000 HD 
HETATM   18  O   UNL     1      -7.176   7.712  69.251  1.00  0.00    -0.077 OA 
ENDBRANCH  11  16
BRANCH  14  19
HETATM   19  C   UNL     1     -10.841   5.932  72.950  1.00  0.00    -0.258 C  
HETATM   20  O   UNL     1     -12.172   5.464  73.055  1.00  0.00    -0.533 OA 
HETATM   21  H   UNL     1     -12.400   5.338  73.968  1.00  0.00     0.000 HD 
ENDBRANCH  14  19
ENDBRANCH   8   9
BRANCH   8  22
HETATM   22  C   UNL     1     -10.556   7.824  67.073  1.00  0.00    -0.326 C  
HETATM   23  H   UNL     1     -10.312   8.977  65.547  1.00  0.00     0.000 HD 
HETATM   24  O   UNL     1     -10.343   9.095  66.489  1.00  0.00    -0.263 OA 
ENDBRANCH   8  22
ENDBRANCH   6   8
ENDBRANCH   4   6
ENDBRANCH   3   4
TORSDOF 7
ENDMDL
MODEL      151
REMARK 921   NORMALIZED FREE ENERGY PREDICTED BY IDOCK:   -3.28 KCAL/MOL
REMARK 922        TOTAL FREE ENERGY PREDICTED BY IDOCK:   -6.15 KCAL/MOL
REMARK 923 INTER-LIGAND FREE ENERGY PREDICTED BY IDOCK:   -4.49 KCAL/MOL
REMARK 924 INTRA-LIGAND FREE ENERGY PREDICTED BY IDOCK:   -1.66 KCAL/MOL
REMARK 927      BINDING AFFINITY PREDICTED BY RF-SCORE:    0.00 PKD
ROOT
HETATM    1  O   UNL     1      -8.861   4.612  67.434  1.00  0.00    -0.104 OA 
HETATM    2  H   UNL     1      -8.607   3.753  67.119  1.00  0.00     0.000 HD 
HETATM    3  C   UNL     1      -8.637   4.601  68.824  1.00  0.00    -0.085 C  
ENDROOT
BRANCH   3   4
HETATM    4  N   UNL     1      -9.018   5.888  69.296  1.00  0.00    -0.117 N  
HETATM    5  H   UNL     1      -9.508   5.978  70.185  1.00  0.00     0.000 HD 
BRANCH   4   6
HETATM    6  C   UNL     1      -8.729   7.000  68.563  1.00  0.00    -0.122 C  
HETATM    7  O   UNL     1      -7.629   7.159  68.039  1.00  0.00    -0.106 OA 
BRANCH   6   8
HETATM    8  N   UNL     1      -9.760   7.902  68.391  1.00  0.00    -0.157 N  
BRANCH   8   9
HETATM    9  C   UNL     1     -10.117   8.730  69.525  1.00  0.00    -0.202 C  
HETATM   10  O   UNL     1     -11.716   7.137  70.557  1.00  0.00    -0.306 OA 
HETATM   11  N   UNL     1     -10.540  10.074  69.204  1.00  0.00    -0.206 N  
HETATM   12  C   UNL     1     -11.355   8.288  70.337  1.00  0.00    -0.175 C  
HETATM   13  O   UNL     1     -11.901  11.650  70.222  1.00  0.00    -0.340 OA 
HETATM   14  N   UNL     1     -11.960   9.417  70.806  1.00  0.00    -0.263 N  
HETATM   15  C   UNL     1     -11.503  10.500  70.111  1.00  0.00    -0.325 C  
BRANCH  11  16
HETATM   16  C   UNL     1      -9.758  11.014  68.457  1.00  0.00    -0.189 C  
HETATM   17  H   UNL     1      -7.941  11.698  68.516  1.00  0.00     0.000 HD 
HETATM   18  O   UNL     1      -8.460  11.074  69.011  1.00  0.00    -0.147 OA 
ENDBRANCH  11  16
BRANCH  14  19
HETATM   19  C   UNL     1     -13.183   9.458  71.549  1.00  0.00    -0.384 C  
HETATM   20  O   UNL     1     -13.232  10.634  72.334  1.00  0.00    -0.579 OA 
HETATM   21  H   UNL     1     -14.044  10.661  72.827  1.00  0.00     0.000 HD 
ENDBRANCH  14  19
ENDBRANCH   8   9
BRANCH   8  22
HETATM   22  C   UNL     1     -10.650   7.904  67.254  1.00  0.00    -0.295 C  
HETATM   23  H   UNL     1     -11.728   6.590  66.344  1.00  0.00     0.000 HD 
HETATM   24  O   UNL     1     -11.143   6.589  67.093  1.00  0.00    -0.390 OA 
ENDBRANCH   8  22
ENDBRANCH   6   8
ENDBRANCH   4   6
ENDBRANCH   3   4
TORSDOF 7
ENDMDL
MODEL      152
REMARK 921   NORMALIZED FREE ENERGY PREDICTED BY IDOCK:   -3.27 KCAL/MOL
REMARK 922        TOTAL FREE ENERGY PREDICTED BY IDOCK:   -6.14 KCAL/MOL
REMARK 923 INTER-LIGAND FREE ENERGY PREDICTED BY IDOCK:   -5.19 KCAL/MOL
REMARK 924 INTRA-LIGAND FREE ENERGY PREDICTED BY IDOCK:   -0.94 KCAL/MOL
REMARK 927      BINDING AFFINITY PREDICTED BY RF-SCORE:    0.00 PKD
ROOT
HETATM    1  O   UNL     1      -8.635  11.966  67.472  1.00  0.00    -0.147 OA 
HETATM    2  H   UNL     1      -7.931  11.383  67.730  1.00  0.00     0.000 HD 
HETATM    3  C   UNL     1      -8.402  12.285  66.120  1.00  0.00     0.402 C  
ENDROOT
BRANCH   3   4
HETATM    4  N   UNL     1      -9.456  13.158  65.733  1.00  0.00    -0.474 N  
HETATM    5  H   UNL     1     -10.241  12.798  65.191  1.00  0.00     0.000 HD 
BRANCH   4   6
HETATM    6  C   UNL     1      -9.419  14.475  66.084  1.00  0.00    -0.259 C  
HETATM    7  O   UNL     1      -8.403  14.993  66.538  1.00  0.00    -0.172 OA 
BRANCH   6   8
HETATM    8  N   UNL     1     -10.567  15.203  65.838  1.00  0.00    -0.320 N  
BRANCH   8   9
HETATM    9  C   UNL     1     -11.020  16.103  66.878  1.00  0.00    -0.094 C  
HETATM   10  O   UNL     1      -9.503  17.985  66.315  1.00  0.00    -0.389 OA 
HETATM   11  N   UNL     1     -11.027  15.555  68.215  1.00  0.00    -0.291 N  
HETATM   12  C   UNL     1     -10.140  17.345  67.145  1.00  0.00    -0.307 C  
HETATM   13  O   UNL     1     -10.862  16.441  70.350  1.00  0.00    -0.275 OA 
HETATM   14  N   UNL     1     -10.230  17.630  68.476  1.00  0.00    -0.367 N  
HETATM   15  C   UNL     1     -10.734  16.550  69.140  1.00  0.00    -0.335 C  
BRANCH  11  16
HETATM   16  C   UNL     1     -11.732  14.368  68.601  1.00  0.00    -0.332 C  
HETATM   17  H   UNL     1     -11.262  12.576  69.183  1.00  0.00     0.000 HD 
HETATM   18  O   UNL     1     -10.795  13.363  68.927  1.00  0.00    -0.246 OA 
ENDBRANCH  11  16
BRANCH  14  19
HETATM   19  C   UNL     1      -9.511  18.666  69.154  1.00  0.00    -0.082 C  
HETATM   20  O   UNL     1      -8.164  18.683  68.719  1.00  0.00    -0.321 OA 
HETATM   21  H   UNL     1      -7.687  19.370  69.169  1.00  0.00     0.000 HD 
ENDBRANCH  14  19
ENDBRANCH   8   9
BRANCH   8  22
HETATM   22  C   UNL     1     -11.462  14.952  64.733  1.00  0.00    -0.410 C  
HETATM   23  H   UNL     1     -12.041  15.934  63.179  1.00  0.00     0.000 HD 
HETATM   24  O   UNL     1     -11.452  16.099  63.906  1.00  0.00    -0.774 OA 
ENDBRANCH   8  22
ENDBRANCH   6   8
ENDBRANCH   4   6
ENDBRANCH   3   4
TORSDOF 7
ENDMDL
MODEL      153
REMARK 921   NORMALIZED FREE ENERGY PREDICTED BY IDOCK:   -3.24 KCAL/MOL
REMARK 922        TOTAL FREE ENERGY PREDICTED BY IDOCK:   -6.10 KCAL/MOL
REMARK 923 INTER-LIGAND FREE ENERGY PREDICTED BY IDOCK:   -4.74 KCAL/MOL
REMARK 924 INTRA-LIGAND FREE ENERGY PREDICTED BY IDOCK:   -1.36 KCAL/MOL
REMARK 927      BINDING AFFINITY PREDICTED BY RF-SCORE:    0.00 PKD
ROOT
HETATM    1  O   UNL     1      -7.858  19.385  68.952  1.00  0.00    -0.354 OA 
HETATM    2  H   UNL     1      -7.781  20.326  68.847  1.00  0.00     0.000 HD 
HETATM    3  C   UNL     1      -7.812  18.841  67.653  1.00  0.00    -0.239 C  
ENDROOT
BRANCH   3   4
HETATM    4  N   UNL     1      -7.927  17.433  67.810  1.00  0.00    -0.202 N  
HETATM    5  H   UNL     1      -7.103  16.841  67.707  1.00  0.00     0.000 HD 
BRANCH   4   6
HETATM    6  C   UNL     1      -9.136  16.872  68.097  1.00  0.00    -0.231 C  
HETATM    7  O   UNL     1      -9.973  17.457  68.779  1.00  0.00    -0.300 OA 
BRANCH   6   8
HETATM    8  N   UNL     1      -9.387  15.640  67.524  1.00  0.00    -0.205 N  
BRANCH   8   9
HETATM    9  C   UNL     1      -8.839  14.473  68.185  1.00  0.00    -0.177 C  
HETATM   10  O   UNL     1      -6.610  14.544  67.097  1.00  0.00    -0.219 OA 
HETATM   11  N   UNL     1      -9.646  13.278  68.104  1.00  0.00    -0.223 N  
HETATM   12  C   UNL     1      -7.528  13.904  67.599  1.00  0.00    -0.176 C  
HETATM   13  O   UNL     1      -9.215  11.002  68.184  1.00  0.00    -0.153 OA 
HETATM   14  N   UNL     1      -7.553  12.553  67.779  1.00  0.00    -0.125 N  
HETATM   15  C   UNL     1      -8.830  12.154  68.053  1.00  0.00    -0.181 C  
BRANCH  11  16
HETATM   16  C   UNL     1     -11.007  13.186  68.545  1.00  0.00    -0.263 C  
HETATM   17  H   UNL     1     -12.734  12.846  67.726  1.00  0.00     0.000 HD 
HETATM   18  O   UNL     1     -11.832  12.907  67.434  1.00  0.00    -0.367 OA 
ENDBRANCH  11  16
BRANCH  14  19
HETATM   19  C   UNL     1      -6.558  11.633  67.316  1.00  0.00    -0.122 C  
HETATM   20  O   UNL     1      -6.493  11.664  65.903  1.00  0.00    -0.358 OA 
HETATM   21  H   UNL     1      -5.833  11.055  65.596  1.00  0.00     0.000 HD 
ENDBRANCH  14  19
ENDBRANCH   8   9
BRANCH   8  22
HETATM   22  C   UNL     1      -9.945  15.463  66.204  1.00  0.00    -0.307 C  
HETATM   23  H   UNL     1     -10.113  16.550  64.621  1.00  0.00     0.000 HD 
HETATM   24  O   UNL     1      -9.746  16.667  65.489  1.00  0.00    -0.538 OA 
ENDBRANCH   8  22
ENDBRANCH   6   8
ENDBRANCH   4   6
ENDBRANCH   3   4
TORSDOF 7
ENDMDL
MODEL      154
REMARK 921   NORMALIZED FREE ENERGY PREDICTED BY IDOCK:   -3.24 KCAL/MOL
REMARK 922        TOTAL FREE ENERGY PREDICTED BY IDOCK:   -6.10 KCAL/MOL
REMARK 923 INTER-LIGAND FREE ENERGY PREDICTED BY IDOCK:   -5.17 KCAL/MOL
REMARK 924 INTRA-LIGAND FREE ENERGY PREDICTED BY IDOCK:   -0.93 KCAL/MOL
REMARK 927      BINDING AFFINITY PREDICTED BY RF-SCORE:    0.00 PKD
ROOT
HETATM    1  O   UNL     1     -11.491  16.483  70.747  1.00  0.00    -0.562 OA 
HETATM    2  H   UNL     1     -11.421  16.392  71.690  1.00  0.00     0.000 HD 
HETATM    3  C   UNL     1     -10.570  15.570  70.197  1.00  0.00    -0.320 C  
ENDROOT
BRANCH   3   4
HETATM    4  N   UNL     1     -10.674  15.706  68.785  1.00  0.00    -0.239 N  
HETATM    5  H   UNL     1     -11.087  14.955  68.232  1.00  0.00     0.000 HD 
BRANCH   4   6
HETATM    6  C   UNL     1     -10.223  16.835  68.170  1.00  0.00    -0.301 C  
HETATM    7  O   UNL     1     -10.648  17.948  68.472  1.00  0.00    -0.326 OA 
BRANCH   6   8
HETATM    8  N   UNL     1      -9.219  16.662  67.237  1.00  0.00    -0.219 N  
BRANCH   8   9
HETATM    9  C   UNL     1      -7.938  17.278  67.516  1.00  0.00    -0.182 C  
HETATM   10  O   UNL     1      -7.285  15.764  69.371  1.00  0.00    -0.199 OA 
HETATM   11  N   UNL     1      -7.968  18.708  67.725  1.00  0.00    -0.247 N  
HETATM   12  C   UNL     1      -7.250  16.868  68.837  1.00  0.00    -0.231 C  
HETATM   13  O   UNL     1      -6.650  20.222  68.882  1.00  0.00    -0.305 OA 
HETATM   14  N   UNL     1      -6.557  17.952  69.290  1.00  0.00    -0.252 N  
HETATM   15  C   UNL     1      -6.999  19.074  68.652  1.00  0.00    -0.287 C  
BRANCH  11  16
HETATM   16  C   UNL     1      -8.489  19.654  66.784  1.00  0.00    -0.311 C  
HETATM   17  H   UNL     1      -8.302  20.001  64.882  1.00  0.00     0.000 HD 
HETATM   18  O   UNL     1      -7.956  19.373  65.506  1.00  0.00    -0.376 OA 
ENDBRANCH  11  16
BRANCH  14  19
HETATM   19  C   UNL     1      -5.834  18.020  70.524  1.00  0.00     0.010 C  
HETATM   20  O   UNL     1      -5.136  16.809  70.742  1.00  0.00    -0.213 OA 
HETATM   21  H   UNL     1      -4.656  16.854  71.560  1.00  0.00     0.000 HD 
ENDBRANCH  14  19
ENDBRANCH   8   9
BRANCH   8  22
HETATM   22  C   UNL     1      -9.429  16.123  65.915  1.00  0.00    -0.302 C  
HETATM   23  H   UNL     1     -10.775  15.032  65.069  1.00  0.00     0.000 HD 
HETATM   24  O   UNL     1     -10.637  15.387  65.939  1.00  0.00    -0.308 OA 
ENDBRANCH   8  22
ENDBRANCH   6   8
ENDBRANCH   4   6
ENDBRANCH   3   4
TORSDOF 7
ENDMDL
MODEL      155
REMARK 921   NORMALIZED FREE ENERGY PREDICTED BY IDOCK:   -3.22 KCAL/MOL
REMARK 922        TOTAL FREE ENERGY PREDICTED BY IDOCK:   -6.06 KCAL/MOL
REMARK 923 INTER-LIGAND FREE ENERGY PREDICTED BY IDOCK:   -4.99 KCAL/MOL
REMARK 924 INTRA-LIGAND FREE ENERGY PREDICTED BY IDOCK:   -1.07 KCAL/MOL
REMARK 927      BINDING AFFINITY PREDICTED BY RF-SCORE:    0.00 PKD
ROOT
HETATM    1  O   UNL     1      -9.256  12.058  62.884  1.00  0.00    -0.591 OA 
HETATM    2  H   UNL     1      -9.523  11.530  62.141  1.00  0.00     0.000 HD 
HETATM    3  C   UNL     1     -10.393  12.179  63.707  1.00  0.00    -0.437 C  
ENDROOT
BRANCH   3   4
HETATM    4  N   UNL     1      -9.994  12.968  64.820  1.00  0.00    -0.557 N  
HETATM    5  H   UNL     1     -10.287  13.943  64.882  1.00  0.00     0.000 HD 
BRANCH   4   6
HETATM    6  C   UNL     1      -9.220  12.428  65.803  1.00  0.00     0.080 C  
HETATM    7  O   UNL     1      -8.704  11.319  65.681  1.00  0.00    -0.169 OA 
BRANCH   6   8
HETATM    8  N   UNL     1      -8.998  13.222  66.910  1.00  0.00    -0.225 N  
BRANCH   8   9
HETATM    9  C   UNL     1      -9.597  12.803  68.161  1.00  0.00    -0.223 C  
HETATM   10  O   UNL     1      -7.877  11.115  68.756  1.00  0.00    -0.129 OA 
HETATM   11  N   UNL     1     -10.989  12.423  68.088  1.00  0.00    -0.216 N  
HETATM   12  C   UNL     1      -9.039  11.507  68.791  1.00  0.00    -0.056 C  
HETATM   13  O   UNL     1     -12.371  11.022  69.311  1.00  0.00    -0.412 OA 
HETATM   14  N   UNL     1     -10.070  10.890  69.436  1.00  0.00    -0.147 N  
HETATM   15  C   UNL     1     -11.255  11.408  69.000  1.00  0.00    -0.256 C  
BRANCH  11  16
HETATM   16  C   UNL     1     -12.035  13.268  67.592  1.00  0.00    -0.322 C  
HETATM   17  H   UNL     1     -12.778  15.004  68.044  1.00  0.00     0.000 HD 
HETATM   18  O   UNL     1     -12.084  14.444  68.372  1.00  0.00    -0.322 OA 
ENDBRANCH  11  16
BRANCH  14  19
HETATM   19  C   UNL     1      -9.998   9.621  70.095  1.00  0.00    -0.261 C  
HETATM   20  O   UNL     1     -10.720   9.667  71.311  1.00  0.00    -0.335 OA 
HETATM   21  H   UNL     1     -10.672   8.825  71.748  1.00  0.00     0.000 HD 
ENDBRANCH  14  19
ENDBRANCH   8   9
BRANCH   8  22
HETATM   22  C   UNL     1      -8.421  14.544  66.854  1.00  0.00    -0.150 C  
HETATM   23  H   UNL     1      -9.014  16.282  66.267  1.00  0.00     0.000 HD 
HETATM   24  O   UNL     1      -9.394  15.412  66.305  1.00  0.00    -0.268 OA 
ENDBRANCH   8  22
ENDBRANCH   6   8
ENDBRANCH   4   6
ENDBRANCH   3   4
TORSDOF 7
ENDMDL
MODEL      156
REMARK 921   NORMALIZED FREE ENERGY PREDICTED BY IDOCK:   -3.21 KCAL/MOL
REMARK 922        TOTAL FREE ENERGY PREDICTED BY IDOCK:   -6.05 KCAL/MOL
REMARK 923 INTER-LIGAND FREE ENERGY PREDICTED BY IDOCK:   -4.86 KCAL/MOL
REMARK 924 INTRA-LIGAND FREE ENERGY PREDICTED BY IDOCK:   -1.19 KCAL/MOL
REMARK 927      BINDING AFFINITY PREDICTED BY RF-SCORE:    0.00 PKD
ROOT
HETATM    1  O   UNL     1     -11.310  13.389  63.390  1.00  0.00    -0.565 OA 
HETATM    2  H   UNL     1     -11.123  13.839  62.575  1.00  0.00     0.000 HD 
HETATM    3  C   UNL     1     -10.716  12.116  63.279  1.00  0.00    -0.318 C  
ENDROOT
BRANCH   3   4
HETATM    4  N   UNL     1     -10.996  11.442  64.500  1.00  0.00    -0.310 N  
HETATM    5  H   UNL     1     -11.032  10.423  64.520  1.00  0.00     0.000 HD 
BRANCH   4   6
HETATM    6  C   UNL     1     -11.216  12.153  65.641  1.00  0.00    -0.335 C  
HETATM    7  O   UNL     1     -12.343  12.516  65.968  1.00  0.00    -0.615 OA 
BRANCH   6   8
HETATM    8  N   UNL     1     -10.112  12.384  66.438  1.00  0.00    -0.231 N  
BRANCH   8   9
HETATM    9  C   UNL     1      -9.514  11.241  67.096  1.00  0.00    -0.170 C  
HETATM   10  O   UNL     1      -8.037  10.565  65.219  1.00  0.00    -0.158 OA 
HETATM   11  N   UNL     1     -10.445  10.292  67.662  1.00  0.00    -0.220 N  
HETATM   12  C   UNL     1      -8.716  10.270  66.198  1.00  0.00    -0.152 C  
HETATM   13  O   UNL     1     -10.386   8.026  68.144  1.00  0.00    -0.201 OA 
HETATM   14  N   UNL     1      -8.868   9.017  66.715  1.00  0.00    -0.125 N  
HETATM   15  C   UNL     1      -9.927   9.005  67.576  1.00  0.00    -0.207 C  
BRANCH  11  16
HETATM   16  C   UNL     1     -11.455  10.622  68.624  1.00  0.00    -0.263 C  
HETATM   17  H   UNL     1     -11.500  11.179  70.484  1.00  0.00     0.000 HD 
HETATM   18  O   UNL     1     -10.831  10.960  69.846  1.00  0.00    -0.235 OA 
ENDBRANCH  11  16
BRANCH  14  19
HETATM   19  C   UNL     1      -8.347   7.812  66.142  1.00  0.00    -0.129 C  
HETATM   20  O   UNL     1      -6.957   7.948  65.913  1.00  0.00    -0.056 OA 
HETATM   21  H   UNL     1      -6.612   7.149  65.533  1.00  0.00     0.000 HD 
ENDBRANCH  14  19
ENDBRANCH   8   9
BRANCH   8  22
HETATM   22  C   UNL     1      -9.669  13.698  66.844  1.00  0.00    -0.262 C  
HETATM   23  H   UNL     1      -9.635  15.450  66.041  1.00  0.00     0.000 HD 
HETATM   24  O   UNL     1      -9.926  14.586  65.774  1.00  0.00    -0.309 OA 
ENDBRANCH   8  22
ENDBRANCH   6   8
ENDBRANCH   4   6
ENDBRANCH   3   4
TORSDOF 7
ENDMDL
MODEL      157
REMARK 921   NORMALIZED FREE ENERGY PREDICTED BY IDOCK:   -3.20 KCAL/MOL
REMARK 922        TOTAL FREE ENERGY PREDICTED BY IDOCK:   -6.04 KCAL/MOL
REMARK 923 INTER-LIGAND FREE ENERGY PREDICTED BY IDOCK:   -5.72 KCAL/MOL
REMARK 924 INTRA-LIGAND FREE ENERGY PREDICTED BY IDOCK:   -0.33 KCAL/MOL
REMARK 927      BINDING AFFINITY PREDICTED BY RF-SCORE:    0.00 PKD
ROOT
HETATM    1  O   UNL     1     -10.618   7.117  67.740  1.00  0.00    -0.207 OA 
HETATM    2  H   UNL     1     -10.142   6.460  68.234  1.00  0.00     0.000 HD 
HETATM    3  C   UNL     1     -10.152   8.365  68.197  1.00  0.00    -0.200 C  
ENDROOT
BRANCH   3   4
HETATM    4  N   UNL     1     -10.865   9.348  67.457  1.00  0.00    -0.431 N  
HETATM    5  H   UNL     1     -11.270   9.108  66.553  1.00  0.00     0.000 HD 
BRANCH   4   6
HETATM    6  C   UNL     1     -11.008  10.610  67.953  1.00  0.00    -0.295 C  
HETATM    7  O   UNL     1     -11.927  10.903  68.713  1.00  0.00    -0.441 OA 
BRANCH   6   8
HETATM    8  N   UNL     1     -10.027  11.517  67.604  1.00  0.00    -0.182 N  
BRANCH   8   9
HETATM    9  C   UNL     1      -9.917  11.874  66.204  1.00  0.00    -0.228 C  
HETATM   10  O   UNL     1     -12.102  13.040  66.030  1.00  0.00    -0.415 OA 
HETATM   11  N   UNL     1      -9.605  10.785  65.307  1.00  0.00    -0.211 N  
HETATM   12  C   UNL     1     -11.209  12.372  65.518  1.00  0.00    -0.325 C  
HETATM   13  O   UNL     1      -9.986  10.351  63.063  1.00  0.00    -0.237 OA 
HETATM   14  N   UNL     1     -11.163  11.968  64.217  1.00  0.00    -0.336 N  
HETATM   15  C   UNL     1     -10.222  10.988  64.078  1.00  0.00    -0.358 C  
BRANCH  11  16
HETATM   16  C   UNL     1      -8.455   9.938  65.429  1.00  0.00    -0.147 C  
HETATM   17  H   UNL     1      -6.530  10.146  65.281  1.00  0.00     0.000 HD 
HETATM   18  O   UNL     1      -7.293  10.707  65.200  1.00  0.00    -0.073 OA 
ENDBRANCH  11  16
BRANCH  14  19
HETATM   19  C   UNL     1     -12.199  12.162  63.248  1.00  0.00    -0.426 C  
HETATM   20  O   UNL     1     -12.401  13.545  63.029  1.00  0.00    -0.970 OA 
HETATM   21  H   UNL     1     -13.088  13.674  62.386  1.00  0.00     0.000 HD 
ENDBRANCH  14  19
ENDBRANCH   8   9
BRANCH   8  22
HETATM   22  C   UNL     1      -8.967  11.940  68.487  1.00  0.00    -0.115 C  
HETATM   23  H   UNL     1      -7.338  11.158  69.160  1.00  0.00     0.000 HD 
HETATM   24  O   UNL     1      -8.036  10.880  68.578  1.00  0.00    -0.117 OA 
ENDBRANCH   8  22
ENDBRANCH   6   8
ENDBRANCH   4   6
ENDBRANCH   3   4
TORSDOF 7
ENDMDL
MODEL      158
REMARK 921   NORMALIZED FREE ENERGY PREDICTED BY IDOCK:   -3.19 KCAL/MOL
REMARK 922        TOTAL FREE ENERGY PREDICTED BY IDOCK:   -6.02 KCAL/MOL
REMARK 923 INTER-LIGAND FREE ENERGY PREDICTED BY IDOCK:   -4.76 KCAL/MOL
REMARK 924 INTRA-LIGAND FREE ENERGY PREDICTED BY IDOCK:   -1.26 KCAL/MOL
REMARK 927      BINDING AFFINITY PREDICTED BY RF-SCORE:    0.00 PKD
ROOT
HETATM    1  O   UNL     1      -9.808   6.335  65.926  1.00  0.00    -0.388 OA 
HETATM    2  H   UNL     1      -9.964   5.957  65.070  1.00  0.00     0.000 HD 
HETATM    3  C   UNL     1     -10.752   5.748  66.792  1.00  0.00    -0.297 C  
ENDROOT
BRANCH   3   4
HETATM    4  N   UNL     1     -10.518   6.315  68.075  1.00  0.00    -0.196 N  
HETATM    5  H   UNL     1     -11.266   6.330  68.767  1.00  0.00     0.000 HD 
BRANCH   4   6
HETATM    6  C   UNL     1      -9.297   6.839  68.381  1.00  0.00    -0.124 C  
HETATM    7  O   UNL     1      -8.264   6.190  68.240  1.00  0.00    -0.113 OA 
BRANCH   6   8
HETATM    8  N   UNL     1      -9.286   8.156  68.795  1.00  0.00    -0.144 N  
BRANCH   8   9
HETATM    9  C   UNL     1     -10.518   8.906  68.666  1.00  0.00    -0.193 C  
HETATM   10  O   UNL     1      -9.833  10.255  66.698  1.00  0.00    -0.188 OA 
HETATM   11  N   UNL     1     -10.975   9.563  69.869  1.00  0.00    -0.236 N  
HETATM   12  C   UNL     1     -10.480  10.138  67.734  1.00  0.00    -0.232 C  
HETATM   13  O   UNL     1     -12.280  11.422  70.327  1.00  0.00    -0.332 OA 
HETATM   14  N   UNL     1     -11.333  11.068  68.252  1.00  0.00    -0.277 N  
HETATM   15  C   UNL     1     -11.616  10.753  69.549  1.00  0.00    -0.303 C  
BRANCH  11  16
HETATM   16  C   UNL     1     -11.230   8.894  71.111  1.00  0.00    -0.284 C  
HETATM   17  H   UNL     1     -11.895   7.155  71.665  1.00  0.00     0.000 HD 
HETATM   18  O   UNL     1     -11.725   7.599  70.842  1.00  0.00    -0.287 OA 
ENDBRANCH  11  16
BRANCH  14  19
HETATM   19  C   UNL     1     -11.541  12.386  67.731  1.00  0.00    -0.352 C  
HETATM   20  O   UNL     1     -12.061  12.309  66.418  1.00  0.00    -0.623 OA 
HETATM   21  H   UNL     1     -12.199  13.183  66.073  1.00  0.00     0.000 HD 
ENDBRANCH  14  19
ENDBRANCH   8   9
BRANCH   8  22
HETATM   22  C   UNL     1      -8.085   8.891  69.115  1.00  0.00    -0.117 C  
HETATM   23  H   UNL     1      -6.950   9.069  70.663  1.00  0.00     0.000 HD 
HETATM   24  O   UNL     1      -7.740   8.586  70.452  1.00  0.00    -0.071 OA 
ENDBRANCH   8  22
ENDBRANCH   6   8
ENDBRANCH   4   6
ENDBRANCH   3   4
TORSDOF 7
ENDMDL
MODEL      159
REMARK 921   NORMALIZED FREE ENERGY PREDICTED BY IDOCK:   -3.18 KCAL/MOL
REMARK 922        TOTAL FREE ENERGY PREDICTED BY IDOCK:   -6.01 KCAL/MOL
REMARK 923 INTER-LIGAND FREE ENERGY PREDICTED BY IDOCK:   -5.14 KCAL/MOL
REMARK 924 INTRA-LIGAND FREE ENERGY PREDICTED BY IDOCK:   -0.87 KCAL/MOL
REMARK 927      BINDING AFFINITY PREDICTED BY RF-SCORE:    0.00 PKD
ROOT
HETATM    1  O   UNL     1     -11.202  14.336  66.472  1.00  0.00    -0.316 OA 
HETATM    2  H   UNL     1     -11.882  13.674  66.462  1.00  0.00     0.000 HD 
HETATM    3  C   UNL     1     -10.017  13.685  66.076  1.00  0.00    -0.302 C  
ENDROOT
BRANCH   3   4
HETATM    4  N   UNL     1      -8.997  14.676  66.092  1.00  0.00    -0.491 N  
HETATM    5  H   UNL     1      -8.859  15.275  65.278  1.00  0.00     0.000 HD 
BRANCH   4   6
HETATM    6  C   UNL     1      -8.204  14.828  67.190  1.00  0.00    -0.211 C  
HETATM    7  O   UNL     1      -7.260  14.073  67.413  1.00  0.00    -0.178 OA 
BRANCH   6   8
HETATM    8  N   UNL     1      -8.482  15.913  67.998  1.00  0.00    -0.161 N  
BRANCH   8   9
HETATM    9  C   UNL     1      -7.869  17.178  67.649  1.00  0.00    -0.176 C  
HETATM   10  O   UNL     1      -6.194  17.203  69.482  1.00  0.00    -0.224 OA 
HETATM   11  N   UNL     1      -8.780  18.287  67.487  1.00  0.00    -0.252 N  
HETATM   12  C   UNL     1      -6.933  17.803  68.708  1.00  0.00    -0.257 C  
HETATM   13  O   UNL     1      -8.612  20.589  67.692  1.00  0.00    -0.272 OA 
HETATM   14  N   UNL     1      -7.046  19.158  68.602  1.00  0.00    -0.304 N  
HETATM   15  C   UNL     1      -8.172  19.468  67.896  1.00  0.00    -0.310 C  
BRANCH  11  16
HETATM   16  C   UNL     1      -9.889  18.300  66.578  1.00  0.00    -0.361 C  
HETATM   17  H   UNL     1     -11.361  17.114  66.135  1.00  0.00     0.000 HD 
HETATM   18  O   UNL     1     -10.626  17.106  66.737  1.00  0.00    -0.286 OA 
ENDBRANCH  11  16
BRANCH  14  19
HETATM   19  C   UNL     1      -6.399  20.115  69.449  1.00  0.00    -0.318 C  
HETATM   20  O   UNL     1      -5.172  20.518  68.872  1.00  0.00    -0.221 OA 
HETATM   21  H   UNL     1      -4.743  21.153  69.433  1.00  0.00     0.000 HD 
ENDBRANCH  14  19
ENDBRANCH   8   9
BRANCH   8  22
HETATM   22  C   UNL     1      -9.137  15.817  69.281  1.00  0.00    -0.263 C  
HETATM   23  H   UNL     1     -10.724  14.957  69.958  1.00  0.00     0.000 HD 
HETATM   24  O   UNL     1     -10.293  15.020  69.114  1.00  0.00    -0.234 OA 
ENDBRANCH   8  22
ENDBRANCH   6   8
ENDBRANCH   4   6
ENDBRANCH   3   4
TORSDOF 7
ENDMDL
MODEL      160
REMARK 921   NORMALIZED FREE ENERGY PREDICTED BY IDOCK:   -3.17 KCAL/MOL
REMARK 922        TOTAL FREE ENERGY PREDICTED BY IDOCK:   -6.00 KCAL/MOL
REMARK 923 INTER-LIGAND FREE ENERGY PREDICTED BY IDOCK:   -5.07 KCAL/MOL
REMARK 924 INTRA-LIGAND FREE ENERGY PREDICTED BY IDOCK:   -0.94 KCAL/MOL
REMARK 927      BINDING AFFINITY PREDICTED BY RF-SCORE:    0.00 PKD
ROOT
HETATM    1  O   UNL     1      -6.042  16.378  69.939  1.00  0.00    -0.203 OA 
HETATM    2  H   UNL     1      -5.121  16.608  69.967  1.00  0.00     0.000 HD 
HETATM    3  C   UNL     1      -6.270  15.827  68.663  1.00  0.00    -0.104 C  
ENDROOT
BRANCH   3   4
HETATM    4  N   UNL     1      -7.649  15.483  68.622  1.00  0.00    -0.133 N  
HETATM    5  H   UNL     1      -7.926  14.507  68.519  1.00  0.00     0.000 HD 
BRANCH   4   6
HETATM    6  C   UNL     1      -8.601  16.453  68.721  1.00  0.00    -0.250 C  
HETATM    7  O   UNL     1      -8.311  17.647  68.696  1.00  0.00    -0.286 OA 
BRANCH   6   8
HETATM    8  N   UNL     1      -9.910  16.019  68.785  1.00  0.00    -0.213 N  
BRANCH   8   9
HETATM    9  C   UNL     1     -10.153  14.720  69.380  1.00  0.00    -0.109 C  
HETATM   10  O   UNL     1      -9.923  13.397  67.293  1.00  0.00    -0.227 OA 
HETATM   11  N   UNL     1     -11.356  14.616  70.174  1.00  0.00    -0.248 N  
HETATM   12  C   UNL     1     -10.423  13.555  68.402  1.00  0.00    -0.246 C  
HETATM   13  O   UNL     1     -12.780  12.888  70.771  1.00  0.00    -0.252 OA 
HETATM   14  N   UNL     1     -11.294  12.703  69.014  1.00  0.00    -0.277 N  
HETATM   15  C   UNL     1     -11.889  13.337  70.066  1.00  0.00    -0.295 C  
BRANCH  11  16
HETATM   16  C   UNL     1     -11.663  15.455  71.295  1.00  0.00    -0.380 C  
HETATM   17  H   UNL     1     -13.218  16.413  71.955  1.00  0.00     0.000 HD 
HETATM   18  O   UNL     1     -13.014  15.856  71.212  1.00  0.00    -0.471 OA 
ENDBRANCH  11  16
BRANCH  14  19
HETATM   19  C   UNL     1     -11.860  11.527  68.423  1.00  0.00    -0.283 C  
HETATM   20  O   UNL     1     -12.204  10.598  69.434  1.00  0.00    -0.509 OA 
HETATM   21  H   UNL     1     -12.580   9.818  69.042  1.00  0.00     0.000 HD 
ENDBRANCH  14  19
ENDBRANCH   8   9
BRANCH   8  22
HETATM   22  C   UNL     1     -11.007  16.653  68.092  1.00  0.00    -0.327 C  
HETATM   23  H   UNL     1     -11.423  17.065  66.256  1.00  0.00     0.000 HD 
HETATM   24  O   UNL     1     -10.702  16.647  66.711  1.00  0.00    -0.253 OA 
ENDBRANCH   8  22
ENDBRANCH   6   8
ENDBRANCH   4   6
ENDBRANCH   3   4
TORSDOF 7
ENDMDL
MODEL      161
REMARK 921   NORMALIZED FREE ENERGY PREDICTED BY IDOCK:   -3.16 KCAL/MOL
REMARK 922        TOTAL FREE ENERGY PREDICTED BY IDOCK:   -5.98 KCAL/MOL
REMARK 923 INTER-LIGAND FREE ENERGY PREDICTED BY IDOCK:   -4.68 KCAL/MOL
REMARK 924 INTRA-LIGAND FREE ENERGY PREDICTED BY IDOCK:   -1.30 KCAL/MOL
REMARK 927      BINDING AFFINITY PREDICTED BY RF-SCORE:    0.00 PKD
ROOT
HETATM    1  O   UNL     1      -7.901   5.543  71.897  1.00  0.00    -0.105 OA 
HETATM    2  H   UNL     1      -7.606   4.831  72.451  1.00  0.00     0.000 HD 
HETATM    3  C   UNL     1      -9.125   5.125  71.339  1.00  0.00    -0.144 C  
ENDROOT
BRANCH   3   4
HETATM    4  N   UNL     1      -9.566   6.192  70.509  1.00  0.00    -0.167 N  
HETATM    5  H   UNL     1      -9.012   6.466  69.698  1.00  0.00     0.000 HD 
BRANCH   4   6
HETATM    6  C   UNL     1     -10.725   6.849  70.795  1.00  0.00    -0.233 C  
HETATM    7  O   UNL     1     -11.801   6.260  70.859  1.00  0.00    -0.308 OA 
BRANCH   6   8
HETATM    8  N   UNL     1     -10.610   8.197  71.072  1.00  0.00    -0.208 N  
BRANCH   8   9
HETATM    9  C   UNL     1     -11.224   9.123  70.143  1.00  0.00    -0.187 C  
HETATM   10  O   UNL     1      -9.280   9.333  68.614  1.00  0.00    -0.135 OA 
HETATM   11  N   UNL     1     -11.808  10.304  70.736  1.00  0.00    -0.336 N  
HETATM   12  C   UNL     1     -10.278   9.817  69.137  1.00  0.00    -0.199 C  
HETATM   13  O   UNL     1     -12.247  12.459  70.006  1.00  0.00    -0.272 OA 
HETATM   14  N   UNL     1     -10.779  11.063  68.899  1.00  0.00    -0.199 N  
HETATM   15  C   UNL     1     -11.679  11.385  69.873  1.00  0.00    -0.346 C  
BRANCH  11  16
HETATM   16  C   UNL     1     -12.814  10.285  71.757  1.00  0.00    -0.460 C  
HETATM   17  H   UNL     1     -14.531   9.419  72.028  1.00  0.00     0.000 HD 
HETATM   18  O   UNL     1     -13.864   9.432  71.351  1.00  0.00    -0.336 OA 
ENDBRANCH  11  16
BRANCH  14  19
HETATM   19  C   UNL     1     -10.165  12.063  68.078  1.00  0.00    -0.198 C  
HETATM   20  O   UNL     1      -9.646  13.100  68.888  1.00  0.00    -0.405 OA 
HETATM   21  H   UNL     1      -9.239  13.763  68.343  1.00  0.00     0.000 HD 
ENDBRANCH  14  19
ENDBRANCH   8   9
BRANCH   8  22
HETATM   22  C   UNL     1      -9.727   8.743  72.076  1.00  0.00    -0.300 C  
HETATM   23  H   UNL     1      -7.819   8.895  72.298  1.00  0.00     0.000 HD 
HETATM   24  O   UNL     1      -8.399   8.536  71.637  1.00  0.00    -0.141 OA 
ENDBRANCH   8  22
ENDBRANCH   6   8
ENDBRANCH   4   6
ENDBRANCH   3   4
TORSDOF 7
ENDMDL
MODEL      162
REMARK 921   NORMALIZED FREE ENERGY PREDICTED BY IDOCK:   -3.16 KCAL/MOL
REMARK 922        TOTAL FREE ENERGY PREDICTED BY IDOCK:   -5.98 KCAL/MOL
REMARK 923 INTER-LIGAND FREE ENERGY PREDICTED BY IDOCK:   -5.05 KCAL/MOL
REMARK 924 INTRA-LIGAND FREE ENERGY PREDICTED BY IDOCK:   -0.93 KCAL/MOL
REMARK 927      BINDING AFFINITY PREDICTED BY RF-SCORE:    0.00 PKD
ROOT
HETATM    1  O   UNL     1     -11.979  13.493  70.783  1.00  0.00    -0.478 OA 
HETATM    2  H   UNL     1     -12.617  14.110  71.119  1.00  0.00     0.000 HD 
HETATM    3  C   UNL     1     -11.839  13.783  69.411  1.00  0.00    -0.341 C  
ENDROOT
BRANCH   3   4
HETATM    4  N   UNL     1     -10.883  12.860  68.907  1.00  0.00    -0.345 N  
HETATM    5  H   UNL     1      -9.934  12.856  69.282  1.00  0.00     0.000 HD 
BRANCH   4   6
HETATM    6  C   UNL     1     -11.229  11.980  67.925  1.00  0.00    -0.264 C  
HETATM    7  O   UNL     1     -12.217  11.257  68.027  1.00  0.00    -0.621 OA 
BRANCH   6   8
HETATM    8  N   UNL     1     -10.447  11.998  66.787  1.00  0.00    -0.210 N  
BRANCH   8   9
HETATM    9  C   UNL     1     -10.280  10.747  66.075  1.00  0.00    -0.251 C  
HETATM   10  O   UNL     1      -8.455   9.846  67.495  1.00  0.00    -0.115 OA 
HETATM   11  N   UNL     1     -10.095  10.865  64.647  1.00  0.00    -0.303 N  
HETATM   12  C   UNL     1      -9.009   9.933  66.404  1.00  0.00    -0.147 C  
HETATM   13  O   UNL     1      -9.070   9.577  63.016  1.00  0.00    -0.252 OA 
HETATM   14  N   UNL     1      -8.631   9.288  65.264  1.00  0.00    -0.156 N  
HETATM   15  C   UNL     1      -9.252   9.859  64.191  1.00  0.00    -0.262 C  
BRANCH  11  16
HETATM   16  C   UNL     1     -11.009  11.525  63.762  1.00  0.00    -0.409 C  
HETATM   17  H   UNL     1     -10.938  13.011  62.514  1.00  0.00     0.000 HD 
HETATM   18  O   UNL     1     -10.332  12.573  63.100  1.00  0.00    -0.284 OA 
ENDBRANCH  11  16
BRANCH  14  19
HETATM   19  C   UNL     1      -7.458   8.480  65.115  1.00  0.00    -0.091 C  
HETATM   20  O   UNL     1      -7.418   7.496  66.131  1.00  0.00    -0.079 OA 
HETATM   21  H   UNL     1      -6.641   6.960  66.033  1.00  0.00     0.000 HD 
ENDBRANCH  14  19
ENDBRANCH   8   9
BRANCH   8  22
HETATM   22  C   UNL     1      -9.604  13.105  66.403  1.00  0.00    -0.255 C  
HETATM   23  H   UNL     1      -7.972  13.889  67.065  1.00  0.00     0.000 HD 
HETATM   24  O   UNL     1      -8.527  13.160  67.318  1.00  0.00    -0.189 OA 
ENDBRANCH   8  22
ENDBRANCH   6   8
ENDBRANCH   4   6
ENDBRANCH   3   4
TORSDOF 7
ENDMDL
MODEL      163
REMARK 921   NORMALIZED FREE ENERGY PREDICTED BY IDOCK:   -3.16 KCAL/MOL
REMARK 922        TOTAL FREE ENERGY PREDICTED BY IDOCK:   -5.98 KCAL/MOL
REMARK 923 INTER-LIGAND FREE ENERGY PREDICTED BY IDOCK:   -5.13 KCAL/MOL
REMARK 924 INTRA-LIGAND FREE ENERGY PREDICTED BY IDOCK:   -0.85 KCAL/MOL
REMARK 927      BINDING AFFINITY PREDICTED BY RF-SCORE:    0.00 PKD
ROOT
HETATM    1  O   UNL     1      -6.843  11.648  70.118  1.00  0.00    -0.436 OA 
HETATM    2  H   UNL     1      -5.946  11.955  70.076  1.00  0.00     0.000 HD 
HETATM    3  C   UNL     1      -7.544  12.344  69.114  1.00  0.00     0.225 C  
ENDROOT
BRANCH   3   4
HETATM    4  N   UNL     1      -8.888  11.883  69.177  1.00  0.00    -0.245 N  
HETATM    5  H   UNL     1      -9.209  11.366  69.996  1.00  0.00     0.000 HD 
BRANCH   4   6
HETATM    6  C   UNL     1      -9.747  12.130  68.149  1.00  0.00    -0.208 C  
HETATM    7  O   UNL     1      -9.972  11.290  67.281  1.00  0.00    -0.180 OA 
BRANCH   6   8
HETATM    8  N   UNL     1     -10.396  13.349  68.176  1.00  0.00    -0.241 N  
BRANCH   8   9
HETATM    9  C   UNL     1      -9.726  14.475  67.558  1.00  0.00    -0.211 C  
HETATM   10  O   UNL     1      -9.307  15.746  69.648  1.00  0.00    -0.274 OA 
HETATM   11  N   UNL     1     -10.435  15.096  66.463  1.00  0.00    -0.284 N  
HETATM   12  C   UNL     1      -9.527  15.726  68.442  1.00  0.00    -0.196 C  
HETATM   13  O   UNL     1     -10.466  17.214  65.524  1.00  0.00    -0.593 OA 
HETATM   14  N   UNL     1      -9.601  16.817  67.627  1.00  0.00    -0.241 N  
HETATM   15  C   UNL     1     -10.175  16.461  66.441  1.00  0.00    -0.316 C  
BRANCH  11  16
HETATM   16  C   UNL     1     -10.877  14.406  65.287  1.00  0.00    -0.361 C  
HETATM   17  H   UNL     1     -12.575  13.811  64.557  1.00  0.00     0.000 HD 
HETATM   18  O   UNL     1     -12.282  14.269  65.336  1.00  0.00    -0.393 OA 
ENDBRANCH  11  16
BRANCH  14  19
HETATM   19  C   UNL     1      -9.540  18.182  68.056  1.00  0.00    -0.300 C  
HETATM   20  O   UNL     1      -8.461  18.840  67.420  1.00  0.00    -0.268 OA 
HETATM   21  H   UNL     1      -8.420  19.745  67.705  1.00  0.00     0.000 HD 
ENDBRANCH  14  19
ENDBRANCH   8   9
BRANCH   8  22
HETATM   22  C   UNL     1     -11.567  13.623  68.975  1.00  0.00    -0.312 C  
HETATM   23  H   UNL     1     -12.776  12.577  70.052  1.00  0.00     0.000 HD 
HETATM   24  O   UNL     1     -12.005  12.397  69.527  1.00  0.00    -0.298 OA 
ENDBRANCH   8  22
ENDBRANCH   6   8
ENDBRANCH   4   6
ENDBRANCH   3   4
TORSDOF 7
ENDMDL
MODEL      164
REMARK 921   NORMALIZED FREE ENERGY PREDICTED BY IDOCK:   -3.15 KCAL/MOL
REMARK 922        TOTAL FREE ENERGY PREDICTED BY IDOCK:   -5.97 KCAL/MOL
REMARK 923 INTER-LIGAND FREE ENERGY PREDICTED BY IDOCK:   -4.79 KCAL/MOL
REMARK 924 INTRA-LIGAND FREE ENERGY PREDICTED BY IDOCK:   -1.17 KCAL/MOL
REMARK 927      BINDING AFFINITY PREDICTED BY RF-SCORE:    0.00 PKD
ROOT
HETATM    1  O   UNL     1     -11.139   6.612  72.442  1.00  0.00    -0.241 OA 
HETATM    2  H   UNL     1     -11.689   6.125  73.044  1.00  0.00     0.000 HD 
HETATM    3  C   UNL     1     -11.389   7.974  72.696  1.00  0.00    -0.405 C  
ENDROOT
BRANCH   3   4
HETATM    4  N   UNL     1     -10.566   8.702  71.793  1.00  0.00    -0.297 N  
HETATM    5  H   UNL     1      -9.552   8.604  71.839  1.00  0.00     0.000 HD 
BRANCH   4   6
HETATM    6  C   UNL     1     -11.127   9.530  70.868  1.00  0.00    -0.336 C  
HETATM    7  O   UNL     1     -12.084  10.250  71.143  1.00  0.00    -0.341 OA 
BRANCH   6   8
HETATM    8  N   UNL     1     -10.520   9.560  69.628  1.00  0.00    -0.211 N  
BRANCH   8   9
HETATM    9  C   UNL     1     -10.065  10.846  69.140  1.00  0.00    -0.177 C  
HETATM   10  O   UNL     1     -11.947  11.243  67.571  1.00  0.00    -0.612 OA 
HETATM   11  N   UNL     1      -8.703  10.882  68.660  1.00  0.00    -0.149 N  
HETATM   12  C   UNL     1     -10.768  11.389  67.876  1.00  0.00    -0.200 C  
HETATM   13  O   UNL     1      -7.537  12.181  67.134  1.00  0.00    -0.148 OA 
HETATM   14  N   UNL     1      -9.844  12.103  67.171  1.00  0.00    -0.196 N  
HETATM   15  C   UNL     1      -8.591  11.785  67.609  1.00  0.00    -0.153 C  
BRANCH  11  16
HETATM   16  C   UNL     1      -7.559  10.502  69.435  1.00  0.00    -0.145 C  
HETATM   17  H   UNL     1      -6.403   8.947  69.573  1.00  0.00     0.000 HD 
HETATM   18  O   UNL     1      -7.162   9.200  69.059  1.00  0.00    -0.069 OA 
ENDBRANCH  11  16
BRANCH  14  19
HETATM   19  C   UNL     1     -10.065  12.718  65.896  1.00  0.00    -0.276 C  
HETATM   20  O   UNL     1      -9.391  11.991  64.887  1.00  0.00    -0.433 OA 
HETATM   21  H   UNL     1      -9.538  12.398  64.042  1.00  0.00     0.000 HD 
ENDBRANCH  14  19
ENDBRANCH   8   9
BRANCH   8  22
HETATM   22  C   UNL     1     -10.525   8.455  68.699  1.00  0.00    -0.166 C  
HETATM   23  H   UNL     1     -10.741   6.544  68.831  1.00  0.00     0.000 HD 
HETATM   24  O   UNL     1     -10.737   7.271  69.443  1.00  0.00    -0.235 OA 
ENDBRANCH   8  22
ENDBRANCH   6   8
ENDBRANCH   4   6
ENDBRANCH   3   4
TORSDOF 7
ENDMDL
MODEL      165
REMARK 921   NORMALIZED FREE ENERGY PREDICTED BY IDOCK:   -3.13 KCAL/MOL
REMARK 922        TOTAL FREE ENERGY PREDICTED BY IDOCK:   -5.94 KCAL/MOL
REMARK 923 INTER-LIGAND FREE ENERGY PREDICTED BY IDOCK:   -4.85 KCAL/MOL
REMARK 924 INTRA-LIGAND FREE ENERGY PREDICTED BY IDOCK:   -1.10 KCAL/MOL
REMARK 927      BINDING AFFINITY PREDICTED BY RF-SCORE:    0.00 PKD
ROOT
HETATM    1  O   UNL     1     -12.266  11.137  68.162  1.00  0.00    -0.708 OA 
HETATM    2  H   UNL     1     -12.636  11.567  67.400  1.00  0.00     0.000 HD 
HETATM    3  C   UNL     1     -10.957  11.637  68.297  1.00  0.00    -0.226 C  
ENDROOT
BRANCH   3   4
HETATM    4  N   UNL     1     -10.403  10.992  69.438  1.00  0.00    -0.403 N  
HETATM    5  H   UNL     1      -9.793  11.512  70.068  1.00  0.00     0.000 HD 
BRANCH   4   6
HETATM    6  C   UNL     1     -10.686   9.684  69.691  1.00  0.00    -0.240 C  
HETATM    7  O   UNL     1     -10.602   8.825  68.815  1.00  0.00    -0.211 OA 
BRANCH   6   8
HETATM    8  N   UNL     1     -11.007   9.370  70.997  1.00  0.00    -0.309 N  
BRANCH   8   9
HETATM    9  C   UNL     1     -10.265   8.296  71.626  1.00  0.00    -0.221 C  
HETATM   10  O   UNL     1      -8.032   9.372  71.497  1.00  0.00    -0.298 OA 
HETATM   11  N   UNL     1     -10.470   6.984  71.057  1.00  0.00    -0.212 N  
HETATM   12  C   UNL     1      -8.726   8.361  71.505  1.00  0.00    -0.176 C  
HETATM   13  O   UNL     1      -9.219   5.037  70.939  1.00  0.00    -0.137 OA 
HETATM   14  N   UNL     1      -8.267   7.077  71.448  1.00  0.00    -0.109 N  
HETATM   15  C   UNL     1      -9.301   6.238  71.147  1.00  0.00    -0.160 C  
BRANCH  11  16
HETATM   16  C   UNL     1     -11.747   6.347  70.925  1.00  0.00    -0.303 C  
HETATM   17  H   UNL     1     -13.171   5.782  72.119  1.00  0.00     0.000 HD 
HETATM   18  O   UNL     1     -12.324   6.204  72.206  1.00  0.00    -0.271 OA 
ENDBRANCH  11  16
BRANCH  14  19
HETATM   19  C   UNL     1      -6.901   6.690  71.262  1.00  0.00    -0.062 C  
HETATM   20  O   UNL     1      -6.042   7.703  71.751  1.00  0.00    -0.036 OA 
HETATM   21  H   UNL     1      -5.136   7.446  71.629  1.00  0.00     0.000 HD 
ENDBRANCH  14  19
ENDBRANCH   8   9
BRANCH   8  22
HETATM   22  C   UNL     1     -12.174   9.869  71.684  1.00  0.00    -0.395 C  
HETATM   23  H   UNL     1     -13.916  10.506  71.158  1.00  0.00     0.000 HD 
HETATM   24  O   UNL     1     -13.148  10.177  70.705  1.00  0.00    -0.369 OA 
ENDBRANCH   8  22
ENDBRANCH   6   8
ENDBRANCH   4   6
ENDBRANCH   3   4
TORSDOF 7
ENDMDL
MODEL      166
REMARK 921   NORMALIZED FREE ENERGY PREDICTED BY IDOCK:   -3.13 KCAL/MOL
REMARK 922        TOTAL FREE ENERGY PREDICTED BY IDOCK:   -5.94 KCAL/MOL
REMARK 923 INTER-LIGAND FREE ENERGY PREDICTED BY IDOCK:   -5.14 KCAL/MOL
REMARK 924 INTRA-LIGAND FREE ENERGY PREDICTED BY IDOCK:   -0.80 KCAL/MOL
REMARK 927      BINDING AFFINITY PREDICTED BY RF-SCORE:    0.00 PKD
ROOT
HETATM    1  O   UNL     1      -9.100  19.034  68.299  1.00  0.00    -0.303 OA 
HETATM    2  H   UNL     1      -8.566  19.421  68.982  1.00  0.00     0.000 HD 
HETATM    3  C   UNL     1      -9.428  17.739  68.746  1.00  0.00    -0.254 C  
ENDROOT
BRANCH   3   4
HETATM    4  N   UNL     1     -10.229  17.160  67.723  1.00  0.00    -0.310 N  
HETATM    5  H   UNL     1     -10.986  17.699  67.303  1.00  0.00     0.000 HD 
BRANCH   4   6
HETATM    6  C   UNL     1      -9.989  15.886  67.303  1.00  0.00    -0.240 C  
HETATM    7  O   UNL     1      -8.921  15.322  67.531  1.00  0.00    -0.178 OA 
BRANCH   6   8
HETATM    8  N   UNL     1     -11.035  15.246  66.667  1.00  0.00    -0.313 N  
BRANCH   8   9
HETATM    9  C   UNL     1     -11.676  14.155  67.372  1.00  0.00    -0.391 C  
HETATM   10  O   UNL     1     -12.508  15.496  69.288  1.00  0.00    -0.157 OA 
HETATM   11  N   UNL     1     -10.848  12.994  67.607  1.00  0.00    -0.236 N  
HETATM   12  C   UNL     1     -12.098  14.433  68.832  1.00  0.00    -0.253 C  
HETATM   13  O   UNL     1     -10.816  11.295  69.183  1.00  0.00    -0.212 OA 
HETATM   14  N   UNL     1     -11.973  13.264  69.523  1.00  0.00    -0.317 N  
HETATM   15  C   UNL     1     -11.195  12.396  68.812  1.00  0.00    -0.273 C  
BRANCH  11  16
HETATM   16  C   UNL     1     -10.178  12.254  66.578  1.00  0.00    -0.214 C  
HETATM   17  H   UNL     1     -10.601  10.758  65.414  1.00  0.00     0.000 HD 
HETATM   18  O   UNL     1     -11.045  11.249  66.096  1.00  0.00    -0.248 OA 
ENDBRANCH  11  16
BRANCH  14  19
HETATM   19  C   UNL     1     -12.196  13.100  70.928  1.00  0.00    -0.241 C  
HETATM   20  O   UNL     1     -13.252  13.943  71.350  1.00  0.00    -0.337 OA 
HETATM   21  H   UNL     1     -13.400  13.835  72.281  1.00  0.00     0.000 HD 
ENDBRANCH  14  19
ENDBRANCH   8   9
BRANCH   8  22
HETATM   22  C   UNL     1     -11.367  15.430  65.274  1.00  0.00    -0.243 C  
HETATM   23  H   UNL     1     -10.533  16.282  63.760  1.00  0.00     0.000 HD 
HETATM   24  O   UNL     1     -10.314  16.161  64.676  1.00  0.00    -0.425 OA 
ENDBRANCH   8  22
ENDBRANCH   6   8
ENDBRANCH   4   6
ENDBRANCH   3   4
TORSDOF 7
ENDMDL
MODEL      167
REMARK 921   NORMALIZED FREE ENERGY PREDICTED BY IDOCK:   -3.12 KCAL/MOL
REMARK 922        TOTAL FREE ENERGY PREDICTED BY IDOCK:   -5.93 KCAL/MOL
REMARK 923 INTER-LIGAND FREE ENERGY PREDICTED BY IDOCK:   -4.56 KCAL/MOL
REMARK 924 INTRA-LIGAND FREE ENERGY PREDICTED BY IDOCK:   -1.37 KCAL/MOL
REMARK 927      BINDING AFFINITY PREDICTED BY RF-SCORE:    0.00 PKD
ROOT
HETATM    1  O   UNL     1     -12.395  10.682  68.491  1.00  0.00    -0.814 OA 
HETATM    2  H   UNL     1     -13.104  11.150  68.914  1.00  0.00     0.000 HD 
HETATM    3  C   UNL     1     -11.528  10.270  69.521  1.00  0.00    -0.210 C  
ENDROOT
BRANCH   3   4
HETATM    4  N   UNL     1     -10.466   9.568  68.888  1.00  0.00    -0.211 N  
HETATM    5  H   UNL     1     -10.593   8.594  68.615  1.00  0.00     0.000 HD 
BRANCH   4   6
HETATM    6  C   UNL     1      -9.279  10.193  68.645  1.00  0.00    -0.157 C  
HETATM    7  O   UNL     1      -8.281   9.968  69.324  1.00  0.00    -0.122 OA 
BRANCH   6   8
HETATM    8  N   UNL     1      -9.248  11.040  67.554  1.00  0.00    -0.144 N  
BRANCH   8   9
HETATM    9  C   UNL     1      -9.364  12.461  67.811  1.00  0.00    -0.196 C  
HETATM   10  O   UNL     1     -11.541  12.787  66.665  1.00  0.00    -0.330 OA 
HETATM   11  N   UNL     1      -8.219  13.256  67.430  1.00  0.00    -0.179 N  
HETATM   12  C   UNL     1     -10.446  13.218  67.010  1.00  0.00    -0.249 C  
HETATM   13  O   UNL     1      -7.892  15.466  66.813  1.00  0.00    -0.201 OA 
HETATM   14  N   UNL     1      -9.980  14.480  66.786  1.00  0.00    -0.257 N  
HETATM   15  C   UNL     1      -8.633  14.513  67.004  1.00  0.00    -0.217 C  
BRANCH  11  16
HETATM   16  C   UNL     1      -6.884  13.035  67.902  1.00  0.00    -0.130 C  
HETATM   17  H   UNL     1      -5.359  11.960  67.364  1.00  0.00     0.000 HD 
HETATM   18  O   UNL     1      -6.244  12.107  67.051  1.00  0.00    -0.156 OA 
ENDBRANCH  11  16
BRANCH  14  19
HETATM   19  C   UNL     1     -10.645  15.489  66.017  1.00  0.00    -0.325 C  
HETATM   20  O   UNL     1     -10.363  16.768  66.552  1.00  0.00    -0.304 OA 
HETATM   21  H   UNL     1     -10.804  17.437  66.042  1.00  0.00     0.000 HD 
ENDBRANCH  14  19
ENDBRANCH   8   9
BRANCH   8  22
HETATM   22  C   UNL     1      -9.350  10.596  66.184  1.00  0.00    -0.177 C  
HETATM   23  H   UNL     1     -10.488   9.383  65.209  1.00  0.00     0.000 HD 
HETATM   24  O   UNL     1     -10.421   9.675  66.111  1.00  0.00    -0.179 OA 
ENDBRANCH   8  22
ENDBRANCH   6   8
ENDBRANCH   4   6
ENDBRANCH   3   4
TORSDOF 7
ENDMDL
MODEL      168
REMARK 921   NORMALIZED FREE ENERGY PREDICTED BY IDOCK:   -3.12 KCAL/MOL
REMARK 922        TOTAL FREE ENERGY PREDICTED BY IDOCK:   -5.92 KCAL/MOL
REMARK 923 INTER-LIGAND FREE ENERGY PREDICTED BY IDOCK:   -4.96 KCAL/MOL
REMARK 924 INTRA-LIGAND FREE ENERGY PREDICTED BY IDOCK:   -0.97 KCAL/MOL
REMARK 927      BINDING AFFINITY PREDICTED BY RF-SCORE:    0.00 PKD
ROOT
HETATM    1  O   UNL     1     -11.798  16.739  72.060  1.00  0.00    -0.608 OA 
HETATM    2  H   UNL     1     -12.165  17.218  72.794  1.00  0.00     0.000 HD 
HETATM    3  C   UNL     1     -11.872  15.376  72.406  1.00  0.00    -0.459 C  
ENDROOT
BRANCH   3   4
HETATM    4  N   UNL     1     -11.323  14.659  71.308  1.00  0.00    -0.525 N  
HETATM    5  H   UNL     1     -10.461  14.127  71.428  1.00  0.00     0.000 HD 
BRANCH   4   6
HETATM    6  C   UNL     1     -11.944  14.681  70.095  1.00  0.00    -0.313 C  
HETATM    7  O   UNL     1     -12.738  15.569  69.793  1.00  0.00    -0.189 OA 
BRANCH   6   8
HETATM    8  N   UNL     1     -11.582  13.688  69.206  1.00  0.00    -0.291 N  
BRANCH   8   9
HETATM    9  C   UNL     1     -10.784  14.078  68.061  1.00  0.00    -0.246 C  
HETATM   10  O   UNL     1     -12.629  14.055  66.401  1.00  0.00    -0.428 OA 
HETATM   11  N   UNL     1      -9.596  13.289  67.834  1.00  0.00    -0.210 N  
HETATM   12  C   UNL     1     -11.442  13.906  66.674  1.00  0.00    -0.355 C  
HETATM   13  O   UNL     1      -8.308  12.763  65.980  1.00  0.00     0.566 OA 
HETATM   14  N   UNL     1     -10.452  13.596  65.788  1.00  0.00    -0.287 N  
HETATM   15  C   UNL     1      -9.342  13.191  66.471  1.00  0.00    -0.216 C  
BRANCH  11  16
HETATM   16  C   UNL     1      -8.553  13.096  68.798  1.00  0.00     0.149 C  
HETATM   17  H   UNL     1      -7.314  14.225  69.778  1.00  0.00     0.000 HD 
HETATM   18  O   UNL     1      -8.005  14.352  69.139  1.00  0.00    -0.103 OA 
ENDBRANCH  11  16
BRANCH  14  19
HETATM   19  C   UNL     1     -10.643  13.286  64.404  1.00  0.00    -0.419 C  
HETATM   20  O   UNL     1      -9.787  12.224  64.025  1.00  0.00    -0.523 OA 
HETATM   21  H   UNL     1      -9.914  12.018  63.107  1.00  0.00     0.000 HD 
ENDBRANCH  14  19
ENDBRANCH   8   9
BRANCH   8  22
HETATM   22  C   UNL     1     -12.138  12.356  69.212  1.00  0.00    -0.165 C  
HETATM   23  H   UNL     1     -12.699  11.103  70.565  1.00  0.00     0.000 HD 
HETATM   24  O   UNL     1     -12.333  11.980  70.561  1.00  0.00    -0.336 OA 
ENDBRANCH   8  22
ENDBRANCH   6   8
ENDBRANCH   4   6
ENDBRANCH   3   4
TORSDOF 7
ENDMDL
MODEL      169
REMARK 921   NORMALIZED FREE ENERGY PREDICTED BY IDOCK:   -3.11 KCAL/MOL
REMARK 922        TOTAL FREE ENERGY PREDICTED BY IDOCK:   -5.92 KCAL/MOL
REMARK 923 INTER-LIGAND FREE ENERGY PREDICTED BY IDOCK:   -4.83 KCAL/MOL
REMARK 924 INTRA-LIGAND FREE ENERGY PREDICTED BY IDOCK:   -1.09 KCAL/MOL
REMARK 927      BINDING AFFINITY PREDICTED BY RF-SCORE:    0.00 PKD
ROOT
HETATM    1  O   UNL     1      -9.051  14.700  66.016  1.00  0.00    -0.498 OA 
HETATM    2  H   UNL     1      -8.948  15.549  66.429  1.00  0.00     0.000 HD 
HETATM    3  C   UNL     1      -8.842  13.745  67.030  1.00  0.00    -0.218 C  
ENDROOT
BRANCH   3   4
HETATM    4  N   UNL     1      -8.996  12.473  66.413  1.00  0.00    -0.402 N  
HETATM    5  H   UNL     1      -9.597  12.375  65.594  1.00  0.00     0.000 HD 
BRANCH   4   6
HETATM    6  C   UNL     1      -8.343  11.385  66.910  1.00  0.00    -0.159 C  
HETATM    7  O   UNL     1      -7.116  11.322  66.927  1.00  0.00    -0.123 OA 
BRANCH   6   8
HETATM    8  N   UNL     1      -9.136  10.393  67.451  1.00  0.00    -0.135 N  
BRANCH   8   9
HETATM    9  C   UNL     1      -9.236  10.332  68.895  1.00  0.00    -0.175 C  
HETATM   10  O   UNL     1      -7.955   8.226  69.187  1.00  0.00    -0.108 OA 
HETATM   11  N   UNL     1     -10.573  10.447  69.431  1.00  0.00    -0.224 N  
HETATM   12  C   UNL     1      -8.838   8.994  69.557  1.00  0.00    -0.146 C  
HETATM   13  O   UNL     1     -11.628   9.734  71.367  1.00  0.00    -0.364 OA 
HETATM   14  N   UNL     1      -9.622   8.835  70.661  1.00  0.00    -0.185 N  
HETATM   15  C   UNL     1     -10.691   9.682  70.585  1.00  0.00    -0.322 C  
BRANCH  11  16
HETATM   16  C   UNL     1     -11.458  11.544  69.175  1.00  0.00    -0.297 C  
HETATM   17  H   UNL     1     -12.867  11.951  67.902  1.00  0.00     0.000 HD 
HETATM   18  O   UNL     1     -12.280  11.224  68.072  1.00  0.00    -0.621 OA 
ENDBRANCH  11  16
BRANCH  14  19
HETATM   19  C   UNL     1      -9.625   7.691  71.522  1.00  0.00    -0.154 C  
HETATM   20  O   UNL     1      -9.813   6.514  70.759  1.00  0.00    -0.182 OA 
HETATM   21  H   UNL     1      -9.814   5.755  71.330  1.00  0.00     0.000 HD 
ENDBRANCH  14  19
ENDBRANCH   8   9
BRANCH   8  22
HETATM   22  C   UNL     1      -9.668   9.283  66.696  1.00  0.00    -0.219 C  
HETATM   23  H   UNL     1     -10.492   9.061  64.968  1.00  0.00     0.000 HD 
HETATM   24  O   UNL     1     -10.142   9.791  65.464  1.00  0.00    -0.301 OA 
ENDBRANCH   8  22
ENDBRANCH   6   8
ENDBRANCH   4   6
ENDBRANCH   3   4
TORSDOF 7
ENDMDL
MODEL      170
REMARK 921   NORMALIZED FREE ENERGY PREDICTED BY IDOCK:   -3.11 KCAL/MOL
REMARK 922        TOTAL FREE ENERGY PREDICTED BY IDOCK:   -5.92 KCAL/MOL
REMARK 923 INTER-LIGAND FREE ENERGY PREDICTED BY IDOCK:   -4.69 KCAL/MOL
REMARK 924 INTRA-LIGAND FREE ENERGY PREDICTED BY IDOCK:   -1.22 KCAL/MOL
REMARK 927      BINDING AFFINITY PREDICTED BY RF-SCORE:    0.00 PKD
ROOT
HETATM    1  O   UNL     1     -12.596  10.371  69.226  1.00  0.00    -0.686 OA 
HETATM    2  H   UNL     1     -12.909  11.176  68.831  1.00  0.00     0.000 HD 
HETATM    3  C   UNL     1     -12.140  10.718  70.513  1.00  0.00    -0.366 C  
ENDROOT
BRANCH   3   4
HETATM    4  N   UNL     1     -11.671   9.513  71.104  1.00  0.00    -0.333 N  
HETATM    5  H   UNL     1     -12.138   9.138  71.930  1.00  0.00     0.000 HD 
BRANCH   4   6
HETATM    6  C   UNL     1     -10.601   8.859  70.572  1.00  0.00    -0.220 C  
HETATM    7  O   UNL     1      -9.521   9.420  70.403  1.00  0.00    -0.231 OA 
BRANCH   6   8
HETATM    8  N   UNL     1     -10.781   7.517  70.297  1.00  0.00    -0.234 N  
BRANCH   8   9
HETATM    9  C   UNL     1      -9.806   6.876  69.439  1.00  0.00    -0.158 C  
HETATM   10  O   UNL     1     -11.134   7.002  67.346  1.00  0.00    -0.274 OA 
HETATM   11  N   UNL     1      -9.310   5.602  69.906  1.00  0.00    -0.144 N  
HETATM   12  C   UNL     1     -10.303   6.432  68.045  1.00  0.00    -0.193 C  
HETATM   13  O   UNL     1      -8.425   3.717  68.889  1.00  0.00    -0.071 OA 
HETATM   14  N   UNL     1      -9.617   5.302  67.709  1.00  0.00    -0.127 N  
HETATM   15  C   UNL     1      -9.038   4.771  68.825  1.00  0.00    -0.112 C  
BRANCH  11  16
HETATM   16  C   UNL     1      -8.685   5.392  71.178  1.00  0.00    -0.129 C  
HETATM   17  H   UNL     1      -9.067   4.369  72.785  1.00  0.00     0.000 HD 
HETATM   18  O   UNL     1      -9.481   4.509  71.941  1.00  0.00    -0.135 OA 
ENDBRANCH  11  16
BRANCH  14  19
HETATM   19  C   UNL     1      -9.824   4.525  66.524  1.00  0.00    -0.227 C  
HETATM   20  O   UNL     1      -9.841   5.371  65.389  1.00  0.00    -0.366 OA 
HETATM   21  H   UNL     1      -9.978   4.856  64.603  1.00  0.00     0.000 HD 
ENDBRANCH  14  19
ENDBRANCH   8   9
BRANCH   8  22
HETATM   22  C   UNL     1     -11.987   6.785  70.605  1.00  0.00    -0.362 C  
HETATM   23  H   UNL     1     -12.852   6.168  72.213  1.00  0.00     0.000 HD 
HETATM   24  O   UNL     1     -12.059   6.650  72.011  1.00  0.00    -0.321 OA 
ENDBRANCH   8  22
ENDBRANCH   6   8
ENDBRANCH   4   6
ENDBRANCH   3   4
TORSDOF 7
ENDMDL
MODEL      171
REMARK 921   NORMALIZED FREE ENERGY PREDICTED BY IDOCK:   -3.10 KCAL/MOL
REMARK 922        TOTAL FREE ENERGY PREDICTED BY IDOCK:   -5.89 KCAL/MOL
REMARK 923 INTER-LIGAND FREE ENERGY PREDICTED BY IDOCK:   -4.75 KCAL/MOL
REMARK 924 INTRA-LIGAND FREE ENERGY PREDICTED BY IDOCK:   -1.14 KCAL/MOL
REMARK 927      BINDING AFFINITY PREDICTED BY RF-SCORE:    0.00 PKD
ROOT
HETATM    1  O   UNL     1      -7.925   9.348  70.983  1.00  0.00    -0.303 OA 
HETATM    2  H   UNL     1      -7.936   8.735  71.708  1.00  0.00     0.000 HD 
HETATM    3  C   UNL     1      -9.264   9.493  70.571  1.00  0.00    -0.225 C  
ENDROOT
BRANCH   3   4
HETATM    4  N   UNL     1      -9.246  10.411  69.485  1.00  0.00    -0.373 N  
HETATM    5  H   UNL     1      -9.348  11.410  69.663  1.00  0.00     0.000 HD 
BRANCH   4   6
HETATM    6  C   UNL     1      -9.093   9.960  68.208  1.00  0.00    -0.122 C  
HETATM    7  O   UNL     1      -8.909   8.771  67.962  1.00  0.00    -0.139 OA 
BRANCH   6   8
HETATM    8  N   UNL     1      -9.222  10.904  67.209  1.00  0.00    -0.151 N  
BRANCH   8   9
HETATM    9  C   UNL     1      -9.838  12.167  67.561  1.00  0.00    -0.191 C  
HETATM   10  O   UNL     1     -12.055  11.703  66.546  1.00  0.00    -0.405 OA 
HETATM   11  N   UNL     1      -9.099  13.348  67.175  1.00  0.00    -0.226 N  
HETATM   12  C   UNL     1     -11.177  12.498  66.863  1.00  0.00    -0.303 C  
HETATM   13  O   UNL     1      -9.657  15.543  66.685  1.00  0.00    -0.229 OA 
HETATM   14  N   UNL     1     -11.227  13.851  66.698  1.00  0.00    -0.313 N  
HETATM   15  C   UNL     1      -9.977  14.375  66.852  1.00  0.00    -0.261 C  
BRANCH  11  16
HETATM   16  C   UNL     1      -7.748  13.622  67.567  1.00  0.00    -0.173 C  
HETATM   17  H   UNL     1      -6.608  13.207  69.083  1.00  0.00     0.000 HD 
HETATM   18  O   UNL     1      -7.503  13.025  68.823  1.00  0.00    -0.111 OA 
ENDBRANCH  11  16
BRANCH  14  19
HETATM   19  C   UNL     1     -12.270  14.568  66.029  1.00  0.00    -0.252 C  
HETATM   20  O   UNL     1     -12.700  13.844  64.891  1.00  0.00    -0.648 OA 
HETATM   21  H   UNL     1     -13.392  14.320  64.447  1.00  0.00     0.000 HD 
ENDBRANCH  14  19
ENDBRANCH   8   9
BRANCH   8  22
HETATM   22  C   UNL     1      -9.009  10.631  65.807  1.00  0.00    -0.182 C  
HETATM   23  H   UNL     1      -7.476  10.490  64.648  1.00  0.00     0.000 HD 
HETATM   24  O   UNL     1      -7.616  10.670  65.570  1.00  0.00    -0.143 OA 
ENDBRANCH   8  22
ENDBRANCH   6   8
ENDBRANCH   4   6
ENDBRANCH   3   4
TORSDOF 7
ENDMDL
MODEL      172
REMARK 921   NORMALIZED FREE ENERGY PREDICTED BY IDOCK:   -3.09 KCAL/MOL
REMARK 922        TOTAL FREE ENERGY PREDICTED BY IDOCK:   -5.88 KCAL/MOL
REMARK 923 INTER-LIGAND FREE ENERGY PREDICTED BY IDOCK:   -5.02 KCAL/MOL
REMARK 924 INTRA-LIGAND FREE ENERGY PREDICTED BY IDOCK:   -0.86 KCAL/MOL
REMARK 927      BINDING AFFINITY PREDICTED BY RF-SCORE:    0.00 PKD
ROOT
HETATM    1  O   UNL     1      -7.827   9.977  69.799  1.00  0.00    -0.147 OA 
HETATM    2  H   UNL     1      -6.968   9.582  69.892  1.00  0.00     0.000 HD 
HETATM    3  C   UNL     1      -7.647  11.122  68.998  1.00  0.00    -0.119 C  
ENDROOT
BRANCH   3   4
HETATM    4  N   UNL     1      -8.932  11.713  68.859  1.00  0.00    -0.385 N  
HETATM    5  H   UNL     1      -9.593  11.682  69.635  1.00  0.00     0.000 HD 
BRANCH   4   6
HETATM    6  C   UNL     1      -9.285  12.322  67.691  1.00  0.00    -0.183 C  
HETATM    7  O   UNL     1      -8.493  13.022  67.064  1.00  0.00    -0.193 OA 
BRANCH   6   8
HETATM    8  N   UNL     1     -10.556  12.053  67.223  1.00  0.00    -0.217 N  
BRANCH   8   9
HETATM    9  C   UNL     1     -10.668  11.398  65.936  1.00  0.00    -0.255 C  
HETATM   10  O   UNL     1      -9.337   9.385  66.519  1.00  0.00    -0.151 OA 
HETATM   11  N   UNL     1     -10.299  12.203  64.795  1.00  0.00    -0.279 N  
HETATM   12  C   UNL     1      -9.720  10.203  65.689  1.00  0.00    -0.259 C  
HETATM   13  O   UNL     1      -9.502  11.758  62.665  1.00  0.00    -0.283 OA 
HETATM   14  N   UNL     1      -9.414  10.193  64.360  1.00  0.00    -0.290 N  
HETATM   15  C   UNL     1      -9.727  11.404  63.812  1.00  0.00    -0.287 C  
BRANCH  11  16
HETATM   16  C   UNL     1     -10.888  13.469  64.471  1.00  0.00    -0.410 C  
HETATM   17  H   UNL     1     -12.672  14.140  64.099  1.00  0.00     0.000 HD 
HETATM   18  O   UNL     1     -12.282  13.300  64.314  1.00  0.00    -0.428 OA 
ENDBRANCH  11  16
BRANCH  14  19
HETATM   19  C   UNL     1      -8.506   9.289  63.722  1.00  0.00    -0.191 C  
HETATM   20  O   UNL     1      -7.308   9.964  63.387  1.00  0.00    -0.125 OA 
HETATM   21  H   UNL     1      -6.706   9.363  62.964  1.00  0.00     0.000 HD 
ENDBRANCH  14  19
ENDBRANCH   8   9
BRANCH   8  22
HETATM   22  C   UNL     1     -11.762  12.590  67.808  1.00  0.00    -0.359 C  
HETATM   23  H   UNL     1     -13.068  11.972  69.084  1.00  0.00     0.000 HD 
HETATM   24  O   UNL     1     -12.274  11.619  68.700  1.00  0.00    -0.455 OA 
ENDBRANCH   8  22
ENDBRANCH   6   8
ENDBRANCH   4   6
ENDBRANCH   3   4
TORSDOF 7
ENDMDL
MODEL      173
REMARK 921   NORMALIZED FREE ENERGY PREDICTED BY IDOCK:   -3.08 KCAL/MOL
REMARK 922        TOTAL FREE ENERGY PREDICTED BY IDOCK:   -5.88 KCAL/MOL
REMARK 923 INTER-LIGAND FREE ENERGY PREDICTED BY IDOCK:   -4.46 KCAL/MOL
REMARK 924 INTRA-LIGAND FREE ENERGY PREDICTED BY IDOCK:   -1.41 KCAL/MOL
REMARK 927      BINDING AFFINITY PREDICTED BY RF-SCORE:    0.00 PKD
ROOT
HETATM    1  O   UNL     1      -5.978   9.756  72.530  1.00  0.00    -0.292 OA 
HETATM    2  H   UNL     1      -5.748   9.853  73.446  1.00  0.00     0.000 HD 
HETATM    3  C   UNL     1      -6.722   8.563  72.437  1.00  0.00    -0.077 C  
ENDROOT
BRANCH   3   4
HETATM    4  N   UNL     1      -7.066   8.418  71.065  1.00  0.00    -0.055 N  
HETATM    5  H   UNL     1      -6.784   7.581  70.556  1.00  0.00     0.000 HD 
BRANCH   4   6
HETATM    6  C   UNL     1      -7.771   9.395  70.428  1.00  0.00    -0.153 C  
HETATM    7  O   UNL     1      -7.262  10.476  70.142  1.00  0.00    -0.162 OA 
BRANCH   6   8
HETATM    8  N   UNL     1      -9.065   9.076  70.065  1.00  0.00    -0.163 N  
BRANCH   8   9
HETATM    9  C   UNL     1     -10.133   9.548  70.923  1.00  0.00    -0.260 C  
HETATM   10  O   UNL     1     -10.353   7.479  72.277  1.00  0.00    -0.201 OA 
HETATM   11  N   UNL     1     -11.284  10.092  70.240  1.00  0.00    -0.290 N  
HETATM   12  C   UNL     1     -10.855   8.479  71.773  1.00  0.00    -0.304 C  
HETATM   13  O   UNL     1     -13.534  10.318  70.747  1.00  0.00    -0.278 OA 
HETATM   14  N   UNL     1     -12.156   8.869  71.900  1.00  0.00    -0.348 N  
HETATM   15  C   UNL     1     -12.440   9.819  70.962  1.00  0.00    -0.323 C  
BRANCH  11  16
HETATM   16  C   UNL     1     -11.234  11.174  69.302  1.00  0.00    -0.267 C  
HETATM   17  H   UNL     1     -11.634  11.427  67.418  1.00  0.00     0.000 HD 
HETATM   18  O   UNL     1     -11.667  10.709  68.040  1.00  0.00    -0.495 OA 
ENDBRANCH  11  16
BRANCH  14  19
HETATM   19  C   UNL     1     -13.187   8.124  72.556  1.00  0.00     0.015 C  
HETATM   20  O   UNL     1     -13.254   6.817  72.019  1.00  0.00    -0.531 OA 
HETATM   21  H   UNL     1     -13.937   6.322  72.454  1.00  0.00     0.000 HD 
ENDBRANCH  14  19
ENDBRANCH   8   9
BRANCH   8  22
HETATM   22  C   UNL     1      -9.403   8.116  69.041  1.00  0.00    -0.147 C  
HETATM   23  H   UNL     1      -8.997   6.263  68.700  1.00  0.00     0.000 HD 
HETATM   24  O   UNL     1      -8.774   6.894  69.374  1.00  0.00    -0.132 OA 
ENDBRANCH   8  22
ENDBRANCH   6   8
ENDBRANCH   4   6
ENDBRANCH   3   4
TORSDOF 7
ENDMDL
MODEL      174
REMARK 921   NORMALIZED FREE ENERGY PREDICTED BY IDOCK:   -3.08 KCAL/MOL
REMARK 922        TOTAL FREE ENERGY PREDICTED BY IDOCK:   -5.86 KCAL/MOL
REMARK 923 INTER-LIGAND FREE ENERGY PREDICTED BY IDOCK:   -4.96 KCAL/MOL
REMARK 924 INTRA-LIGAND FREE ENERGY PREDICTED BY IDOCK:   -0.90 KCAL/MOL
REMARK 927      BINDING AFFINITY PREDICTED BY RF-SCORE:    0.00 PKD
ROOT
HETATM    1  O   UNL     1      -8.766   8.044  63.298  1.00  0.00    -0.390 OA 
HETATM    2  H   UNL     1      -8.448   8.238  62.424  1.00  0.00     0.000 HD 
HETATM    3  C   UNL     1      -8.694   9.251  64.019  1.00  0.00    -0.171 C  
ENDROOT
BRANCH   3   4
HETATM    4  N   UNL     1      -9.171   8.960  65.327  1.00  0.00    -0.420 N  
HETATM    5  H   UNL     1      -9.629   8.068  65.513  1.00  0.00     0.000 HD 
BRANCH   4   6
HETATM    6  C   UNL     1      -9.018   9.868  66.331  1.00  0.00    -0.147 C  
HETATM    7  O   UNL     1      -7.989   9.922  67.000  1.00  0.00    -0.108 OA 
BRANCH   6   8
HETATM    8  N   UNL     1     -10.054  10.763  66.508  1.00  0.00    -0.220 N  
BRANCH   8   9
HETATM    9  C   UNL     1      -9.867  12.108  66.004  1.00  0.00    -0.243 C  
HETATM   10  O   UNL     1      -9.133  13.121  68.147  1.00  0.00    -0.193 OA 
HETATM   11  N   UNL     1     -10.991  12.666  65.287  1.00  0.00    -0.280 N  
HETATM   12  C   UNL     1      -9.695  13.221  67.062  1.00  0.00    -0.238 C  
HETATM   13  O   UNL     1     -11.771  14.809  64.875  1.00  0.00    -0.375 OA 
HETATM   14  N   UNL     1     -10.250  14.358  66.552  1.00  0.00    -0.268 N  
HETATM   15  C   UNL     1     -11.059  14.037  65.501  1.00  0.00    -0.309 C  
BRANCH  11  16
HETATM   16  C   UNL     1     -11.601  12.063  64.139  1.00  0.00    -0.379 C  
HETATM   17  H   UNL     1     -11.052  11.586  62.338  1.00  0.00     0.000 HD 
HETATM   18  O   UNL     1     -10.648  11.986  63.100  1.00  0.00    -0.383 OA 
ENDBRANCH  11  16
BRANCH  14  19
HETATM   19  C   UNL     1     -10.366  15.608  67.241  1.00  0.00    -0.277 C  
HETATM   20  O   UNL     1      -9.236  15.810  68.068  1.00  0.00    -0.187 OA 
HETATM   21  H   UNL     1      -9.312  16.638  68.525  1.00  0.00     0.000 HD 
ENDBRANCH  14  19
ENDBRANCH   8   9
BRANCH   8  22
HETATM   22  C   UNL     1     -11.195  10.520  67.359  1.00  0.00    -0.173 C  
HETATM   23  H   UNL     1     -11.457   9.945  69.181  1.00  0.00     0.000 HD 
HETATM   24  O   UNL     1     -10.707  10.106  68.620  1.00  0.00    -0.202 OA 
ENDBRANCH   8  22
ENDBRANCH   6   8
ENDBRANCH   4   6
ENDBRANCH   3   4
TORSDOF 7
ENDMDL
MODEL      175
REMARK 921   NORMALIZED FREE ENERGY PREDICTED BY IDOCK:   -3.07 KCAL/MOL
REMARK 922        TOTAL FREE ENERGY PREDICTED BY IDOCK:   -5.86 KCAL/MOL
REMARK 923 INTER-LIGAND FREE ENERGY PREDICTED BY IDOCK:   -5.59 KCAL/MOL
REMARK 924 INTRA-LIGAND FREE ENERGY PREDICTED BY IDOCK:   -0.26 KCAL/MOL
REMARK 927      BINDING AFFINITY PREDICTED BY RF-SCORE:    0.00 PKD
ROOT
HETATM    1  O   UNL     1      -7.968   8.580  73.399  1.00  0.00    -0.363 OA 
HETATM    2  H   UNL     1      -7.233   8.377  73.965  1.00  0.00     0.000 HD 
HETATM    3  C   UNL     1      -9.025   7.746  73.814  1.00  0.00    -0.277 C  
ENDROOT
BRANCH   3   4
HETATM    4  N   UNL     1     -10.125   8.051  72.967  1.00  0.00    -0.302 N  
HETATM    5  H   UNL     1     -11.075   7.840  73.273  1.00  0.00     0.000 HD 
BRANCH   4   6
HETATM    6  C   UNL     1      -9.915   8.622  71.748  1.00  0.00    -0.301 C  
HETATM    7  O   UNL     1      -8.942   9.342  71.532  1.00  0.00    -0.316 OA 
BRANCH   6   8
HETATM    8  N   UNL     1     -10.818   8.294  70.756  1.00  0.00    -0.223 N  
BRANCH   8   9
HETATM    9  C   UNL     1     -11.611   9.369  70.195  1.00  0.00    -0.078 C  
HETATM   10  O   UNL     1      -9.975  10.064  68.463  1.00  0.00    -0.154 OA 
HETATM   11  N   UNL     1     -12.111  10.334  71.147  1.00  0.00    -0.371 N  
HETATM   12  C   UNL     1     -10.877  10.342  69.246  1.00  0.00    -0.241 C  
HETATM   13  O   UNL     1     -12.729  12.565  71.046  1.00  0.00    -0.326 OA 
HETATM   14  N   UNL     1     -11.444  11.572  69.405  1.00  0.00    -0.283 N  
HETATM   15  C   UNL     1     -12.166  11.594  70.564  1.00  0.00    -0.361 C  
BRANCH  11  16
HETATM   16  C   UNL     1     -12.920  10.008  72.284  1.00  0.00    -0.265 C  
HETATM   17  H   UNL     1     -14.399   8.808  72.665  1.00  0.00     0.000 HD 
HETATM   18  O   UNL     1     -13.862   9.024  71.911  1.00  0.00    -0.404 OA 
ENDBRANCH  11  16
BRANCH  14  19
HETATM   19  C   UNL     1     -11.012  12.776  68.762  1.00  0.00    -0.250 C  
HETATM   20  O   UNL     1     -10.718  13.763  69.732  1.00  0.00    -0.439 OA 
HETATM   21  H   UNL     1     -10.432  14.562  69.306  1.00  0.00     0.000 HD 
ENDBRANCH  14  19
ENDBRANCH   8   9
BRANCH   8  22
HETATM   22  C   UNL     1     -11.190   6.941  70.418  1.00  0.00    -0.312 C  
HETATM   23  H   UNL     1     -12.158   5.519  71.287  1.00  0.00     0.000 HD 
HETATM   24  O   UNL     1     -11.914   6.409  71.510  1.00  0.00    -0.327 OA 
ENDBRANCH   8  22
ENDBRANCH   6   8
ENDBRANCH   4   6
ENDBRANCH   3   4
TORSDOF 7
ENDMDL
MODEL      176
REMARK 921   NORMALIZED FREE ENERGY PREDICTED BY IDOCK:   -3.06 KCAL/MOL
REMARK 922        TOTAL FREE ENERGY PREDICTED BY IDOCK:   -5.84 KCAL/MOL
REMARK 923 INTER-LIGAND FREE ENERGY PREDICTED BY IDOCK:   -4.85 KCAL/MOL
REMARK 924 INTRA-LIGAND FREE ENERGY PREDICTED BY IDOCK:   -0.99 KCAL/MOL
REMARK 927      BINDING AFFINITY PREDICTED BY RF-SCORE:    0.00 PKD
ROOT
HETATM    1  O   UNL     1     -12.843  14.560  69.720  1.00  0.00    -0.552 OA 
HETATM    2  H   UNL     1     -12.788  15.082  70.512  1.00  0.00     0.000 HD 
HETATM    3  C   UNL     1     -11.748  13.676  69.756  1.00  0.00    -0.297 C  
ENDROOT
BRANCH   3   4
HETATM    4  N   UNL     1     -11.831  12.895  68.571  1.00  0.00    -0.323 N  
HETATM    5  H   UNL     1     -12.001  11.891  68.635  1.00  0.00     0.000 HD 
BRANCH   4   6
HETATM    6  C   UNL     1     -11.683  13.483  67.351  1.00  0.00    -0.380 C  
HETATM    7  O   UNL     1     -12.418  14.395  66.981  1.00  0.00    -0.260 OA 
BRANCH   6   8
HETATM    8  N   UNL     1     -10.623  13.040  66.584  1.00  0.00    -0.265 N  
BRANCH   8   9
HETATM    9  C   UNL     1      -9.715  12.088  67.190  1.00  0.00    -0.197 C  
HETATM   10  O   UNL     1      -8.100  13.751  68.078  1.00  0.00    -0.137 OA 
HETATM   11  N   UNL     1      -9.257  11.027  66.323  1.00  0.00    -0.176 N  
HETATM   12  C   UNL     1      -8.338  12.635  67.629  1.00  0.00    -0.174 C  
HETATM   13  O   UNL     1      -7.376   9.675  66.240  1.00  0.00    -0.092 OA 
HETATM   14  N   UNL     1      -7.429  11.630  67.466  1.00  0.00    -0.115 N  
HETATM   15  C   UNL     1      -7.956  10.667  66.655  1.00  0.00    -0.134 C  
BRANCH  11  16
HETATM   16  C   UNL     1     -10.121  10.122  65.624  1.00  0.00    -0.254 C  
HETATM   17  H   UNL     1     -10.536   9.720  63.770  1.00  0.00     0.000 HD 
HETATM   18  O   UNL     1      -9.963  10.319  64.234  1.00  0.00    -0.328 OA 
ENDBRANCH  11  16
BRANCH  14  19
HETATM   19  C   UNL     1      -6.019  11.740  67.691  1.00  0.00    -0.072 C  
HETATM   20  O   UNL     1      -5.436  12.564  66.699  1.00  0.00    -0.427 OA 
HETATM   21  H   UNL     1      -4.501  12.637  66.848  1.00  0.00     0.000 HD 
ENDBRANCH  14  19
ENDBRANCH   8   9
BRANCH   8  22
HETATM   22  C   UNL     1     -10.230  13.635  65.329  1.00  0.00    -0.323 C  
HETATM   23  H   UNL     1     -10.895  13.601  63.520  1.00  0.00     0.000 HD 
HETATM   24  O   UNL     1     -11.154  13.210  64.346  1.00  0.00    -0.345 OA 
ENDBRANCH   8  22
ENDBRANCH   6   8
ENDBRANCH   4   6
ENDBRANCH   3   4
TORSDOF 7
ENDMDL
MODEL      177
REMARK 921   NORMALIZED FREE ENERGY PREDICTED BY IDOCK:   -3.05 KCAL/MOL
REMARK 922        TOTAL FREE ENERGY PREDICTED BY IDOCK:   -5.83 KCAL/MOL
REMARK 923 INTER-LIGAND FREE ENERGY PREDICTED BY IDOCK:   -4.63 KCAL/MOL
REMARK 924 INTRA-LIGAND FREE ENERGY PREDICTED BY IDOCK:   -1.20 KCAL/MOL
REMARK 927      BINDING AFFINITY PREDICTED BY RF-SCORE:    0.00 PKD
ROOT
HETATM    1  O   UNL     1      -7.976   7.055  70.906  1.00  0.00    -0.096 OA 
HETATM    2  H   UNL     1      -7.322   6.561  70.426  1.00  0.00     0.000 HD 
HETATM    3  C   UNL     1      -9.062   6.180  71.102  1.00  0.00    -0.146 C  
ENDROOT
BRANCH   3   4
HETATM    4  N   UNL     1     -10.040   6.919  71.822  1.00  0.00    -0.185 N  
HETATM    5  H   UNL     1     -10.743   6.428  72.374  1.00  0.00     0.000 HD 
BRANCH   4   6
HETATM    6  C   UNL     1     -10.042   8.281  71.776  1.00  0.00    -0.224 C  
HETATM    7  O   UNL     1      -9.238   8.949  72.422  1.00  0.00    -0.362 OA 
BRANCH   6   8
HETATM    8  N   UNL     1     -10.953   8.861  70.915  1.00  0.00    -0.250 N  
BRANCH   8   9
HETATM    9  C   UNL     1     -10.448   9.832  69.966  1.00  0.00    -0.270 C  
HETATM   10  O   UNL     1     -11.904  11.714  70.674  1.00  0.00    -0.321 OA 
HETATM   11  N   UNL     1     -10.437   9.406  68.586  1.00  0.00    -0.207 N  
HETATM   12  C   UNL     1     -11.277  11.126  69.799  1.00  0.00    -0.245 C  
HETATM   13  O   UNL     1     -10.531  10.484  66.537  1.00  0.00    -0.241 OA 
HETATM   14  N   UNL     1     -11.153  11.525  68.501  1.00  0.00    -0.216 N  
HETATM   15  C   UNL     1     -10.677  10.490  67.750  1.00  0.00    -0.272 C  
BRANCH  11  16
HETATM   16  C   UNL     1      -9.770   8.232  68.105  1.00  0.00    -0.158 C  
HETATM   17  H   UNL     1      -7.934   7.620  67.945  1.00  0.00     0.000 HD 
HETATM   18  O   UNL     1      -8.377   8.398  68.264  1.00  0.00    -0.128 OA 
ENDBRANCH  11  16
BRANCH  14  19
HETATM   19  C   UNL     1     -11.821  12.644  67.908  1.00  0.00    -0.332 C  
HETATM   20  O   UNL     1     -12.348  12.278  66.647  1.00  0.00    -0.471 OA 
HETATM   21  H   UNL     1     -12.792  13.020  66.254  1.00  0.00     0.000 HD 
ENDBRANCH  14  19
ENDBRANCH   8   9
BRANCH   8  22
HETATM   22  C   UNL     1     -12.385   8.746  71.057  1.00  0.00    -0.151 C  
HETATM   23  H   UNL     1     -13.596   8.281  72.483  1.00  0.00     0.000 HD 
HETATM   24  O   UNL     1     -12.654   8.357  72.390  1.00  0.00    -0.354 OA 
ENDBRANCH   8  22
ENDBRANCH   6   8
ENDBRANCH   4   6
ENDBRANCH   3   4
TORSDOF 7
ENDMDL
MODEL      178
REMARK 921   NORMALIZED FREE ENERGY PREDICTED BY IDOCK:   -3.05 KCAL/MOL
REMARK 922        TOTAL FREE ENERGY PREDICTED BY IDOCK:   -5.83 KCAL/MOL
REMARK 923 INTER-LIGAND FREE ENERGY PREDICTED BY IDOCK:   -5.34 KCAL/MOL
REMARK 924 INTRA-LIGAND FREE ENERGY PREDICTED BY IDOCK:   -0.49 KCAL/MOL
REMARK 927      BINDING AFFINITY PREDICTED BY RF-SCORE:    0.00 PKD
ROOT
HETATM    1  O   UNL     1     -14.185   9.390  72.660  1.00  0.00    -0.755 OA 
HETATM    2  H   UNL     1     -14.659   9.980  73.234  1.00  0.00     0.000 HD 
HETATM    3  C   UNL     1     -13.093  10.125  72.158  1.00  0.00    -0.364 C  
ENDROOT
BRANCH   3   4
HETATM    4  N   UNL     1     -12.384   9.242  71.298  1.00  0.00    -0.320 N  
HETATM    5  H   UNL     1     -12.761   8.315  71.100  1.00  0.00     0.000 HD 
BRANCH   4   6
HETATM    6  C   UNL     1     -11.204   9.630  70.739  1.00  0.00    -0.336 C  
HETATM    7  O   UNL     1     -11.104  10.678  70.105  1.00  0.00    -0.288 OA 
BRANCH   6   8
HETATM    8  N   UNL     1     -10.117   8.813  70.980  1.00  0.00    -0.217 N  
BRANCH   8   9
HETATM    9  C   UNL     1      -9.571   8.080  69.855  1.00  0.00    -0.171 C  
HETATM   10  O   UNL     1      -8.499  10.020  68.738  1.00  0.00    -0.114 OA 
HETATM   11  N   UNL     1     -10.514   7.259  69.131  1.00  0.00    -0.212 N  
HETATM   12  C   UNL     1      -9.049   8.926  68.672  1.00  0.00    -0.137 C  
HETATM   13  O   UNL     1     -10.664   6.461  66.961  1.00  0.00    -0.282 OA 
HETATM   14  N   UNL     1      -9.274   8.213  67.531  1.00  0.00    -0.136 N  
HETATM   15  C   UNL     1     -10.180   7.224  67.783  1.00  0.00    -0.195 C  
BRANCH  11  16
HETATM   16  C   UNL     1     -11.314   6.228  69.724  1.00  0.00    -0.436 C  
HETATM   17  H   UNL     1     -10.992   4.604  70.739  1.00  0.00     0.000 HD 
HETATM   18  O   UNL     1     -10.463   5.288  70.347  1.00  0.00    -0.271 OA 
ENDBRANCH  11  16
BRANCH  14  19
HETATM   19  C   UNL     1      -9.002   8.667  66.200  1.00  0.00    -0.180 C  
HETATM   20  O   UNL     1      -8.725   7.563  65.361  1.00  0.00    -0.311 OA 
HETATM   21  H   UNL     1      -8.546   7.864  64.478  1.00  0.00     0.000 HD 
ENDBRANCH  14  19
ENDBRANCH   8   9
BRANCH   8  22
HETATM   22  C   UNL     1      -9.649   8.460  72.299  1.00  0.00    -0.304 C  
HETATM   23  H   UNL     1      -7.935   8.380  73.178  1.00  0.00     0.000 HD 
HETATM   24  O   UNL     1      -8.243   8.612  72.309  1.00  0.00    -0.314 OA 
ENDBRANCH   8  22
ENDBRANCH   6   8
ENDBRANCH   4   6
ENDBRANCH   3   4
TORSDOF 7
ENDMDL
MODEL      179
REMARK 921   NORMALIZED FREE ENERGY PREDICTED BY IDOCK:   -3.05 KCAL/MOL
REMARK 922        TOTAL FREE ENERGY PREDICTED BY IDOCK:   -5.83 KCAL/MOL
REMARK 923 INTER-LIGAND FREE ENERGY PREDICTED BY IDOCK:   -4.58 KCAL/MOL
REMARK 924 INTRA-LIGAND FREE ENERGY PREDICTED BY IDOCK:   -1.25 KCAL/MOL
REMARK 927      BINDING AFFINITY PREDICTED BY RF-SCORE:    0.00 PKD
ROOT
HETATM    1  O   UNL     1      -7.664  11.198  69.510  1.00  0.00    -0.357 OA 
HETATM    2  H   UNL     1      -7.200  11.985  69.767  1.00  0.00     0.000 HD 
HETATM    3  C   UNL     1      -6.999  10.128  70.139  1.00  0.00    -0.155 C  
ENDROOT
BRANCH   3   4
HETATM    4  N   UNL     1      -7.694   8.949  69.754  1.00  0.00    -0.074 N  
HETATM    5  H   UNL     1      -7.615   8.602  68.798  1.00  0.00     0.000 HD 
BRANCH   4   6
HETATM    6  C   UNL     1      -8.467   8.282  70.657  1.00  0.00    -0.130 C  
HETATM    7  O   UNL     1      -8.309   8.421  71.867  1.00  0.00    -0.142 OA 
BRANCH   6   8
HETATM    8  N   UNL     1      -9.474   7.495  70.134  1.00  0.00    -0.161 N  
BRANCH   8   9
HETATM    9  C   UNL     1     -10.817   8.041  70.140  1.00  0.00    -0.242 C  
HETATM   10  O   UNL     1     -10.306  10.084  68.828  1.00  0.00    -0.180 OA 
HETATM   11  N   UNL     1     -11.436   8.152  71.441  1.00  0.00    -0.256 N  
HETATM   12  C   UNL     1     -10.963   9.511  69.690  1.00  0.00    -0.212 C  
HETATM   13  O   UNL     1     -13.076   9.505  72.364  1.00  0.00    -0.413 OA 
HETATM   14  N   UNL     1     -11.993  10.055  70.401  1.00  0.00    -0.258 N  
HETATM   15  C   UNL     1     -12.269   9.264  71.478  1.00  0.00    -0.362 C  
BRANCH  11  16
HETATM   16  C   UNL     1     -11.617   7.059  72.349  1.00  0.00    -0.245 C  
HETATM   17  H   UNL     1     -10.943   6.553  74.099  1.00  0.00     0.000 HD 
HETATM   18  O   UNL     1     -10.824   7.278  73.497  1.00  0.00    -0.375 OA 
ENDBRANCH  11  16
BRANCH  14  19
HETATM   19  C   UNL     1     -12.415  11.422  70.339  1.00  0.00    -0.261 C  
HETATM   20  O   UNL     1     -11.300  12.262  70.111  1.00  0.00    -0.506 OA 
HETATM   21  H   UNL     1     -11.580  13.168  70.070  1.00  0.00     0.000 HD 
ENDBRANCH  14  19
ENDBRANCH   8   9
BRANCH   8  22
HETATM   22  C   UNL     1      -9.322   6.097  69.811  1.00  0.00    -0.151 C  
HETATM   23  H   UNL     1      -7.842   4.929  69.407  1.00  0.00     0.000 HD 
HETATM   24  O   UNL     1      -7.942   5.850  69.620  1.00  0.00    -0.098 OA 
ENDBRANCH   8  22
ENDBRANCH   6   8
ENDBRANCH   4   6
ENDBRANCH   3   4
TORSDOF 7
ENDMDL
MODEL      180
REMARK 921   NORMALIZED FREE ENERGY PREDICTED BY IDOCK:   -3.05 KCAL/MOL
REMARK 922        TOTAL FREE ENERGY PREDICTED BY IDOCK:   -5.82 KCAL/MOL
REMARK 923 INTER-LIGAND FREE ENERGY PREDICTED BY IDOCK:   -5.31 KCAL/MOL
REMARK 924 INTRA-LIGAND FREE ENERGY PREDICTED BY IDOCK:   -0.52 KCAL/MOL
REMARK 927      BINDING AFFINITY PREDICTED BY RF-SCORE:    0.00 PKD
ROOT
HETATM    1  O   UNL     1      -7.502  17.293  67.216  1.00  0.00    -0.166 OA 
HETATM    2  H   UNL     1      -6.798  17.795  66.824  1.00  0.00     0.000 HD 
HETATM    3  C   UNL     1      -7.607  16.109  66.460  1.00  0.00    -0.133 C  
ENDROOT
BRANCH   3   4
HETATM    4  N   UNL     1      -8.662  15.358  67.048  1.00  0.00    -0.211 N  
HETATM    5  H   UNL     1      -8.549  14.971  67.985  1.00  0.00     0.000 HD 
BRANCH   4   6
HETATM    6  C   UNL     1      -9.821  15.151  66.363  1.00  0.00    -0.280 C  
HETATM    7  O   UNL     1      -9.822  14.740  65.205  1.00  0.00    -0.306 OA 
BRANCH   6   8
HETATM    8  N   UNL     1     -10.991  15.368  67.064  1.00  0.00    -0.321 N  
BRANCH   8   9
HETATM    9  C   UNL     1     -11.279  16.727  67.476  1.00  0.00     0.081 C  
HETATM   10  O   UNL     1     -11.036  17.767  65.235  1.00  0.00    -0.557 OA 
HETATM   11  N   UNL     1     -10.499  17.217  68.589  1.00  0.00    -0.354 N  
HETATM   12  C   UNL     1     -10.946  17.840  66.457  1.00  0.00     0.242 C  
HETATM   13  O   UNL     1      -9.815  19.309  69.315  1.00  0.00    -0.375 OA 
HETATM   14  N   UNL     1     -10.570  18.943  67.165  1.00  0.00    -0.444 N  
HETATM   15  C   UNL     1     -10.266  18.580  68.445  1.00  0.00    -0.372 C  
BRANCH  11  16
HETATM   16  C   UNL     1     -10.434  16.586  69.875  1.00  0.00    -0.166 C  
HETATM   17  H   UNL     1     -11.695  15.793  71.121  1.00  0.00     0.000 HD 
HETATM   18  O   UNL     1     -11.738  16.212  70.268  1.00  0.00    -0.316 OA 
ENDBRANCH  11  16
BRANCH  14  19
HETATM   19  C   UNL     1     -10.111  20.177  66.601  1.00  0.00    -0.454 C  
HETATM   20  O   UNL     1      -8.951  19.950  65.824  1.00  0.00    -0.427 OA 
HETATM   21  H   UNL     1      -8.647  20.768  65.449  1.00  0.00     0.000 HD 
ENDBRANCH  14  19
ENDBRANCH   8   9
BRANCH   8  22
HETATM   22  C   UNL     1     -11.810  14.314  67.614  1.00  0.00    -0.385 C  
HETATM   23  H   UNL     1     -13.182  13.140  66.939  1.00  0.00     0.000 HD 
HETATM   24  O   UNL     1     -12.642  13.833  66.577  1.00  0.00    -0.362 OA 
ENDBRANCH   8  22
ENDBRANCH   6   8
ENDBRANCH   4   6
ENDBRANCH   3   4
TORSDOF 7
ENDMDL
MODEL      181
REMARK 921   NORMALIZED FREE ENERGY PREDICTED BY IDOCK:   -3.04 KCAL/MOL
REMARK 922        TOTAL FREE ENERGY PREDICTED BY IDOCK:   -5.82 KCAL/MOL
REMARK 923 INTER-LIGAND FREE ENERGY PREDICTED BY IDOCK:   -4.91 KCAL/MOL
REMARK 924 INTRA-LIGAND FREE ENERGY PREDICTED BY IDOCK:   -0.91 KCAL/MOL
REMARK 927      BINDING AFFINITY PREDICTED BY RF-SCORE:    0.00 PKD
ROOT
HETATM    1  O   UNL     1      -6.813  14.638  67.745  1.00  0.00    -0.146 OA 
HETATM    2  H   UNL     1      -5.876  14.724  67.615  1.00  0.00     0.000 HD 
HETATM    3  C   UNL     1      -7.000  13.440  68.462  1.00  0.00    -0.102 C  
ENDROOT
BRANCH   3   4
HETATM    4  N   UNL     1      -8.403  13.312  68.657  1.00  0.00    -0.338 N  
HETATM    5  H   UNL     1      -8.800  13.437  69.589  1.00  0.00     0.000 HD 
BRANCH   4   6
HETATM    6  C   UNL     1      -9.218  13.021  67.605  1.00  0.00    -0.200 C  
HETATM    7  O   UNL     1      -9.072  13.558  66.509  1.00  0.00    -0.211 OA 
BRANCH   6   8
HETATM    8  N   UNL     1     -10.171  12.046  67.823  1.00  0.00    -0.198 N  
BRANCH   8   9
HETATM    9  C   UNL     1     -10.347  11.578  69.182  1.00  0.00    -0.056 C  
HETATM   10  O   UNL     1      -9.371   9.321  68.841  1.00  0.00    -0.147 OA 
HETATM   11  N   UNL     1     -11.682  11.715  69.719  1.00  0.00    -0.331 N  
HETATM   12  C   UNL     1     -10.161  10.062  69.417  1.00  0.00    -0.219 C  
HETATM   13  O   UNL     1     -12.913  10.620  71.348  1.00  0.00    -0.391 OA 
HETATM   14  N   UNL     1     -11.012   9.697  70.419  1.00  0.00    -0.275 N  
HETATM   15  C   UNL     1     -11.954  10.669  70.592  1.00  0.00    -0.367 C  
BRANCH  11  16
HETATM   16  C   UNL     1     -12.401  12.953  69.796  1.00  0.00    -0.055 C  
HETATM   17  H   UNL     1     -11.960  14.844  69.770  1.00  0.00     0.000 HD 
HETATM   18  O   UNL     1     -11.483  14.023  69.719  1.00  0.00    -0.258 OA 
ENDBRANCH  11  16
BRANCH  14  19
HETATM   19  C   UNL     1     -11.206   8.362  70.899  1.00  0.00    -0.262 C  
HETATM   20  O   UNL     1     -12.399   7.825  70.361  1.00  0.00    -0.459 OA 
HETATM   21  H   UNL     1     -12.528   6.939  70.679  1.00  0.00     0.000 HD 
ENDBRANCH  14  19
ENDBRANCH   8   9
BRANCH   8  22
HETATM   22  C   UNL     1     -10.822  11.303  66.769  1.00  0.00    -0.282 C  
HETATM   23  H   UNL     1     -12.420  11.520  65.714  1.00  0.00     0.000 HD 
HETATM   24  O   UNL     1     -11.992  12.009  66.407  1.00  0.00    -0.611 OA 
ENDBRANCH   8  22
ENDBRANCH   6   8
ENDBRANCH   4   6
ENDBRANCH   3   4
TORSDOF 7
ENDMDL
MODEL      182
REMARK 921   NORMALIZED FREE ENERGY PREDICTED BY IDOCK:   -3.04 KCAL/MOL
REMARK 922        TOTAL FREE ENERGY PREDICTED BY IDOCK:   -5.82 KCAL/MOL
REMARK 923 INTER-LIGAND FREE ENERGY PREDICTED BY IDOCK:   -4.83 KCAL/MOL
REMARK 924 INTRA-LIGAND FREE ENERGY PREDICTED BY IDOCK:   -0.99 KCAL/MOL
REMARK 927      BINDING AFFINITY PREDICTED BY RF-SCORE:    0.00 PKD
ROOT
HETATM    1  O   UNL     1     -12.476  10.898  68.777  1.00  0.00    -0.767 OA 
HETATM    2  H   UNL     1     -12.887  11.156  69.592  1.00  0.00     0.000 HD 
HETATM    3  C   UNL     1     -11.095  10.811  69.044  1.00  0.00    -0.253 C  
ENDROOT
BRANCH   3   4
HETATM    4  N   UNL     1     -10.479  10.424  67.823  1.00  0.00    -0.209 N  
HETATM    5  H   UNL     1     -11.026   9.945  67.107  1.00  0.00     0.000 HD 
BRANCH   4   6
HETATM    6  C   UNL     1      -9.161  10.691  67.605  1.00  0.00    -0.142 C  
HETATM    7  O   UNL     1      -8.279  10.206  68.311  1.00  0.00    -0.107 OA 
BRANCH   6   8
HETATM    8  N   UNL     1      -8.871  11.482  66.511  1.00  0.00    -0.187 N  
BRANCH   8   9
HETATM    9  C   UNL     1      -9.095  12.908  66.641  1.00  0.00    -0.177 C  
HETATM   10  O   UNL     1      -7.722  13.232  68.683  1.00  0.00    -0.129 OA 
HETATM   11  N   UNL     1     -10.479  13.323  66.626  1.00  0.00    -0.276 N  
HETATM   12  C   UNL     1      -8.678  13.550  67.983  1.00  0.00    -0.181 C  
HETATM   13  O   UNL     1     -11.657  15.126  67.482  1.00  0.00    -0.331 OA 
HETATM   14  N   UNL     1      -9.547  14.570  68.234  1.00  0.00    -0.206 N  
HETATM   15  C   UNL     1     -10.653  14.431  67.447  1.00  0.00    -0.270 C  
BRANCH  11  16
HETATM   16  C   UNL     1     -11.402  13.031  65.569  1.00  0.00    -0.300 C  
HETATM   17  H   UNL     1     -12.873  11.795  65.284  1.00  0.00     0.000 HD 
HETATM   18  O   UNL     1     -12.261  11.990  65.984  1.00  0.00    -0.546 OA 
ENDBRANCH  11  16
BRANCH  14  19
HETATM   19  C   UNL     1      -9.557  15.382  69.414  1.00  0.00    -0.270 C  
HETATM   20  O   UNL     1      -9.736  16.741  69.064  1.00  0.00    -0.259 OA 
HETATM   21  H   UNL     1      -9.744  17.279  69.846  1.00  0.00     0.000 HD 
ENDBRANCH  14  19
ENDBRANCH   8   9
BRANCH   8  22
HETATM   22  C   UNL     1      -8.595  10.966  65.191  1.00  0.00    -0.078 C  
HETATM   23  H   UNL     1      -7.185   9.928  64.385  1.00  0.00     0.000 HD 
HETATM   24  O   UNL     1      -7.367  10.267  65.253  1.00  0.00    -0.141 OA 
ENDBRANCH   8  22
ENDBRANCH   6   8
ENDBRANCH   4   6
ENDBRANCH   3   4
TORSDOF 7
ENDMDL
MODEL      183
REMARK 921   NORMALIZED FREE ENERGY PREDICTED BY IDOCK:   -3.04 KCAL/MOL
REMARK 922        TOTAL FREE ENERGY PREDICTED BY IDOCK:   -5.81 KCAL/MOL
REMARK 923 INTER-LIGAND FREE ENERGY PREDICTED BY IDOCK:   -4.53 KCAL/MOL
REMARK 924 INTRA-LIGAND FREE ENERGY PREDICTED BY IDOCK:   -1.28 KCAL/MOL
REMARK 927      BINDING AFFINITY PREDICTED BY RF-SCORE:    0.00 PKD
ROOT
HETATM    1  O   UNL     1     -12.233  10.667  68.477  1.00  0.00    -0.822 OA 
HETATM    2  H   UNL     1     -12.348  10.755  69.415  1.00  0.00     0.000 HD 
HETATM    3  C   UNL     1     -11.470  11.778  68.069  1.00  0.00    -0.319 C  
ENDROOT
BRANCH   3   4
HETATM    4  N   UNL     1     -11.299  11.645  66.663  1.00  0.00    -0.313 N  
HETATM    5  H   UNL     1     -12.115  11.643  66.050  1.00  0.00     0.000 HD 
BRANCH   4   6
HETATM    6  C   UNL     1     -10.050  11.521  66.133  1.00  0.00    -0.229 C  
HETATM    7  O   UNL     1      -9.084  12.108  66.614  1.00  0.00    -0.201 OA 
BRANCH   6   8
HETATM    8  N   UNL     1      -9.924  10.649  65.069  1.00  0.00    -0.283 N  
BRANCH   8   9
HETATM    9  C   UNL     1      -9.234   9.398  65.311  1.00  0.00    -0.238 C  
HETATM   10  O   UNL     1     -10.850   8.491  66.962  1.00  0.00    -0.211 OA 
HETATM   11  N   UNL     1      -7.836   9.516  65.656  1.00  0.00    -0.099 N  
HETATM   12  C   UNL     1      -9.704   8.580  66.534  1.00  0.00    -0.260 C  
HETATM   13  O   UNL     1      -6.330   8.225  66.853  1.00  0.00    -0.054 OA 
HETATM   14  N   UNL     1      -8.612   7.933  67.036  1.00  0.00    -0.126 N  
HETATM   15  C   UNL     1      -7.477   8.506  66.541  1.00  0.00    -0.088 C  
BRANCH  11  16
HETATM   16  C   UNL     1      -6.854  10.179  64.849  1.00  0.00    -0.129 C  
HETATM   17  H   UNL     1      -6.215  10.052  63.020  1.00  0.00     0.000 HD 
HETATM   18  O   UNL     1      -6.866   9.613  63.555  1.00  0.00    -0.101 OA 
ENDBRANCH  11  16
BRANCH  14  19
HETATM   19  C   UNL     1      -8.596   7.121  68.215  1.00  0.00    -0.122 C  
HETATM   20  O   UNL     1      -9.028   7.880  69.329  1.00  0.00    -0.144 OA 
HETATM   21  H   UNL     1      -9.017   7.341  70.111  1.00  0.00     0.000 HD 
ENDBRANCH  14  19
ENDBRANCH   8   9
BRANCH   8  22
HETATM   22  C   UNL     1     -10.214  10.999  63.699  1.00  0.00    -0.372 C  
HETATM   23  H   UNL     1     -10.746  12.602  62.769  1.00  0.00     0.000 HD 
HETATM   24  O   UNL     1     -10.554  12.372  63.671  1.00  0.00    -0.424 OA 
ENDBRANCH   8  22
ENDBRANCH   6   8
ENDBRANCH   4   6
ENDBRANCH   3   4
TORSDOF 7
ENDMDL
MODEL      184
REMARK 921   NORMALIZED FREE ENERGY PREDICTED BY IDOCK:   -3.03 KCAL/MOL
REMARK 922        TOTAL FREE ENERGY PREDICTED BY IDOCK:   -5.81 KCAL/MOL
REMARK 923 INTER-LIGAND FREE ENERGY PREDICTED BY IDOCK:   -4.81 KCAL/MOL
REMARK 924 INTRA-LIGAND FREE ENERGY PREDICTED BY IDOCK:   -1.00 KCAL/MOL
REMARK 927      BINDING AFFINITY PREDICTED BY RF-SCORE:    0.00 PKD
ROOT
HETATM    1  O   UNL     1     -12.254   7.540  71.561  1.00  0.00    -0.303 OA 
HETATM    2  H   UNL     1     -12.362   6.623  71.782  1.00  0.00     0.000 HD 
HETATM    3  C   UNL     1     -10.879   7.724  71.316  1.00  0.00    -0.231 C  
ENDROOT
BRANCH   3   4
HETATM    4  N   UNL     1     -10.717   9.098  70.985  1.00  0.00    -0.266 N  
HETATM    5  H   UNL     1     -11.460   9.763  71.197  1.00  0.00     0.000 HD 
BRANCH   4   6
HETATM    6  C   UNL     1      -9.571   9.528  70.385  1.00  0.00    -0.269 C  
HETATM    7  O   UNL     1      -8.500   9.556  70.986  1.00  0.00    -0.284 OA 
BRANCH   6   8
HETATM    8  N   UNL     1      -9.672   9.867  69.050  1.00  0.00    -0.183 N  
BRANCH   8   9
HETATM    9  C   UNL     1      -9.934  11.256  68.733  1.00  0.00    -0.193 C  
HETATM   10  O   UNL     1     -12.409  11.082  68.682  1.00  0.00    -0.539 OA 
HETATM   11  N   UNL     1      -9.221  11.778  67.589  1.00  0.00    -0.176 N  
HETATM   12  C   UNL     1     -11.371  11.601  68.284  1.00  0.00    -0.285 C  
HETATM   13  O   UNL     1      -9.598  13.477  66.060  1.00  0.00    -0.250 OA 
HETATM   14  N   UNL     1     -11.284  12.623  67.385  1.00  0.00    -0.274 N  
HETATM   15  C   UNL     1     -10.000  12.723  66.933  1.00  0.00    -0.232 C  
BRANCH  11  16
HETATM   16  C   UNL     1      -7.795  11.763  67.447  1.00  0.00    -0.155 C  
HETATM   17  H   UNL     1      -6.509  10.971  66.227  1.00  0.00     0.000 HD 
HETATM   18  O   UNL     1      -7.454  10.981  66.321  1.00  0.00    -0.144 OA 
ENDBRANCH  11  16
BRANCH  14  19
HETATM   19  C   UNL     1     -12.383  13.198  66.670  1.00  0.00    -0.141 C  
HETATM   20  O   UNL     1     -12.419  12.690  65.350  1.00  0.00    -0.601 OA 
HETATM   21  H   UNL     1     -13.148  13.071  64.876  1.00  0.00     0.000 HD 
ENDBRANCH  14  19
ENDBRANCH   8   9
BRANCH   8  22
HETATM   22  C   UNL     1      -9.774   8.905  67.978  1.00  0.00    -0.156 C  
HETATM   23  H   UNL     1      -8.593   7.615  67.168  1.00  0.00     0.000 HD 
HETATM   24  O   UNL     1      -8.527   8.247  67.873  1.00  0.00    -0.130 OA 
ENDBRANCH   8  22
ENDBRANCH   6   8
ENDBRANCH   4   6
ENDBRANCH   3   4
TORSDOF 7
ENDMDL
MODEL      185
REMARK 921   NORMALIZED FREE ENERGY PREDICTED BY IDOCK:   -3.01 KCAL/MOL
REMARK 922        TOTAL FREE ENERGY PREDICTED BY IDOCK:   -5.78 KCAL/MOL
REMARK 923 INTER-LIGAND FREE ENERGY PREDICTED BY IDOCK:   -4.51 KCAL/MOL
REMARK 924 INTRA-LIGAND FREE ENERGY PREDICTED BY IDOCK:   -1.27 KCAL/MOL
REMARK 927      BINDING AFFINITY PREDICTED BY RF-SCORE:    0.00 PKD
ROOT
HETATM    1  O   UNL     1     -10.140  13.046  68.711  1.00  0.00    -0.391 OA 
HETATM    2  H   UNL     1     -10.095  13.988  68.822  1.00  0.00     0.000 HD 
HETATM    3  C   UNL     1     -10.414  12.825  67.347  1.00  0.00    -0.228 C  
ENDROOT
BRANCH   3   4
HETATM    4  N   UNL     1     -10.481  11.414  67.180  1.00  0.00    -0.215 N  
HETATM    5  H   UNL     1      -9.971  10.968  66.418  1.00  0.00     0.000 HD 
BRANCH   4   6
HETATM    6  C   UNL     1     -11.225  10.658  68.035  1.00  0.00    -0.307 C  
HETATM    7  O   UNL     1     -12.400  10.923  68.275  1.00  0.00    -0.400 OA 
BRANCH   6   8
HETATM    8  N   UNL     1     -10.602   9.543  68.563  1.00  0.00    -0.219 N  
BRANCH   8   9
HETATM    9  C   UNL     1     -10.044   9.660  69.894  1.00  0.00    -0.246 C  
HETATM   10  O   UNL     1      -7.673   9.888  69.196  1.00  0.00    -0.083 OA 
HETATM   11  N   UNL     1     -10.428   8.621  70.822  1.00  0.00    -0.197 N  
HETATM   12  C   UNL     1      -8.510   9.516  70.011  1.00  0.00    -0.195 C  
HETATM   13  O   UNL     1      -9.478   7.683  72.717  1.00  0.00    -0.156 OA 
HETATM   14  N   UNL     1      -8.246   8.932  71.215  1.00  0.00    -0.169 N  
HETATM   15  C   UNL     1      -9.385   8.359  71.703  1.00  0.00    -0.214 C  
BRANCH  11  16
HETATM   16  C   UNL     1     -11.782   8.293  71.158  1.00  0.00    -0.280 C  
HETATM   17  H   UNL     1     -12.985   6.798  70.863  1.00  0.00     0.000 HD 
HETATM   18  O   UNL     1     -12.087   7.015  70.641  1.00  0.00    -0.341 OA 
ENDBRANCH  11  16
BRANCH  14  19
HETATM   19  C   UNL     1      -6.948   8.554  71.689  1.00  0.00    -0.088 C  
HETATM   20  O   UNL     1      -6.637   9.274  72.867  1.00  0.00    -0.295 OA 
HETATM   21  H   UNL     1      -5.777   9.023  73.182  1.00  0.00     0.000 HD 
ENDBRANCH  14  19
ENDBRANCH   8   9
BRANCH   8  22
HETATM   22  C   UNL     1     -10.265   8.368  67.795  1.00  0.00    -0.224 C  
HETATM   23  H   UNL     1     -10.162   7.928  65.921  1.00  0.00     0.000 HD 
HETATM   24  O   UNL     1     -10.384   8.702  66.426  1.00  0.00    -0.262 OA 
ENDBRANCH   8  22
ENDBRANCH   6   8
ENDBRANCH   4   6
ENDBRANCH   3   4
TORSDOF 7
ENDMDL
MODEL      186
REMARK 921   NORMALIZED FREE ENERGY PREDICTED BY IDOCK:   -3.00 KCAL/MOL
REMARK 922        TOTAL FREE ENERGY PREDICTED BY IDOCK:   -5.76 KCAL/MOL
REMARK 923 INTER-LIGAND FREE ENERGY PREDICTED BY IDOCK:   -4.99 KCAL/MOL
REMARK 924 INTRA-LIGAND FREE ENERGY PREDICTED BY IDOCK:   -0.78 KCAL/MOL
REMARK 927      BINDING AFFINITY PREDICTED BY RF-SCORE:    0.00 PKD
ROOT
HETATM    1  O   UNL     1      -6.349  12.459  70.456  1.00  0.00    -0.500 OA 
HETATM    2  H   UNL     1      -5.716  13.137  70.256  1.00  0.00     0.000 HD 
HETATM    3  C   UNL     1      -6.929  12.090  69.226  1.00  0.00    -0.028 C  
ENDROOT
BRANCH   3   4
HETATM    4  N   UNL     1      -7.878  11.074  69.525  1.00  0.00    -0.374 N  
HETATM    5  H   UNL     1      -8.184  10.933  70.488  1.00  0.00     0.000 HD 
BRANCH   4   6
HETATM    6  C   UNL     1      -8.380  10.289  68.531  1.00  0.00    -0.116 C  
HETATM    7  O   UNL     1      -7.732   9.359  68.055  1.00  0.00    -0.084 OA 
BRANCH   6   8
HETATM    8  N   UNL     1      -9.675  10.558  68.136  1.00  0.00    -0.151 N  
BRANCH   8   9
HETATM    9  C   UNL     1      -9.861  11.513  67.064  1.00  0.00    -0.192 C  
HETATM   10  O   UNL     1     -11.209  13.146  68.359  1.00  0.00    -0.240 OA 
HETATM   11  N   UNL     1     -10.376  10.969  65.828  1.00  0.00    -0.257 N  
HETATM   12  C   UNL     1     -10.928  12.607  67.294  1.00  0.00    -0.256 C  
HETATM   13  O   UNL     1     -11.595  11.814  64.047  1.00  0.00    -0.367 OA 
HETATM   14  N   UNL     1     -11.481  12.899  66.082  1.00  0.00    -0.330 N  
HETATM   15  C   UNL     1     -11.184  11.905  65.195  1.00  0.00    -0.289 C  
BRANCH  11  16
HETATM   16  C   UNL     1      -9.763   9.901  65.095  1.00  0.00    -0.306 C  
HETATM   17  H   UNL     1      -9.610   7.974  65.275  1.00  0.00     0.000 HD 
HETATM   18  O   UNL     1     -10.016   8.682  65.760  1.00  0.00    -0.072 OA 
ENDBRANCH  11  16
BRANCH  14  19
HETATM   19  C   UNL     1     -12.561  13.813  65.859  1.00  0.00    -0.447 C  
HETATM   20  O   UNL     1     -12.354  14.520  64.651  1.00  0.00    -0.474 OA 
HETATM   21  H   UNL     1     -13.070  15.125  64.503  1.00  0.00     0.000 HD 
ENDBRANCH  14  19
ENDBRANCH   8   9
BRANCH   8  22
HETATM   22  C   UNL     1     -10.846  10.140  68.871  1.00  0.00    -0.223 C  
HETATM   23  H   UNL     1     -11.326   9.993  70.732  1.00  0.00     0.000 HD 
HETATM   24  O   UNL     1     -10.556  10.268  70.249  1.00  0.00    -0.282 OA 
ENDBRANCH   8  22
ENDBRANCH   6   8
ENDBRANCH   4   6
ENDBRANCH   3   4
TORSDOF 7
ENDMDL
MODEL      187
REMARK 921   NORMALIZED FREE ENERGY PREDICTED BY IDOCK:   -3.00 KCAL/MOL
REMARK 922        TOTAL FREE ENERGY PREDICTED BY IDOCK:   -5.76 KCAL/MOL
REMARK 923 INTER-LIGAND FREE ENERGY PREDICTED BY IDOCK:   -4.95 KCAL/MOL
REMARK 924 INTRA-LIGAND FREE ENERGY PREDICTED BY IDOCK:   -0.81 KCAL/MOL
REMARK 927      BINDING AFFINITY PREDICTED BY RF-SCORE:    0.00 PKD
ROOT
HETATM    1  O   UNL     1     -10.723  14.577  68.476  1.00  0.00    -0.236 OA 
HETATM    2  H   UNL     1     -11.471  14.004  68.594  1.00  0.00     0.000 HD 
HETATM    3  C   UNL     1     -11.097  15.512  67.491  1.00  0.00    -0.305 C  
ENDROOT
BRANCH   3   4
HETATM    4  N   UNL     1      -9.977  16.369  67.314  1.00  0.00    -0.253 N  
HETATM    5  H   UNL     1      -9.868  16.889  66.444  1.00  0.00     0.000 HD 
BRANCH   4   6
HETATM    6  C   UNL     1      -9.048  16.497  68.302  1.00  0.00    -0.214 C  
HETATM    7  O   UNL     1      -9.363  16.813  69.447  1.00  0.00    -0.124 OA 
BRANCH   6   8
HETATM    8  N   UNL     1      -7.746  16.188  67.960  1.00  0.00    -0.135 N  
BRANCH   8   9
HETATM    9  C   UNL     1      -6.768  17.255  68.025  1.00  0.00    -0.173 C  
HETATM   10  O   UNL     1      -5.938  16.747  70.309  1.00  0.00    -0.193 OA 
HETATM   11  N   UNL     1      -7.267  18.575  67.714  1.00  0.00    -0.218 N  
HETATM   12  C   UNL     1      -6.174  17.558  69.419  1.00  0.00    -0.250 C  
HETATM   13  O   UNL     1      -6.652  20.735  68.283  1.00  0.00    -0.289 OA 
HETATM   14  N   UNL     1      -5.918  18.897  69.471  1.00  0.00    -0.254 N  
HETATM   15  C   UNL     1      -6.595  19.529  68.468  1.00  0.00    -0.271 C  
BRANCH  11  16
HETATM   16  C   UNL     1      -7.923  18.925  66.488  1.00  0.00    -0.277 C  
HETATM   17  H   UNL     1      -7.737  18.469  64.610  1.00  0.00     0.000 HD 
HETATM   18  O   UNL     1      -7.303  18.237  65.422  1.00  0.00    -0.531 OA 
ENDBRANCH  11  16
BRANCH  14  19
HETATM   19  C   UNL     1      -5.426  19.606  70.614  1.00  0.00    -0.246 C  
HETATM   20  O   UNL     1      -6.469  20.362  71.197  1.00  0.00    -0.529 OA 
HETATM   21  H   UNL     1      -6.143  20.832  71.955  1.00  0.00     0.000 HD 
ENDBRANCH  14  19
ENDBRANCH   8   9
BRANCH   8  22
HETATM   22  C   UNL     1      -7.350  14.955  67.320  1.00  0.00    -0.140 C  
HETATM   23  H   UNL     1      -5.676  14.121  66.854  1.00  0.00     0.000 HD 
HETATM   24  O   UNL     1      -5.937  14.931  67.275  1.00  0.00    -0.312 OA 
ENDBRANCH   8  22
ENDBRANCH   6   8
ENDBRANCH   4   6
ENDBRANCH   3   4
TORSDOF 7
ENDMDL
MODEL      188
REMARK 921   NORMALIZED FREE ENERGY PREDICTED BY IDOCK:   -3.00 KCAL/MOL
REMARK 922        TOTAL FREE ENERGY PREDICTED BY IDOCK:   -5.75 KCAL/MOL
REMARK 923 INTER-LIGAND FREE ENERGY PREDICTED BY IDOCK:   -5.47 KCAL/MOL
REMARK 924 INTRA-LIGAND FREE ENERGY PREDICTED BY IDOCK:   -0.28 KCAL/MOL
REMARK 927      BINDING AFFINITY PREDICTED BY RF-SCORE:    0.00 PKD
ROOT
HETATM    1  O   UNL     1     -11.360  16.086  63.693  1.00  0.00    -0.948 OA 
HETATM    2  H   UNL     1     -12.035  16.750  63.631  1.00  0.00     0.000 HD 
HETATM    3  C   UNL     1     -11.271  15.743  65.056  1.00  0.00    -0.308 C  
ENDROOT
BRANCH   3   4
HETATM    4  N   UNL     1     -10.259  14.748  65.148  1.00  0.00    -0.389 N  
HETATM    5  H   UNL     1      -9.433  14.915  65.723  1.00  0.00     0.000 HD 
BRANCH   4   6
HETATM    6  C   UNL     1     -10.389  13.572  64.471  1.00  0.00    -0.358 C  
HETATM    7  O   UNL     1      -9.455  13.086  63.838  1.00  0.00     0.252 OA 
BRANCH   6   8
HETATM    8  N   UNL     1     -11.606  12.931  64.591  1.00  0.00    -0.330 N  
BRANCH   8   9
HETATM    9  C   UNL     1     -11.827  12.140  65.785  1.00  0.00    -0.274 C  
HETATM   10  O   UNL     1     -12.509  14.020  67.255  1.00  0.00    -0.260 OA 
HETATM   11  N   UNL     1     -10.734  11.279  66.172  1.00  0.00    -0.266 N  
HETATM   12  C   UNL     1     -11.982  12.922  67.108  1.00  0.00    -0.310 C  
HETATM   13  O   UNL     1      -9.996  10.364  68.169  1.00  0.00    -0.145 OA 
HETATM   14  N   UNL     1     -11.459  12.149  68.103  1.00  0.00    -0.294 N  
HETATM   15  C   UNL     1     -10.678  11.172  67.556  1.00  0.00    -0.236 C  
BRANCH  11  16
HETATM   16  C   UNL     1     -10.151  10.279  65.326  1.00  0.00    -0.289 C  
HETATM   17  H   UNL     1      -8.367   9.813  64.717  1.00  0.00     0.000 HD 
HETATM   18  O   UNL     1      -8.753  10.476  65.278  1.00  0.00    -0.177 OA 
ENDBRANCH  11  16
BRANCH  14  19
HETATM   19  C   UNL     1     -11.339  12.531  69.477  1.00  0.00    -0.171 C  
HETATM   20  O   UNL     1     -11.467  11.393  70.308  1.00  0.00    -0.462 OA 
HETATM   21  H   UNL     1     -11.387  11.646  71.219  1.00  0.00     0.000 HD 
ENDBRANCH  14  19
ENDBRANCH   8   9
BRANCH   8  22
HETATM   22  C   UNL     1     -12.560  12.801  63.516  1.00  0.00    -0.258 C  
HETATM   23  H   UNL     1     -13.104  11.391  62.318  1.00  0.00     0.000 HD 
HETATM   24  O   UNL     1     -12.476  11.477  63.026  1.00  0.00    -0.249 OA 
ENDBRANCH   8  22
ENDBRANCH   6   8
ENDBRANCH   4   6
ENDBRANCH   3   4
TORSDOF 7
ENDMDL
MODEL      189
REMARK 921   NORMALIZED FREE ENERGY PREDICTED BY IDOCK:   -2.99 KCAL/MOL
REMARK 922        TOTAL FREE ENERGY PREDICTED BY IDOCK:   -5.74 KCAL/MOL
REMARK 923 INTER-LIGAND FREE ENERGY PREDICTED BY IDOCK:   -4.33 KCAL/MOL
REMARK 924 INTRA-LIGAND FREE ENERGY PREDICTED BY IDOCK:   -1.41 KCAL/MOL
REMARK 927      BINDING AFFINITY PREDICTED BY RF-SCORE:    0.00 PKD
ROOT
HETATM    1  O   UNL     1      -9.898   3.838  73.173  1.00  0.00    -0.120 OA 
HETATM    2  H   UNL     1      -9.573   2.964  73.353  1.00  0.00     0.000 HD 
HETATM    3  C   UNL     1     -11.275   3.813  73.467  1.00  0.00    -0.204 C  
ENDROOT
BRANCH   3   4
HETATM    4  N   UNL     1     -11.761   5.122  73.197  1.00  0.00    -0.514 N  
HETATM    5  H   UNL     1     -12.719   5.252  72.874  1.00  0.00     0.000 HD 
BRANCH   4   6
HETATM    6  C   UNL     1     -10.949   6.204  73.368  1.00  0.00    -0.155 C  
HETATM    7  O   UNL     1     -10.409   6.441  74.445  1.00  0.00    -0.332 OA 
BRANCH   6   8
HETATM    8  N   UNL     1     -10.720   6.977  72.247  1.00  0.00    -0.214 N  
BRANCH   8   9
HETATM    9  C   UNL     1      -9.448   6.811  71.572  1.00  0.00    -0.156 C  
HETATM   10  O   UNL     1      -8.295   8.724  72.655  1.00  0.00    -0.407 OA 
HETATM   11  N   UNL     1      -9.515   6.728  70.132  1.00  0.00    -0.159 N  
HETATM   12  C   UNL     1      -8.451   7.986  71.688  1.00  0.00    -0.125 C  
HETATM   13  O   UNL     1      -8.058   7.207  68.394  1.00  0.00    -0.121 OA 
HETATM   14  N   UNL     1      -7.738   8.031  70.526  1.00  0.00    -0.083 N  
HETATM   15  C   UNL     1      -8.382   7.304  69.568  1.00  0.00    -0.133 C  
BRANCH  11  16
HETATM   16  C   UNL     1     -10.296   5.767  69.410  1.00  0.00    -0.262 C  
HETATM   17  H   UNL     1     -11.814   5.807  68.200  1.00  0.00     0.000 HD 
HETATM   18  O   UNL     1     -11.296   6.444  68.678  1.00  0.00    -0.313 OA 
ENDBRANCH  11  16
BRANCH  14  19
HETATM   19  C   UNL     1      -6.755   9.017  70.192  1.00  0.00    -0.047 C  
HETATM   20  O   UNL     1      -7.294  10.314  70.366  1.00  0.00    -0.347 OA 
HETATM   21  H   UNL     1      -6.642  10.968  70.144  1.00  0.00     0.000 HD 
ENDBRANCH  14  19
ENDBRANCH   8   9
BRANCH   8  22
HETATM   22  C   UNL     1     -11.548   8.091  71.850  1.00  0.00    -0.298 C  
HETATM   23  H   UNL     1     -13.367   8.313  71.253  1.00  0.00     0.000 HD 
HETATM   24  O   UNL     1     -12.822   7.580  71.514  1.00  0.00    -0.340 OA 
ENDBRANCH   8  22
ENDBRANCH   6   8
ENDBRANCH   4   6
ENDBRANCH   3   4
TORSDOF 7
ENDMDL
MODEL      190
REMARK 921   NORMALIZED FREE ENERGY PREDICTED BY IDOCK:   -2.99 KCAL/MOL
REMARK 922        TOTAL FREE ENERGY PREDICTED BY IDOCK:   -5.74 KCAL/MOL
REMARK 923 INTER-LIGAND FREE ENERGY PREDICTED BY IDOCK:   -4.74 KCAL/MOL
REMARK 924 INTRA-LIGAND FREE ENERGY PREDICTED BY IDOCK:   -0.99 KCAL/MOL
REMARK 927      BINDING AFFINITY PREDICTED BY RF-SCORE:    0.00 PKD
ROOT
HETATM    1  O   UNL     1      -9.534  11.073  62.521  1.00  0.00    -0.484 OA 
HETATM    2  H   UNL     1      -9.832  11.026  61.620  1.00  0.00     0.000 HD 
HETATM    3  C   UNL     1     -10.267  12.115  63.122  1.00  0.00    -0.147 C  
ENDROOT
BRANCH   3   4
HETATM    4  N   UNL     1      -9.820  12.186  64.470  1.00  0.00    -0.454 N  
HETATM    5  H   UNL     1      -8.958  12.683  64.693  1.00  0.00     0.000 HD 
BRANCH   4   6
HETATM    6  C   UNL     1     -10.540  11.593  65.463  1.00  0.00    -0.279 C  
HETATM    7  O   UNL     1     -10.729  10.379  65.486  1.00  0.00    -0.093 OA 
BRANCH   6   8
HETATM    8  N   UNL     1     -10.986  12.423  66.473  1.00  0.00    -0.261 N  
BRANCH   8   9
HETATM    9  C   UNL     1     -10.323  12.325  67.757  1.00  0.00    -0.207 C  
HETATM   10  O   UNL     1      -8.132  13.233  67.023  1.00  0.00    -0.124 OA 
HETATM   11  N   UNL     1     -10.392  11.031  68.396  1.00  0.00    -0.175 N  
HETATM   12  C   UNL     1      -8.787  12.496  67.753  1.00  0.00    -0.178 C  
HETATM   13  O   UNL     1      -9.079   9.885  69.923  1.00  0.00    -0.218 OA 
HETATM   14  N   UNL     1      -8.286  11.705  68.744  1.00  0.00    -0.092 N  
HETATM   15  C   UNL     1      -9.231  10.794  69.121  1.00  0.00    -0.116 C  
BRANCH  11  16
HETATM   16  C   UNL     1     -11.611  10.342  68.702  1.00  0.00    -0.101 C  
HETATM   17  H   UNL     1     -13.182  10.675  69.795  1.00  0.00     0.000 HD 
HETATM   18  O   UNL     1     -12.374  11.132  69.591  1.00  0.00    -0.296 OA 
ENDBRANCH  11  16
BRANCH  14  19
HETATM   19  C   UNL     1      -6.897  11.515  69.035  1.00  0.00    -0.107 C  
HETATM   20  O   UNL     1      -6.665  11.691  70.419  1.00  0.00    -0.490 OA 
HETATM   21  H   UNL     1      -5.744  11.565  70.612  1.00  0.00     0.000 HD 
ENDBRANCH  14  19
ENDBRANCH   8   9
BRANCH   8  22
HETATM   22  C   UNL     1     -12.204  13.194  66.405  1.00  0.00    -0.329 C  
HETATM   23  H   UNL     1     -13.502  13.605  65.040  1.00  0.00     0.000 HD 
HETATM   24  O   UNL     1     -12.700  13.097  65.084  1.00  0.00    -0.591 OA 
ENDBRANCH   8  22
ENDBRANCH   6   8
ENDBRANCH   4   6
ENDBRANCH   3   4
TORSDOF 7
ENDMDL
MODEL      191
REMARK 921   NORMALIZED FREE ENERGY PREDICTED BY IDOCK:   -2.98 KCAL/MOL
REMARK 922        TOTAL FREE ENERGY PREDICTED BY IDOCK:   -5.73 KCAL/MOL
REMARK 923 INTER-LIGAND FREE ENERGY PREDICTED BY IDOCK:   -4.32 KCAL/MOL
REMARK 924 INTRA-LIGAND FREE ENERGY PREDICTED BY IDOCK:   -1.41 KCAL/MOL
REMARK 927      BINDING AFFINITY PREDICTED BY RF-SCORE:    0.00 PKD
ROOT
HETATM    1  O   UNL     1      -6.558   9.007  63.331  1.00  0.00    -0.090 OA 
HETATM    2  H   UNL     1      -6.719   8.500  62.544  1.00  0.00     0.000 HD 
HETATM    3  C   UNL     1      -7.645   9.895  63.454  1.00  0.00    -0.139 C  
ENDROOT
BRANCH   3   4
HETATM    4  N   UNL     1      -7.404  10.654  64.632  1.00  0.00    -0.354 N  
HETATM    5  H   UNL     1      -7.158  11.641  64.559  1.00  0.00     0.000 HD 
BRANCH   4   6
HETATM    6  C   UNL     1      -7.500  10.067  65.858  1.00  0.00    -0.115 C  
HETATM    7  O   UNL     1      -6.974   8.982  66.096  1.00  0.00    -0.082 OA 
BRANCH   6   8
HETATM    8  N   UNL     1      -8.163  10.789  66.831  1.00  0.00    -0.126 N  
BRANCH   8   9
HETATM    9  C   UNL     1      -9.605  10.872  66.732  1.00  0.00    -0.183 C  
HETATM   10  O   UNL     1      -9.688  13.016  65.483  1.00  0.00    -0.182 OA 
HETATM   11  N   UNL     1     -10.323  10.733  67.978  1.00  0.00    -0.175 N  
HETATM   12  C   UNL     1     -10.187  12.232  66.284  1.00  0.00    -0.229 C  
HETATM   13  O   UNL     1     -12.377  11.451  68.775  1.00  0.00    -0.480 OA 
HETATM   14  N   UNL     1     -11.387  12.389  66.913  1.00  0.00    -0.312 N  
HETATM   15  C   UNL     1     -11.472  11.514  67.957  1.00  0.00    -0.311 C  
BRANCH  11  16
HETATM   16  C   UNL     1     -10.207   9.608  68.859  1.00  0.00    -0.201 C  
HETATM   17  H   UNL     1      -9.423   9.257  70.601  1.00  0.00     0.000 HD 
HETATM   18  O   UNL     1      -9.500  10.002  70.016  1.00  0.00    -0.224 OA 
ENDBRANCH  11  16
BRANCH  14  19
HETATM   19  C   UNL     1     -12.224  13.548  66.828  1.00  0.00    -0.340 C  
HETATM   20  O   UNL     1     -12.154  14.282  68.036  1.00  0.00    -0.508 OA 
HETATM   21  H   UNL     1     -12.709  15.051  67.980  1.00  0.00     0.000 HD 
ENDBRANCH  14  19
ENDBRANCH   8   9
BRANCH   8  22
HETATM   22  C   UNL     1      -7.506  11.653  67.784  1.00  0.00    -0.111 C  
HETATM   23  H   UNL     1      -6.088  12.957  67.713  1.00  0.00     0.000 HD 
HETATM   24  O   UNL     1      -6.520  12.389  67.086  1.00  0.00    -0.159 OA 
ENDBRANCH   8  22
ENDBRANCH   6   8
ENDBRANCH   4   6
ENDBRANCH   3   4
TORSDOF 7
ENDMDL
MODEL      192
REMARK 921   NORMALIZED FREE ENERGY PREDICTED BY IDOCK:   -2.95 KCAL/MOL
REMARK 922        TOTAL FREE ENERGY PREDICTED BY IDOCK:   -5.69 KCAL/MOL
REMARK 923 INTER-LIGAND FREE ENERGY PREDICTED BY IDOCK:   -4.74 KCAL/MOL
REMARK 924 INTRA-LIGAND FREE ENERGY PREDICTED BY IDOCK:   -0.95 KCAL/MOL
REMARK 927      BINDING AFFINITY PREDICTED BY RF-SCORE:    0.00 PKD
ROOT
HETATM    1  O   UNL     1      -8.081  10.469  69.754  1.00  0.00    -0.347 OA 
HETATM    2  H   UNL     1      -7.297   9.934  69.728  1.00  0.00     0.000 HD 
HETATM    3  C   UNL     1      -7.849  11.548  68.878  1.00  0.00    -0.071 C  
ENDROOT
BRANCH   3   4
HETATM    4  N   UNL     1      -9.023  12.349  68.917  1.00  0.00    -0.364 N  
HETATM    5  H   UNL     1      -9.622  12.332  69.743  1.00  0.00     0.000 HD 
BRANCH   4   6
HETATM    6  C   UNL     1      -9.352  13.137  67.855  1.00  0.00    -0.215 C  
HETATM    7  O   UNL     1      -8.523  13.861  67.309  1.00  0.00    -0.190 OA 
BRANCH   6   8
HETATM    8  N   UNL     1     -10.648  13.026  67.391  1.00  0.00    -0.233 N  
BRANCH   8   9
HETATM    9  C   UNL     1     -10.982  11.843  66.624  1.00  0.00    -0.291 C  
HETATM   10  O   UNL     1     -11.118  10.280  68.547  1.00  0.00    -0.248 OA 
HETATM   11  N   UNL     1     -10.102  11.552  65.516  1.00  0.00    -0.232 N  
HETATM   12  C   UNL     1     -10.874  10.491  67.364  1.00  0.00    -0.291 C  
HETATM   13  O   UNL     1      -9.490   9.632  64.371  1.00  0.00    -0.234 OA 
HETATM   14  N   UNL     1     -10.493   9.555  66.449  1.00  0.00    -0.157 N  
HETATM   15  C   UNL     1      -9.995  10.177  65.340  1.00  0.00    -0.307 C  
BRANCH  11  16
HETATM   16  C   UNL     1      -9.819  12.461  64.444  1.00  0.00    -0.090 C  
HETATM   17  H   UNL     1     -10.850  13.485  63.156  1.00  0.00     0.000 HD 
HETATM   18  O   UNL     1     -11.037  12.883  63.867  1.00  0.00    -0.394 OA 
ENDBRANCH  11  16
BRANCH  14  19
HETATM   19  C   UNL     1     -10.209   8.180  66.734  1.00  0.00    -0.302 C  
HETATM   20  O   UNL     1      -8.811   7.986  66.831  1.00  0.00    -0.125 OA 
HETATM   21  H   UNL     1      -8.623   7.075  67.020  1.00  0.00     0.000 HD 
ENDBRANCH  14  19
ENDBRANCH   8   9
BRANCH   8  22
HETATM   22  C   UNL     1     -11.608  14.104  67.412  1.00  0.00    -0.372 C  
HETATM   23  H   UNL     1     -13.013  14.676  68.602  1.00  0.00     0.000 HD 
HETATM   24  O   UNL     1     -12.381  13.967  68.588  1.00  0.00    -0.278 OA 
ENDBRANCH   8  22
ENDBRANCH   6   8
ENDBRANCH   4   6
ENDBRANCH   3   4
TORSDOF 7
ENDMDL
MODEL      193
REMARK 921   NORMALIZED FREE ENERGY PREDICTED BY IDOCK:   -2.95 KCAL/MOL
REMARK 922        TOTAL FREE ENERGY PREDICTED BY IDOCK:   -5.69 KCAL/MOL
REMARK 923 INTER-LIGAND FREE ENERGY PREDICTED BY IDOCK:   -4.25 KCAL/MOL
REMARK 924 INTRA-LIGAND FREE ENERGY PREDICTED BY IDOCK:   -1.44 KCAL/MOL
REMARK 927      BINDING AFFINITY PREDICTED BY RF-SCORE:    0.00 PKD
ROOT
HETATM    1  O   UNL     1      -9.011   9.186  64.446  1.00  0.00    -0.371 OA 
HETATM    2  H   UNL     1      -8.279   8.727  64.051  1.00  0.00     0.000 HD 
HETATM    3  C   UNL     1      -9.335  10.237  63.567  1.00  0.00    -0.301 C  
ENDROOT
BRANCH   3   4
HETATM    4  N   UNL     1     -10.431  10.924  64.159  1.00  0.00    -0.410 N  
HETATM    5  H   UNL     1     -11.279  10.412  64.402  1.00  0.00     0.000 HD 
BRANCH   4   6
HETATM    6  C   UNL     1     -10.351  12.262  64.402  1.00  0.00    -0.331 C  
HETATM    7  O   UNL     1     -10.410  13.087  63.494  1.00  0.00    -0.224 OA 
BRANCH   6   8
HETATM    8  N   UNL     1     -10.265  12.637  65.729  1.00  0.00    -0.269 N  
BRANCH   8   9
HETATM    9  C   UNL     1      -8.985  12.471  66.387  1.00  0.00    -0.073 C  
HETATM   10  O   UNL     1      -9.430  10.215  67.322  1.00  0.00    -0.151 OA 
HETATM   11  N   UNL     1      -8.592  13.552  67.262  1.00  0.00    -0.208 N  
HETATM   12  C   UNL     1      -8.878  11.308  67.398  1.00  0.00    -0.145 C  
HETATM   13  O   UNL     1      -7.225  13.737  69.124  1.00  0.00    -0.096 OA 
HETATM   14  N   UNL     1      -8.018  11.700  68.382  1.00  0.00    -0.135 N  
HETATM   15  C   UNL     1      -7.860  13.055  68.333  1.00  0.00    -0.134 C  
BRANCH  11  16
HETATM   16  C   UNL     1      -8.478  14.922  66.857  1.00  0.00    -0.223 C  
HETATM   17  H   UNL     1      -9.404  16.586  67.237  1.00  0.00     0.000 HD 
HETATM   18  O   UNL     1      -9.479  15.677  67.506  1.00  0.00    -0.212 OA 
ENDBRANCH  11  16
BRANCH  14  19
HETATM   19  C   UNL     1      -7.693  10.943  69.553  1.00  0.00    -0.013 C  
HETATM   20  O   UNL     1      -6.390  11.273  69.994  1.00  0.00    -0.132 OA 
HETATM   21  H   UNL     1      -6.174  10.771  70.771  1.00  0.00     0.000 HD 
ENDBRANCH  14  19
ENDBRANCH   8   9
BRANCH   8  22
HETATM   22  C   UNL     1     -11.408  12.949  66.555  1.00  0.00    -0.318 C  
HETATM   23  H   UNL     1     -13.285  12.514  66.533  1.00  0.00     0.000 HD 
HETATM   24  O   UNL     1     -12.534  12.308  65.989  1.00  0.00    -0.503 OA 
ENDBRANCH   8  22
ENDBRANCH   6   8
ENDBRANCH   4   6
ENDBRANCH   3   4
TORSDOF 7
ENDMDL
MODEL      194
REMARK 921   NORMALIZED FREE ENERGY PREDICTED BY IDOCK:   -2.94 KCAL/MOL
REMARK 922        TOTAL FREE ENERGY PREDICTED BY IDOCK:   -5.67 KCAL/MOL
REMARK 923 INTER-LIGAND FREE ENERGY PREDICTED BY IDOCK:   -4.43 KCAL/MOL
REMARK 924 INTRA-LIGAND FREE ENERGY PREDICTED BY IDOCK:   -1.24 KCAL/MOL
REMARK 927      BINDING AFFINITY PREDICTED BY RF-SCORE:    0.00 PKD
ROOT
HETATM    1  O   UNL     1     -12.073  14.613  67.335  1.00  0.00    -0.535 OA 
HETATM    2  H   UNL     1     -12.671  15.342  67.448  1.00  0.00     0.000 HD 
HETATM    3  C   UNL     1     -11.437  14.816  66.096  1.00  0.00    -0.311 C  
ENDROOT
BRANCH   3   4
HETATM    4  N   UNL     1     -10.541  13.724  65.927  1.00  0.00    -0.284 N  
HETATM    5  H   UNL     1      -9.609  13.886  65.546  1.00  0.00     0.000 HD 
BRANCH   4   6
HETATM    6  C   UNL     1     -10.925  12.463  66.272  1.00  0.00    -0.286 C  
HETATM    7  O   UNL     1     -12.095  12.098  66.183  1.00  0.00    -0.621 OA 
BRANCH   6   8
HETATM    8  N   UNL     1      -9.917  11.604  66.664  1.00  0.00    -0.200 N  
BRANCH   8   9
HETATM    9  C   UNL     1      -9.980  10.239  66.183  1.00  0.00    -0.238 C  
HETATM   10  O   UNL     1     -10.686   9.209  68.329  1.00  0.00    -0.199 OA 
HETATM   11  N   UNL     1      -8.796   9.762  65.507  1.00  0.00    -0.153 N  
HETATM   12  C   UNL     1     -10.089   9.136  67.260  1.00  0.00    -0.233 C  
HETATM   13  O   UNL     1      -7.833   7.683  65.159  1.00  0.00    -0.108 OA 
HETATM   14  N   UNL     1      -9.430   8.039  66.787  1.00  0.00    -0.187 N  
HETATM   15  C   UNL     1      -8.622   8.405  65.750  1.00  0.00    -0.159 C  
BRANCH  11  16
HETATM   16  C   UNL     1      -8.207  10.392  64.362  1.00  0.00    -0.125 C  
HETATM   17  H   UNL     1      -8.842  11.372  62.810  1.00  0.00     0.000 HD 
HETATM   18  O   UNL     1      -9.232  10.954  63.569  1.00  0.00    -0.218 OA 
ENDBRANCH  11  16
BRANCH  14  19
HETATM   19  C   UNL     1      -9.231   6.816  67.505  1.00  0.00    -0.122 C  
HETATM   20  O   UNL     1      -7.903   6.752  67.990  1.00  0.00    -0.109 OA 
HETATM   21  H   UNL     1      -7.771   5.942  68.466  1.00  0.00     0.000 HD 
ENDBRANCH  14  19
ENDBRANCH   8   9
BRANCH   8  22
HETATM   22  C   UNL     1      -8.954  11.907  67.696  1.00  0.00    -0.169 C  
HETATM   23  H   UNL     1      -7.457  13.108  67.875  1.00  0.00     0.000 HD 
HETATM   24  O   UNL     1      -8.091  12.909  67.196  1.00  0.00    -0.173 OA 
ENDBRANCH   8  22
ENDBRANCH   6   8
ENDBRANCH   4   6
ENDBRANCH   3   4
TORSDOF 7
ENDMDL
MODEL      195
REMARK 921   NORMALIZED FREE ENERGY PREDICTED BY IDOCK:   -2.93 KCAL/MOL
REMARK 922        TOTAL FREE ENERGY PREDICTED BY IDOCK:   -5.66 KCAL/MOL
REMARK 923 INTER-LIGAND FREE ENERGY PREDICTED BY IDOCK:   -4.34 KCAL/MOL
REMARK 924 INTRA-LIGAND FREE ENERGY PREDICTED BY IDOCK:   -1.33 KCAL/MOL
REMARK 927      BINDING AFFINITY PREDICTED BY RF-SCORE:    0.00 PKD
ROOT
HETATM    1  O   UNL     1      -6.028   9.958  64.867  1.00  0.00    -0.081 OA 
HETATM    2  H   UNL     1      -5.598   9.746  64.047  1.00  0.00     0.000 HD 
HETATM    3  C   UNL     1      -6.477   8.735  65.401  1.00  0.00    -0.067 C  
ENDROOT
BRANCH   3   4
HETATM    4  N   UNL     1      -7.121   9.053  66.628  1.00  0.00    -0.081 N  
HETATM    5  H   UNL     1      -7.134   8.371  67.387  1.00  0.00     0.000 HD 
BRANCH   4   6
HETATM    6  C   UNL     1      -7.722  10.265  66.794  1.00  0.00    -0.111 C  
HETATM    7  O   UNL     1      -7.096  11.248  67.183  1.00  0.00    -0.108 OA 
BRANCH   6   8
HETATM    8  N   UNL     1      -9.055  10.339  66.438  1.00  0.00    -0.151 N  
BRANCH   8   9
HETATM    9  C   UNL     1      -9.521  11.581  65.858  1.00  0.00    -0.230 C  
HETATM   10  O   UNL     1     -11.173  12.126  67.629  1.00  0.00    -0.250 OA 
HETATM   11  N   UNL     1      -9.940  11.504  64.477  1.00  0.00    -0.252 N  
HETATM   12  C   UNL     1     -10.815  12.176  66.456  1.00  0.00    -0.270 C  
HETATM   13  O   UNL     1     -11.411  12.698  63.142  1.00  0.00    -0.424 OA 
HETATM   14  N   UNL     1     -11.478  12.810  65.447  1.00  0.00    -0.314 N  
HETATM   15  C   UNL     1     -10.984  12.392  64.245  1.00  0.00    -0.351 C  
BRANCH  11  16
HETATM   16  C   UNL     1      -9.115  11.034  63.404  1.00  0.00    -0.194 C  
HETATM   17  H   UNL     1      -8.957   9.407  62.355  1.00  0.00     0.000 HD 
HETATM   18  O   UNL     1      -9.505   9.719  63.067  1.00  0.00    -0.219 OA 
ENDBRANCH  11  16
BRANCH  14  19
HETATM   19  C   UNL     1     -12.761  13.436  65.559  1.00  0.00    -0.410 C  
HETATM   20  O   UNL     1     -12.689  14.526  66.459  1.00  0.00    -0.425 OA 
HETATM   21  H   UNL     1     -13.539  14.942  66.533  1.00  0.00     0.000 HD 
ENDBRANCH  14  19
ENDBRANCH   8   9
BRANCH   8  22
HETATM   22  C   UNL     1     -10.048   9.364  66.821  1.00  0.00    -0.256 C  
HETATM   23  H   UNL     1     -10.556   7.604  66.219  1.00  0.00     0.000 HD 
HETATM   24  O   UNL     1      -9.902   8.245  65.968  1.00  0.00    -0.147 OA 
ENDBRANCH   8  22
ENDBRANCH   6   8
ENDBRANCH   4   6
ENDBRANCH   3   4
TORSDOF 7
ENDMDL
MODEL      196
REMARK 921   NORMALIZED FREE ENERGY PREDICTED BY IDOCK:   -2.93 KCAL/MOL
REMARK 922        TOTAL FREE ENERGY PREDICTED BY IDOCK:   -5.65 KCAL/MOL
REMARK 923 INTER-LIGAND FREE ENERGY PREDICTED BY IDOCK:   -4.76 KCAL/MOL
REMARK 924 INTRA-LIGAND FREE ENERGY PREDICTED BY IDOCK:   -0.89 KCAL/MOL
REMARK 927      BINDING AFFINITY PREDICTED BY RF-SCORE:    0.00 PKD
ROOT
HETATM    1  O   UNL     1      -8.492  12.812  68.237  1.00  0.00    -0.168 OA 
HETATM    2  H   UNL     1      -8.207  13.313  68.991  1.00  0.00     0.000 HD 
HETATM    3  C   UNL     1      -7.344  12.601  67.449  1.00  0.00    -0.140 C  
ENDROOT
BRANCH   3   4
HETATM    4  N   UNL     1      -7.772  11.850  66.320  1.00  0.00    -0.362 N  
HETATM    5  H   UNL     1      -8.036  12.332  65.460  1.00  0.00     0.000 HD 
BRANCH   4   6
HETATM    6  C   UNL     1      -7.830  10.490  66.382  1.00  0.00    -0.138 C  
HETATM    7  O   UNL     1      -7.130   9.850  67.163  1.00  0.00    -0.084 OA 
BRANCH   6   8
HETATM    8  N   UNL     1      -8.763   9.881  65.566  1.00  0.00    -0.144 N  
BRANCH   8   9
HETATM    9  C   UNL     1     -10.148  10.272  65.732  1.00  0.00    -0.255 C  
HETATM   10  O   UNL     1     -10.120  12.140  64.097  1.00  0.00    -0.313 OA 
HETATM   11  N   UNL     1     -10.569  10.509  67.093  1.00  0.00    -0.253 N  
HETATM   12  C   UNL     1     -10.555  11.634  65.126  1.00  0.00    -0.290 C  
HETATM   13  O   UNL     1     -12.211  11.797  68.100  1.00  0.00    -0.507 OA 
HETATM   14  N   UNL     1     -11.526  12.162  65.926  1.00  0.00    -0.360 N  
HETATM   15  C   UNL     1     -11.526  11.516  67.129  1.00  0.00    -0.237 C  
BRANCH  11  16
HETATM   16  C   UNL     1     -10.462   9.550  68.154  1.00  0.00    -0.223 C  
HETATM   17  H   UNL     1      -9.713   9.507  69.945  1.00  0.00     0.000 HD 
HETATM   18  O   UNL     1      -9.784  10.142  69.242  1.00  0.00    -0.201 OA 
ENDBRANCH  11  16
BRANCH  14  19
HETATM   19  C   UNL     1     -12.129  13.450  65.761  1.00  0.00    -0.436 C  
HETATM   20  O   UNL     1     -11.364  14.432  66.435  1.00  0.00    -0.333 OA 
HETATM   21  H   UNL     1     -11.764  15.286  66.325  1.00  0.00     0.000 HD 
ENDBRANCH  14  19
ENDBRANCH   8   9
BRANCH   8  22
HETATM   22  C   UNL     1      -8.486   8.728  64.743  1.00  0.00    -0.160 C  
HETATM   23  H   UNL     1      -8.037   8.431  62.892  1.00  0.00     0.000 HD 
HETATM   24  O   UNL     1      -8.219   9.190  63.434  1.00  0.00    -0.158 OA 
ENDBRANCH   8  22
ENDBRANCH   6   8
ENDBRANCH   4   6
ENDBRANCH   3   4
TORSDOF 7
ENDMDL
MODEL      197
REMARK 921   NORMALIZED FREE ENERGY PREDICTED BY IDOCK:   -2.92 KCAL/MOL
REMARK 922        TOTAL FREE ENERGY PREDICTED BY IDOCK:   -5.65 KCAL/MOL
REMARK 923 INTER-LIGAND FREE ENERGY PREDICTED BY IDOCK:   -5.08 KCAL/MOL
REMARK 924 INTRA-LIGAND FREE ENERGY PREDICTED BY IDOCK:   -0.57 KCAL/MOL
REMARK 927      BINDING AFFINITY PREDICTED BY RF-SCORE:    0.00 PKD
ROOT
HETATM    1  O   UNL     1     -11.530   9.862  68.976  1.00  0.00    -0.460 OA 
HETATM    2  H   UNL     1     -11.621   9.211  69.660  1.00  0.00     0.000 HD 
HETATM    3  C   UNL     1     -11.885  11.095  69.557  1.00  0.00    -0.353 C  
ENDROOT
BRANCH   3   4
HETATM    4  N   UNL     1     -11.749  12.070  68.531  1.00  0.00    -0.316 N  
HETATM    5  H   UNL     1     -12.261  11.961  67.656  1.00  0.00     0.000 HD 
BRANCH   4   6
HETATM    6  C   UNL     1     -10.938  13.149  68.714  1.00  0.00    -0.262 C  
HETATM    7  O   UNL     1     -11.275  14.097  69.419  1.00  0.00    -0.256 OA 
BRANCH   6   8
HETATM    8  N   UNL     1      -9.694  13.085  68.117  1.00  0.00    -0.224 N  
BRANCH   8   9
HETATM    9  C   UNL     1      -9.166  14.307  67.544  1.00  0.00    -0.197 C  
HETATM   10  O   UNL     1      -8.238  15.237  69.650  1.00  0.00    -0.234 OA 
HETATM   11  N   UNL     1     -10.102  15.081  66.762  1.00  0.00    -0.250 N  
HETATM   12  C   UNL     1      -8.739  15.405  68.543  1.00  0.00    -0.178 C  
HETATM   13  O   UNL     1     -10.312  17.321  66.205  1.00  0.00    -0.341 OA 
HETATM   14  N   UNL     1      -8.981  16.611  67.952  1.00  0.00    -0.214 N  
HETATM   15  C   UNL     1      -9.827  16.437  66.895  1.00  0.00    -0.261 C  
BRANCH  11  16
HETATM   16  C   UNL     1     -10.824  14.579  65.630  1.00  0.00    -0.326 C  
HETATM   17  H   UNL     1     -10.392  13.641  63.986  1.00  0.00     0.000 HD 
HETATM   18  O   UNL     1      -9.913  13.974  64.736  1.00  0.00    -0.294 OA 
ENDBRANCH  11  16
BRANCH  14  19
HETATM   19  C   UNL     1      -8.792  17.890  68.566  1.00  0.00    -0.289 C  
HETATM   20  O   UNL     1      -7.528  18.415  68.208  1.00  0.00    -0.261 OA 
HETATM   21  H   UNL     1      -7.402  19.264  68.614  1.00  0.00     0.000 HD 
ENDBRANCH  14  19
ENDBRANCH   8   9
BRANCH   8  22
HETATM   22  C   UNL     1      -9.005  11.853  67.817  1.00  0.00    -0.173 C  
HETATM   23  H   UNL     1      -9.280  10.380  66.604  1.00  0.00     0.000 HD 
HETATM   24  O   UNL     1      -9.733  11.191  66.801  1.00  0.00    -0.188 OA 
ENDBRANCH   8  22
ENDBRANCH   6   8
ENDBRANCH   4   6
ENDBRANCH   3   4
TORSDOF 7
ENDMDL
MODEL      198
REMARK 921   NORMALIZED FREE ENERGY PREDICTED BY IDOCK:   -2.91 KCAL/MOL
REMARK 922        TOTAL FREE ENERGY PREDICTED BY IDOCK:   -5.64 KCAL/MOL
REMARK 923 INTER-LIGAND FREE ENERGY PREDICTED BY IDOCK:   -4.58 KCAL/MOL
REMARK 924 INTRA-LIGAND FREE ENERGY PREDICTED BY IDOCK:   -1.06 KCAL/MOL
REMARK 927      BINDING AFFINITY PREDICTED BY RF-SCORE:    0.00 PKD
ROOT
HETATM    1  O   UNL     1      -9.720   6.337  68.401  1.00  0.00    -0.123 OA 
HETATM    2  H   UNL     1      -9.332   5.614  67.923  1.00  0.00     0.000 HD 
HETATM    3  C   UNL     1     -10.554   7.008  67.487  1.00  0.00    -0.280 C  
ENDROOT
BRANCH   3   4
HETATM    4  N   UNL     1     -11.135   8.091  68.203  1.00  0.00    -0.352 N  
HETATM    5  H   UNL     1     -12.145   8.129  68.334  1.00  0.00     0.000 HD 
BRANCH   4   6
HETATM    6  C   UNL     1     -10.345   9.077  68.714  1.00  0.00    -0.215 C  
HETATM    7  O   UNL     1      -9.309   9.429  68.154  1.00  0.00    -0.134 OA 
BRANCH   6   8
HETATM    8  N   UNL     1     -10.809   9.699  69.856  1.00  0.00    -0.243 N  
BRANCH   8   9
HETATM    9  C   UNL     1     -10.864   8.910  71.070  1.00  0.00    -0.259 C  
HETATM   10  O   UNL     1      -8.645   7.827  70.811  1.00  0.00    -0.129 OA 
HETATM   11  N   UNL     1     -12.049   8.100  71.232  1.00  0.00    -0.295 N  
HETATM   12  C   UNL     1      -9.804   7.795  71.213  1.00  0.00    -0.171 C  
HETATM   13  O   UNL     1     -12.553   6.140  72.360  1.00  0.00    -0.137 OA 
HETATM   14  N   UNL     1     -10.379   6.772  71.908  1.00  0.00    -0.197 N  
HETATM   15  C   UNL     1     -11.736   6.924  71.902  1.00  0.00    -0.299 C  
BRANCH  11  16
HETATM   16  C   UNL     1     -13.388   8.612  71.218  1.00  0.00    -0.142 C  
HETATM   17  H   UNL     1     -14.477   9.744  72.359  1.00  0.00     0.000 HD 
HETATM   18  O   UNL     1     -13.589   9.406  72.368  1.00  0.00    -0.457 OA 
ENDBRANCH  11  16
BRANCH  14  19
HETATM   19  C   UNL     1      -9.762   5.513  72.198  1.00  0.00    -0.158 C  
HETATM   20  O   UNL     1      -9.156   4.992  71.030  1.00  0.00    -0.134 OA 
HETATM   21  H   UNL     1      -8.746   4.157  71.222  1.00  0.00     0.000 HD 
ENDBRANCH  14  19
ENDBRANCH   8   9
BRANCH   8  22
HETATM   22  C   UNL     1     -11.459  10.989  69.867  1.00  0.00    -0.320 C  
HETATM   23  H   UNL     1     -12.787  11.872  68.784  1.00  0.00     0.000 HD 
HETATM   24  O   UNL     1     -12.360  11.023  68.777  1.00  0.00    -0.533 OA 
ENDBRANCH   8  22
ENDBRANCH   6   8
ENDBRANCH   4   6
ENDBRANCH   3   4
TORSDOF 7
ENDMDL
MODEL      199
REMARK 921   NORMALIZED FREE ENERGY PREDICTED BY IDOCK:   -2.91 KCAL/MOL
REMARK 922        TOTAL FREE ENERGY PREDICTED BY IDOCK:   -5.63 KCAL/MOL
REMARK 923 INTER-LIGAND FREE ENERGY PREDICTED BY IDOCK:   -4.50 KCAL/MOL
REMARK 924 INTRA-LIGAND FREE ENERGY PREDICTED BY IDOCK:   -1.14 KCAL/MOL
REMARK 927      BINDING AFFINITY PREDICTED BY RF-SCORE:    0.00 PKD
ROOT
HETATM    1  O   UNL     1     -12.578  14.476  68.918  1.00  0.00    -0.560 OA 
HETATM    2  H   UNL     1     -13.277  14.861  69.432  1.00  0.00     0.000 HD 
HETATM    3  C   UNL     1     -11.847  13.657  69.799  1.00  0.00    -0.327 C  
ENDROOT
BRANCH   3   4
HETATM    4  N   UNL     1     -10.800  13.081  69.028  1.00  0.00    -0.398 N  
HETATM    5  H   UNL     1      -9.847  13.072  69.392  1.00  0.00     0.000 HD 
BRANCH   4   6
HETATM    6  C   UNL     1     -11.066  12.542  67.805  1.00  0.00    -0.249 C  
HETATM    7  O   UNL     1     -12.083  11.886  67.597  1.00  0.00    -0.568 OA 
BRANCH   6   8
HETATM    8  N   UNL     1     -10.162  12.832  66.802  1.00  0.00    -0.236 N  
BRANCH   8   9
HETATM    9  C   UNL     1      -9.022  11.949  66.657  1.00  0.00    -0.198 C  
HETATM   10  O   UNL     1     -10.306   9.914  66.047  1.00  0.00    -0.224 OA 
HETATM   11  N   UNL     1      -8.112  11.921  67.779  1.00  0.00    -0.137 N  
HETATM   12  C   UNL     1      -9.329  10.437  66.574  1.00  0.00    -0.163 C  
HETATM   13  O   UNL     1      -6.620  10.371  68.640  1.00  0.00    -0.051 OA 
HETATM   14  N   UNL     1      -8.290   9.777  67.161  1.00  0.00    -0.121 N  
HETATM   15  C   UNL     1      -7.564  10.651  67.917  1.00  0.00    -0.091 C  
BRANCH  11  16
HETATM   16  C   UNL     1      -7.455  13.075  68.319  1.00  0.00    -0.128 C  
HETATM   17  H   UNL     1      -6.388  14.543  67.627  1.00  0.00     0.000 HD 
HETATM   18  O   UNL     1      -6.824  13.778  67.269  1.00  0.00    -0.194 OA 
ENDBRANCH  11  16
BRANCH  14  19
HETATM   19  C   UNL     1      -8.210   8.361  67.358  1.00  0.00    -0.120 C  
HETATM   20  O   UNL     1      -6.896   7.910  67.087  1.00  0.00    -0.069 OA 
HETATM   21  H   UNL     1      -6.843   6.971  67.218  1.00  0.00     0.000 HD 
ENDBRANCH  14  19
ENDBRANCH   8   9
BRANCH   8  22
HETATM   22  C   UNL     1     -10.149  14.069  66.058  1.00  0.00    -0.315 C  
HETATM   23  H   UNL     1     -11.307  15.604  65.916  1.00  0.00     0.000 HD 
HETATM   24  O   UNL     1     -11.315  14.789  66.405  1.00  0.00    -0.345 OA 
ENDBRANCH   8  22
ENDBRANCH   6   8
ENDBRANCH   4   6
ENDBRANCH   3   4
TORSDOF 7
ENDMDL
MODEL      200
REMARK 921   NORMALIZED FREE ENERGY PREDICTED BY IDOCK:   -2.91 KCAL/MOL
REMARK 922        TOTAL FREE ENERGY PREDICTED BY IDOCK:   -5.62 KCAL/MOL
REMARK 923 INTER-LIGAND FREE ENERGY PREDICTED BY IDOCK:   -4.72 KCAL/MOL
REMARK 924 INTRA-LIGAND FREE ENERGY PREDICTED BY IDOCK:   -0.90 KCAL/MOL
REMARK 927      BINDING AFFINITY PREDICTED BY RF-SCORE:    0.00 PKD
ROOT
HETATM    1  O   UNL     1     -12.648  10.658  69.122  1.00  0.00    -0.734 OA 
HETATM    2  H   UNL     1     -12.748  10.861  68.200  1.00  0.00     0.000 HD 
HETATM    3  C   UNL     1     -11.262  10.646  69.373  1.00  0.00    -0.270 C  
ENDROOT
BRANCH   3   4
HETATM    4  N   UNL     1     -11.113  10.343  70.754  1.00  0.00    -0.391 N  
HETATM    5  H   UNL     1     -10.670  11.018  71.377  1.00  0.00     0.000 HD 
BRANCH   4   6
HETATM    6  C   UNL     1     -11.558   9.153  71.246  1.00  0.00    -0.331 C  
HETATM    7  O   UNL     1     -12.740   8.826  71.172  1.00  0.00    -0.255 OA 
BRANCH   6   8
HETATM    8  N   UNL     1     -10.597   8.313  71.773  1.00  0.00    -0.240 N  
BRANCH   8   9
HETATM    9  C   UNL     1      -9.620   7.760  70.856  1.00  0.00    -0.167 C  
HETATM   10  O   UNL     1      -8.069   9.697  70.882  1.00  0.00    -0.293 OA 
HETATM   11  N   UNL     1     -10.150   7.274  69.603  1.00  0.00    -0.190 N  
HETATM   12  C   UNL     1      -8.570   8.745  70.295  1.00  0.00    -0.152 C  
HETATM   13  O   UNL     1      -9.301   6.993  67.465  1.00  0.00    -0.123 OA 
HETATM   14  N   UNL     1      -8.265   8.338  69.029  1.00  0.00    -0.118 N  
HETATM   15  C   UNL     1      -9.225   7.475  68.585  1.00  0.00    -0.144 C  
BRANCH  11  16
HETATM   16  C   UNL     1     -11.177   6.281  69.487  1.00  0.00    -0.430 C  
HETATM   17  H   UNL     1     -11.461   4.467  70.119  1.00  0.00     0.000 HD 
HETATM   18  O   UNL     1     -10.780   5.126  70.196  1.00  0.00    -0.239 OA 
ENDBRANCH  11  16
BRANCH  14  19
HETATM   19  C   UNL     1      -7.384   9.017  68.127  1.00  0.00    -0.083 C  
HETATM   20  O   UNL     1      -6.618   8.075  67.401  1.00  0.00    -0.055 OA 
HETATM   21  H   UNL     1      -6.033   8.525  66.803  1.00  0.00     0.000 HD 
ENDBRANCH  14  19
ENDBRANCH   8   9
BRANCH   8  22
HETATM   22  C   UNL     1     -10.645   7.766  73.108  1.00  0.00    -0.352 C  
HETATM   23  H   UNL     1      -9.705   6.383  74.067  1.00  0.00     0.000 HD 
HETATM   24  O   UNL     1      -9.672   6.743  73.188  1.00  0.00    -0.156 OA 
ENDBRANCH   8  22
ENDBRANCH   6   8
ENDBRANCH   4   6
ENDBRANCH   3   4
TORSDOF 7
ENDMDL
MODEL      201
REMARK 921   NORMALIZED FREE ENERGY PREDICTED BY IDOCK:   -2.89 KCAL/MOL
REMARK 922        TOTAL FREE ENERGY PREDICTED BY IDOCK:   -5.60 KCAL/MOL
REMARK 923 INTER-LIGAND FREE ENERGY PREDICTED BY IDOCK:   -4.41 KCAL/MOL
REMARK 924 INTRA-LIGAND FREE ENERGY PREDICTED BY IDOCK:   -1.20 KCAL/MOL
REMARK 927      BINDING AFFINITY PREDICTED BY RF-SCORE:    0.00 PKD
ROOT
HETATM    1  O   UNL     1     -12.406   6.111  72.381  1.00  0.00    -0.537 OA 
HETATM    2  H   UNL     1     -12.950   6.127  73.159  1.00  0.00     0.000 HD 
HETATM    3  C   UNL     1     -13.018   6.978  71.456  1.00  0.00    -0.359 C  
ENDROOT
BRANCH   3   4
HETATM    4  N   UNL     1     -12.202   6.954  70.291  1.00  0.00    -0.624 N  
HETATM    5  H   UNL     1     -12.544   6.506  69.441  1.00  0.00     0.000 HD 
BRANCH   4   6
HETATM    6  C   UNL     1     -10.966   7.526  70.309  1.00  0.00    -0.250 C  
HETATM    7  O   UNL     1     -10.054   7.071  70.995  1.00  0.00    -0.195 OA 
BRANCH   6   8
HETATM    8  N   UNL     1     -10.780   8.603  69.464  1.00  0.00    -0.214 N  
BRANCH   8   9
HETATM    9  C   UNL     1      -9.984   8.387  68.273  1.00  0.00    -0.187 C  
HETATM   10  O   UNL     1     -11.402   6.599  67.297  1.00  0.00    -0.324 OA 
HETATM   11  N   UNL     1      -8.577   8.151  68.501  1.00  0.00    -0.130 N  
HETATM   12  C   UNL     1     -10.300   7.114  67.457  1.00  0.00    -0.236 C  
HETATM   13  O   UNL     1      -6.895   7.043  67.354  1.00  0.00    -0.068 OA 
HETATM   14  N   UNL     1      -9.130   6.682  66.905  1.00  0.00    -0.131 N  
HETATM   15  C   UNL     1      -8.080   7.274  67.544  1.00  0.00    -0.114 C  
BRANCH  11  16
HETATM   16  C   UNL     1      -7.709   9.044  69.211  1.00  0.00    -0.090 C  
HETATM   17  H   UNL     1      -7.157  10.899  69.047  1.00  0.00     0.000 HD 
HETATM   18  O   UNL     1      -7.732  10.306  68.577  1.00  0.00    -0.086 OA 
ENDBRANCH  11  16
BRANCH  14  19
HETATM   19  C   UNL     1      -8.967   5.490  66.128  1.00  0.00    -0.145 C  
HETATM   20  O   UNL     1      -8.401   4.468  66.927  1.00  0.00    -0.106 OA 
HETATM   21  H   UNL     1      -8.293   3.677  66.412  1.00  0.00     0.000 HD 
ENDBRANCH  14  19
ENDBRANCH   8   9
BRANCH   8  22
HETATM   22  C   UNL     1     -11.118   9.965  69.805  1.00  0.00    -0.254 C  
HETATM   23  H   UNL     1     -11.760  10.872  71.380  1.00  0.00     0.000 HD 
HETATM   24  O   UNL     1     -11.537   9.976  71.156  1.00  0.00    -0.355 OA 
ENDBRANCH   8  22
ENDBRANCH   6   8
ENDBRANCH   4   6
ENDBRANCH   3   4
TORSDOF 7
ENDMDL
MODEL      202
REMARK 921   NORMALIZED FREE ENERGY PREDICTED BY IDOCK:   -2.89 KCAL/MOL
REMARK 922        TOTAL FREE ENERGY PREDICTED BY IDOCK:   -5.60 KCAL/MOL
REMARK 923 INTER-LIGAND FREE ENERGY PREDICTED BY IDOCK:   -4.69 KCAL/MOL
REMARK 924 INTRA-LIGAND FREE ENERGY PREDICTED BY IDOCK:   -0.91 KCAL/MOL
REMARK 927      BINDING AFFINITY PREDICTED BY RF-SCORE:    0.00 PKD
ROOT
HETATM    1  O   UNL     1      -5.675   8.618  70.313  1.00  0.00    -0.024 OA 
HETATM    2  H   UNL     1      -4.956   9.204  70.517  1.00  0.00     0.000 HD 
HETATM    3  C   UNL     1      -6.828   9.201  70.874  1.00  0.00    -0.096 C  
ENDROOT
BRANCH   3   4
HETATM    4  N   UNL     1      -7.904   8.323  70.569  1.00  0.00    -0.083 N  
HETATM    5  H   UNL     1      -7.818   7.664  69.795  1.00  0.00     0.000 HD 
BRANCH   4   6
HETATM    6  C   UNL     1      -9.050   8.360  71.306  1.00  0.00    -0.178 C  
HETATM    7  O   UNL     1      -9.079   8.862  72.427  1.00  0.00    -0.372 OA 
BRANCH   6   8
HETATM    8  N   UNL     1     -10.184   7.862  70.695  1.00  0.00    -0.195 N  
BRANCH   8   9
HETATM    9  C   UNL     1     -11.039   8.806  70.006  1.00  0.00    -0.162 C  
HETATM   10  O   UNL     1      -9.421   9.418  68.226  1.00  0.00    -0.137 OA 
HETATM   11  N   UNL     1     -11.625   9.834  70.835  1.00  0.00    -0.332 N  
HETATM   12  C   UNL     1     -10.356   9.717  68.961  1.00  0.00    -0.205 C  
HETATM   13  O   UNL     1     -12.396  11.989  70.474  1.00  0.00    -0.336 OA 
HETATM   14  N   UNL     1     -11.011  10.913  68.972  1.00  0.00    -0.217 N  
HETATM   15  C   UNL     1     -11.756  11.013  70.112  1.00  0.00    -0.356 C  
BRANCH  11  16
HETATM   16  C   UNL     1     -12.431   9.581  71.993  1.00  0.00    -0.349 C  
HETATM   17  H   UNL     1     -14.103   8.669  72.374  1.00  0.00     0.000 HD 
HETATM   18  O   UNL     1     -13.568   8.837  71.607  1.00  0.00    -0.368 OA 
ENDBRANCH  11  16
BRANCH  14  19
HETATM   19  C   UNL     1     -10.652  12.065  68.201  1.00  0.00    -0.210 C  
HETATM   20  O   UNL     1     -10.004  13.015  69.026  1.00  0.00    -0.420 OA 
HETATM   21  H   UNL     1      -9.766  13.778  68.514  1.00  0.00     0.000 HD 
ENDBRANCH  14  19
ENDBRANCH   8   9
BRANCH   8  22
HETATM   22  C   UNL     1     -10.690   6.525  70.900  1.00  0.00    -0.242 C  
HETATM   23  H   UNL     1     -12.028   5.416  70.067  1.00  0.00     0.000 HD 
HETATM   24  O   UNL     1     -11.695   6.295  69.932  1.00  0.00    -0.408 OA 
ENDBRANCH   8  22
ENDBRANCH   6   8
ENDBRANCH   4   6
ENDBRANCH   3   4
TORSDOF 7
ENDMDL
MODEL      203
REMARK 921   NORMALIZED FREE ENERGY PREDICTED BY IDOCK:   -2.89 KCAL/MOL
REMARK 922        TOTAL FREE ENERGY PREDICTED BY IDOCK:   -5.60 KCAL/MOL
REMARK 923 INTER-LIGAND FREE ENERGY PREDICTED BY IDOCK:   -3.99 KCAL/MOL
REMARK 924 INTRA-LIGAND FREE ENERGY PREDICTED BY IDOCK:   -1.61 KCAL/MOL
REMARK 927      BINDING AFFINITY PREDICTED BY RF-SCORE:    0.00 PKD
ROOT
HETATM    1  O   UNL     1     -10.084  13.309  68.894  1.00  0.00    -0.412 OA 
HETATM    2  H   UNL     1     -10.083  14.244  69.064  1.00  0.00     0.000 HD 
HETATM    3  C   UNL     1     -10.625  13.146  67.604  1.00  0.00    -0.228 C  
ENDROOT
BRANCH   3   4
HETATM    4  N   UNL     1     -10.626  11.747  67.350  1.00  0.00    -0.217 N  
HETATM    5  H   UNL     1     -10.317  11.395  66.444  1.00  0.00     0.000 HD 
BRANCH   4   6
HETATM    6  C   UNL     1     -11.039  10.876  68.312  1.00  0.00    -0.266 C  
HETATM    7  O   UNL     1     -12.170  10.931  68.791  1.00  0.00    -0.518 OA 
BRANCH   6   8
HETATM    8  N   UNL     1     -10.140   9.890  68.670  1.00  0.00    -0.168 N  
BRANCH   8   9
HETATM    9  C   UNL     1     -10.486   8.522  68.343  1.00  0.00    -0.171 C  
HETATM   10  O   UNL     1     -11.266   7.872  70.609  1.00  0.00    -0.262 OA 
HETATM   11  N   UNL     1      -9.450   7.758  67.688  1.00  0.00    -0.142 N  
HETATM   12  C   UNL     1     -10.749   7.576  69.537  1.00  0.00    -0.217 C  
HETATM   13  O   UNL     1      -8.919   5.507  67.541  1.00  0.00    -0.110 OA 
HETATM   14  N   UNL     1     -10.335   6.330  69.168  1.00  0.00    -0.195 N  
HETATM   15  C   UNL     1      -9.525   6.425  68.073  1.00  0.00    -0.116 C  
BRANCH  11  16
HETATM   16  C   UNL     1      -8.810   8.142  66.464  1.00  0.00    -0.149 C  
HETATM   17  H   UNL     1      -7.032   8.696  65.917  1.00  0.00     0.000 HD 
HETATM   18  O   UNL     1      -7.456   8.442  66.728  1.00  0.00    -0.082 OA 
ENDBRANCH  11  16
BRANCH  14  19
HETATM   19  C   UNL     1     -10.336   5.171  70.008  1.00  0.00    -0.276 C  
HETATM   20  O   UNL     1      -9.050   4.980  70.568  1.00  0.00    -0.130 OA 
HETATM   21  H   UNL     1      -9.051   4.211  71.126  1.00  0.00     0.000 HD 
ENDBRANCH  14  19
ENDBRANCH   8   9
BRANCH   8  22
HETATM   22  C   UNL     1      -9.012  10.105  69.546  1.00  0.00    -0.188 C  
HETATM   23  H   UNL     1      -7.377  11.122  69.463  1.00  0.00     0.000 HD 
HETATM   24  O   UNL     1      -8.119  10.981  68.886  1.00  0.00    -0.142 OA 
ENDBRANCH   8  22
ENDBRANCH   6   8
ENDBRANCH   4   6
ENDBRANCH   3   4
TORSDOF 7
ENDMDL
MODEL      204
REMARK 921   NORMALIZED FREE ENERGY PREDICTED BY IDOCK:   -2.88 KCAL/MOL
REMARK 922        TOTAL FREE ENERGY PREDICTED BY IDOCK:   -5.59 KCAL/MOL
REMARK 923 INTER-LIGAND FREE ENERGY PREDICTED BY IDOCK:   -5.74 KCAL/MOL
REMARK 924 INTRA-LIGAND FREE ENERGY PREDICTED BY IDOCK:    0.15 KCAL/MOL
REMARK 927      BINDING AFFINITY PREDICTED BY RF-SCORE:    0.00 PKD
ROOT
HETATM    1  O   UNL     1     -12.954  14.492  64.484  1.00  0.00    -0.536 OA 
HETATM    2  H   UNL     1     -13.235  14.202  63.625  1.00  0.00     0.000 HD 
HETATM    3  C   UNL     1     -12.778  13.325  65.254  1.00  0.00    -0.412 C  
ENDROOT
BRANCH   3   4
HETATM    4  N   UNL     1     -12.357  13.760  66.540  1.00  0.00    -0.416 N  
HETATM    5  H   UNL     1     -12.931  13.558  67.358  1.00  0.00     0.000 HD 
BRANCH   4   6
HETATM    6  C   UNL     1     -11.188  14.447  66.683  1.00  0.00    -0.339 C  
HETATM    7  O   UNL     1     -10.493  14.746  65.715  1.00  0.00    -0.298 OA 
BRANCH   6   8
HETATM    8  N   UNL     1     -10.866  14.842  67.967  1.00  0.00    -0.254 N  
BRANCH   8   9
HETATM    9  C   UNL     1     -10.622  13.799  68.943  1.00  0.00    -0.205 C  
HETATM   10  O   UNL     1      -9.496  12.215  67.400  1.00  0.00    -0.174 OA 
HETATM   11  N   UNL     1     -11.776  13.374  69.701  1.00  0.00    -0.309 N  
HETATM   12  C   UNL     1     -10.194  12.423  68.387  1.00  0.00    -0.225 C  
HETATM   13  O   UNL     1     -12.394  11.424  70.789  1.00  0.00    -0.365 OA 
HETATM   14  N   UNL     1     -10.702  11.470  69.220  1.00  0.00    -0.173 N  
HETATM   15  C   UNL     1     -11.680  12.020  69.998  1.00  0.00    -0.267 C  
BRANCH  11  16
HETATM   16  C   UNL     1     -12.599  14.248  70.484  1.00  0.00    -0.353 C  
HETATM   17  H   UNL     1     -12.425  15.231  72.150  1.00  0.00     0.000 HD 
HETATM   18  O   UNL     1     -11.879  14.652  71.630  1.00  0.00    -0.342 OA 
ENDBRANCH  11  16
BRANCH  14  19
HETATM   19  C   UNL     1     -10.597  10.055  69.028  1.00  0.00    -0.214 C  
HETATM   20  O   UNL     1     -10.961   9.378  70.215  1.00  0.00    -0.237 OA 
HETATM   21  H   UNL     1     -10.892   8.440  70.087  1.00  0.00     0.000 HD 
ENDBRANCH  14  19
ENDBRANCH   8   9
BRANCH   8  22
HETATM   22  C   UNL     1     -10.992  16.196  68.451  1.00  0.00    -0.341 C  
HETATM   23  H   UNL     1     -10.164  17.888  68.042  1.00  0.00     0.000 HD 
HETATM   24  O   UNL     1     -10.082  16.997  67.723  1.00  0.00    -0.280 OA 
ENDBRANCH   8  22
ENDBRANCH   6   8
ENDBRANCH   4   6
ENDBRANCH   3   4
TORSDOF 7
ENDMDL
MODEL      205
REMARK 921   NORMALIZED FREE ENERGY PREDICTED BY IDOCK:   -2.88 KCAL/MOL
REMARK 922        TOTAL FREE ENERGY PREDICTED BY IDOCK:   -5.59 KCAL/MOL
REMARK 923 INTER-LIGAND FREE ENERGY PREDICTED BY IDOCK:   -4.69 KCAL/MOL
REMARK 924 INTRA-LIGAND FREE ENERGY PREDICTED BY IDOCK:   -0.91 KCAL/MOL
REMARK 927      BINDING AFFINITY PREDICTED BY RF-SCORE:    0.00 PKD
ROOT
HETATM    1  O   UNL     1      -7.339   4.626  68.146  1.00  0.00    -0.064 OA 
HETATM    2  H   UNL     1      -6.595   4.744  67.568  1.00  0.00     0.000 HD 
HETATM    3  C   UNL     1      -7.444   5.815  68.895  1.00  0.00    -0.085 C  
ENDROOT
BRANCH   3   4
HETATM    4  N   UNL     1      -8.559   5.639  69.761  1.00  0.00    -0.120 N  
HETATM    5  H   UNL     1      -8.999   4.722  69.842  1.00  0.00     0.000 HD 
BRANCH   4   6
HETATM    6  C   UNL     1      -9.041   6.690  70.481  1.00  0.00    -0.152 C  
HETATM    7  O   UNL     1      -8.447   7.124  71.465  1.00  0.00    -0.115 OA 
BRANCH   6   8
HETATM    8  N   UNL     1     -10.195   7.278  70.003  1.00  0.00    -0.197 N  
BRANCH   8   9
HETATM    9  C   UNL     1     -10.177   8.712  69.797  1.00  0.00    -0.206 C  
HETATM   10  O   UNL     1     -11.131   9.335  72.003  1.00  0.00    -0.331 OA 
HETATM   11  N   UNL     1     -10.805   9.174  68.581  1.00  0.00    -0.113 N  
HETATM   12  C   UNL     1     -10.980   9.563  70.807  1.00  0.00    -0.321 C  
HETATM   13  O   UNL     1     -11.823  11.144  67.908  1.00  0.00    -0.601 OA 
HETATM   14  N   UNL     1     -11.464  10.645  70.133  1.00  0.00    -0.306 N  
HETATM   15  C   UNL     1     -11.395  10.414  68.790  1.00  0.00    -0.214 C  
BRANCH  11  16
HETATM   16  C   UNL     1     -10.442   8.737  67.265  1.00  0.00    -0.283 C  
HETATM   17  H   UNL     1      -8.801   8.558  66.242  1.00  0.00     0.000 HD 
HETATM   18  O   UNL     1      -9.042   8.847  67.114  1.00  0.00    -0.134 OA 
ENDBRANCH  11  16
BRANCH  14  19
HETATM   19  C   UNL     1     -12.323  11.651  70.683  1.00  0.00    -0.344 C  
HETATM   20  O   UNL     1     -13.124  11.093  71.708  1.00  0.00    -0.467 OA 
HETATM   21  H   UNL     1     -13.693  11.760  72.073  1.00  0.00     0.000 HD 
ENDBRANCH  14  19
ENDBRANCH   8   9
BRANCH   8  22
HETATM   22  C   UNL     1     -11.472   6.608  69.928  1.00  0.00    -0.354 C  
HETATM   23  H   UNL     1     -12.625   5.694  71.173  1.00  0.00     0.000 HD 
HETATM   24  O   UNL     1     -11.785   6.135  71.223  1.00  0.00    -0.278 OA 
ENDBRANCH   8  22
ENDBRANCH   6   8
ENDBRANCH   4   6
ENDBRANCH   3   4
TORSDOF 7
ENDMDL
MODEL      206
REMARK 921   NORMALIZED FREE ENERGY PREDICTED BY IDOCK:   -2.87 KCAL/MOL
REMARK 922        TOTAL FREE ENERGY PREDICTED BY IDOCK:   -5.58 KCAL/MOL
REMARK 923 INTER-LIGAND FREE ENERGY PREDICTED BY IDOCK:   -4.23 KCAL/MOL
REMARK 924 INTRA-LIGAND FREE ENERGY PREDICTED BY IDOCK:   -1.35 KCAL/MOL
REMARK 927      BINDING AFFINITY PREDICTED BY RF-SCORE:    0.00 PKD
ROOT
HETATM    1  O   UNL     1      -9.104   9.330  63.912  1.00  0.00    -0.423 OA 
HETATM    2  H   UNL     1      -9.364   8.798  63.170  1.00  0.00     0.000 HD 
HETATM    3  C   UNL     1      -9.810  10.543  63.790  1.00  0.00    -0.300 C  
ENDROOT
BRANCH   3   4
HETATM    4  N   UNL     1      -9.420  11.340  64.902  1.00  0.00    -0.271 N  
HETATM    5  H   UNL     1      -9.680  12.326  64.935  1.00  0.00     0.000 HD 
BRANCH   4   6
HETATM    6  C   UNL     1      -8.702  10.791  65.921  1.00  0.00    -0.181 C  
HETATM    7  O   UNL     1      -7.476  10.714  65.878  1.00  0.00    -0.145 OA 
BRANCH   6   8
HETATM    8  N   UNL     1      -9.423  10.389  67.028  1.00  0.00    -0.161 N  
BRANCH   8   9
HETATM    9  C   UNL     1      -8.981   9.190  67.712  1.00  0.00    -0.127 C  
HETATM   10  O   UNL     1     -10.879   7.747  67.022  1.00  0.00    -0.316 OA 
HETATM   11  N   UNL     1      -8.668   9.354  69.113  1.00  0.00    -0.136 N  
HETATM   12  C   UNL     1     -10.016   8.051  67.840  1.00  0.00    -0.180 C  
HETATM   13  O   UNL     1      -8.654   7.957  70.962  1.00  0.00    -0.126 OA 
HETATM   14  N   UNL     1      -9.773   7.409  69.018  1.00  0.00    -0.159 N  
HETATM   15  C   UNL     1      -8.987   8.195  69.811  1.00  0.00    -0.144 C  
BRANCH  11  16
HETATM   16  C   UNL     1      -7.711  10.289  69.626  1.00  0.00    -0.160 C  
HETATM   17  H   UNL     1      -5.796  10.573  69.475  1.00  0.00     0.000 HD 
HETATM   18  O   UNL     1      -6.431   9.953  69.135  1.00  0.00    -0.047 OA 
ENDBRANCH  11  16
BRANCH  14  19
HETATM   19  C   UNL     1     -10.551   6.334  69.556  1.00  0.00    -0.271 C  
HETATM   20  O   UNL     1     -11.929   6.610  69.398  1.00  0.00    -0.611 OA 
HETATM   21  H   UNL     1     -12.445   5.896  69.754  1.00  0.00     0.000 HD 
ENDBRANCH  14  19
ENDBRANCH   8   9
BRANCH   8  22
HETATM   22  C   UNL     1     -10.707  10.936  67.398  1.00  0.00    -0.257 C  
HETATM   23  H   UNL     1     -11.404  12.698  67.752  1.00  0.00     0.000 HD 
HETATM   24  O   UNL     1     -10.559  12.338  67.508  1.00  0.00    -0.213 OA 
ENDBRANCH   8  22
ENDBRANCH   6   8
ENDBRANCH   4   6
ENDBRANCH   3   4
TORSDOF 7
ENDMDL
MODEL      207
REMARK 921   NORMALIZED FREE ENERGY PREDICTED BY IDOCK:   -2.87 KCAL/MOL
REMARK 922        TOTAL FREE ENERGY PREDICTED BY IDOCK:   -5.58 KCAL/MOL
REMARK 923 INTER-LIGAND FREE ENERGY PREDICTED BY IDOCK:   -4.00 KCAL/MOL
REMARK 924 INTRA-LIGAND FREE ENERGY PREDICTED BY IDOCK:   -1.58 KCAL/MOL
REMARK 927      BINDING AFFINITY PREDICTED BY RF-SCORE:    0.00 PKD
ROOT
HETATM    1  O   UNL     1     -12.485  12.741  65.440  1.00  0.00    -0.539 OA 
HETATM    2  H   UNL     1     -13.304  12.941  65.004  1.00  0.00     0.000 HD 
HETATM    3  C   UNL     1     -11.507  13.548  64.826  1.00  0.00    -0.346 C  
ENDROOT
BRANCH   3   4
HETATM    4  N   UNL     1     -10.280  13.247  65.478  1.00  0.00    -0.294 N  
HETATM    5  H   UNL     1      -9.582  13.980  65.609  1.00  0.00     0.000 HD 
BRANCH   4   6
HETATM    6  C   UNL     1     -10.032  11.985  65.926  1.00  0.00    -0.236 C  
HETATM    7  O   UNL     1     -10.014  11.022  65.164  1.00  0.00    -0.243 OA 
BRANCH   6   8
HETATM    8  N   UNL     1      -9.740  11.861  67.270  1.00  0.00    -0.183 N  
BRANCH   8   9
HETATM    9  C   UNL     1      -8.904  10.749  67.671  1.00  0.00    -0.132 C  
HETATM   10  O   UNL     1     -10.709   9.378  68.682  1.00  0.00    -0.213 OA 
HETATM   11  N   UNL     1      -7.737  11.097  68.450  1.00  0.00    -0.117 N  
HETATM   12  C   UNL     1      -9.534   9.731  68.647  1.00  0.00    -0.151 C  
HETATM   13  O   UNL     1      -6.425  10.002  70.014  1.00  0.00    -0.066 OA 
HETATM   14  N   UNL     1      -8.535   9.258  69.446  1.00  0.00    -0.130 N  
HETATM   15  C   UNL     1      -7.455  10.088  69.363  1.00  0.00    -0.113 C  
BRANCH  11  16
HETATM   16  C   UNL     1      -6.724  12.018  68.025  1.00  0.00    -0.070 C  
HETATM   17  H   UNL     1      -6.132  13.795  68.537  1.00  0.00     0.000 HD 
HETATM   18  O   UNL     1      -6.803  13.184  68.818  1.00  0.00    -0.093 OA 
ENDBRANCH  11  16
BRANCH  14  19
HETATM   19  C   UNL     1      -8.703   8.345  70.536  1.00  0.00    -0.147 C  
HETATM   20  O   UNL     1      -8.508   9.019  71.765  1.00  0.00    -0.351 OA 
HETATM   21  H   UNL     1      -8.620   8.413  72.487  1.00  0.00     0.000 HD 
ENDBRANCH  14  19
ENDBRANCH   8   9
BRANCH   8  22
HETATM   22  C   UNL     1     -10.400  12.613  68.312  1.00  0.00    -0.241 C  
HETATM   23  H   UNL     1     -12.228  12.980  68.801  1.00  0.00     0.000 HD 
HETATM   24  O   UNL     1     -11.794  12.485  68.115  1.00  0.00    -0.334 OA 
ENDBRANCH   8  22
ENDBRANCH   6   8
ENDBRANCH   4   6
ENDBRANCH   3   4
TORSDOF 7
ENDMDL
MODEL      208
REMARK 921   NORMALIZED FREE ENERGY PREDICTED BY IDOCK:   -2.87 KCAL/MOL
REMARK 922        TOTAL FREE ENERGY PREDICTED BY IDOCK:   -5.57 KCAL/MOL
REMARK 923 INTER-LIGAND FREE ENERGY PREDICTED BY IDOCK:   -4.60 KCAL/MOL
REMARK 924 INTRA-LIGAND FREE ENERGY PREDICTED BY IDOCK:   -0.97 KCAL/MOL
REMARK 927      BINDING AFFINITY PREDICTED BY RF-SCORE:    0.00 PKD
ROOT
HETATM    1  O   UNL     1     -12.406  10.951  68.335  1.00  0.00    -0.803 OA 
HETATM    2  H   UNL     1     -12.319  11.827  67.979  1.00  0.00     0.000 HD 
HETATM    3  C   UNL     1     -11.097  10.447  68.461  1.00  0.00    -0.266 C  
ENDROOT
BRANCH   3   4
HETATM    4  N   UNL     1     -11.227   9.135  68.994  1.00  0.00    -0.432 N  
HETATM    5  H   UNL     1     -12.121   8.830  69.380  1.00  0.00     0.000 HD 
BRANCH   4   6
HETATM    6  C   UNL     1     -10.162   8.285  68.991  1.00  0.00    -0.217 C  
HETATM    7  O   UNL     1      -9.012   8.692  68.848  1.00  0.00    -0.140 OA 
BRANCH   6   8
HETATM    8  N   UNL     1     -10.445   6.953  69.221  1.00  0.00    -0.205 N  
BRANCH   8   9
HETATM    9  C   UNL     1     -10.077   6.408  70.512  1.00  0.00    -0.186 C  
HETATM   10  O   UNL     1      -8.468   4.719  69.666  1.00  0.00    -0.081 OA 
HETATM   11  N   UNL     1     -11.180   5.999  71.351  1.00  0.00    -0.282 N  
HETATM   12  C   UNL     1      -9.295   5.076  70.498  1.00  0.00    -0.156 C  
HETATM   13  O   UNL     1     -11.456   4.457  73.059  1.00  0.00    -0.164 OA 
HETATM   14  N   UNL     1      -9.661   4.376  71.610  1.00  0.00    -0.153 N  
HETATM   15  C   UNL     1     -10.814   4.900  72.119  1.00  0.00    -0.066 C  
BRANCH  11  16
HETATM   16  C   UNL     1     -12.256   6.857  71.751  1.00  0.00    -0.356 C  
HETATM   17  H   UNL     1     -12.445   8.695  72.350  1.00  0.00     0.000 HD 
HETATM   18  O   UNL     1     -11.732   8.126  72.085  1.00  0.00    -0.311 OA 
ENDBRANCH  11  16
BRANCH  14  19
HETATM   19  C   UNL     1      -9.221   3.054  71.943  1.00  0.00    -0.110 C  
HETATM   20  O   UNL     1      -8.929   2.977  73.326  1.00  0.00    -0.085 OA 
HETATM   21  H   UNL     1      -8.638   2.101  73.547  1.00  0.00     0.000 HD 
ENDBRANCH  14  19
ENDBRANCH   8   9
BRANCH   8  22
HETATM   22  C   UNL     1     -10.854   6.024  68.194  1.00  0.00    -0.281 C  
HETATM   23  H   UNL     1     -10.960   6.057  66.270  1.00  0.00     0.000 HD 
HETATM   24  O   UNL     1     -10.690   6.668  66.945  1.00  0.00    -0.306 OA 
ENDBRANCH   8  22
ENDBRANCH   6   8
ENDBRANCH   4   6
ENDBRANCH   3   4
TORSDOF 7
ENDMDL
MODEL      209
REMARK 921   NORMALIZED FREE ENERGY PREDICTED BY IDOCK:   -2.85 KCAL/MOL
REMARK 922        TOTAL FREE ENERGY PREDICTED BY IDOCK:   -5.55 KCAL/MOL
REMARK 923 INTER-LIGAND FREE ENERGY PREDICTED BY IDOCK:   -4.63 KCAL/MOL
REMARK 924 INTRA-LIGAND FREE ENERGY PREDICTED BY IDOCK:   -0.92 KCAL/MOL
REMARK 927      BINDING AFFINITY PREDICTED BY RF-SCORE:    0.00 PKD
ROOT
HETATM    1  O   UNL     1     -11.098  14.263  66.376  1.00  0.00    -0.313 OA 
HETATM    2  H   UNL     1     -11.587  13.450  66.340  1.00  0.00     0.000 HD 
HETATM    3  C   UNL     1      -9.831  13.982  65.829  1.00  0.00    -0.256 C  
ENDROOT
BRANCH   3   4
HETATM    4  N   UNL     1      -9.098  15.199  65.884  1.00  0.00    -0.460 N  
HETATM    5  H   UNL     1      -9.190  15.882  65.132  1.00  0.00     0.000 HD 
BRANCH   4   6
HETATM    6  C   UNL     1      -8.273  15.456  66.937  1.00  0.00    -0.246 C  
HETATM    7  O   UNL     1      -7.051  15.382  66.832  1.00  0.00    -0.191 OA 
BRANCH   6   8
HETATM    8  N   UNL     1      -8.884  15.865  68.106  1.00  0.00    -0.174 N  
BRANCH   8   9
HETATM    9  C   UNL     1      -9.215  17.270  68.228  1.00  0.00    -0.265 C  
HETATM   10  O   UNL     1     -10.907  17.329  66.413  1.00  0.00    -0.126 OA 
HETATM   11  N   UNL     1      -8.091  18.178  68.200  1.00  0.00    -0.273 N  
HETATM   12  C   UNL     1     -10.036  17.886  67.074  1.00  0.00    -0.324 C  
HETATM   13  O   UNL     1      -7.791  20.396  67.599  1.00  0.00    -0.303 OA 
HETATM   14  N   UNL     1      -9.645  19.187  66.944  1.00  0.00    -0.312 N  
HETATM   15  C   UNL     1      -8.458  19.372  67.591  1.00  0.00    -0.304 C  
BRANCH  11  16
HETATM   16  C   UNL     1      -6.975  18.115  69.097  1.00  0.00    -0.209 C  
HETATM   17  H   UNL     1      -5.075  17.737  68.958  1.00  0.00     0.000 HD 
HETATM   18  O   UNL     1      -5.815  17.779  68.364  1.00  0.00    -0.160 OA 
ENDBRANCH  11  16
BRANCH  14  19
HETATM   19  C   UNL     1     -10.110  20.099  65.943  1.00  0.00    -0.331 C  
HETATM   20  O   UNL     1     -11.406  19.726  65.515  1.00  0.00    -0.128 OA 
HETATM   21  H   UNL     1     -11.714  20.331  64.851  1.00  0.00     0.000 HD 
ENDBRANCH  14  19
ENDBRANCH   8   9
BRANCH   8  22
HETATM   22  C   UNL     1      -8.995  15.045  69.290  1.00  0.00    -0.158 C  
HETATM   23  H   UNL     1      -9.647  13.275  69.684  1.00  0.00     0.000 HD 
HETATM   24  O   UNL     1      -9.574  13.814  68.905  1.00  0.00    -0.092 OA 
ENDBRANCH   8  22
ENDBRANCH   6   8
ENDBRANCH   4   6
ENDBRANCH   3   4
TORSDOF 7
ENDMDL
MODEL      210
REMARK 921   NORMALIZED FREE ENERGY PREDICTED BY IDOCK:   -2.85 KCAL/MOL
REMARK 922        TOTAL FREE ENERGY PREDICTED BY IDOCK:   -5.55 KCAL/MOL
REMARK 923 INTER-LIGAND FREE ENERGY PREDICTED BY IDOCK:   -5.32 KCAL/MOL
REMARK 924 INTRA-LIGAND FREE ENERGY PREDICTED BY IDOCK:   -0.23 KCAL/MOL
REMARK 927      BINDING AFFINITY PREDICTED BY RF-SCORE:    0.00 PKD
ROOT
HETATM    1  O   UNL     1     -11.600  16.450  63.777  1.00  0.00    -1.605 OA 
HETATM    2  H   UNL     1     -12.377  16.862  63.418  1.00  0.00     0.000 HD 
HETATM    3  C   UNL     1     -12.030  15.237  64.350  1.00  0.00    -0.277 C  
ENDROOT
BRANCH   3   4
HETATM    4  N   UNL     1     -10.867  14.620  64.887  1.00  0.00    -0.445 N  
HETATM    5  H   UNL     1     -10.015  14.568  64.328  1.00  0.00     0.000 HD 
BRANCH   4   6
HETATM    6  C   UNL     1     -10.887  14.098  66.146  1.00  0.00    -0.296 C  
HETATM    7  O   UNL     1     -11.273  14.755  67.110  1.00  0.00    -0.324 OA 
BRANCH   6   8
HETATM    8  N   UNL     1     -10.511  12.774  66.263  1.00  0.00    -0.253 N  
BRANCH   8   9
HETATM    9  C   UNL     1      -9.720  12.406  67.419  1.00  0.00    -0.193 C  
HETATM   10  O   UNL     1      -7.843  11.371  66.168  1.00  0.00    -0.084 OA 
HETATM   11  N   UNL     1     -10.416  11.651  68.435  1.00  0.00    -0.205 N  
HETATM   12  C   UNL     1      -8.550  11.428  67.168  1.00  0.00    -0.151 C  
HETATM   13  O   UNL     1      -9.787  10.130  70.066  1.00  0.00    -0.228 OA 
HETATM   14  N   UNL     1      -8.415  10.659  68.286  1.00  0.00    -0.122 N  
HETATM   15  C   UNL     1      -9.545  10.757  69.045  1.00  0.00    -0.180 C  
BRANCH  11  16
HETATM   16  C   UNL     1     -11.613  12.087  69.092  1.00  0.00    -0.312 C  
HETATM   17  H   UNL     1     -13.443  11.458  69.252  1.00  0.00     0.000 HD 
HETATM   18  O   UNL     1     -12.650  11.169  68.816  1.00  0.00    -0.345 OA 
ENDBRANCH  11  16
BRANCH  14  19
HETATM   19  C   UNL     1      -7.491   9.576  68.444  1.00  0.00    -0.077 C  
HETATM   20  O   UNL     1      -8.177   8.341  68.367  1.00  0.00    -0.128 OA 
HETATM   21  H   UNL     1      -7.564   7.623  68.471  1.00  0.00     0.000 HD 
ENDBRANCH  14  19
ENDBRANCH   8   9
BRANCH   8  22
HETATM   22  C   UNL     1     -10.647  11.800  65.207  1.00  0.00    -0.278 C  
HETATM   23  H   UNL     1     -11.348  10.009  65.065  1.00  0.00     0.000 HD 
HETATM   24  O   UNL     1     -11.259  10.651  65.760  1.00  0.00     0.188 OA 
ENDBRANCH   8  22
ENDBRANCH   6   8
ENDBRANCH   4   6
ENDBRANCH   3   4
TORSDOF 7
ENDMDL
MODEL      211
REMARK 921   NORMALIZED FREE ENERGY PREDICTED BY IDOCK:   -2.83 KCAL/MOL
REMARK 922        TOTAL FREE ENERGY PREDICTED BY IDOCK:   -5.52 KCAL/MOL
REMARK 923 INTER-LIGAND FREE ENERGY PREDICTED BY IDOCK:   -4.53 KCAL/MOL
REMARK 924 INTRA-LIGAND FREE ENERGY PREDICTED BY IDOCK:   -1.00 KCAL/MOL
REMARK 927      BINDING AFFINITY PREDICTED BY RF-SCORE:    0.00 PKD
ROOT
HETATM    1  O   UNL     1      -9.772   2.798  67.159  1.00  0.00    -0.402 OA 
HETATM    2  H   UNL     1      -9.463   1.900  67.157  1.00  0.00     0.000 HD 
HETATM    3  C   UNL     1      -9.281   3.380  68.344  1.00  0.00    -0.173 C  
ENDROOT
BRANCH   3   4
HETATM    4  N   UNL     1      -9.744   4.724  68.346  1.00  0.00    -0.153 N  
HETATM    5  H   UNL     1      -9.957   5.189  67.464  1.00  0.00     0.000 HD 
BRANCH   4   6
HETATM    6  C   UNL     1      -9.906   5.392  69.523  1.00  0.00    -0.196 C  
HETATM    7  O   UNL     1     -10.321   4.828  70.533  1.00  0.00    -0.218 OA 
BRANCH   6   8
HETATM    8  N   UNL     1      -9.516   6.716  69.531  1.00  0.00    -0.148 N  
BRANCH   8   9
HETATM    9  C   UNL     1     -10.538   7.714  69.289  1.00  0.00    -0.201 C  
HETATM   10  O   UNL     1      -9.905   8.215  66.942  1.00  0.00    -0.200 OA 
HETATM   11  N   UNL     1     -10.610   8.779  70.262  1.00  0.00    -0.210 N  
HETATM   12  C   UNL     1     -10.371   8.576  68.018  1.00  0.00    -0.217 C  
HETATM   13  O   UNL     1     -11.336  10.980  70.232  1.00  0.00    -0.284 OA 
HETATM   14  N   UNL     1     -10.876   9.813  68.294  1.00  0.00    -0.233 N  
HETATM   15  C   UNL     1     -10.996   9.963  69.646  1.00  0.00    -0.252 C  
BRANCH  11  16
HETATM   16  C   UNL     1     -10.797   8.581  71.670  1.00  0.00    -0.286 C  
HETATM   17  H   UNL     1      -9.656   8.348  73.224  1.00  0.00     0.000 HD 
HETATM   18  O   UNL     1      -9.532   8.480  72.291  1.00  0.00    -0.262 OA 
ENDBRANCH  11  16
BRANCH  14  19
HETATM   19  C   UNL     1     -10.852  10.937  67.408  1.00  0.00    -0.279 C  
HETATM   20  O   UNL     1     -12.015  11.721  67.594  1.00  0.00    -0.599 OA 
HETATM   21  H   UNL     1     -12.000  12.467  67.006  1.00  0.00     0.000 HD 
ENDBRANCH  14  19
ENDBRANCH   8   9
BRANCH   8  22
HETATM   22  C   UNL     1      -8.140   7.153  69.524  1.00  0.00    -0.130 C  
HETATM   23  H   UNL     1      -6.525   6.607  68.623  1.00  0.00     0.000 HD 
HETATM   24  O   UNL     1      -7.430   6.320  68.628  1.00  0.00    -0.084 OA 
ENDBRANCH   8  22
ENDBRANCH   6   8
ENDBRANCH   4   6
ENDBRANCH   3   4
TORSDOF 7
ENDMDL
MODEL      212
REMARK 921   NORMALIZED FREE ENERGY PREDICTED BY IDOCK:   -2.83 KCAL/MOL
REMARK 922        TOTAL FREE ENERGY PREDICTED BY IDOCK:   -5.52 KCAL/MOL
REMARK 923 INTER-LIGAND FREE ENERGY PREDICTED BY IDOCK:   -4.06 KCAL/MOL
REMARK 924 INTRA-LIGAND FREE ENERGY PREDICTED BY IDOCK:   -1.46 KCAL/MOL
REMARK 927      BINDING AFFINITY PREDICTED BY RF-SCORE:    0.00 PKD
ROOT
HETATM    1  O   UNL     1      -9.373  12.598  65.490  1.00  0.00    -0.453 OA 
HETATM    2  H   UNL     1      -9.095  13.001  64.676  1.00  0.00     0.000 HD 
HETATM    3  C   UNL     1     -10.777  12.707  65.521  1.00  0.00    -0.274 C  
ENDROOT
BRANCH   3   4
HETATM    4  N   UNL     1     -11.193  12.103  66.740  1.00  0.00    -0.303 N  
HETATM    5  H   UNL     1     -12.106  11.653  66.798  1.00  0.00     0.000 HD 
BRANCH   4   6
HETATM    6  C   UNL     1     -10.376  12.125  67.830  1.00  0.00    -0.206 C  
HETATM    7  O   UNL     1      -9.891  13.172  68.252  1.00  0.00    -0.223 OA 
BRANCH   6   8
HETATM    8  N   UNL     1     -10.178  10.916  68.468  1.00  0.00    -0.177 N  
BRANCH   8   9
HETATM    9  C   UNL     1      -9.073  10.096  68.015  1.00  0.00    -0.131 C  
HETATM   10  O   UNL     1     -10.275   9.002  66.138  1.00  0.00    -0.267 OA 
HETATM   11  N   UNL     1      -8.437   9.292  69.033  1.00  0.00    -0.129 N  
HETATM   12  C   UNL     1      -9.418   8.969  67.016  1.00  0.00    -0.163 C  
HETATM   13  O   UNL     1      -7.241   7.307  69.043  1.00  0.00    -0.083 OA 
HETATM   14  N   UNL     1      -8.565   7.933  67.258  1.00  0.00    -0.127 N  
HETATM   15  C   UNL     1      -7.989   8.096  68.485  1.00  0.00    -0.126 C  
BRANCH  11  16
HETATM   16  C   UNL     1      -7.869   9.814  70.241  1.00  0.00    -0.171 C  
HETATM   17  H   UNL     1      -8.142   9.570  72.148  1.00  0.00     0.000 HD 
HETATM   18  O   UNL     1      -8.519   9.224  71.347  1.00  0.00    -0.325 OA 
ENDBRANCH  11  16
BRANCH  14  19
HETATM   19  C   UNL     1      -8.591   6.662  66.599  1.00  0.00    -0.123 C  
HETATM   20  O   UNL     1      -7.296   6.334  66.132  1.00  0.00    -0.077 OA 
HETATM   21  H   UNL     1      -7.313   5.491  65.695  1.00  0.00     0.000 HD 
ENDBRANCH  14  19
ENDBRANCH   8   9
BRANCH   8  22
HETATM   22  C   UNL     1     -11.128  10.317  69.377  1.00  0.00    -0.252 C  
HETATM   23  H   UNL     1     -12.994  10.574  69.786  1.00  0.00     0.000 HD 
HETATM   24  O   UNL     1     -12.369  10.968  69.188  1.00  0.00    -0.451 OA 
ENDBRANCH   8  22
ENDBRANCH   6   8
ENDBRANCH   4   6
ENDBRANCH   3   4
TORSDOF 7
ENDMDL
MODEL      213
REMARK 921   NORMALIZED FREE ENERGY PREDICTED BY IDOCK:   -2.82 KCAL/MOL
REMARK 922        TOTAL FREE ENERGY PREDICTED BY IDOCK:   -5.51 KCAL/MOL
REMARK 923 INTER-LIGAND FREE ENERGY PREDICTED BY IDOCK:   -4.49 KCAL/MOL
REMARK 924 INTRA-LIGAND FREE ENERGY PREDICTED BY IDOCK:   -1.02 KCAL/MOL
REMARK 927      BINDING AFFINITY PREDICTED BY RF-SCORE:    0.00 PKD
ROOT
HETATM    1  O   UNL     1     -13.956   9.760  72.678  1.00  0.00    -0.646 OA 
HETATM    2  H   UNL     1     -14.361  10.467  73.167  1.00  0.00     0.000 HD 
HETATM    3  C   UNL     1     -13.267  10.366  71.610  1.00  0.00    -0.400 C  
ENDROOT
BRANCH   3   4
HETATM    4  N   UNL     1     -12.661   9.308  70.879  1.00  0.00    -0.508 N  
HETATM    5  H   UNL     1     -13.241   8.674  70.328  1.00  0.00     0.000 HD 
BRANCH   4   6
HETATM    6  C   UNL     1     -11.310   9.136  70.912  1.00  0.00    -0.295 C  
HETATM    7  O   UNL     1     -10.542   9.976  70.448  1.00  0.00    -0.286 OA 
BRANCH   6   8
HETATM    8  N   UNL     1     -10.854   8.001  71.553  1.00  0.00    -0.228 N  
BRANCH   8   9
HETATM    9  C   UNL     1      -9.561   7.484  71.154  1.00  0.00    -0.158 C  
HETATM   10  O   UNL     1     -10.372   6.112  69.251  1.00  0.00    -0.182 OA 
HETATM   11  N   UNL     1      -8.785   6.872  72.208  1.00  0.00    -0.127 N  
HETATM   12  C   UNL     1      -9.571   6.301  70.161  1.00  0.00    -0.162 C  
HETATM   13  O   UNL     1      -7.129   5.253  72.294  1.00  0.00    -0.080 OA 
HETATM   14  N   UNL     1      -8.495   5.515  70.451  1.00  0.00    -0.120 N  
HETATM   15  C   UNL     1      -8.028   5.825  71.696  1.00  0.00    -0.117 C  
BRANCH  11  16
HETATM   16  C   UNL     1      -8.414   7.528  73.428  1.00  0.00    -0.151 C  
HETATM   17  H   UNL     1      -7.486   9.159  73.926  1.00  0.00     0.000 HD 
HETATM   18  O   UNL     1      -7.732   8.724  73.117  1.00  0.00    -0.385 OA 
ENDBRANCH  11  16
BRANCH  14  19
HETATM   19  C   UNL     1      -8.173   4.275  69.811  1.00  0.00    -0.062 C  
HETATM   20  O   UNL     1      -6.785   4.215  69.546  1.00  0.00    -0.039 OA 
HETATM   21  H   UNL     1      -6.572   3.392  69.122  1.00  0.00     0.000 HD 
ENDBRANCH  14  19
ENDBRANCH   8   9
BRANCH   8  22
HETATM   22  C   UNL     1     -11.672   7.173  72.408  1.00  0.00    -0.222 C  
HETATM   23  H   UNL     1     -13.168   5.984  72.152  1.00  0.00     0.000 HD 
HETATM   24  O   UNL     1     -12.629   6.528  71.590  1.00  0.00    -0.318 OA 
ENDBRANCH   8  22
ENDBRANCH   6   8
ENDBRANCH   4   6
ENDBRANCH   3   4
TORSDOF 7
ENDMDL
MODEL      214
REMARK 921   NORMALIZED FREE ENERGY PREDICTED BY IDOCK:   -2.82 KCAL/MOL
REMARK 922        TOTAL FREE ENERGY PREDICTED BY IDOCK:   -5.50 KCAL/MOL
REMARK 923 INTER-LIGAND FREE ENERGY PREDICTED BY IDOCK:   -4.58 KCAL/MOL
REMARK 924 INTRA-LIGAND FREE ENERGY PREDICTED BY IDOCK:   -0.92 KCAL/MOL
REMARK 927      BINDING AFFINITY PREDICTED BY RF-SCORE:    0.00 PKD
ROOT
HETATM    1  O   UNL     1     -11.205   5.531  66.115  1.00  0.00    -0.774 OA 
HETATM    2  H   UNL     1     -11.649   5.903  65.363  1.00  0.00     0.000 HD 
HETATM    3  C   UNL     1     -11.002   6.594  67.016  1.00  0.00    -0.393 C  
ENDROOT
BRANCH   3   4
HETATM    4  N   UNL     1     -10.337   6.037  68.142  1.00  0.00    -0.182 N  
HETATM    5  H   UNL     1      -9.519   5.443  68.006  1.00  0.00     0.000 HD 
BRANCH   4   6
HETATM    6  C   UNL     1     -10.788   6.293  69.402  1.00  0.00    -0.340 C  
HETATM    7  O   UNL     1     -11.966   6.564  69.622  1.00  0.00    -0.216 OA 
BRANCH   6   8
HETATM    8  N   UNL     1      -9.862   6.168  70.419  1.00  0.00    -0.175 N  
BRANCH   8   9
HETATM    9  C   UNL     1      -9.273   7.385  70.938  1.00  0.00    -0.154 C  
HETATM   10  O   UNL     1      -7.104   7.189  69.747  1.00  0.00    -0.069 OA 
HETATM   11  N   UNL     1      -9.300   7.525  72.375  1.00  0.00    -0.143 N  
HETATM   12  C   UNL     1      -7.754   7.562  70.718  1.00  0.00    -0.083 C  
HETATM   13  O   UNL     1      -8.011   8.655  73.936  1.00  0.00    -0.406 OA 
HETATM   14  N   UNL     1      -7.265   8.251  71.789  1.00  0.00    -0.081 N  
HETATM   15  C   UNL     1      -8.171   8.211  72.809  1.00  0.00    -0.173 C  
BRANCH  11  16
HETATM   16  C   UNL     1     -10.489   7.475  73.174  1.00  0.00    -0.364 C  
HETATM   17  H   UNL     1     -11.129   6.439  74.687  1.00  0.00     0.000 HD 
HETATM   18  O   UNL     1     -10.340   6.473  74.157  1.00  0.00    -0.341 OA 
ENDBRANCH  11  16
BRANCH  14  19
HETATM   19  C   UNL     1      -5.886   8.565  72.016  1.00  0.00    -0.053 C  
HETATM   20  O   UNL     1      -5.720   9.967  72.109  1.00  0.00    -0.293 OA 
HETATM   21  H   UNL     1      -4.806  10.175  72.260  1.00  0.00     0.000 HD 
ENDBRANCH  14  19
ENDBRANCH   8   9
BRANCH   8  22
HETATM   22  C   UNL     1      -9.274   4.913  70.825  1.00  0.00    -0.145 C  
HETATM   23  H   UNL     1      -9.155   3.141  70.078  1.00  0.00     0.000 HD 
HETATM   24  O   UNL     1      -9.542   3.966  69.810  1.00  0.00    -0.192 OA 
ENDBRANCH   8  22
ENDBRANCH   6   8
ENDBRANCH   4   6
ENDBRANCH   3   4
TORSDOF 7
ENDMDL
MODEL      215
REMARK 921   NORMALIZED FREE ENERGY PREDICTED BY IDOCK:   -2.78 KCAL/MOL
REMARK 922        TOTAL FREE ENERGY PREDICTED BY IDOCK:   -5.45 KCAL/MOL
REMARK 923 INTER-LIGAND FREE ENERGY PREDICTED BY IDOCK:   -4.52 KCAL/MOL
REMARK 924 INTRA-LIGAND FREE ENERGY PREDICTED BY IDOCK:   -0.92 KCAL/MOL
REMARK 927      BINDING AFFINITY PREDICTED BY RF-SCORE:    0.00 PKD
ROOT
HETATM    1  O   UNL     1      -6.783   8.101  72.408  1.00  0.00    -0.071 OA 
HETATM    2  H   UNL     1      -6.610   7.703  73.253  1.00  0.00     0.000 HD 
HETATM    3  C   UNL     1      -8.166   8.364  72.374  1.00  0.00    -0.139 C  
ENDROOT
BRANCH   3   4
HETATM    4  N   UNL     1      -8.424   8.961  71.110  1.00  0.00    -0.189 N  
HETATM    5  H   UNL     1      -8.530   9.973  71.038  1.00  0.00     0.000 HD 
BRANCH   4   6
HETATM    6  C   UNL     1      -8.531   8.185  69.994  1.00  0.00    -0.128 C  
HETATM    7  O   UNL     1      -7.820   7.197  69.826  1.00  0.00    -0.112 OA 
BRANCH   6   8
HETATM    8  N   UNL     1      -9.523   8.535  69.101  1.00  0.00    -0.154 N  
BRANCH   8   9
HETATM    9  C   UNL     1     -10.897   8.385  69.537  1.00  0.00    -0.117 C  
HETATM   10  O   UNL     1     -11.080  10.579  70.682  1.00  0.00    -0.292 OA 
HETATM   11  N   UNL     1     -11.190   7.166  70.256  1.00  0.00    -0.276 N  
HETATM   12  C   UNL     1     -11.399   9.398  70.589  1.00  0.00    -0.292 C  
HETATM   13  O   UNL     1     -12.762   6.536  71.838  1.00  0.00    -0.325 OA 
HETATM   14  N   UNL     1     -12.301   8.751  71.381  1.00  0.00    -0.304 N  
HETATM   15  C   UNL     1     -12.167   7.403  71.216  1.00  0.00    -0.341 C  
BRANCH  11  16
HETATM   16  C   UNL     1     -10.954   5.847  69.748  1.00  0.00    -0.382 C  
HETATM   17  H   UNL     1     -10.040   4.245  70.355  1.00  0.00     0.000 HD 
HETATM   18  O   UNL     1     -10.197   5.120  70.693  1.00  0.00    -0.237 OA 
ENDBRANCH  11  16
BRANCH  14  19
HETATM   19  C   UNL     1     -12.954   9.310  72.526  1.00  0.00    -0.313 C  
HETATM   20  O   UNL     1     -13.428  10.609  72.225  1.00  0.00    -0.594 OA 
HETATM   21  H   UNL     1     -13.861  10.980  72.985  1.00  0.00     0.000 HD 
ENDBRANCH  14  19
ENDBRANCH   8   9
BRANCH   8  22
HETATM   22  C   UNL     1      -9.292   8.807  67.702  1.00  0.00    -0.137 C  
HETATM   23  H   UNL     1      -8.422  10.201  66.694  1.00  0.00     0.000 HD 
HETATM   24  O   UNL     1      -8.574  10.023  67.615  1.00  0.00    -0.118 OA 
ENDBRANCH   8  22
ENDBRANCH   6   8
ENDBRANCH   4   6
ENDBRANCH   3   4
TORSDOF 7
ENDMDL
MODEL      216
REMARK 921   NORMALIZED FREE ENERGY PREDICTED BY IDOCK:   -2.78 KCAL/MOL
REMARK 922        TOTAL FREE ENERGY PREDICTED BY IDOCK:   -5.44 KCAL/MOL
REMARK 923 INTER-LIGAND FREE ENERGY PREDICTED BY IDOCK:   -4.18 KCAL/MOL
REMARK 924 INTRA-LIGAND FREE ENERGY PREDICTED BY IDOCK:   -1.26 KCAL/MOL
REMARK 927      BINDING AFFINITY PREDICTED BY RF-SCORE:    0.00 PKD
ROOT
HETATM    1  O   UNL     1      -8.476  11.207  64.245  1.00  0.00    -0.369 OA 
HETATM    2  H   UNL     1      -8.368  11.679  63.428  1.00  0.00     0.000 HD 
HETATM    3  C   UNL     1      -9.141  10.008  63.920  1.00  0.00    -0.259 C  
ENDROOT
BRANCH   3   4
HETATM    4  N   UNL     1      -9.302   9.302  65.144  1.00  0.00    -0.417 N  
HETATM    5  H   UNL     1     -10.200   8.871  65.367  1.00  0.00     0.000 HD 
BRANCH   4   6
HETATM    6  C   UNL     1      -8.263   9.198  66.018  1.00  0.00    -0.115 C  
HETATM    7  O   UNL     1      -7.198   8.677  65.696  1.00  0.00    -0.081 OA 
BRANCH   6   8
HETATM    8  N   UNL     1      -8.452   9.769  67.261  1.00  0.00    -0.124 N  
BRANCH   8   9
HETATM    9  C   UNL     1      -9.809  10.113  67.637  1.00  0.00    -0.172 C  
HETATM   10  O   UNL     1      -9.724  12.481  66.898  1.00  0.00    -0.220 OA 
HETATM   11  N   UNL     1     -10.177   9.792  68.997  1.00  0.00    -0.193 N  
HETATM   12  C   UNL     1     -10.157  11.618  67.655  1.00  0.00    -0.188 C  
HETATM   13  O   UNL     1     -11.717  10.623  70.516  1.00  0.00    -0.308 OA 
HETATM   14  N   UNL     1     -11.074  11.813  68.645  1.00  0.00    -0.220 N  
HETATM   15  C   UNL     1     -11.076  10.734  69.482  1.00  0.00    -0.278 C  
BRANCH  11  16
HETATM   16  C   UNL     1     -10.094   8.481  69.572  1.00  0.00    -0.200 C  
HETATM   17  H   UNL     1     -10.753   6.707  69.138  1.00  0.00     0.000 HD 
HETATM   18  O   UNL     1     -10.808   7.576  68.757  1.00  0.00    -0.140 OA 
ENDBRANCH  11  16
BRANCH  14  19
HETATM   19  C   UNL     1     -11.611  13.079  69.045  1.00  0.00    -0.318 C  
HETATM   20  O   UNL     1     -10.560  13.960  69.393  1.00  0.00    -0.431 OA 
HETATM   21  H   UNL     1     -10.915  14.800  69.657  1.00  0.00     0.000 HD 
ENDBRANCH  14  19
ENDBRANCH   8   9
BRANCH   8  22
HETATM   22  C   UNL     1      -7.382  10.260  68.097  1.00  0.00    -0.085 C  
HETATM   23  H   UNL     1      -6.141   9.478  69.348  1.00  0.00     0.000 HD 
HETATM   24  O   UNL     1      -6.846   9.155  68.798  1.00  0.00    -0.059 OA 
ENDBRANCH   8  22
ENDBRANCH   6   8
ENDBRANCH   4   6
ENDBRANCH   3   4
TORSDOF 7
ENDMDL
MODEL      217
REMARK 921   NORMALIZED FREE ENERGY PREDICTED BY IDOCK:   -2.77 KCAL/MOL
REMARK 922        TOTAL FREE ENERGY PREDICTED BY IDOCK:   -5.44 KCAL/MOL
REMARK 923 INTER-LIGAND FREE ENERGY PREDICTED BY IDOCK:   -5.15 KCAL/MOL
REMARK 924 INTRA-LIGAND FREE ENERGY PREDICTED BY IDOCK:   -0.29 KCAL/MOL
REMARK 927      BINDING AFFINITY PREDICTED BY RF-SCORE:    0.00 PKD
ROOT
HETATM    1  O   UNL     1     -10.323  10.684  62.490  1.00  0.00    -0.751 OA 
HETATM    2  H   UNL     1      -9.850  10.696  61.666  1.00  0.00     0.000 HD 
HETATM    3  C   UNL     1      -9.411  10.224  63.459  1.00  0.00    -0.301 C  
ENDROOT
BRANCH   3   4
HETATM    4  N   UNL     1     -10.119  10.207  64.692  1.00  0.00    -0.350 N  
HETATM    5  H   UNL     1     -11.107   9.954  64.707  1.00  0.00     0.000 HD 
BRANCH   4   6
HETATM    6  C   UNL     1      -9.482  10.527  65.853  1.00  0.00    -0.190 C  
HETATM    7  O   UNL     1      -8.402  10.025  66.156  1.00  0.00    -0.117 OA 
BRANCH   6   8
HETATM    8  N   UNL     1     -10.086  11.492  66.634  1.00  0.00    -0.206 N  
BRANCH   8   9
HETATM    9  C   UNL     1      -9.582  12.846  66.529  1.00  0.00    -0.259 C  
HETATM   10  O   UNL     1      -7.941  12.690  68.384  1.00  0.00    -0.142 OA 
HETATM   11  N   UNL     1     -10.586  13.885  66.536  1.00  0.00    -0.277 N  
HETATM   12  C   UNL     1      -8.720  13.353  67.707  1.00  0.00    -0.197 C  
HETATM   13  O   UNL     1     -10.625  16.121  67.144  1.00  0.00    -0.305 OA 
HETATM   14  N   UNL     1      -8.950  14.691  67.835  1.00  0.00    -0.169 N  
HETATM   15  C   UNL     1     -10.090  15.023  67.161  1.00  0.00    -0.239 C  
BRANCH  11  16
HETATM   16  C   UNL     1     -11.679  13.964  65.612  1.00  0.00    -0.354 C  
HETATM   17  H   UNL     1     -13.079  12.775  64.981  1.00  0.00     0.000 HD 
HETATM   18  O   UNL     1     -12.354  12.723  65.594  1.00  0.00    -0.525 OA 
ENDBRANCH  11  16
BRANCH  14  19
HETATM   19  C   UNL     1      -8.402  15.535  68.853  1.00  0.00    -0.205 C  
HETATM   20  O   UNL     1      -9.442  16.066  69.652  1.00  0.00    -0.226 OA 
HETATM   21  H   UNL     1      -9.078  16.626  70.327  1.00  0.00     0.000 HD 
ENDBRANCH  14  19
ENDBRANCH   8   9
BRANCH   8  22
HETATM   22  C   UNL     1     -11.008  11.202  67.707  1.00  0.00    -0.262 C  
HETATM   23  H   UNL     1     -12.137   9.717  68.191  1.00  0.00     0.000 HD 
HETATM   24  O   UNL     1     -11.530   9.907  67.485  1.00  0.00    -0.071 OA 
ENDBRANCH   8  22
ENDBRANCH   6   8
ENDBRANCH   4   6
ENDBRANCH   3   4
TORSDOF 7
ENDMDL
MODEL      218
REMARK 921   NORMALIZED FREE ENERGY PREDICTED BY IDOCK:   -2.77 KCAL/MOL
REMARK 922        TOTAL FREE ENERGY PREDICTED BY IDOCK:   -5.44 KCAL/MOL
REMARK 923 INTER-LIGAND FREE ENERGY PREDICTED BY IDOCK:   -4.51 KCAL/MOL
REMARK 924 INTRA-LIGAND FREE ENERGY PREDICTED BY IDOCK:   -0.93 KCAL/MOL
REMARK 927      BINDING AFFINITY PREDICTED BY RF-SCORE:    0.00 PKD
ROOT
HETATM    1  O   UNL     1     -10.542  12.145  69.450  1.00  0.00    -0.441 OA 
HETATM    2  H   UNL     1     -10.438  13.078  69.310  1.00  0.00     0.000 HD 
HETATM    3  C   UNL     1     -11.913  11.872  69.273  1.00  0.00    -0.281 C  
ENDROOT
BRANCH   3   4
HETATM    4  N   UNL     1     -12.068  10.475  69.483  1.00  0.00    -0.515 N  
HETATM    5  H   UNL     1     -12.369   9.876  68.714  1.00  0.00     0.000 HD 
BRANCH   4   6
HETATM    6  C   UNL     1     -11.817   9.933  70.708  1.00  0.00    -0.330 C  
HETATM    7  O   UNL     1     -12.419  10.304  71.713  1.00  0.00    -0.397 OA 
BRANCH   6   8
HETATM    8  N   UNL     1     -10.898   8.903  70.743  1.00  0.00    -0.227 N  
BRANCH   8   9
HETATM    9  C   UNL     1      -9.884   8.949  71.776  1.00  0.00    -0.315 C  
HETATM   10  O   UNL     1      -7.965   9.430  70.277  1.00  0.00    -0.124 OA 
HETATM   11  N   UNL     1      -9.843   7.806  72.659  1.00  0.00    -0.202 N  
HETATM   12  C   UNL     1      -8.415   8.922  71.298  1.00  0.00    -0.182 C  
HETATM   13  O   UNL     1      -8.208   6.790  73.949  1.00  0.00    -0.120 OA 
HETATM   14  N   UNL     1      -7.690   8.259  72.245  1.00  0.00    -0.123 N  
HETATM   15  C   UNL     1      -8.535   7.556  73.055  1.00  0.00    -0.132 C  
BRANCH  11  16
HETATM   16  C   UNL     1     -10.955   7.341  73.435  1.00  0.00    -0.244 C  
HETATM   17  H   UNL     1     -12.000   5.710  73.563  1.00  0.00     0.000 HD 
HETATM   18  O   UNL     1     -11.263   6.018  73.048  1.00  0.00    -0.254 OA 
ENDBRANCH  11  16
BRANCH  14  19
HETATM   19  C   UNL     1      -6.295   7.950  72.159  1.00  0.00    -0.050 C  
HETATM   20  O   UNL     1      -5.651   8.282  73.375  1.00  0.00    -0.051 OA 
HETATM   21  H   UNL     1      -4.726   8.076  73.318  1.00  0.00     0.000 HD 
ENDBRANCH  14  19
ENDBRANCH   8   9
BRANCH   8  22
HETATM   22  C   UNL     1     -10.737   7.928  69.689  1.00  0.00    -0.218 C  
HETATM   23  H   UNL     1     -11.504   6.209  69.273  1.00  0.00     0.000 HD 
HETATM   24  O   UNL     1     -11.610   6.850  69.966  1.00  0.00    -0.299 OA 
ENDBRANCH   8  22
ENDBRANCH   6   8
ENDBRANCH   4   6
ENDBRANCH   3   4
TORSDOF 7
ENDMDL
MODEL      219
REMARK 921   NORMALIZED FREE ENERGY PREDICTED BY IDOCK:   -2.77 KCAL/MOL
REMARK 922        TOTAL FREE ENERGY PREDICTED BY IDOCK:   -5.43 KCAL/MOL
REMARK 923 INTER-LIGAND FREE ENERGY PREDICTED BY IDOCK:   -4.36 KCAL/MOL
REMARK 924 INTRA-LIGAND FREE ENERGY PREDICTED BY IDOCK:   -1.07 KCAL/MOL
REMARK 927      BINDING AFFINITY PREDICTED BY RF-SCORE:    0.00 PKD
ROOT
HETATM    1  O   UNL     1     -12.478  14.388  67.109  1.00  0.00    -0.590 OA 
HETATM    2  H   UNL     1     -12.643  15.237  66.717  1.00  0.00     0.000 HD 
HETATM    3  C   UNL     1     -12.203  13.510  66.043  1.00  0.00    -0.445 C  
ENDROOT
BRANCH   3   4
HETATM    4  N   UNL     1     -11.955  12.239  66.631  1.00  0.00    -0.285 N  
HETATM    5  H   UNL     1     -12.666  11.805  67.220  1.00  0.00     0.000 HD 
BRANCH   4   6
HETATM    6  C   UNL     1     -10.772  11.600  66.411  1.00  0.00    -0.272 C  
HETATM    7  O   UNL     1     -10.229  11.611  65.309  1.00  0.00    -0.249 OA 
BRANCH   6   8
HETATM    8  N   UNL     1     -10.191  10.998  67.509  1.00  0.00    -0.183 N  
BRANCH   8   9
HETATM    9  C   UNL     1      -8.969  11.584  68.021  1.00  0.00    -0.170 C  
HETATM   10  O   UNL     1      -9.886  13.853  68.432  1.00  0.00    -0.222 OA 
HETATM   11  N   UNL     1      -7.801  11.416  67.187  1.00  0.00    -0.148 N  
HETATM   12  C   UNL     1      -8.944  13.124  68.143  1.00  0.00    -0.195 C  
HETATM   13  O   UNL     1      -5.824  12.585  66.881  1.00  0.00    -0.304 OA 
HETATM   14  N   UNL     1      -7.663  13.531  67.908  1.00  0.00    -0.136 N  
HETATM   15  C   UNL     1      -6.969  12.523  67.303  1.00  0.00    -0.112 C  
BRANCH  11  16
HETATM   16  C   UNL     1      -7.294  10.149  66.749  1.00  0.00    -0.104 C  
HETATM   17  H   UNL     1      -7.065   9.234  65.051  1.00  0.00     0.000 HD 
HETATM   18  O   UNL     1      -7.401  10.073  65.342  1.00  0.00    -0.125 OA 
ENDBRANCH  11  16
BRANCH  14  19
HETATM   19  C   UNL     1      -7.219  14.891  67.854  1.00  0.00    -0.153 C  
HETATM   20  O   UNL     1      -7.591  15.567  69.040  1.00  0.00    -0.149 OA 
HETATM   21  H   UNL     1      -7.297  16.469  69.005  1.00  0.00     0.000 HD 
ENDBRANCH  14  19
ENDBRANCH   8   9
BRANCH   8  22
HETATM   22  C   UNL     1     -10.580   9.705  68.022  1.00  0.00    -0.243 C  
HETATM   23  H   UNL     1     -10.892   7.960  67.266  1.00  0.00     0.000 HD 
HETATM   24  O   UNL     1     -10.636   8.810  66.928  1.00  0.00    -0.276 OA 
ENDBRANCH   8  22
ENDBRANCH   6   8
ENDBRANCH   4   6
ENDBRANCH   3   4
TORSDOF 7
ENDMDL
MODEL      220
REMARK 921   NORMALIZED FREE ENERGY PREDICTED BY IDOCK:   -2.76 KCAL/MOL
REMARK 922        TOTAL FREE ENERGY PREDICTED BY IDOCK:   -5.42 KCAL/MOL
REMARK 923 INTER-LIGAND FREE ENERGY PREDICTED BY IDOCK:   -4.66 KCAL/MOL
REMARK 924 INTRA-LIGAND FREE ENERGY PREDICTED BY IDOCK:   -0.76 KCAL/MOL
REMARK 927      BINDING AFFINITY PREDICTED BY RF-SCORE:    0.00 PKD
ROOT
HETATM    1  O   UNL     1      -8.217  15.021  67.157  1.00  0.00    -0.195 OA 
HETATM    2  H   UNL     1      -8.189  15.843  67.632  1.00  0.00     0.000 HD 
HETATM    3  C   UNL     1      -7.450  14.109  67.908  1.00  0.00    -0.152 C  
ENDROOT
BRANCH   3   4
HETATM    4  N   UNL     1      -7.492  12.878  67.197  1.00  0.00    -0.359 N  
HETATM    5  H   UNL     1      -7.064  12.810  66.274  1.00  0.00     0.000 HD 
BRANCH   4   6
HETATM    6  C   UNL     1      -8.103  11.790  67.744  1.00  0.00    -0.143 C  
HETATM    7  O   UNL     1      -7.771  11.348  68.842  1.00  0.00    -0.134 OA 
BRANCH   6   8
HETATM    8  N   UNL     1      -9.155  11.256  67.027  1.00  0.00    -0.160 N  
BRANCH   8   9
HETATM    9  C   UNL     1      -9.314  11.690  65.654  1.00  0.00    -0.180 C  
HETATM   10  O   UNL     1     -11.409  12.976  65.996  1.00  0.00    -0.293 OA 
HETATM   11  N   UNL     1      -9.263  10.641  64.661  1.00  0.00    -0.214 N  
HETATM   12  C   UNL     1     -10.685  12.294  65.278  1.00  0.00    -0.292 C  
HETATM   13  O   UNL     1     -10.124  10.362  62.528  1.00  0.00    -0.001 OA 
HETATM   14  N   UNL     1     -10.933  11.966  63.977  1.00  0.00    -0.348 N  
HETATM   15  C   UNL     1     -10.105  10.949  63.599  1.00  0.00    -0.355 C  
BRANCH  11  16
HETATM   16  C   UNL     1      -8.168   9.730  64.499  1.00  0.00    -0.156 C  
HETATM   17  H   UNL     1      -7.765   7.905  65.026  1.00  0.00     0.000 HD 
HETATM   18  O   UNL     1      -8.490   8.509  65.132  1.00  0.00    -0.170 OA 
ENDBRANCH  11  16
BRANCH  14  19
HETATM   19  C   UNL     1     -12.132  12.271  63.257  1.00  0.00    -0.418 C  
HETATM   20  O   UNL     1     -13.260  12.049  64.081  1.00  0.00    -0.712 OA 
HETATM   21  H   UNL     1     -14.055  12.252  63.603  1.00  0.00     0.000 HD 
ENDBRANCH  14  19
ENDBRANCH   8   9
BRANCH   8  22
HETATM   22  C   UNL     1     -10.230  10.492  67.616  1.00  0.00    -0.197 C  
HETATM   23  H   UNL     1     -11.456  10.744  69.082  1.00  0.00     0.000 HD 
HETATM   24  O   UNL     1     -10.749  11.246  68.694  1.00  0.00    -0.185 OA 
ENDBRANCH   8  22
ENDBRANCH   6   8
ENDBRANCH   4   6
ENDBRANCH   3   4
TORSDOF 7
ENDMDL
MODEL      221
REMARK 921   NORMALIZED FREE ENERGY PREDICTED BY IDOCK:   -2.76 KCAL/MOL
REMARK 922        TOTAL FREE ENERGY PREDICTED BY IDOCK:   -5.42 KCAL/MOL
REMARK 923 INTER-LIGAND FREE ENERGY PREDICTED BY IDOCK:   -4.30 KCAL/MOL
REMARK 924 INTRA-LIGAND FREE ENERGY PREDICTED BY IDOCK:   -1.11 KCAL/MOL
REMARK 927      BINDING AFFINITY PREDICTED BY RF-SCORE:    0.00 PKD
ROOT
HETATM    1  O   UNL     1     -10.398  11.111  69.645  1.00  0.00    -0.440 OA 
HETATM    2  H   UNL     1     -10.294  12.043  69.493  1.00  0.00     0.000 HD 
HETATM    3  C   UNL     1     -11.766  10.908  69.914  1.00  0.00    -0.339 C  
ENDROOT
BRANCH   3   4
HETATM    4  N   UNL     1     -11.922   9.513  70.142  1.00  0.00    -0.467 N  
HETATM    5  H   UNL     1     -12.789   9.049  69.873  1.00  0.00     0.000 HD 
BRANCH   4   6
HETATM    6  C   UNL     1     -10.916   8.796  70.717  1.00  0.00    -0.247 C  
HETATM    7  O   UNL     1     -10.242   9.254  71.637  1.00  0.00    -0.332 OA 
BRANCH   6   8
HETATM    8  N   UNL     1     -10.744   7.507  70.253  1.00  0.00    -0.234 N  
BRANCH   8   9
HETATM    9  C   UNL     1      -9.606   7.255  69.392  1.00  0.00    -0.154 C  
HETATM   10  O   UNL     1      -7.878   7.309  71.173  1.00  0.00    -0.091 OA 
HETATM   11  N   UNL     1      -9.490   8.125  68.245  1.00  0.00    -0.141 N  
HETATM   12  C   UNL     1      -8.211   7.501  70.008  1.00  0.00    -0.130 C  
HETATM   13  O   UNL     1      -7.738   8.869  66.923  1.00  0.00    -0.096 OA 
HETATM   14  N   UNL     1      -7.394   7.936  69.006  1.00  0.00    -0.086 N  
HETATM   15  C   UNL     1      -8.151   8.346  67.947  1.00  0.00    -0.123 C  
BRANCH  11  16
HETATM   16  C   UNL     1     -10.509   8.297  67.251  1.00  0.00    -0.303 C  
HETATM   17  H   UNL     1     -11.705   7.145  66.245  1.00  0.00     0.000 HD 
HETATM   18  O   UNL     1     -11.030   7.031  66.903  1.00  0.00    -0.371 OA 
ENDBRANCH  11  16
BRANCH  14  19
HETATM   19  C   UNL     1      -6.031   8.346  69.163  1.00  0.00    -0.042 C  
HETATM   20  O   UNL     1      -5.923   9.263  70.235  1.00  0.00    -0.033 OA 
HETATM   21  H   UNL     1      -5.019   9.534  70.340  1.00  0.00     0.000 HD 
ENDBRANCH  14  19
ENDBRANCH   8   9
BRANCH   8  22
HETATM   22  C   UNL     1     -11.739   6.466  70.370  1.00  0.00    -0.321 C  
HETATM   23  H   UNL     1     -13.281   6.153  71.482  1.00  0.00     0.000 HD 
HETATM   24  O   UNL     1     -12.627   6.838  71.405  1.00  0.00    -0.355 OA 
ENDBRANCH   8  22
ENDBRANCH   6   8
ENDBRANCH   4   6
ENDBRANCH   3   4
TORSDOF 7
ENDMDL
MODEL      222
REMARK 921   NORMALIZED FREE ENERGY PREDICTED BY IDOCK:   -2.75 KCAL/MOL
REMARK 922        TOTAL FREE ENERGY PREDICTED BY IDOCK:   -5.40 KCAL/MOL
REMARK 923 INTER-LIGAND FREE ENERGY PREDICTED BY IDOCK:   -4.31 KCAL/MOL
REMARK 924 INTRA-LIGAND FREE ENERGY PREDICTED BY IDOCK:   -1.09 KCAL/MOL
REMARK 927      BINDING AFFINITY PREDICTED BY RF-SCORE:    0.00 PKD
ROOT
HETATM    1  O   UNL     1      -7.152  17.682  66.778  1.00  0.00    -0.173 OA 
HETATM    2  H   UNL     1      -7.048  18.468  66.256  1.00  0.00     0.000 HD 
HETATM    3  C   UNL     1      -8.535  17.418  66.817  1.00  0.00    -0.254 C  
ENDROOT
BRANCH   3   4
HETATM    4  N   UNL     1      -8.691  16.240  67.599  1.00  0.00    -0.181 N  
HETATM    5  H   UNL     1      -9.133  16.295  68.516  1.00  0.00     0.000 HD 
BRANCH   4   6
HETATM    6  C   UNL     1      -8.251  15.040  67.126  1.00  0.00    -0.222 C  
HETATM    7  O   UNL     1      -7.055  14.760  67.092  1.00  0.00    -0.192 OA 
BRANCH   6   8
HETATM    8  N   UNL     1      -9.226  14.137  66.752  1.00  0.00    -0.265 N  
BRANCH   8   9
HETATM    9  C   UNL     1      -9.503  13.042  67.659  1.00  0.00    -0.201 C  
HETATM   10  O   UNL     1      -8.615  11.233  66.209  1.00  0.00    -0.175 OA 
HETATM   11  N   UNL     1     -10.859  12.972  68.154  1.00  0.00    -0.238 N  
HETATM   12  C   UNL     1      -9.402  11.618  67.068  1.00  0.00    -0.181 C  
HETATM   13  O   UNL     1     -12.233  11.277  68.934  1.00  0.00    -0.494 OA 
HETATM   14  N   UNL     1     -10.326  10.844  67.707  1.00  0.00    -0.179 N  
HETATM   15  C   UNL     1     -11.231  11.646  68.341  1.00  0.00    -0.249 C  
BRANCH  11  16
HETATM   16  C   UNL     1     -11.523  14.034  68.851  1.00  0.00    -0.294 C  
HETATM   17  H   UNL     1     -12.861  15.377  68.428  1.00  0.00     0.000 HD 
HETATM   18  O   UNL     1     -12.420  14.673  67.967  1.00  0.00    -0.032 OA 
ENDBRANCH  11  16
BRANCH  14  19
HETATM   19  C   UNL     1     -10.610   9.473  67.411  1.00  0.00    -0.271 C  
HETATM   20  O   UNL     1      -9.968   8.633  68.351  1.00  0.00    -0.172 OA 
HETATM   21  H   UNL     1     -10.157   7.723  68.154  1.00  0.00     0.000 HD 
ENDBRANCH  14  19
ENDBRANCH   8   9
BRANCH   8  22
HETATM   22  C   UNL     1      -9.807  14.077  65.432  1.00  0.00    -0.185 C  
HETATM   23  H   UNL     1     -10.984  15.194  64.392  1.00  0.00     0.000 HD 
HETATM   24  O   UNL     1     -10.602  15.234  65.260  1.00  0.00    -0.355 OA 
ENDBRANCH   8  22
ENDBRANCH   6   8
ENDBRANCH   4   6
ENDBRANCH   3   4
TORSDOF 7
ENDMDL
MODEL      223
REMARK 921   NORMALIZED FREE ENERGY PREDICTED BY IDOCK:   -2.74 KCAL/MOL
REMARK 922        TOTAL FREE ENERGY PREDICTED BY IDOCK:   -5.40 KCAL/MOL
REMARK 923 INTER-LIGAND FREE ENERGY PREDICTED BY IDOCK:   -5.43 KCAL/MOL
REMARK 924 INTRA-LIGAND FREE ENERGY PREDICTED BY IDOCK:    0.03 KCAL/MOL
REMARK 927      BINDING AFFINITY PREDICTED BY RF-SCORE:    0.00 PKD
ROOT
HETATM    1  O   UNL     1      -7.003  17.812  67.066  1.00  0.00    -0.165 OA 
HETATM    2  H   UNL     1      -6.342  18.449  66.821  1.00  0.00     0.000 HD 
HETATM    3  C   UNL     1      -7.637  17.425  65.870  1.00  0.00    -0.071 C  
ENDROOT
BRANCH   3   4
HETATM    4  N   UNL     1      -8.626  16.472  66.238  1.00  0.00    -0.315 N  
HETATM    5  H   UNL     1      -8.401  15.477  66.228  1.00  0.00     0.000 HD 
BRANCH   4   6
HETATM    6  C   UNL     1      -9.873  16.883  66.602  1.00  0.00    -0.287 C  
HETATM    7  O   UNL     1     -10.663  17.351  65.785  1.00  0.00    -0.361 OA 
BRANCH   6   8
HETATM    8  N   UNL     1     -10.219  16.684  67.924  1.00  0.00    -0.274 N  
BRANCH   8   9
HETATM    9  C   UNL     1     -11.362  15.835  68.194  1.00  0.00    -0.337 C  
HETATM   10  O   UNL     1     -11.442  16.226  70.644  1.00  0.00    -0.377 OA 
HETATM   11  N   UNL     1     -11.272  14.489  67.678  1.00  0.00    -0.308 N  
HETATM   12  C   UNL     1     -11.632  15.495  69.677  1.00  0.00    -0.348 C  
HETATM   13  O   UNL     1     -12.193  12.445  68.265  1.00  0.00    -0.275 OA 
HETATM   14  N   UNL     1     -12.162  14.239  69.717  1.00  0.00    -0.339 N  
HETATM   15  C   UNL     1     -11.926  13.607  68.531  1.00  0.00    -0.361 C  
BRANCH  11  16
HETATM   16  C   UNL     1     -11.049  14.161  66.301  1.00  0.00    -0.318 C  
HETATM   17  H   UNL     1      -9.602  13.408  65.247  1.00  0.00     0.000 HD 
HETATM   18  O   UNL     1      -9.750  13.625  66.161  1.00  0.00    -0.285 OA 
ENDBRANCH  11  16
BRANCH  14  19
HETATM   19  C   UNL     1     -12.492  13.514  70.907  1.00  0.00    -0.369 C  
HETATM   20  O   UNL     1     -13.064  14.387  71.862  1.00  0.00    -0.320 OA 
HETATM   21  H   UNL     1     -13.283  13.906  72.651  1.00  0.00     0.000 HD 
ENDBRANCH  14  19
ENDBRANCH   8   9
BRANCH   8  22
HETATM   22  C   UNL     1      -9.675  17.444  69.025  1.00  0.00    -0.195 C  
HETATM   23  H   UNL     1      -8.030  17.432  70.029  1.00  0.00     0.000 HD 
HETATM   24  O   UNL     1      -8.388  16.931  69.305  1.00  0.00    -0.119 OA 
ENDBRANCH   8  22
ENDBRANCH   6   8
ENDBRANCH   4   6
ENDBRANCH   3   4
TORSDOF 7
ENDMDL
MODEL      224
REMARK 921   NORMALIZED FREE ENERGY PREDICTED BY IDOCK:   -2.74 KCAL/MOL
REMARK 922        TOTAL FREE ENERGY PREDICTED BY IDOCK:   -5.39 KCAL/MOL
REMARK 923 INTER-LIGAND FREE ENERGY PREDICTED BY IDOCK:   -4.25 KCAL/MOL
REMARK 924 INTRA-LIGAND FREE ENERGY PREDICTED BY IDOCK:   -1.14 KCAL/MOL
REMARK 927      BINDING AFFINITY PREDICTED BY RF-SCORE:    0.00 PKD
ROOT
HETATM    1  O   UNL     1      -7.826  10.647  63.635  1.00  0.00    -0.340 OA 
HETATM    2  H   UNL     1      -8.255  10.689  62.789  1.00  0.00     0.000 HD 
HETATM    3  C   UNL     1      -7.642   9.278  63.913  1.00  0.00    -0.113 C  
ENDROOT
BRANCH   3   4
HETATM    4  N   UNL     1      -6.999   9.215  65.180  1.00  0.00    -0.086 N  
HETATM    5  H   UNL     1      -6.301   8.494  65.360  1.00  0.00     0.000 HD 
BRANCH   4   6
HETATM    6  C   UNL     1      -7.313  10.115  66.154  1.00  0.00    -0.115 C  
HETATM    7  O   UNL     1      -6.694  11.168  66.283  1.00  0.00    -0.127 OA 
BRANCH   6   8
HETATM    8  N   UNL     1      -8.405   9.806  66.941  1.00  0.00    -0.120 N  
BRANCH   8   9
HETATM    9  C   UNL     1      -9.061  10.898  67.629  1.00  0.00    -0.148 C  
HETATM   10  O   UNL     1      -9.222   9.790  69.845  1.00  0.00    -0.212 OA 
HETATM   11  N   UNL     1     -10.250  11.412  66.989  1.00  0.00    -0.207 N  
HETATM   12  C   UNL     1      -9.668  10.573  69.013  1.00  0.00    -0.210 C  
HETATM   13  O   UNL     1     -12.163  12.499  67.717  1.00  0.00    -0.372 OA 
HETATM   14  N   UNL     1     -10.778  11.351  69.164  1.00  0.00    -0.211 N  
HETATM   15  C   UNL     1     -11.161  11.839  67.948  1.00  0.00    -0.267 C  
BRANCH  11  16
HETATM   16  C   UNL     1     -10.297  11.912  65.647  1.00  0.00    -0.247 C  
HETATM   17  H   UNL     1     -10.671  11.186  63.885  1.00  0.00     0.000 HD 
HETATM   18  O   UNL     1     -10.640  10.855  64.775  1.00  0.00    -0.315 OA 
ENDBRANCH  11  16
BRANCH  14  19
HETATM   19  C   UNL     1     -11.677  11.310  70.278  1.00  0.00    -0.324 C  
HETATM   20  O   UNL     1     -12.021  12.626  70.668  1.00  0.00    -0.510 OA 
HETATM   21  H   UNL     1     -12.618  12.599  71.407  1.00  0.00     0.000 HD 
ENDBRANCH  14  19
ENDBRANCH   8   9
BRANCH   8  22
HETATM   22  C   UNL     1      -8.780   8.461  67.308  1.00  0.00    -0.127 C  
HETATM   23  H   UNL     1      -9.809   7.046  66.498  1.00  0.00     0.000 HD 
HETATM   24  O   UNL     1      -9.562   7.931  66.256  1.00  0.00    -0.195 OA 
ENDBRANCH   8  22
ENDBRANCH   6   8
ENDBRANCH   4   6
ENDBRANCH   3   4
TORSDOF 7
ENDMDL
MODEL      225
REMARK 921   NORMALIZED FREE ENERGY PREDICTED BY IDOCK:   -2.72 KCAL/MOL
REMARK 922        TOTAL FREE ENERGY PREDICTED BY IDOCK:   -5.37 KCAL/MOL
REMARK 923 INTER-LIGAND FREE ENERGY PREDICTED BY IDOCK:   -5.24 KCAL/MOL
REMARK 924 INTRA-LIGAND FREE ENERGY PREDICTED BY IDOCK:   -0.13 KCAL/MOL
REMARK 927      BINDING AFFINITY PREDICTED BY RF-SCORE:    0.00 PKD
ROOT
HETATM    1  O   UNL     1     -12.211  10.751  68.370  1.00  0.00    -0.832 OA 
HETATM    2  H   UNL     1     -12.114  10.763  67.425  1.00  0.00     0.000 HD 
HETATM    3  C   UNL     1     -10.910  10.629  68.896  1.00  0.00    -0.231 C  
ENDROOT
BRANCH   3   4
HETATM    4  N   UNL     1     -11.056  10.612  70.311  1.00  0.00    -0.425 N  
HETATM    5  H   UNL     1     -11.395  11.442  70.797  1.00  0.00     0.000 HD 
BRANCH   4   6
HETATM    6  C   UNL     1     -10.745   9.490  71.018  1.00  0.00    -0.340 C  
HETATM    7  O   UNL     1      -9.599   9.265  71.400  1.00  0.00    -0.266 OA 
BRANCH   6   8
HETATM    8  N   UNL     1     -11.800   8.657  71.336  1.00  0.00    -0.285 N  
BRANCH   8   9
HETATM    9  C   UNL     1     -11.556   7.229  71.299  1.00  0.00    -0.286 C  
HETATM   10  O   UNL     1     -10.962   6.975  73.696  1.00  0.00    -0.270 OA 
HETATM   11  N   UNL     1     -10.640   6.781  70.275  1.00  0.00    -0.207 N  
HETATM   12  C   UNL     1     -10.841   6.622  72.527  1.00  0.00    -0.238 C  
HETATM   13  O   UNL     1      -9.218   4.968  70.028  1.00  0.00    -0.120 OA 
HETATM   14  N   UNL     1     -10.074   5.586  72.081  1.00  0.00    -0.181 N  
HETATM   15  C   UNL     1      -9.917   5.685  70.729  1.00  0.00    -0.195 C  
BRANCH  11  16
HETATM   16  C   UNL     1     -10.805   7.033  68.874  1.00  0.00    -0.167 C  
HETATM   17  H   UNL     1     -11.380   6.022  67.319  1.00  0.00     0.000 HD 
HETATM   18  O   UNL     1     -11.271   5.856  68.248  1.00  0.00    -0.189 OA 
ENDBRANCH  11  16
BRANCH  14  19
HETATM   19  C   UNL     1      -9.193   4.796  72.888  1.00  0.00    -0.124 C  
HETATM   20  O   UNL     1      -9.462   3.421  72.693  1.00  0.00    -0.105 OA 
HETATM   21  H   UNL     1      -8.878   2.898  73.227  1.00  0.00     0.000 HD 
ENDBRANCH  14  19
ENDBRANCH   8   9
BRANCH   8  22
HETATM   22  C   UNL     1     -13.168   9.099  71.464  1.00  0.00    -0.352 C  
HETATM   23  H   UNL     1     -14.431   9.273  72.910  1.00  0.00     0.000 HD 
HETATM   24  O   UNL     1     -13.531   8.982  72.826  1.00  0.00    -0.428 OA 
ENDBRANCH   8  22
ENDBRANCH   6   8
ENDBRANCH   4   6
ENDBRANCH   3   4
TORSDOF 7
ENDMDL
MODEL      226
REMARK 921   NORMALIZED FREE ENERGY PREDICTED BY IDOCK:   -2.72 KCAL/MOL
REMARK 922        TOTAL FREE ENERGY PREDICTED BY IDOCK:   -5.36 KCAL/MOL
REMARK 923 INTER-LIGAND FREE ENERGY PREDICTED BY IDOCK:   -4.50 KCAL/MOL
REMARK 924 INTRA-LIGAND FREE ENERGY PREDICTED BY IDOCK:   -0.87 KCAL/MOL
REMARK 927      BINDING AFFINITY PREDICTED BY RF-SCORE:    0.00 PKD
ROOT
HETATM    1  O   UNL     1     -10.032   9.510  65.066  1.00  0.00    -0.421 OA 
HETATM    2  H   UNL     1     -10.694   8.878  64.812  1.00  0.00     0.000 HD 
HETATM    3  C   UNL     1     -10.515  10.769  64.658  1.00  0.00    -0.276 C  
ENDROOT
BRANCH   3   4
HETATM    4  N   UNL     1      -9.524  11.715  65.040  1.00  0.00    -0.391 N  
HETATM    5  H   UNL     1      -9.412  12.576  64.505  1.00  0.00     0.000 HD 
BRANCH   4   6
HETATM    6  C   UNL     1      -8.724  11.474  66.116  1.00  0.00    -0.131 C  
HETATM    7  O   UNL     1      -7.787  10.682  66.059  1.00  0.00    -0.149 OA 
BRANCH   6   8
HETATM    8  N   UNL     1      -8.987  12.218  67.250  1.00  0.00    -0.180 N  
BRANCH   8   9
HETATM    9  C   UNL     1     -10.240  12.944  67.295  1.00  0.00    -0.234 C  
HETATM   10  O   UNL     1      -9.305  15.173  66.730  1.00  0.00    -0.219 OA 
HETATM   11  N   UNL     1     -11.017  12.770  68.500  1.00  0.00    -0.247 N  
HETATM   12  C   UNL     1     -10.142  14.486  67.307  1.00  0.00    -0.247 C  
HETATM   13  O   UNL     1     -12.591  14.038  69.633  1.00  0.00    -0.253 OA 
HETATM   14  N   UNL     1     -11.186  14.956  68.048  1.00  0.00    -0.295 N  
HETATM   15  C   UNL     1     -11.705  13.940  68.798  1.00  0.00    -0.357 C  
BRANCH  11  16
HETATM   16  C   UNL     1     -11.455  11.503  69.007  1.00  0.00    -0.291 C  
HETATM   17  H   UNL     1     -11.237  10.489  70.648  1.00  0.00     0.000 HD 
HETATM   18  O   UNL     1     -10.947  11.329  70.313  1.00  0.00    -0.005 OA 
ENDBRANCH  11  16
BRANCH  14  19
HETATM   19  C   UNL     1     -11.425  16.330  68.369  1.00  0.00    -0.243 C  
HETATM   20  O   UNL     1     -10.198  16.986  68.627  1.00  0.00    -0.279 OA 
HETATM   21  H   UNL     1     -10.357  17.898  68.840  1.00  0.00     0.000 HD 
ENDBRANCH  14  19
ENDBRANCH   8   9
BRANCH   8  22
HETATM   22  C   UNL     1      -8.008  12.510  68.270  1.00  0.00    -0.153 C  
HETATM   23  H   UNL     1      -6.277  13.358  68.316  1.00  0.00     0.000 HD 
HETATM   24  O   UNL     1      -6.922  13.166  67.645  1.00  0.00    -0.127 OA 
ENDBRANCH   8  22
ENDBRANCH   6   8
ENDBRANCH   4   6
ENDBRANCH   3   4
TORSDOF 7
ENDMDL
MODEL      227
REMARK 921   NORMALIZED FREE ENERGY PREDICTED BY IDOCK:   -2.71 KCAL/MOL
REMARK 922        TOTAL FREE ENERGY PREDICTED BY IDOCK:   -5.35 KCAL/MOL
REMARK 923 INTER-LIGAND FREE ENERGY PREDICTED BY IDOCK:   -4.26 KCAL/MOL
REMARK 924 INTRA-LIGAND FREE ENERGY PREDICTED BY IDOCK:   -1.08 KCAL/MOL
REMARK 927      BINDING AFFINITY PREDICTED BY RF-SCORE:    0.00 PKD
ROOT
HETATM    1  O   UNL     1     -12.667  10.264  69.782  1.00  0.00    -0.561 OA 
HETATM    2  H   UNL     1     -12.675  11.020  69.207  1.00  0.00     0.000 HD 
HETATM    3  C   UNL     1     -11.639  10.493  70.717  1.00  0.00    -0.338 C  
ENDROOT
BRANCH   3   4
HETATM    4  N   UNL     1     -11.628   9.361  71.578  1.00  0.00    -0.373 N  
HETATM    5  H   UNL     1     -12.488   9.066  72.040  1.00  0.00     0.000 HD 
BRANCH   4   6
HETATM    6  C   UNL     1     -10.472   8.670  71.787  1.00  0.00    -0.324 C  
HETATM    7  O   UNL     1      -9.390   9.242  71.898  1.00  0.00    -0.299 OA 
BRANCH   6   8
HETATM    8  N   UNL     1     -10.597   7.303  71.931  1.00  0.00    -0.211 N  
BRANCH   8   9
HETATM    9  C   UNL     1      -9.376   6.526  72.002  1.00  0.00    -0.147 C  
HETATM   10  O   UNL     1      -9.122   6.161  69.561  1.00  0.00    -0.137 OA 
HETATM   11  N   UNL     1      -9.410   5.397  72.903  1.00  0.00    -0.138 N  
HETATM   12  C   UNL     1      -8.960   5.780  70.715  1.00  0.00    -0.148 C  
HETATM   13  O   UNL     1      -8.296   3.369  73.030  1.00  0.00    -0.079 OA 
HETATM   14  N   UNL     1      -8.337   4.627  71.095  1.00  0.00    -0.101 N  
HETATM   15  C   UNL     1      -8.624   4.365  72.404  1.00  0.00    -0.110 C  
BRANCH  11  16
HETATM   16  C   UNL     1      -9.722   5.482  74.300  1.00  0.00    -0.177 C  
HETATM   17  H   UNL     1     -11.113   4.812  75.477  1.00  0.00     0.000 HD 
HETATM   18  O   UNL     1     -10.906   4.755  74.551  1.00  0.00    -0.347 OA 
ENDBRANCH  11  16
BRANCH  14  19
HETATM   19  C   UNL     1      -7.858   3.610  70.209  1.00  0.00    -0.047 C  
HETATM   20  O   UNL     1      -8.798   2.555  70.131  1.00  0.00    -0.067 OA 
HETATM   21  H   UNL     1      -8.480   1.881  69.543  1.00  0.00     0.000 HD 
ENDBRANCH  14  19
ENDBRANCH   8   9
BRANCH   8  22
HETATM   22  C   UNL     1     -11.840   6.584  71.775  1.00  0.00    -0.335 C  
HETATM   23  H   UNL     1     -13.070   6.255  70.327  1.00  0.00     0.000 HD 
HETATM   24  O   UNL     1     -12.252   6.728  70.430  1.00  0.00    -0.324 OA 
ENDBRANCH   8  22
ENDBRANCH   6   8
ENDBRANCH   4   6
ENDBRANCH   3   4
TORSDOF 7
ENDMDL
MODEL      228
REMARK 921   NORMALIZED FREE ENERGY PREDICTED BY IDOCK:   -2.70 KCAL/MOL
REMARK 922        TOTAL FREE ENERGY PREDICTED BY IDOCK:   -5.34 KCAL/MOL
REMARK 923 INTER-LIGAND FREE ENERGY PREDICTED BY IDOCK:   -5.10 KCAL/MOL
REMARK 924 INTRA-LIGAND FREE ENERGY PREDICTED BY IDOCK:   -0.24 KCAL/MOL
REMARK 927      BINDING AFFINITY PREDICTED BY RF-SCORE:    0.00 PKD
ROOT
HETATM    1  O   UNL     1     -11.652   6.288  66.751  1.00  0.00    -0.629 OA 
HETATM    2  H   UNL     1     -11.448   5.554  66.186  1.00  0.00     0.000 HD 
HETATM    3  C   UNL     1     -10.870   6.121  67.910  1.00  0.00    -0.319 C  
ENDROOT
BRANCH   3   4
HETATM    4  N   UNL     1     -11.176   7.221  68.757  1.00  0.00    -0.447 N  
HETATM    5  H   UNL     1     -11.646   8.041  68.374  1.00  0.00     0.000 HD 
BRANCH   4   6
HETATM    6  C   UNL     1     -10.843   7.185  70.078  1.00  0.00    -0.254 C  
HETATM    7  O   UNL     1     -10.193   6.256  70.553  1.00  0.00    -0.184 OA 
BRANCH   6   8
HETATM    8  N   UNL     1     -11.221   8.278  70.833  1.00  0.00    -0.262 N  
BRANCH   8   9
HETATM    9  C   UNL     1     -10.602   9.549  70.519  1.00  0.00    -0.297 C  
HETATM   10  O   UNL     1     -12.458  10.441  69.134  1.00  0.00    -0.117 OA 
HETATM   11  N   UNL     1      -9.266   9.474  69.976  1.00  0.00    -0.218 N  
HETATM   12  C   UNL     1     -11.261  10.375  69.392  1.00  0.00    -0.259 C  
HETATM   13  O   UNL     1      -7.977  10.823  68.602  1.00  0.00    -0.116 OA 
HETATM   14  N   UNL     1     -10.268  11.058  68.753  1.00  0.00    -0.192 N  
HETATM   15  C   UNL     1      -9.060  10.506  69.069  1.00  0.00    -0.181 C  
BRANCH  11  16
HETATM   16  C   UNL     1      -8.163   8.823  70.622  1.00  0.00    -0.144 C  
HETATM   17  H   UNL     1      -7.535   8.591  72.445  1.00  0.00     0.000 HD 
HETATM   18  O   UNL     1      -8.266   9.022  72.016  1.00  0.00    -0.360 OA 
ENDBRANCH  11  16
BRANCH  14  19
HETATM   19  C   UNL     1     -10.440  11.889  67.599  1.00  0.00    -0.208 C  
HETATM   20  O   UNL     1      -9.568  13.001  67.672  1.00  0.00    -0.195 OA 
HETATM   21  H   UNL     1      -9.682  13.552  66.907  1.00  0.00     0.000 HD 
ENDBRANCH  14  19
ENDBRANCH   8   9
BRANCH   8  22
HETATM   22  C   UNL     1     -11.995   8.191  72.048  1.00  0.00    -0.340 C  
HETATM   23  H   UNL     1     -11.620   7.792  73.896  1.00  0.00     0.000 HD 
HETATM   24  O   UNL     1     -11.110   7.849  73.096  1.00  0.00    -0.382 OA 
ENDBRANCH   8  22
ENDBRANCH   6   8
ENDBRANCH   4   6
ENDBRANCH   3   4
TORSDOF 7
ENDMDL
MODEL      229
REMARK 921   NORMALIZED FREE ENERGY PREDICTED BY IDOCK:   -2.69 KCAL/MOL
REMARK 922        TOTAL FREE ENERGY PREDICTED BY IDOCK:   -5.32 KCAL/MOL
REMARK 923 INTER-LIGAND FREE ENERGY PREDICTED BY IDOCK:   -4.16 KCAL/MOL
REMARK 924 INTRA-LIGAND FREE ENERGY PREDICTED BY IDOCK:   -1.16 KCAL/MOL
REMARK 927      BINDING AFFINITY PREDICTED BY RF-SCORE:    0.00 PKD
ROOT
HETATM    1  O   UNL     1      -9.706   9.351  65.177  1.00  0.00    -0.443 OA 
HETATM    2  H   UNL     1     -10.355   8.685  64.984  1.00  0.00     0.000 HD 
HETATM    3  C   UNL     1     -10.267  10.576  64.764  1.00  0.00    -0.303 C  
ENDROOT
BRANCH   3   4
HETATM    4  N   UNL     1      -9.296  11.573  65.054  1.00  0.00    -0.387 N  
HETATM    5  H   UNL     1      -9.184  12.370  64.427  1.00  0.00     0.000 HD 
BRANCH   4   6
HETATM    6  C   UNL     1      -8.513  11.467  66.165  1.00  0.00    -0.105 C  
HETATM    7  O   UNL     1      -7.547  10.709  66.203  1.00  0.00    -0.130 OA 
BRANCH   6   8
HETATM    8  N   UNL     1      -8.830  12.305  67.216  1.00  0.00    -0.182 N  
BRANCH   8   9
HETATM    9  C   UNL     1      -7.933  13.412  67.478  1.00  0.00    -0.183 C  
HETATM   10  O   UNL     1      -6.484  12.230  69.111  1.00  0.00    -0.087 OA 
HETATM   11  N   UNL     1      -8.571  14.655  67.845  1.00  0.00    -0.158 N  
HETATM   12  C   UNL     1      -6.999  13.265  68.701  1.00  0.00    -0.101 C  
HETATM   13  O   UNL     1      -7.946  16.517  69.075  1.00  0.00    -0.237 OA 
HETATM   14  N   UNL     1      -6.814  14.511  69.224  1.00  0.00    -0.126 N  
HETATM   15  C   UNL     1      -7.773  15.354  68.743  1.00  0.00    -0.150 C  
BRANCH  11  16
HETATM   16  C   UNL     1      -9.555  15.328  67.048  1.00  0.00    -0.224 C  
HETATM   17  H   UNL     1     -11.415  15.847  67.248  1.00  0.00     0.000 HD 
HETATM   18  O   UNL     1     -10.763  15.402  67.776  1.00  0.00    -0.274 OA 
ENDBRANCH  11  16
BRANCH  14  19
HETATM   19  C   UNL     1      -6.070  14.812  70.410  1.00  0.00    -0.160 C  
HETATM   20  O   UNL     1      -6.269  13.797  71.376  1.00  0.00    -0.547 OA 
HETATM   21  H   UNL     1      -5.775  13.996  72.162  1.00  0.00     0.000 HD 
ENDBRANCH  14  19
ENDBRANCH   8   9
BRANCH   8  22
HETATM   22  C   UNL     1      -9.844  12.016  68.202  1.00  0.00    -0.201 C  
HETATM   23  H   UNL     1     -10.411  10.454  69.179  1.00  0.00     0.000 HD 
HETATM   24  O   UNL     1      -9.744  10.644  68.530  1.00  0.00    -0.160 OA 
ENDBRANCH   8  22
ENDBRANCH   6   8
ENDBRANCH   4   6
ENDBRANCH   3   4
TORSDOF 7
ENDMDL
MODEL      230
REMARK 921   NORMALIZED FREE ENERGY PREDICTED BY IDOCK:   -2.68 KCAL/MOL
REMARK 922        TOTAL FREE ENERGY PREDICTED BY IDOCK:   -5.31 KCAL/MOL
REMARK 923 INTER-LIGAND FREE ENERGY PREDICTED BY IDOCK:   -4.20 KCAL/MOL
REMARK 924 INTRA-LIGAND FREE ENERGY PREDICTED BY IDOCK:   -1.11 KCAL/MOL
REMARK 927      BINDING AFFINITY PREDICTED BY RF-SCORE:    0.00 PKD
ROOT
HETATM    1  O   UNL     1     -13.567   7.409  72.104  1.00  0.00    -0.516 OA 
HETATM    2  H   UNL     1     -13.843   7.007  72.919  1.00  0.00     0.000 HD 
HETATM    3  C   UNL     1     -12.399   6.729  71.708  1.00  0.00    -0.356 C  
ENDROOT
BRANCH   3   4
HETATM    4  N   UNL     1     -11.986   7.331  70.488  1.00  0.00    -0.531 N  
HETATM    5  H   UNL     1     -12.072   6.815  69.612  1.00  0.00     0.000 HD 
BRANCH   4   6
HETATM    6  C   UNL     1     -11.475   8.594  70.484  1.00  0.00    -0.188 C  
HETATM    7  O   UNL     1     -12.026   9.514  71.084  1.00  0.00    -0.304 OA 
BRANCH   6   8
HETATM    8  N   UNL     1     -10.274   8.765  69.825  1.00  0.00    -0.196 N  
BRANCH   8   9
HETATM    9  C   UNL     1     -10.081   8.030  68.591  1.00  0.00    -0.199 C  
HETATM   10  O   UNL     1      -8.549   6.309  69.515  1.00  0.00    -0.129 OA 
HETATM   11  N   UNL     1      -9.676   8.823  67.453  1.00  0.00    -0.164 N  
HETATM   12  C   UNL     1      -8.927   7.003  68.576  1.00  0.00    -0.122 C  
HETATM   13  O   UNL     1      -8.502   8.404  65.499  1.00  0.00    -0.151 OA 
HETATM   14  N   UNL     1      -8.424   6.973  67.309  1.00  0.00    -0.121 N  
HETATM   15  C   UNL     1      -8.840   8.080  66.628  1.00  0.00    -0.145 C  
BRANCH  11  16
HETATM   16  C   UNL     1     -10.405   9.950  66.949  1.00  0.00    -0.235 C  
HETATM   17  H   UNL     1     -10.078  11.850  66.719  1.00  0.00     0.000 HD 
HETATM   18  O   UNL     1      -9.595  11.103  67.053  1.00  0.00    -0.178 OA 
ENDBRANCH  11  16
BRANCH  14  19
HETATM   19  C   UNL     1      -7.295   6.203  66.880  1.00  0.00    -0.082 C  
HETATM   20  O   UNL     1      -7.572   5.594  65.633  1.00  0.00    -0.083 OA 
HETATM   21  H   UNL     1      -6.824   5.083  65.349  1.00  0.00     0.000 HD 
ENDBRANCH  14  19
ENDBRANCH   8   9
BRANCH   8  22
HETATM   22  C   UNL     1      -9.125   9.425  70.397  1.00  0.00    -0.256 C  
HETATM   23  H   UNL     1      -8.162   9.319  72.064  1.00  0.00     0.000 HD 
HETATM   24  O   UNL     1      -8.918   8.884  71.687  1.00  0.00    -0.249 OA 
ENDBRANCH   8  22
ENDBRANCH   6   8
ENDBRANCH   4   6
ENDBRANCH   3   4
TORSDOF 7
ENDMDL
MODEL      231
REMARK 921   NORMALIZED FREE ENERGY PREDICTED BY IDOCK:   -2.67 KCAL/MOL
REMARK 922        TOTAL FREE ENERGY PREDICTED BY IDOCK:   -5.30 KCAL/MOL
REMARK 923 INTER-LIGAND FREE ENERGY PREDICTED BY IDOCK:   -5.23 KCAL/MOL
REMARK 924 INTRA-LIGAND FREE ENERGY PREDICTED BY IDOCK:   -0.06 KCAL/MOL
REMARK 927      BINDING AFFINITY PREDICTED BY RF-SCORE:    0.00 PKD
ROOT
HETATM    1  O   UNL     1      -8.303  10.904  64.879  1.00  0.00    -0.351 OA 
HETATM    2  H   UNL     1      -7.384  10.678  64.948  1.00  0.00     0.000 HD 
HETATM    3  C   UNL     1      -8.954  10.216  65.922  1.00  0.00    -0.157 C  
ENDROOT
BRANCH   3   4
HETATM    4  N   UNL     1     -10.332  10.554  65.819  1.00  0.00    -0.231 N  
HETATM    5  H   UNL     1     -10.943  10.014  65.206  1.00  0.00     0.000 HD 
BRANCH   4   6
HETATM    6  C   UNL     1     -10.837  11.597  66.536  1.00  0.00    -0.284 C  
HETATM    7  O   UNL     1     -11.992  11.987  66.379  1.00  0.00    -0.611 OA 
BRANCH   6   8
HETATM    8  N   UNL     1     -10.001  12.144  67.489  1.00  0.00    -0.196 N  
BRANCH   8   9
HETATM    9  C   UNL     1     -10.442  12.095  68.868  1.00  0.00    -0.113 C  
HETATM   10  O   UNL     1     -11.095   9.700  68.879  1.00  0.00    -0.170 OA 
HETATM   11  N   UNL     1     -11.398  13.107  69.252  1.00  0.00    -0.268 N  
HETATM   12  C   UNL     1     -11.249  10.846  69.288  1.00  0.00    -0.265 C  
HETATM   13  O   UNL     1     -13.056  13.269  70.863  1.00  0.00    -0.150 OA 
HETATM   14  N   UNL     1     -12.148  11.241  70.235  1.00  0.00    -0.349 N  
HETATM   15  C   UNL     1     -12.273  12.600  70.205  1.00  0.00    -0.271 C  
BRANCH  11  16
HETATM   16  C   UNL     1     -11.182  14.518  69.119  1.00  0.00    -0.269 C  
HETATM   17  H   UNL     1     -11.749  15.922  67.903  1.00  0.00     0.000 HD 
HETATM   18  O   UNL     1     -11.892  14.987  67.992  1.00  0.00    -0.335 OA 
ENDBRANCH  11  16
BRANCH  14  19
HETATM   19  C   UNL     1     -13.140  10.405  70.840  1.00  0.00    -0.330 C  
HETATM   20  O   UNL     1     -12.980  10.405  72.246  1.00  0.00    -0.467 OA 
HETATM   21  H   UNL     1     -13.638   9.851  72.647  1.00  0.00     0.000 HD 
ENDBRANCH  14  19
ENDBRANCH   8   9
BRANCH   8  22
HETATM   22  C   UNL     1      -8.852  12.962  67.182  1.00  0.00    -0.210 C  
HETATM   23  H   UNL     1      -8.510  14.493  66.061  1.00  0.00     0.000 HD 
HETATM   24  O   UNL     1      -9.266  13.955  66.264  1.00  0.00    -0.206 OA 
ENDBRANCH   8  22
ENDBRANCH   6   8
ENDBRANCH   4   6
ENDBRANCH   3   4
TORSDOF 7
ENDMDL
MODEL      232
REMARK 921   NORMALIZED FREE ENERGY PREDICTED BY IDOCK:   -2.64 KCAL/MOL
REMARK 922        TOTAL FREE ENERGY PREDICTED BY IDOCK:   -5.25 KCAL/MOL
REMARK 923 INTER-LIGAND FREE ENERGY PREDICTED BY IDOCK:   -4.41 KCAL/MOL
REMARK 924 INTRA-LIGAND FREE ENERGY PREDICTED BY IDOCK:   -0.84 KCAL/MOL
REMARK 927      BINDING AFFINITY PREDICTED BY RF-SCORE:    0.00 PKD
ROOT
HETATM    1  O   UNL     1     -10.430  11.203  69.650  1.00  0.00    -0.437 OA 
HETATM    2  H   UNL     1     -10.260  12.133  69.565  1.00  0.00     0.000 HD 
HETATM    3  C   UNL     1     -11.810  11.077  69.900  1.00  0.00    -0.353 C  
ENDROOT
BRANCH   3   4
HETATM    4  N   UNL     1     -12.064   9.683  70.026  1.00  0.00    -0.454 N  
HETATM    5  H   UNL     1     -12.955   9.299  69.714  1.00  0.00     0.000 HD 
BRANCH   4   6
HETATM    6  C   UNL     1     -11.120   8.861  70.565  1.00  0.00    -0.251 C  
HETATM    7  O   UNL     1     -10.576   9.117  71.636  1.00  0.00    -0.339 OA 
BRANCH   6   8
HETATM    8  N   UNL     1     -10.859   7.695  69.871  1.00  0.00    -0.250 N  
BRANCH   8   9
HETATM    9  C   UNL     1      -9.893   7.763  68.793  1.00  0.00    -0.169 C  
HETATM   10  O   UNL     1     -11.261   6.570  67.101  1.00  0.00    -0.388 OA 
HETATM   11  N   UNL     1      -8.567   7.290  69.116  1.00  0.00    -0.133 N  
HETATM   12  C   UNL     1     -10.166   6.863  67.568  1.00  0.00    -0.194 C  
HETATM   13  O   UNL     1      -6.808   6.392  67.905  1.00  0.00    -0.068 OA 
HETATM   14  N   UNL     1      -8.956   6.480  67.066  1.00  0.00    -0.118 N  
HETATM   15  C   UNL     1      -7.986   6.701  68.000  1.00  0.00    -0.110 C  
BRANCH  11  16
HETATM   16  C   UNL     1      -7.764   7.796  70.191  1.00  0.00    -0.090 C  
HETATM   17  H   UNL     1      -7.037   9.518  70.716  1.00  0.00     0.000 HD 
HETATM   18  O   UNL     1      -7.569   9.182  70.004  1.00  0.00    -0.062 OA 
ENDBRANCH  11  16
BRANCH  14  19
HETATM   19  C   UNL     1      -8.758   5.581  65.969  1.00  0.00    -0.141 C  
HETATM   20  O   UNL     1      -9.536   4.414  66.155  1.00  0.00    -0.146 OA 
HETATM   21  H   UNL     1      -9.405   3.818  65.428  1.00  0.00     0.000 HD 
ENDBRANCH  14  19
ENDBRANCH   8   9
BRANCH   8  22
HETATM   22  C   UNL     1     -11.649   6.492  69.987  1.00  0.00    -0.390 C  
HETATM   23  H   UNL     1     -12.881   5.772  71.283  1.00  0.00     0.000 HD 
HETATM   24  O   UNL     1     -12.362   6.564  71.206  1.00  0.00    -0.317 OA 
ENDBRANCH   8  22
ENDBRANCH   6   8
ENDBRANCH   4   6
ENDBRANCH   3   4
TORSDOF 7
ENDMDL
MODEL      233
REMARK 921   NORMALIZED FREE ENERGY PREDICTED BY IDOCK:   -2.63 KCAL/MOL
REMARK 922        TOTAL FREE ENERGY PREDICTED BY IDOCK:   -5.24 KCAL/MOL
REMARK 923 INTER-LIGAND FREE ENERGY PREDICTED BY IDOCK:   -4.46 KCAL/MOL
REMARK 924 INTRA-LIGAND FREE ENERGY PREDICTED BY IDOCK:   -0.79 KCAL/MOL
REMARK 927      BINDING AFFINITY PREDICTED BY RF-SCORE:    0.00 PKD
ROOT
HETATM    1  O   UNL     1      -8.794   8.483  63.491  1.00  0.00    -0.413 OA 
HETATM    2  H   UNL     1      -8.101   8.506  62.842  1.00  0.00     0.000 HD 
HETATM    3  C   UNL     1      -8.869   9.782  64.031  1.00  0.00    -0.231 C  
ENDROOT
BRANCH   3   4
HETATM    4  N   UNL     1      -9.906   9.746  65.003  1.00  0.00    -0.421 N  
HETATM    5  H   UNL     1     -10.494   8.917  65.089  1.00  0.00     0.000 HD 
BRANCH   4   6
HETATM    6  C   UNL     1     -10.118  10.817  65.819  1.00  0.00    -0.261 C  
HETATM    7  O   UNL     1     -11.137  11.499  65.736  1.00  0.00    -0.284 OA 
BRANCH   6   8
HETATM    8  N   UNL     1      -9.157  11.049  66.783  1.00  0.00    -0.159 N  
BRANCH   8   9
HETATM    9  C   UNL     1      -9.264  10.308  68.023  1.00  0.00    -0.135 C  
HETATM   10  O   UNL     1      -8.617   8.097  67.098  1.00  0.00    -0.121 OA 
HETATM   11  N   UNL     1     -10.515  10.458  68.731  1.00  0.00    -0.187 N  
HETATM   12  C   UNL     1      -9.250   8.767  67.907  1.00  0.00    -0.139 C  
HETATM   13  O   UNL     1     -11.719   9.157  70.223  1.00  0.00    -0.168 OA 
HETATM   14  N   UNL     1     -10.044   8.276  68.902  1.00  0.00    -0.194 N  
HETATM   15  C   UNL     1     -10.836   9.276  69.387  1.00  0.00    -0.169 C  
BRANCH  11  16
HETATM   16  C   UNL     1     -11.062  11.714  69.153  1.00  0.00    -0.245 C  
HETATM   17  H   UNL     1     -12.741  12.664  68.935  1.00  0.00     0.000 HD 
HETATM   18  O   UNL     1     -12.378  11.832  68.655  1.00  0.00    -0.335 OA 
ENDBRANCH  11  16
BRANCH  14  19
HETATM   19  C   UNL     1     -10.361   6.895  69.107  1.00  0.00    -0.195 C  
HETATM   20  O   UNL     1     -11.760   6.702  69.017  1.00  0.00    -0.608 OA 
HETATM   21  H   UNL     1     -11.970   5.786  69.153  1.00  0.00     0.000 HD 
ENDBRANCH  14  19
ENDBRANCH   8   9
BRANCH   8  22
HETATM   22  C   UNL     1      -8.209  12.137  66.733  1.00  0.00    -0.085 C  
HETATM   23  H   UNL     1      -6.967  12.941  67.968  1.00  0.00     0.000 HD 
HETATM   24  O   UNL     1      -7.590  12.225  68.001  1.00  0.00    -0.106 OA 
ENDBRANCH   8  22
ENDBRANCH   6   8
ENDBRANCH   4   6
ENDBRANCH   3   4
TORSDOF 7
ENDMDL
MODEL      234
REMARK 921   NORMALIZED FREE ENERGY PREDICTED BY IDOCK:   -2.63 KCAL/MOL
REMARK 922        TOTAL FREE ENERGY PREDICTED BY IDOCK:   -5.23 KCAL/MOL
REMARK 923 INTER-LIGAND FREE ENERGY PREDICTED BY IDOCK:   -4.29 KCAL/MOL
REMARK 924 INTRA-LIGAND FREE ENERGY PREDICTED BY IDOCK:   -0.94 KCAL/MOL
REMARK 927      BINDING AFFINITY PREDICTED BY RF-SCORE:    0.00 PKD
ROOT
HETATM    1  O   UNL     1      -8.868   8.288  69.244  1.00  0.00    -0.141 OA 
HETATM    2  H   UNL     1      -8.225   8.964  69.070  1.00  0.00     0.000 HD 
HETATM    3  C   UNL     1     -10.127   8.914  69.166  1.00  0.00    -0.197 C  
ENDROOT
BRANCH   3   4
HETATM    4  N   UNL     1     -11.090   7.901  69.427  1.00  0.00    -0.439 N  
HETATM    5  H   UNL     1     -11.925   7.832  68.846  1.00  0.00     0.000 HD 
BRANCH   4   6
HETATM    6  C   UNL     1     -10.901   7.023  70.452  1.00  0.00    -0.254 C  
HETATM    7  O   UNL     1     -10.180   6.036  70.331  1.00  0.00    -0.185 OA 
BRANCH   6   8
HETATM    8  N   UNL     1     -11.512   7.341  71.649  1.00  0.00    -0.257 N  
BRANCH   8   9
HETATM    9  C   UNL     1     -10.714   7.238  72.853  1.00  0.00    -0.322 C  
HETATM   10  O   UNL     1      -9.112   9.049  72.296  1.00  0.00    -0.351 OA 
HETATM   11  N   UNL     1     -10.229   5.913  73.165  1.00  0.00    -0.185 N  
HETATM   12  C   UNL     1      -9.360   7.982  72.847  1.00  0.00    -0.271 C  
HETATM   13  O   UNL     1      -8.417   5.065  74.336  1.00  0.00    -0.107 OA 
HETATM   14  N   UNL     1      -8.491   7.254  73.605  1.00  0.00    -0.137 N  
HETATM   15  C   UNL     1      -8.985   5.993  73.779  1.00  0.00    -0.127 C  
BRANCH  11  16
HETATM   16  C   UNL     1     -11.065   4.761  73.332  1.00  0.00    -0.344 C  
HETATM   17  H   UNL     1     -11.064   2.918  72.720  1.00  0.00     0.000 HD 
HETATM   18  O   UNL     1     -10.510   3.682  72.610  1.00  0.00    -0.163 OA 
ENDBRANCH  11  16
BRANCH  14  19
HETATM   19  C   UNL     1      -7.105   7.556  73.802  1.00  0.00    -0.091 C  
HETATM   20  O   UNL     1      -6.484   7.805  72.555  1.00  0.00    -0.057 OA 
HETATM   21  H   UNL     1      -5.565   8.006  72.686  1.00  0.00     0.000 HD 
ENDBRANCH  14  19
ENDBRANCH   8   9
BRANCH   8  22
HETATM   22  C   UNL     1     -12.935   7.534  71.803  1.00  0.00    -0.328 C  
HETATM   23  H   UNL     1     -14.143   9.033  71.701  1.00  0.00     0.000 HD 
HETATM   24  O   UNL     1     -13.206   8.906  71.599  1.00  0.00    -0.335 OA 
ENDBRANCH   8  22
ENDBRANCH   6   8
ENDBRANCH   4   6
ENDBRANCH   3   4
TORSDOF 7
ENDMDL
MODEL      235
REMARK 921   NORMALIZED FREE ENERGY PREDICTED BY IDOCK:   -2.62 KCAL/MOL
REMARK 922        TOTAL FREE ENERGY PREDICTED BY IDOCK:   -5.22 KCAL/MOL
REMARK 923 INTER-LIGAND FREE ENERGY PREDICTED BY IDOCK:   -4.29 KCAL/MOL
REMARK 924 INTRA-LIGAND FREE ENERGY PREDICTED BY IDOCK:   -0.93 KCAL/MOL
REMARK 927      BINDING AFFINITY PREDICTED BY RF-SCORE:    0.00 PKD
ROOT
HETATM    1  O   UNL     1     -11.564  13.683  70.310  1.00  0.00    -0.483 OA 
HETATM    2  H   UNL     1     -12.331  13.695  70.869  1.00  0.00     0.000 HD 
HETATM    3  C   UNL     1     -11.984  13.137  69.081  1.00  0.00    -0.281 C  
ENDROOT
BRANCH   3   4
HETATM    4  N   UNL     1     -10.835  13.119  68.244  1.00  0.00    -0.244 N  
HETATM    5  H   UNL     1     -10.151  13.873  68.302  1.00  0.00     0.000 HD 
BRANCH   4   6
HETATM    6  C   UNL     1     -10.644  12.096  67.363  1.00  0.00    -0.226 C  
HETATM    7  O   UNL     1     -10.998  12.182  66.189  1.00  0.00    -0.274 OA 
BRANCH   6   8
HETATM    8  N   UNL     1      -9.975  10.990  67.849  1.00  0.00    -0.171 N  
BRANCH   8   9
HETATM    9  C   UNL     1     -10.773   9.841  68.225  1.00  0.00    -0.233 C  
HETATM   10  O   UNL     1     -11.198  10.538  70.569  1.00  0.00    -0.314 OA 
HETATM   11  N   UNL     1     -10.178   8.554  67.950  1.00  0.00    -0.208 N  
HETATM   12  C   UNL     1     -11.038   9.652  69.736  1.00  0.00    -0.217 C  
HETATM   13  O   UNL     1     -10.382   6.428  68.850  1.00  0.00    -0.169 OA 
HETATM   14  N   UNL     1     -11.102   8.311  69.974  1.00  0.00    -0.200 N  
HETATM   15  C   UNL     1     -10.559   7.635  68.921  1.00  0.00    -0.159 C  
BRANCH  11  16
HETATM   16  C   UNL     1      -9.736   8.125  66.655  1.00  0.00    -0.248 C  
HETATM   17  H   UNL     1      -8.034   7.727  65.808  1.00  0.00     0.000 HD 
HETATM   18  O   UNL     1      -8.328   8.011  66.666  1.00  0.00    -0.114 OA 
ENDBRANCH  11  16
BRANCH  14  19
HETATM   19  C   UNL     1     -11.263   7.702  71.260  1.00  0.00    -0.254 C  
HETATM   20  O   UNL     1     -10.251   8.156  72.139  1.00  0.00    -0.217 OA 
HETATM   21  H   UNL     1     -10.358   7.753  72.992  1.00  0.00     0.000 HD 
ENDBRANCH  14  19
ENDBRANCH   8   9
BRANCH   8  22
HETATM   22  C   UNL     1      -8.582  10.990  68.226  1.00  0.00    -0.143 C  
HETATM   23  H   UNL     1      -6.918  11.422  67.354  1.00  0.00     0.000 HD 
HETATM   24  O   UNL     1      -7.835  11.423  67.106  1.00  0.00    -0.140 OA 
ENDBRANCH   8  22
ENDBRANCH   6   8
ENDBRANCH   4   6
ENDBRANCH   3   4
TORSDOF 7
ENDMDL
MODEL      236
REMARK 921   NORMALIZED FREE ENERGY PREDICTED BY IDOCK:   -2.62 KCAL/MOL
REMARK 922        TOTAL FREE ENERGY PREDICTED BY IDOCK:   -5.22 KCAL/MOL
REMARK 923 INTER-LIGAND FREE ENERGY PREDICTED BY IDOCK:   -3.93 KCAL/MOL
REMARK 924 INTRA-LIGAND FREE ENERGY PREDICTED BY IDOCK:   -1.29 KCAL/MOL
REMARK 927      BINDING AFFINITY PREDICTED BY RF-SCORE:    0.00 PKD
ROOT
HETATM    1  O   UNL     1      -8.629   4.924  65.170  1.00  0.00    -0.132 OA 
HETATM    2  H   UNL     1      -8.474   4.905  64.234  1.00  0.00     0.000 HD 
HETATM    3  C   UNL     1      -9.733   4.080  65.401  1.00  0.00    -0.196 C  
ENDROOT
BRANCH   3   4
HETATM    4  N   UNL     1      -9.966   4.109  66.804  1.00  0.00    -0.312 N  
HETATM    5  H   UNL     1     -10.904   4.293  67.159  1.00  0.00     0.000 HD 
BRANCH   4   6
HETATM    6  C   UNL     1      -8.940   3.891  67.674  1.00  0.00    -0.133 C  
HETATM    7  O   UNL     1      -8.146   2.966  67.517  1.00  0.00    -0.075 OA 
BRANCH   6   8
HETATM    8  N   UNL     1      -8.806   4.806  68.700  1.00  0.00    -0.097 N  
BRANCH   8   9
HETATM    9  C   UNL     1      -9.816   4.794  69.738  1.00  0.00    -0.218 C  
HETATM   10  O   UNL     1     -11.422   6.304  68.598  1.00  0.00    -0.263 OA 
HETATM   11  N   UNL     1      -9.345   5.110  71.067  1.00  0.00    -0.146 N  
HETATM   12  C   UNL     1     -10.927   5.863  69.629  1.00  0.00    -0.377 C  
HETATM   13  O   UNL     1     -10.307   6.003  72.977  1.00  0.00    -0.186 OA 
HETATM   14  N   UNL     1     -11.291   6.203  70.899  1.00  0.00    -0.310 N  
HETATM   15  C   UNL     1     -10.333   5.784  71.775  1.00  0.00    -0.221 C  
BRANCH  11  16
HETATM   16  C   UNL     1      -8.297   4.405  71.745  1.00  0.00    -0.106 C  
HETATM   17  H   UNL     1      -8.118   2.726  72.704  1.00  0.00     0.000 HD 
HETATM   18  O   UNL     1      -8.813   3.194  72.255  1.00  0.00    -0.084 OA 
ENDBRANCH  11  16
BRANCH  14  19
HETATM   19  C   UNL     1     -12.244   7.214  71.247  1.00  0.00    -0.365 C  
HETATM   20  O   UNL     1     -12.443   7.226  72.648  1.00  0.00    -0.488 OA 
HETATM   21  H   UNL     1     -13.075   7.897  72.879  1.00  0.00     0.000 HD 
ENDBRANCH  14  19
ENDBRANCH   8   9
BRANCH   8  22
HETATM   22  C   UNL     1      -7.879   5.912  68.681  1.00  0.00    -0.102 C  
HETATM   23  H   UNL     1      -7.449   7.329  67.446  1.00  0.00     0.000 HD 
HETATM   24  O   UNL     1      -8.060   6.601  67.459  1.00  0.00    -0.115 OA 
ENDBRANCH   8  22
ENDBRANCH   6   8
ENDBRANCH   4   6
ENDBRANCH   3   4
TORSDOF 7
ENDMDL
MODEL      237
REMARK 921   NORMALIZED FREE ENERGY PREDICTED BY IDOCK:   -2.62 KCAL/MOL
REMARK 922        TOTAL FREE ENERGY PREDICTED BY IDOCK:   -5.22 KCAL/MOL
REMARK 923 INTER-LIGAND FREE ENERGY PREDICTED BY IDOCK:   -4.31 KCAL/MOL
REMARK 924 INTRA-LIGAND FREE ENERGY PREDICTED BY IDOCK:   -0.91 KCAL/MOL
REMARK 927      BINDING AFFINITY PREDICTED BY RF-SCORE:    0.00 PKD
ROOT
HETATM    1  O   UNL     1     -13.139  13.402  64.792  1.00  0.00    -0.694 OA 
HETATM    2  H   UNL     1     -13.242  13.480  63.851  1.00  0.00     0.000 HD 
HETATM    3  C   UNL     1     -12.058  12.523  64.997  1.00  0.00    -0.446 C  
ENDROOT
BRANCH   3   4
HETATM    4  N   UNL     1     -11.904  12.407  66.405  1.00  0.00    -0.388 N  
HETATM    5  H   UNL     1     -12.435  13.018  67.026  1.00  0.00     0.000 HD 
BRANCH   4   6
HETATM    6  C   UNL     1     -11.050  11.483  66.929  1.00  0.00    -0.307 C  
HETATM    7  O   UNL     1     -11.453  10.409  67.369  1.00  0.00    -0.354 OA 
BRANCH   6   8
HETATM    8  N   UNL     1      -9.706  11.796  66.875  1.00  0.00    -0.195 N  
BRANCH   8   9
HETATM    9  C   UNL     1      -9.236  12.866  67.731  1.00  0.00    -0.200 C  
HETATM   10  O   UNL     1      -9.527  14.702  66.087  1.00  0.00    -0.296 OA 
HETATM   11  N   UNL     1      -7.950  12.647  68.351  1.00  0.00    -0.145 N  
HETATM   12  C   UNL     1      -8.931  14.215  67.042  1.00  0.00    -0.237 C  
HETATM   13  O   UNL     1      -6.261  14.019  69.149  1.00  0.00    -0.092 OA 
HETATM   14  N   UNL     1      -7.897  14.793  67.716  1.00  0.00    -0.137 N  
HETATM   15  C   UNL     1      -7.274  13.854  68.487  1.00  0.00    -0.107 C  
BRANCH  11  16
HETATM   16  C   UNL     1      -7.629  11.520  69.177  1.00  0.00    -0.003 C  
HETATM   17  H   UNL     1      -6.167  10.250  69.323  1.00  0.00     0.000 HD 
HETATM   18  O   UNL     1      -6.380  10.997  68.775  1.00  0.00    -0.046 OA 
ENDBRANCH  11  16
BRANCH  14  19
HETATM   19  C   UNL     1      -7.256  16.023  67.360  1.00  0.00    -0.187 C  
HETATM   20  O   UNL     1      -8.221  17.051  67.233  1.00  0.00    -0.179 OA 
HETATM   21  H   UNL     1      -7.796  17.866  66.998  1.00  0.00     0.000 HD 
ENDBRANCH  14  19
ENDBRANCH   8   9
BRANCH   8  22
HETATM   22  C   UNL     1      -8.801  11.300  65.866  1.00  0.00    -0.169 C  
HETATM   23  H   UNL     1      -7.880   9.639  65.536  1.00  0.00     0.000 HD 
HETATM   24  O   UNL     1      -8.476   9.965  66.200  1.00  0.00    -0.122 OA 
ENDBRANCH   8  22
ENDBRANCH   6   8
ENDBRANCH   4   6
ENDBRANCH   3   4
TORSDOF 7
ENDMDL
MODEL      238
REMARK 921   NORMALIZED FREE ENERGY PREDICTED BY IDOCK:   -2.61 KCAL/MOL
REMARK 922        TOTAL FREE ENERGY PREDICTED BY IDOCK:   -5.21 KCAL/MOL
REMARK 923 INTER-LIGAND FREE ENERGY PREDICTED BY IDOCK:   -4.33 KCAL/MOL
REMARK 924 INTRA-LIGAND FREE ENERGY PREDICTED BY IDOCK:   -0.89 KCAL/MOL
REMARK 927      BINDING AFFINITY PREDICTED BY RF-SCORE:    0.00 PKD
ROOT
HETATM    1  O   UNL     1     -12.185  10.598  68.552  1.00  0.00    -0.822 OA 
HETATM    2  H   UNL     1     -12.633  10.454  67.727  1.00  0.00     0.000 HD 
HETATM    3  C   UNL     1     -10.807  10.562  68.261  1.00  0.00    -0.248 C  
ENDROOT
BRANCH   3   4
HETATM    4  N   UNL     1     -10.136  10.777  69.496  1.00  0.00    -0.419 N  
HETATM    5  H   UNL     1     -10.366  11.593  70.064  1.00  0.00     0.000 HD 
BRANCH   4   6
HETATM    6  C   UNL     1      -9.187   9.897  69.924  1.00  0.00    -0.212 C  
HETATM    7  O   UNL     1      -7.995  10.068  69.683  1.00  0.00    -0.139 OA 
BRANCH   6   8
HETATM    8  N   UNL     1      -9.636   8.844  70.695  1.00  0.00    -0.197 N  
BRANCH   8   9
HETATM    9  C   UNL     1      -8.666   7.839  71.080  1.00  0.00    -0.136 C  
HETATM   10  O   UNL     1      -8.718   6.558  68.955  1.00  0.00    -0.127 OA 
HETATM   11  N   UNL     1      -8.927   7.171  72.334  1.00  0.00    -0.128 N  
HETATM   12  C   UNL     1      -8.571   6.592  70.172  1.00  0.00    -0.140 C  
HETATM   13  O   UNL     1      -8.390   5.103  73.231  1.00  0.00    -0.110 OA 
HETATM   14  N   UNL     1      -8.250   5.532  70.967  1.00  0.00    -0.117 N  
HETATM   15  C   UNL     1      -8.489   5.853  72.272  1.00  0.00    -0.121 C  
BRANCH  11  16
HETATM   16  C   UNL     1      -9.090   7.840  73.591  1.00  0.00    -0.286 C  
HETATM   17  H   UNL     1      -8.044   9.056  74.686  1.00  0.00     0.000 HD 
HETATM   18  O   UNL     1      -7.937   8.612  73.853  1.00  0.00    -0.406 OA 
ENDBRANCH  11  16
BRANCH  14  19
HETATM   19  C   UNL     1      -8.134   4.172  70.534  1.00  0.00    -0.055 C  
HETATM   20  O   UNL     1      -6.933   3.610  71.026  1.00  0.00    -0.032 OA 
HETATM   21  H   UNL     1      -6.856   2.708  70.739  1.00  0.00     0.000 HD 
ENDBRANCH  14  19
ENDBRANCH   8   9
BRANCH   8  22
HETATM   22  C   UNL     1     -11.030   8.555  70.936  1.00  0.00    -0.251 C  
HETATM   23  H   UNL     1     -12.505   9.477  71.767  1.00  0.00     0.000 HD 
HETATM   24  O   UNL     1     -11.588   9.667  71.609  1.00  0.00    -0.382 OA 
ENDBRANCH   8  22
ENDBRANCH   6   8
ENDBRANCH   4   6
ENDBRANCH   3   4
TORSDOF 7
ENDMDL
MODEL      239
REMARK 921   NORMALIZED FREE ENERGY PREDICTED BY IDOCK:   -2.61 KCAL/MOL
REMARK 922        TOTAL FREE ENERGY PREDICTED BY IDOCK:   -5.21 KCAL/MOL
REMARK 923 INTER-LIGAND FREE ENERGY PREDICTED BY IDOCK:   -4.21 KCAL/MOL
REMARK 924 INTRA-LIGAND FREE ENERGY PREDICTED BY IDOCK:   -1.01 KCAL/MOL
REMARK 927      BINDING AFFINITY PREDICTED BY RF-SCORE:    0.00 PKD
ROOT
HETATM    1  O   UNL     1      -7.963  11.566  66.192  1.00  0.00    -0.358 OA 
HETATM    2  H   UNL     1      -7.897  11.504  65.247  1.00  0.00     0.000 HD 
HETATM    3  C   UNL     1      -9.061  12.408  66.455  1.00  0.00    -0.181 C  
ENDROOT
BRANCH   3   4
HETATM    4  N   UNL     1      -9.159  12.499  67.871  1.00  0.00    -0.191 N  
HETATM    5  H   UNL     1      -9.117  13.412  68.325  1.00  0.00     0.000 HD 
BRANCH   4   6
HETATM    6  C   UNL     1      -9.309  11.373  68.623  1.00  0.00    -0.150 C  
HETATM    7  O   UNL     1      -8.344  10.696  68.970  1.00  0.00    -0.144 OA 
BRANCH   6   8
HETATM    8  N   UNL     1     -10.597  11.074  69.024  1.00  0.00    -0.216 N  
BRANCH   8   9
HETATM    9  C   UNL     1     -10.949   9.674  69.145  1.00  0.00    -0.151 C  
HETATM   10  O   UNL     1     -10.343   9.429  71.540  1.00  0.00    -0.327 OA 
HETATM   11  N   UNL     1     -10.363   8.798  68.157  1.00  0.00    -0.216 N  
HETATM   12  C   UNL     1     -10.455   8.949  70.417  1.00  0.00    -0.210 C  
HETATM   13  O   UNL     1      -9.808   6.549  68.086  1.00  0.00    -0.128 OA 
HETATM   14  N   UNL     1     -10.200   7.653  70.074  1.00  0.00    -0.208 N  
HETATM   15  C   UNL     1     -10.110   7.551  68.716  1.00  0.00    -0.185 C  
BRANCH  11  16
HETATM   16  C   UNL     1     -10.509   8.960  66.741  1.00  0.00    -0.199 C  
HETATM   17  H   UNL     1      -9.323   9.156  65.215  1.00  0.00     0.000 HD 
HETATM   18  O   UNL     1      -9.227   9.049  66.154  1.00  0.00    -0.183 OA 
ENDBRANCH  11  16
BRANCH  14  19
HETATM   19  C   UNL     1      -9.657   6.655  70.945  1.00  0.00    -0.175 C  
HETATM   20  O   UNL     1     -10.444   6.555  72.116  1.00  0.00    -0.201 OA 
HETATM   21  H   UNL     1     -10.084   5.893  72.693  1.00  0.00     0.000 HD 
ENDBRANCH  14  19
ENDBRANCH   8   9
BRANCH   8  22
HETATM   22  C   UNL     1     -11.666  12.042  69.094  1.00  0.00    -0.330 C  
HETATM   23  H   UNL     1     -12.938  12.784  67.851  1.00  0.00     0.000 HD 
HETATM   24  O   UNL     1     -12.235  12.147  67.804  1.00  0.00    -0.451 OA 
ENDBRANCH   8  22
ENDBRANCH   6   8
ENDBRANCH   4   6
ENDBRANCH   3   4
TORSDOF 7
ENDMDL
MODEL      240
REMARK 921   NORMALIZED FREE ENERGY PREDICTED BY IDOCK:   -2.61 KCAL/MOL
REMARK 922        TOTAL FREE ENERGY PREDICTED BY IDOCK:   -5.21 KCAL/MOL
REMARK 923 INTER-LIGAND FREE ENERGY PREDICTED BY IDOCK:   -4.52 KCAL/MOL
REMARK 924 INTRA-LIGAND FREE ENERGY PREDICTED BY IDOCK:   -0.69 KCAL/MOL
REMARK 927      BINDING AFFINITY PREDICTED BY RF-SCORE:    0.00 PKD
ROOT
HETATM    1  O   UNL     1      -7.307   7.014  69.785  1.00  0.00    -0.083 OA 
HETATM    2  H   UNL     1      -6.818   6.762  70.559  1.00  0.00     0.000 HD 
HETATM    3  C   UNL     1      -7.058   8.387  69.594  1.00  0.00    -0.052 C  
ENDROOT
BRANCH   3   4
HETATM    4  N   UNL     1      -7.791   8.765  68.435  1.00  0.00    -0.103 N  
HETATM    5  H   UNL     1      -7.598   8.311  67.543  1.00  0.00     0.000 HD 
BRANCH   4   6
HETATM    6  C   UNL     1      -8.749   9.731  68.514  1.00  0.00    -0.120 C  
HETATM    7  O   UNL     1      -8.517  10.831  69.009  1.00  0.00    -0.153 OA 
BRANCH   6   8
HETATM    8  N   UNL     1      -9.971   9.425  67.948  1.00  0.00    -0.173 N  
BRANCH   8   9
HETATM    9  C   UNL     1     -11.139   9.506  68.802  1.00  0.00    -0.001 C  
HETATM   10  O   UNL     1     -11.507  11.949  68.557  1.00  0.00    -0.244 OA 
HETATM   11  N   UNL     1     -10.991   8.925  70.116  1.00  0.00    -0.238 N  
HETATM   12  C   UNL     1     -11.582  10.924  69.227  1.00  0.00    -0.318 C  
HETATM   13  O   UNL     1     -11.977   9.276  72.183  1.00  0.00    -0.344 OA 
HETATM   14  N   UNL     1     -12.115  10.826  70.479  1.00  0.00    -0.334 N  
HETATM   15  C   UNL     1     -11.742   9.640  71.041  1.00  0.00    -0.353 C  
BRANCH  11  16
HETATM   16  C   UNL     1     -10.608   7.566  70.363  1.00  0.00    -0.229 C  
HETATM   17  H   UNL     1     -11.357   5.807  70.022  1.00  0.00     0.000 HD 
HETATM   18  O   UNL     1     -11.610   6.708  69.858  1.00  0.00    -0.371 OA 
ENDBRANCH  11  16
BRANCH  14  19
HETATM   19  C   UNL     1     -12.583  11.923  71.271  1.00  0.00    -0.277 C  
HETATM   20  O   UNL     1     -13.534  11.466  72.214  1.00  0.00    -0.601 OA 
HETATM   21  H   UNL     1     -13.844  12.194  72.740  1.00  0.00     0.000 HD 
ENDBRANCH  14  19
ENDBRANCH   8   9
BRANCH   8  22
HETATM   22  C   UNL     1     -10.130   8.806  66.653  1.00  0.00    -0.288 C  
HETATM   23  H   UNL     1      -9.644   9.255  64.843  1.00  0.00     0.000 HD 
HETATM   24  O   UNL     1      -9.539   9.662  65.695  1.00  0.00    -0.233 OA 
ENDBRANCH   8  22
ENDBRANCH   6   8
ENDBRANCH   4   6
ENDBRANCH   3   4
TORSDOF 7
ENDMDL
MODEL      241
REMARK 921   NORMALIZED FREE ENERGY PREDICTED BY IDOCK:   -2.58 KCAL/MOL
REMARK 922        TOTAL FREE ENERGY PREDICTED BY IDOCK:   -5.17 KCAL/MOL
REMARK 923 INTER-LIGAND FREE ENERGY PREDICTED BY IDOCK:   -3.79 KCAL/MOL
REMARK 924 INTRA-LIGAND FREE ENERGY PREDICTED BY IDOCK:   -1.38 KCAL/MOL
REMARK 927      BINDING AFFINITY PREDICTED BY RF-SCORE:    0.00 PKD
ROOT
HETATM    1  O   UNL     1     -12.128  11.989  67.996  1.00  0.00    -0.514 OA 
HETATM    2  H   UNL     1     -12.613  12.668  68.449  1.00  0.00     0.000 HD 
HETATM    3  C   UNL     1     -12.022  10.913  68.899  1.00  0.00    -0.206 C  
ENDROOT
BRANCH   3   4
HETATM    4  N   UNL     1     -11.296   9.897  68.219  1.00  0.00    -0.530 N  
HETATM    5  H   UNL     1     -11.770   9.303  67.539  1.00  0.00     0.000 HD 
BRANCH   4   6
HETATM    6  C   UNL     1      -9.970   9.713  68.474  1.00  0.00    -0.165 C  
HETATM    7  O   UNL     1      -9.570   8.784  69.171  1.00  0.00    -0.159 OA 
BRANCH   6   8
HETATM    8  N   UNL     1      -9.103  10.590  67.853  1.00  0.00    -0.135 N  
BRANCH   8   9
HETATM    9  C   UNL     1      -8.654  11.736  68.617  1.00  0.00    -0.062 C  
HETATM   10  O   UNL     1      -9.789  13.463  67.242  1.00  0.00    -0.226 OA 
HETATM   11  N   UNL     1      -7.229  11.813  68.843  1.00  0.00    -0.113 N  
HETATM   12  C   UNL     1      -8.856  13.121  67.962  1.00  0.00    -0.191 C  
HETATM   13  O   UNL     1      -5.723  13.529  69.236  1.00  0.00    -0.076 OA 
HETATM   14  N   UNL     1      -7.824  13.917  68.363  1.00  0.00    -0.133 N  
HETATM   15  C   UNL     1      -6.821  13.141  68.868  1.00  0.00    -0.103 C  
BRANCH  11  16
HETATM   16  C   UNL     1      -6.451  10.786  69.472  1.00  0.00    -0.089 C  
HETATM   17  H   UNL     1      -6.562   9.732  71.099  1.00  0.00     0.000 HD 
HETATM   18  O   UNL     1      -7.077  10.413  70.682  1.00  0.00    -0.300 OA 
ENDBRANCH  11  16
BRANCH  14  19
HETATM   19  C   UNL     1      -7.593  15.261  67.928  1.00  0.00    -0.139 C  
HETATM   20  O   UNL     1      -6.554  15.285  66.968  1.00  0.00    -0.253 OA 
HETATM   21  H   UNL     1      -6.400  16.177  66.679  1.00  0.00     0.000 HD 
ENDBRANCH  14  19
ENDBRANCH   8   9
BRANCH   8  22
HETATM   22  C   UNL     1      -8.810  10.571  66.439  1.00  0.00    -0.153 C  
HETATM   23  H   UNL     1      -9.832  10.322  64.824  1.00  0.00     0.000 HD 
HETATM   24  O   UNL     1     -10.024  10.334  65.754  1.00  0.00    -0.242 OA 
ENDBRANCH   8  22
ENDBRANCH   6   8
ENDBRANCH   4   6
ENDBRANCH   3   4
TORSDOF 7
ENDMDL
MODEL      242
REMARK 921   NORMALIZED FREE ENERGY PREDICTED BY IDOCK:   -2.57 KCAL/MOL
REMARK 922        TOTAL FREE ENERGY PREDICTED BY IDOCK:   -5.15 KCAL/MOL
REMARK 923 INTER-LIGAND FREE ENERGY PREDICTED BY IDOCK:   -4.19 KCAL/MOL
REMARK 924 INTRA-LIGAND FREE ENERGY PREDICTED BY IDOCK:   -0.96 KCAL/MOL
REMARK 927      BINDING AFFINITY PREDICTED BY RF-SCORE:    0.00 PKD
ROOT
HETATM    1  O   UNL     1      -5.661  10.016  72.281  1.00  0.00    -0.292 OA 
HETATM    2  H   UNL     1      -5.379   9.896  73.180  1.00  0.00     0.000 HD 
HETATM    3  C   UNL     1      -6.220   8.788  71.878  1.00  0.00    -0.073 C  
ENDROOT
BRANCH   3   4
HETATM    4  N   UNL     1      -6.642   8.969  70.532  1.00  0.00    -0.047 N  
HETATM    5  H   UNL     1      -6.352   8.304  69.815  1.00  0.00     0.000 HD 
BRANCH   4   6
HETATM    6  C   UNL     1      -7.431  10.028  70.197  1.00  0.00    -0.166 C  
HETATM    7  O   UNL     1      -7.002  11.179  70.201  1.00  0.00    -0.131 OA 
BRANCH   6   8
HETATM    8  N   UNL     1      -8.716   9.726  69.790  1.00  0.00    -0.198 N  
BRANCH   8   9
HETATM    9  C   UNL     1      -9.143   8.346  69.900  1.00  0.00    -0.146 C  
HETATM   10  O   UNL     1      -8.690   7.715  67.542  1.00  0.00    -0.124 OA 
HETATM   11  N   UNL     1     -10.458   8.145  70.463  1.00  0.00    -0.210 N  
HETATM   12  C   UNL     1      -9.343   7.581  68.573  1.00  0.00    -0.142 C  
HETATM   13  O   UNL     1     -12.081   6.499  70.289  1.00  0.00    -0.348 OA 
HETATM   14  N   UNL     1     -10.359   6.691  68.764  1.00  0.00    -0.180 N  
HETATM   15  C   UNL     1     -11.061   7.035  69.882  1.00  0.00    -0.264 C  
BRANCH  11  16
HETATM   16  C   UNL     1     -10.873   8.626  71.748  1.00  0.00    -0.325 C  
HETATM   17  H   UNL     1     -10.160   8.615  73.554  1.00  0.00     0.000 HD 
HETATM   18  O   UNL     1      -9.886   8.296  72.702  1.00  0.00    -0.271 OA 
ENDBRANCH  11  16
BRANCH  14  19
HETATM   19  C   UNL     1     -10.910   5.831  67.760  1.00  0.00    -0.167 C  
HETATM   20  O   UNL     1     -11.469   6.605  66.715  1.00  0.00    -0.776 OA 
HETATM   21  H   UNL     1     -11.835   6.035  66.050  1.00  0.00     0.000 HD 
ENDBRANCH  14  19
ENDBRANCH   8   9
BRANCH   8  22
HETATM   22  C   UNL     1      -9.564  10.632  69.052  1.00  0.00    -0.195 C  
HETATM   23  H   UNL     1      -9.470  11.528  67.348  1.00  0.00     0.000 HD 
HETATM   24  O   UNL     1      -8.912  10.931  67.833  1.00  0.00    -0.136 OA 
ENDBRANCH   8  22
ENDBRANCH   6   8
ENDBRANCH   4   6
ENDBRANCH   3   4
TORSDOF 7
ENDMDL
MODEL      243
REMARK 921   NORMALIZED FREE ENERGY PREDICTED BY IDOCK:   -2.55 KCAL/MOL
REMARK 922        TOTAL FREE ENERGY PREDICTED BY IDOCK:   -5.12 KCAL/MOL
REMARK 923 INTER-LIGAND FREE ENERGY PREDICTED BY IDOCK:   -5.25 KCAL/MOL
REMARK 924 INTRA-LIGAND FREE ENERGY PREDICTED BY IDOCK:    0.13 KCAL/MOL
REMARK 927      BINDING AFFINITY PREDICTED BY RF-SCORE:    0.00 PKD
ROOT
HETATM    1  O   UNL     1      -6.522  15.178  69.132  1.00  0.00    -0.105 OA 
HETATM    2  H   UNL     1      -5.644  14.862  68.951  1.00  0.00     0.000 HD 
HETATM    3  C   UNL     1      -7.292  14.864  67.995  1.00  0.00    -0.130 C  
ENDROOT
BRANCH   3   4
HETATM    4  N   UNL     1      -8.606  15.337  68.265  1.00  0.00    -0.156 N  
HETATM    5  H   UNL     1      -9.352  14.674  68.473  1.00  0.00     0.000 HD 
BRANCH   4   6
HETATM    6  C   UNL     1      -8.871  16.674  68.247  1.00  0.00    -0.214 C  
HETATM    7  O   UNL     1      -7.971  17.510  68.268  1.00  0.00    -0.240 OA 
BRANCH   6   8
HETATM    8  N   UNL     1     -10.200  17.030  68.139  1.00  0.00    -0.304 N  
BRANCH   8   9
HETATM    9  C   UNL     1     -11.164  15.964  67.955  1.00  0.00    -0.297 C  
HETATM   10  O   UNL     1     -11.025  15.047  70.257  1.00  0.00    -0.252 OA 
HETATM   11  N   UNL     1     -10.929  15.104  66.818  1.00  0.00    -0.321 N  
HETATM   12  C   UNL     1     -11.209  14.881  69.056  1.00  0.00    -0.264 C  
HETATM   13  O   UNL     1     -11.455  12.911  66.286  1.00  0.00    -0.315 OA 
HETATM   14  N   UNL     1     -11.535  13.701  68.454  1.00  0.00    -0.288 N  
HETATM   15  C   UNL     1     -11.340  13.808  67.107  1.00  0.00    -0.324 C  
BRANCH  11  16
HETATM   16  C   UNL     1     -10.815  15.561  65.464  1.00  0.00    -0.361 C  
HETATM   17  H   UNL     1      -9.375  15.903  64.208  1.00  0.00     0.000 HD 
HETATM   18  O   UNL     1      -9.450  15.599  65.105  1.00  0.00    -0.193 OA 
ENDBRANCH  11  16
BRANCH  14  19
HETATM   19  C   UNL     1     -11.613  12.429  69.107  1.00  0.00    -0.314 C  
HETATM   20  O   UNL     1     -12.369  11.529  68.319  1.00  0.00    -0.468 OA 
HETATM   21  H   UNL     1     -12.421  10.685  68.751  1.00  0.00     0.000 HD 
ENDBRANCH  14  19
ENDBRANCH   8   9
BRANCH   8  22
HETATM   22  C   UNL     1     -10.661  18.387  67.957  1.00  0.00    -0.318 C  
HETATM   23  H   UNL     1     -10.791  19.611  66.474  1.00  0.00     0.000 HD 
HETATM   24  O   UNL     1     -10.489  18.719  66.594  1.00  0.00    -0.392 OA 
ENDBRANCH   8  22
ENDBRANCH   6   8
ENDBRANCH   4   6
ENDBRANCH   3   4
TORSDOF 7
ENDMDL
MODEL      244
REMARK 921   NORMALIZED FREE ENERGY PREDICTED BY IDOCK:   -2.54 KCAL/MOL
REMARK 922        TOTAL FREE ENERGY PREDICTED BY IDOCK:   -5.11 KCAL/MOL
REMARK 923 INTER-LIGAND FREE ENERGY PREDICTED BY IDOCK:   -4.44 KCAL/MOL
REMARK 924 INTRA-LIGAND FREE ENERGY PREDICTED BY IDOCK:   -0.67 KCAL/MOL
REMARK 927      BINDING AFFINITY PREDICTED BY RF-SCORE:    0.00 PKD
ROOT
HETATM    1  O   UNL     1     -11.655   6.470  66.775  1.00  0.00    -0.731 OA 
HETATM    2  H   UNL     1     -11.571   5.722  66.195  1.00  0.00     0.000 HD 
HETATM    3  C   UNL     1     -10.811   6.212  67.872  1.00  0.00    -0.319 C  
ENDROOT
BRANCH   3   4
HETATM    4  N   UNL     1     -10.938   7.331  68.740  1.00  0.00    -0.435 N  
HETATM    5  H   UNL     1     -10.974   8.273  68.352  1.00  0.00     0.000 HD 
BRANCH   4   6
HETATM    6  C   UNL     1     -11.010   7.149  70.089  1.00  0.00    -0.267 C  
HETATM    7  O   UNL     1     -11.912   6.492  70.603  1.00  0.00    -0.386 OA 
BRANCH   6   8
HETATM    8  N   UNL     1      -9.979   7.687  70.833  1.00  0.00    -0.181 N  
BRANCH   8   9
HETATM    9  C   UNL     1      -9.094   6.763  71.512  1.00  0.00    -0.145 C  
HETATM   10  O   UNL     1      -8.059   5.800  69.472  1.00  0.00    -0.104 OA 
HETATM   11  N   UNL     1      -9.725   5.896  72.481  1.00  0.00    -0.158 N  
HETATM   12  C   UNL     1      -8.428   5.679  70.636  1.00  0.00    -0.126 C  
HETATM   13  O   UNL     1      -9.257   3.802  73.357  1.00  0.00    -0.101 OA 
HETATM   14  N   UNL     1      -8.284   4.562  71.406  1.00  0.00    -0.098 N  
HETATM   15  C   UNL     1      -9.084   4.664  72.508  1.00  0.00    -0.124 C  
BRANCH  11  16
HETATM   16  C   UNL     1     -10.496   6.356  73.599  1.00  0.00    -0.295 C  
HETATM   17  H   UNL     1     -10.171   7.412  75.196  1.00  0.00     0.000 HD 
HETATM   18  O   UNL     1      -9.661   7.108  74.455  1.00  0.00    -0.226 OA 
ENDBRANCH  11  16
BRANCH  14  19
HETATM   19  C   UNL     1      -7.773   3.302  70.957  1.00  0.00    -0.046 C  
HETATM   20  O   UNL     1      -6.955   2.729  71.959  1.00  0.00    -0.031 OA 
HETATM   21  H   UNL     1      -6.616   1.893  71.662  1.00  0.00     0.000 HD 
ENDBRANCH  14  19
ENDBRANCH   8   9
BRANCH   8  22
HETATM   22  C   UNL     1      -9.872   9.087  71.170  1.00  0.00    -0.300 C  
HETATM   23  H   UNL     1     -11.003  10.387  72.034  1.00  0.00     0.000 HD 
HETATM   24  O   UNL     1     -11.074   9.466  71.812  1.00  0.00    -0.370 OA 
ENDBRANCH   8  22
ENDBRANCH   6   8
ENDBRANCH   4   6
ENDBRANCH   3   4
TORSDOF 7
ENDMDL
MODEL      245
REMARK 921   NORMALIZED FREE ENERGY PREDICTED BY IDOCK:   -2.53 KCAL/MOL
REMARK 922        TOTAL FREE ENERGY PREDICTED BY IDOCK:   -5.09 KCAL/MOL
REMARK 923 INTER-LIGAND FREE ENERGY PREDICTED BY IDOCK:   -4.38 KCAL/MOL
REMARK 924 INTRA-LIGAND FREE ENERGY PREDICTED BY IDOCK:   -0.72 KCAL/MOL
REMARK 927      BINDING AFFINITY PREDICTED BY RF-SCORE:    0.00 PKD
ROOT
HETATM    1  O   UNL     1      -9.055  20.743  66.922  1.00  0.00    -0.601 OA 
HETATM    2  H   UNL     1      -9.207  21.498  66.367  1.00  0.00     0.000 HD 
HETATM    3  C   UNL     1      -8.739  19.677  66.056  1.00  0.00    -0.240 C  
ENDROOT
BRANCH   3   4
HETATM    4  N   UNL     1      -8.512  18.546  66.887  1.00  0.00    -0.264 N  
HETATM    5  H   UNL     1      -7.602  18.416  67.329  1.00  0.00     0.000 HD 
BRANCH   4   6
HETATM    6  C   UNL     1      -9.505  17.637  67.095  1.00  0.00    -0.267 C  
HETATM    7  O   UNL     1     -10.171  17.186  66.166  1.00  0.00    -0.329 OA 
BRANCH   6   8
HETATM    8  N   UNL     1      -9.674  17.204  68.396  1.00  0.00    -0.272 N  
BRANCH   8   9
HETATM    9  C   UNL     1      -9.376  15.815  68.680  1.00  0.00    -0.206 C  
HETATM   10  O   UNL     1      -6.937  15.944  68.239  1.00  0.00    -0.112 OA 
HETATM   11  N   UNL     1     -10.188  14.849  67.977  1.00  0.00    -0.227 N  
HETATM   12  C   UNL     1      -7.985  15.306  68.242  1.00  0.00    -0.132 C  
HETATM   13  O   UNL     1      -9.902  12.652  67.298  1.00  0.00    -0.202 OA 
HETATM   14  N   UNL     1      -8.121  13.995  67.894  1.00  0.00    -0.141 N  
HETATM   15  C   UNL     1      -9.442  13.710  67.699  1.00  0.00    -0.221 C  
BRANCH  11  16
HETATM   16  C   UNL     1     -11.620  14.803  68.027  1.00  0.00    -0.343 C  
HETATM   17  H   UNL     1     -13.051  14.164  66.881  1.00  0.00     0.000 HD 
HETATM   18  O   UNL     1     -12.102  14.194  66.848  1.00  0.00    -0.430 OA 
ENDBRANCH  11  16
BRANCH  14  19
HETATM   19  C   UNL     1      -7.083  13.163  67.363  1.00  0.00    -0.106 C  
HETATM   20  O   UNL     1      -7.154  11.874  67.941  1.00  0.00    -0.081 OA 
HETATM   21  H   UNL     1      -6.466  11.323  67.588  1.00  0.00     0.000 HD 
ENDBRANCH  14  19
ENDBRANCH   8   9
BRANCH   8  22
HETATM   22  C   UNL     1     -10.345  17.968  69.420  1.00  0.00     0.183 C  
HETATM   23  H   UNL     1     -10.364  19.815  69.973  1.00  0.00     0.000 HD 
HETATM   24  O   UNL     1      -9.922  19.312  69.299  1.00  0.00    -0.384 OA 
ENDBRANCH   8  22
ENDBRANCH   6   8
ENDBRANCH   4   6
ENDBRANCH   3   4
TORSDOF 7
ENDMDL
MODEL      246
REMARK 921   NORMALIZED FREE ENERGY PREDICTED BY IDOCK:   -2.52 KCAL/MOL
REMARK 922        TOTAL FREE ENERGY PREDICTED BY IDOCK:   -5.08 KCAL/MOL
REMARK 923 INTER-LIGAND FREE ENERGY PREDICTED BY IDOCK:   -4.22 KCAL/MOL
REMARK 924 INTRA-LIGAND FREE ENERGY PREDICTED BY IDOCK:   -0.85 KCAL/MOL
REMARK 927      BINDING AFFINITY PREDICTED BY RF-SCORE:    0.00 PKD
ROOT
HETATM    1  O   UNL     1      -8.978   8.191  64.619  1.00  0.00    -0.379 OA 
HETATM    2  H   UNL     1      -9.587   8.317  63.902  1.00  0.00     0.000 HD 
HETATM    3  C   UNL     1      -9.409   9.043  65.654  1.00  0.00    -0.222 C  
ENDROOT
BRANCH   3   4
HETATM    4  N   UNL     1      -8.496   8.854  66.728  1.00  0.00    -0.114 N  
HETATM    5  H   UNL     1      -7.492   8.900  66.555  1.00  0.00     0.000 HD 
BRANCH   4   6
HETATM    6  C   UNL     1      -8.958   8.612  67.986  1.00  0.00    -0.141 C  
HETATM    7  O   UNL     1      -9.804   7.749  68.207  1.00  0.00    -0.158 OA 
BRANCH   6   8
HETATM    8  N   UNL     1      -8.375   9.343  69.002  1.00  0.00    -0.120 N  
BRANCH   8   9
HETATM    9  C   UNL     1      -9.224  10.259  69.736  1.00  0.00    -0.066 C  
HETATM   10  O   UNL     1     -10.180   8.581  71.295  1.00  0.00    -0.196 OA 
HETATM   11  N   UNL     1     -10.099  11.078  68.929  1.00  0.00    -0.203 N  
HETATM   12  C   UNL     1     -10.290   9.621  70.655  1.00  0.00    -0.297 C  
HETATM   13  O   UNL     1     -12.135  12.130  69.271  1.00  0.00    -0.264 OA 
HETATM   14  N   UNL     1     -11.373  10.450  70.659  1.00  0.00    -0.334 N  
HETATM   15  C   UNL     1     -11.289  11.314  69.606  1.00  0.00    -0.287 C  
BRANCH  11  16
HETATM   16  C   UNL     1      -9.656  11.950  67.881  1.00  0.00    -0.193 C  
HETATM   17  H   UNL     1      -8.639  13.600  67.756  1.00  0.00     0.000 HD 
HETATM   18  O   UNL     1      -8.933  13.021  68.450  1.00  0.00    -0.188 OA 
ENDBRANCH  11  16
BRANCH  14  19
HETATM   19  C   UNL     1     -12.612  10.196  71.331  1.00  0.00    -0.422 C  
HETATM   20  O   UNL     1     -13.610   9.853  70.388  1.00  0.00    -0.547 OA 
HETATM   21  H   UNL     1     -14.432   9.684  70.833  1.00  0.00     0.000 HD 
ENDBRANCH  14  19
ENDBRANCH   8   9
BRANCH   8  22
HETATM   22  C   UNL     1      -6.950   9.433  69.217  1.00  0.00    -0.053 C  
HETATM   23  H   UNL     1      -5.482   8.185  69.269  1.00  0.00     0.000 HD 
HETATM   24  O   UNL     1      -6.420   8.125  69.127  1.00  0.00    -0.038 OA 
ENDBRANCH   8  22
ENDBRANCH   6   8
ENDBRANCH   4   6
ENDBRANCH   3   4
TORSDOF 7
ENDMDL
MODEL      247
REMARK 921   NORMALIZED FREE ENERGY PREDICTED BY IDOCK:   -2.51 KCAL/MOL
REMARK 922        TOTAL FREE ENERGY PREDICTED BY IDOCK:   -5.06 KCAL/MOL
REMARK 923 INTER-LIGAND FREE ENERGY PREDICTED BY IDOCK:   -4.22 KCAL/MOL
REMARK 924 INTRA-LIGAND FREE ENERGY PREDICTED BY IDOCK:   -0.84 KCAL/MOL
REMARK 927      BINDING AFFINITY PREDICTED BY RF-SCORE:    0.00 PKD
ROOT
HETATM    1  O   UNL     1     -11.391   4.912  65.773  1.00  0.00    -0.849 OA 
HETATM    2  H   UNL     1     -12.276   5.160  65.536  1.00  0.00     0.000 HD 
HETATM    3  C   UNL     1     -10.909   5.936  66.612  1.00  0.00    -0.217 C  
ENDROOT
BRANCH   3   4
HETATM    4  N   UNL     1      -9.583   5.565  66.966  1.00  0.00    -0.129 N  
HETATM    5  H   UNL     1      -8.859   5.521  66.249  1.00  0.00     0.000 HD 
BRANCH   4   6
HETATM    6  C   UNL     1      -9.276   5.268  68.260  1.00  0.00    -0.114 C  
HETATM    7  O   UNL     1      -9.706   4.256  68.809  1.00  0.00    -0.162 OA 
BRANCH   6   8
HETATM    8  N   UNL     1      -8.405   6.133  68.894  1.00  0.00    -0.115 N  
BRANCH   8   9
HETATM    9  C   UNL     1      -8.896   6.833  70.064  1.00  0.00    -0.142 C  
HETATM   10  O   UNL     1      -8.588   4.966  71.670  1.00  0.00    -0.122 OA 
HETATM   11  N   UNL     1     -10.191   7.455  69.918  1.00  0.00    -0.206 N  
HETATM   12  C   UNL     1      -9.197   5.967  71.308  1.00  0.00    -0.146 C  
HETATM   13  O   UNL     1     -11.902   8.039  71.369  1.00  0.00    -0.283 OA 
HETATM   14  N   UNL     1     -10.246   6.543  71.961  1.00  0.00    -0.192 N  
HETATM   15  C   UNL     1     -10.876   7.420  71.127  1.00  0.00    -0.242 C  
BRANCH  11  16
HETATM   16  C   UNL     1     -10.520   8.417  68.907  1.00  0.00    -0.189 C  
HETATM   17  H   UNL     1      -9.746  10.061  68.222  1.00  0.00     0.000 HD 
HETATM   18  O   UNL     1      -9.529   9.423  68.892  1.00  0.00    -0.150 OA 
ENDBRANCH  11  16
BRANCH  14  19
HETATM   19  C   UNL     1     -10.888   6.018  73.129  1.00  0.00    -0.259 C  
HETATM   20  O   UNL     1     -12.203   5.603  72.811  1.00  0.00    -0.531 OA 
HETATM   21  H   UNL     1     -12.628   5.255  73.585  1.00  0.00     0.000 HD 
ENDBRANCH  14  19
ENDBRANCH   8   9
BRANCH   8  22
HETATM   22  C   UNL     1      -7.143   6.560  68.338  1.00  0.00    -0.083 C  
HETATM   23  H   UNL     1      -6.590   7.783  66.955  1.00  0.00     0.000 HD 
HETATM   24  O   UNL     1      -7.421   7.502  67.321  1.00  0.00    -0.095 OA 
ENDBRANCH   8  22
ENDBRANCH   6   8
ENDBRANCH   4   6
ENDBRANCH   3   4
TORSDOF 7
ENDMDL
MODEL      248
REMARK 921   NORMALIZED FREE ENERGY PREDICTED BY IDOCK:   -2.49 KCAL/MOL
REMARK 922        TOTAL FREE ENERGY PREDICTED BY IDOCK:   -5.05 KCAL/MOL
REMARK 923 INTER-LIGAND FREE ENERGY PREDICTED BY IDOCK:   -4.35 KCAL/MOL
REMARK 924 INTRA-LIGAND FREE ENERGY PREDICTED BY IDOCK:   -0.69 KCAL/MOL
REMARK 927      BINDING AFFINITY PREDICTED BY RF-SCORE:    0.00 PKD
ROOT
HETATM    1  O   UNL     1      -7.709  10.299  70.732  1.00  0.00    -0.346 OA 
HETATM    2  H   UNL     1      -6.945   9.757  70.886  1.00  0.00     0.000 HD 
HETATM    3  C   UNL     1      -7.515  10.902  69.475  1.00  0.00    -0.077 C  
ENDROOT
BRANCH   3   4
HETATM    4  N   UNL     1      -8.659  11.713  69.244  1.00  0.00    -0.248 N  
HETATM    5  H   UNL     1      -9.274  11.956  70.021  1.00  0.00     0.000 HD 
BRANCH   4   6
HETATM    6  C   UNL     1      -8.937  12.167  67.990  1.00  0.00    -0.189 C  
HETATM    7  O   UNL     1      -8.062  12.631  67.263  1.00  0.00    -0.176 OA 
BRANCH   6   8
HETATM    8  N   UNL     1     -10.242  12.016  67.562  1.00  0.00    -0.196 N  
BRANCH   8   9
HETATM    9  C   UNL     1     -10.697  10.672  67.273  1.00  0.00    -0.285 C  
HETATM   10  O   UNL     1     -11.060   9.977  69.628  1.00  0.00    -0.242 OA 
HETATM   11  N   UNL     1      -9.833   9.894  66.414  1.00  0.00    -0.212 N  
HETATM   12  C   UNL     1     -10.766   9.697  68.470  1.00  0.00    -0.200 C  
HETATM   13  O   UNL     1      -9.429   7.632  66.113  1.00  0.00    -0.149 OA 
HETATM   14  N   UNL     1     -10.479   8.450  67.999  1.00  0.00    -0.208 N  
HETATM   15  C   UNL     1      -9.887   8.552  66.773  1.00  0.00    -0.257 C  
BRANCH  11  16
HETATM   16  C   UNL     1      -9.422  10.295  65.101  1.00  0.00    -0.252 C  
HETATM   17  H   UNL     1      -7.749  10.404  64.121  1.00  0.00     0.000 HD 
HETATM   18  O   UNL     1      -8.022  10.138  64.991  1.00  0.00    -0.139 OA 
ENDBRANCH  11  16
BRANCH  14  19
HETATM   19  C   UNL     1     -10.367   7.266  68.795  1.00  0.00    -0.200 C  
HETATM   20  O   UNL     1     -11.273   6.283  68.329  1.00  0.00    -0.430 OA 
HETATM   21  H   UNL     1     -11.198   5.498  68.857  1.00  0.00     0.000 HD 
ENDBRANCH  14  19
ENDBRANCH   8   9
BRANCH   8  22
HETATM   22  C   UNL     1     -11.091  13.112  67.158  1.00  0.00    -0.279 C  
HETATM   23  H   UNL     1     -11.344  14.138  65.546  1.00  0.00     0.000 HD 
HETATM   24  O   UNL     1     -10.786  13.417  65.812  1.00  0.00    -0.269 OA 
ENDBRANCH   8  22
ENDBRANCH   6   8
ENDBRANCH   4   6
ENDBRANCH   3   4
TORSDOF 7
ENDMDL
MODEL      249
REMARK 921   NORMALIZED FREE ENERGY PREDICTED BY IDOCK:   -2.49 KCAL/MOL
REMARK 922        TOTAL FREE ENERGY PREDICTED BY IDOCK:   -5.03 KCAL/MOL
REMARK 923 INTER-LIGAND FREE ENERGY PREDICTED BY IDOCK:   -4.00 KCAL/MOL
REMARK 924 INTRA-LIGAND FREE ENERGY PREDICTED BY IDOCK:   -1.03 KCAL/MOL
REMARK 927      BINDING AFFINITY PREDICTED BY RF-SCORE:    0.00 PKD
ROOT
HETATM    1  O   UNL     1      -7.665   6.340  69.747  1.00  0.00    -0.100 OA 
HETATM    2  H   UNL     1      -7.467   5.618  69.163  1.00  0.00     0.000 HD 
HETATM    3  C   UNL     1      -8.448   5.800  70.785  1.00  0.00    -0.125 C  
ENDROOT
BRANCH   3   4
HETATM    4  N   UNL     1      -8.745   6.881  71.660  1.00  0.00    -0.125 N  
HETATM    5  H   UNL     1      -8.495   6.819  72.647  1.00  0.00     0.000 HD 
BRANCH   4   6
HETATM    6  C   UNL     1      -9.362   7.999  71.184  1.00  0.00    -0.149 C  
HETATM    7  O   UNL     1      -8.733   9.023  70.929  1.00  0.00    -0.195 OA 
BRANCH   6   8
HETATM    8  N   UNL     1     -10.718   7.892  70.945  1.00  0.00    -0.218 N  
BRANCH   8   9
HETATM    9  C   UNL     1     -11.241   8.552  69.766  1.00  0.00     0.031 C  
HETATM   10  O   UNL     1      -9.944   7.244  68.102  1.00  0.00    -0.149 OA 
HETATM   11  N   UNL     1     -11.160   9.995  69.775  1.00  0.00    -0.261 N  
HETATM   12  C   UNL     1     -10.491   8.289  68.441  1.00  0.00    -0.162 C  
HETATM   13  O   UNL     1     -11.042  11.638  68.145  1.00  0.00    -0.210 OA 
HETATM   14  N   UNL     1     -10.581   9.423  67.689  1.00  0.00    -0.274 N  
HETATM   15  C   UNL     1     -10.952  10.468  68.484  1.00  0.00    -0.252 C  
BRANCH  11  16
HETATM   16  C   UNL     1     -11.726  10.833  70.790  1.00  0.00    -0.298 C  
HETATM   17  H   UNL     1     -13.462  11.047  71.634  1.00  0.00     0.000 HD 
HETATM   18  O   UNL     1     -13.086  10.492  70.961  1.00  0.00    -0.377 OA 
ENDBRANCH  11  16
BRANCH  14  19
HETATM   19  C   UNL     1      -9.960   9.627  66.415  1.00  0.00    -0.255 C  
HETATM   20  O   UNL     1     -10.633  10.653  65.709  1.00  0.00    -0.194 OA 
HETATM   21  H   UNL     1     -10.221  10.788  64.864  1.00  0.00     0.000 HD 
ENDBRANCH  14  19
ENDBRANCH   8   9
BRANCH   8  22
HETATM   22  C   UNL     1     -11.669   7.380  71.903  1.00  0.00    -0.288 C  
HETATM   23  H   UNL     1     -11.888   7.480  73.816  1.00  0.00     0.000 HD 
HETATM   24  O   UNL     1     -11.263   7.817  73.185  1.00  0.00    -0.402 OA 
ENDBRANCH   8  22
ENDBRANCH   6   8
ENDBRANCH   4   6
ENDBRANCH   3   4
TORSDOF 7
ENDMDL
MODEL      250
REMARK 921   NORMALIZED FREE ENERGY PREDICTED BY IDOCK:   -2.48 KCAL/MOL
REMARK 922        TOTAL FREE ENERGY PREDICTED BY IDOCK:   -5.03 KCAL/MOL
REMARK 923 INTER-LIGAND FREE ENERGY PREDICTED BY IDOCK:   -4.25 KCAL/MOL
REMARK 924 INTRA-LIGAND FREE ENERGY PREDICTED BY IDOCK:   -0.78 KCAL/MOL
REMARK 927      BINDING AFFINITY PREDICTED BY RF-SCORE:    0.00 PKD
ROOT
HETATM    1  O   UNL     1      -7.929   8.533  73.270  1.00  0.00    -0.363 OA 
HETATM    2  H   UNL     1      -7.315   8.414  73.984  1.00  0.00     0.000 HD 
HETATM    3  C   UNL     1      -9.122   7.899  73.669  1.00  0.00    -0.273 C  
ENDROOT
BRANCH   3   4
HETATM    4  N   UNL     1     -10.042   8.078  72.600  1.00  0.00    -0.275 N  
HETATM    5  H   UNL     1     -10.768   8.791  72.668  1.00  0.00     0.000 HD 
BRANCH   4   6
HETATM    6  C   UNL     1      -9.957   7.299  71.485  1.00  0.00    -0.182 C  
HETATM    7  O   UNL     1      -8.953   6.637  71.235  1.00  0.00    -0.143 OA 
BRANCH   6   8
HETATM    8  N   UNL     1     -11.086   7.247  70.690  1.00  0.00    -0.257 N  
BRANCH   8   9
HETATM    9  C   UNL     1     -10.995   7.825  69.365  1.00  0.00    -0.035 C  
HETATM   10  O   UNL     1     -10.566   5.702  68.152  1.00  0.00    -0.216 OA 
HETATM   11  N   UNL     1     -10.077   8.933  69.231  1.00  0.00    -0.197 N  
HETATM   12  C   UNL     1     -10.419   6.916  68.257  1.00  0.00    -0.206 C  
HETATM   13  O   UNL     1      -8.846   9.840  67.490  1.00  0.00    -0.125 OA 
HETATM   14  N   UNL     1      -9.743   7.716  67.382  1.00  0.00    -0.151 N  
HETATM   15  C   UNL     1      -9.501   8.925  67.966  1.00  0.00    -0.143 C  
BRANCH  11  16
HETATM   16  C   UNL     1     -10.135  10.133  70.013  1.00  0.00    -0.190 C  
HETATM   17  H   UNL     1     -11.505  11.137  70.954  1.00  0.00     0.000 HD 
HETATM   18  O   UNL     1     -11.466  10.341  70.436  1.00  0.00    -0.286 OA 
ENDBRANCH  11  16
BRANCH  14  19
HETATM   19  C   UNL     1      -8.999   7.263  66.246  1.00  0.00    -0.156 C  
HETATM   20  O   UNL     1      -8.977   8.269  65.251  1.00  0.00    -0.376 OA 
HETATM   21  H   UNL     1      -8.483   7.969  64.498  1.00  0.00     0.000 HD 
ENDBRANCH  14  19
ENDBRANCH   8   9
BRANCH   8  22
HETATM   22  C   UNL     1     -12.396   6.880  71.172  1.00  0.00    -0.370 C  
HETATM   23  H   UNL     1     -13.718   7.684  72.322  1.00  0.00     0.000 HD 
HETATM   24  O   UNL     1     -12.856   7.926  72.005  1.00  0.00    -0.307 OA 
ENDBRANCH   8  22
ENDBRANCH   6   8
ENDBRANCH   4   6
ENDBRANCH   3   4
TORSDOF 7
ENDMDL
MODEL      251
REMARK 921   NORMALIZED FREE ENERGY PREDICTED BY IDOCK:   -2.48 KCAL/MOL
REMARK 922        TOTAL FREE ENERGY PREDICTED BY IDOCK:   -5.02 KCAL/MOL
REMARK 923 INTER-LIGAND FREE ENERGY PREDICTED BY IDOCK:   -4.20 KCAL/MOL
REMARK 924 INTRA-LIGAND FREE ENERGY PREDICTED BY IDOCK:   -0.82 KCAL/MOL
REMARK 927      BINDING AFFINITY PREDICTED BY RF-SCORE:    0.00 PKD
ROOT
HETATM    1  O   UNL     1     -11.625   6.667  66.768  1.00  0.00    -0.718 OA 
HETATM    2  H   UNL     1     -11.622   5.732  66.599  1.00  0.00     0.000 HD 
HETATM    3  C   UNL     1     -10.582   6.902  67.685  1.00  0.00    -0.261 C  
ENDROOT
BRANCH   3   4
HETATM    4  N   UNL     1     -10.586   8.301  67.938  1.00  0.00    -0.411 N  
HETATM    5  H   UNL     1     -11.124   8.924  67.337  1.00  0.00     0.000 HD 
BRANCH   4   6
HETATM    6  C   UNL     1      -9.874   8.811  68.982  1.00  0.00    -0.181 C  
HETATM    7  O   UNL     1      -9.262   8.085  69.761  1.00  0.00    -0.149 OA 
BRANCH   6   8
HETATM    8  N   UNL     1      -9.827  10.189  69.073  1.00  0.00    -0.194 N  
BRANCH   8   9
HETATM    9  C   UNL     1      -8.685  10.857  68.482  1.00  0.00    -0.153 C  
HETATM   10  O   UNL     1      -7.075  10.341  70.299  1.00  0.00    -0.155 OA 
HETATM   11  N   UNL     1      -8.907  12.227  68.079  1.00  0.00    -0.176 N  
HETATM   12  C   UNL     1      -7.468  11.084  69.406  1.00  0.00    -0.072 C  
HETATM   13  O   UNL     1      -7.560  14.093  67.809  1.00  0.00    -0.133 OA 
HETATM   14  N   UNL     1      -6.876  12.251  69.022  1.00  0.00    -0.101 N  
HETATM   15  C   UNL     1      -7.743  12.967  68.247  1.00  0.00    -0.141 C  
BRANCH  11  16
HETATM   16  C   UNL     1      -9.930  12.649  67.168  1.00  0.00    -0.217 C  
HETATM   17  H   UNL     1     -10.598  12.077  65.437  1.00  0.00     0.000 HD 
HETATM   18  O   UNL     1      -9.920  11.797  66.041  1.00  0.00    -0.216 OA 
ENDBRANCH  11  16
BRANCH  14  19
HETATM   19  C   UNL     1      -5.754  12.866  69.665  1.00  0.00    -0.104 C  
HETATM   20  O   UNL     1      -5.989  12.961  71.057  1.00  0.00    -0.516 OA 
HETATM   21  H   UNL     1      -5.244  13.369  71.483  1.00  0.00     0.000 HD 
ENDBRANCH  14  19
ENDBRANCH   8   9
BRANCH   8  22
HETATM   22  C   UNL     1     -10.701  10.973  69.912  1.00  0.00     0.006 C  
HETATM   23  H   UNL     1     -12.579  11.410  69.919  1.00  0.00     0.000 HD 
HETATM   24  O   UNL     1     -12.004  10.894  69.366  1.00  0.00    -0.313 OA 
ENDBRANCH   8  22
ENDBRANCH   6   8
ENDBRANCH   4   6
ENDBRANCH   3   4
TORSDOF 7
ENDMDL
MODEL      252
REMARK 921   NORMALIZED FREE ENERGY PREDICTED BY IDOCK:   -2.46 KCAL/MOL
REMARK 922        TOTAL FREE ENERGY PREDICTED BY IDOCK:   -5.00 KCAL/MOL
REMARK 923 INTER-LIGAND FREE ENERGY PREDICTED BY IDOCK:   -4.05 KCAL/MOL
REMARK 924 INTRA-LIGAND FREE ENERGY PREDICTED BY IDOCK:   -0.95 KCAL/MOL
REMARK 927      BINDING AFFINITY PREDICTED BY RF-SCORE:    0.00 PKD
ROOT
HETATM    1  O   UNL     1      -6.965   7.216  67.769  1.00  0.00    -0.071 OA 
HETATM    2  H   UNL     1      -6.363   6.750  67.201  1.00  0.00     0.000 HD 
HETATM    3  C   UNL     1      -6.369   8.465  68.032  1.00  0.00    -0.056 C  
ENDROOT
BRANCH   3   4
HETATM    4  N   UNL     1      -7.271   9.162  68.882  1.00  0.00    -0.072 N  
HETATM    5  H   UNL     1      -7.342   8.905  69.867  1.00  0.00     0.000 HD 
BRANCH   4   6
HETATM    6  C   UNL     1      -8.040  10.171  68.386  1.00  0.00    -0.104 C  
HETATM    7  O   UNL     1      -7.542  11.188  67.910  1.00  0.00    -0.094 OA 
BRANCH   6   8
HETATM    8  N   UNL     1      -9.405   9.956  68.390  1.00  0.00    -0.132 N  
BRANCH   8   9
HETATM    9  C   UNL     1     -10.095  10.079  69.658  1.00  0.00    -0.236 C  
HETATM   10  O   UNL     1      -9.935   7.689  70.308  1.00  0.00    -0.187 OA 
HETATM   11  N   UNL     1     -11.384  10.729  69.603  1.00  0.00    -0.269 N  
HETATM   12  C   UNL     1     -10.533   8.760  70.333  1.00  0.00    -0.209 C  
HETATM   13  O   UNL     1     -13.315  10.649  70.882  1.00  0.00    -0.243 OA 
HETATM   14  N   UNL     1     -11.693   9.011  71.004  1.00  0.00    -0.288 N  
HETATM   15  C   UNL     1     -12.236  10.179  70.553  1.00  0.00    -0.264 C  
BRANCH  11  16
HETATM   16  C   UNL     1     -11.607  12.045  69.080  1.00  0.00    -0.313 C  
HETATM   17  H   UNL     1     -11.442  13.867  69.730  1.00  0.00     0.000 HD 
HETATM   18  O   UNL     1     -11.294  12.995  70.077  1.00  0.00    -0.081 OA 
ENDBRANCH  11  16
BRANCH  14  19
HETATM   19  C   UNL     1     -12.473   8.038  71.709  1.00  0.00    -0.324 C  
HETATM   20  O   UNL     1     -13.169   8.658  72.773  1.00  0.00    -0.651 OA 
HETATM   21  H   UNL     1     -13.687   8.013  73.241  1.00  0.00     0.000 HD 
ENDBRANCH  14  19
ENDBRANCH   8   9
BRANCH   8  22
HETATM   22  C   UNL     1     -10.136   9.391  67.281  1.00  0.00    -0.226 C  
HETATM   23  H   UNL     1     -10.711  10.011  65.549  1.00  0.00     0.000 HD 
HETATM   24  O   UNL     1     -10.229  10.383  66.278  1.00  0.00    -0.225 OA 
ENDBRANCH   8  22
ENDBRANCH   6   8
ENDBRANCH   4   6
ENDBRANCH   3   4
TORSDOF 7
ENDMDL
MODEL      253
REMARK 921   NORMALIZED FREE ENERGY PREDICTED BY IDOCK:   -2.46 KCAL/MOL
REMARK 922        TOTAL FREE ENERGY PREDICTED BY IDOCK:   -5.00 KCAL/MOL
REMARK 923 INTER-LIGAND FREE ENERGY PREDICTED BY IDOCK:   -4.03 KCAL/MOL
REMARK 924 INTRA-LIGAND FREE ENERGY PREDICTED BY IDOCK:   -0.96 KCAL/MOL
REMARK 927      BINDING AFFINITY PREDICTED BY RF-SCORE:    0.00 PKD
ROOT
HETATM    1  O   UNL     1      -5.918  16.256  66.829  1.00  0.00    -0.323 OA 
HETATM    2  H   UNL     1      -6.019  17.193  66.715  1.00  0.00     0.000 HD 
HETATM    3  C   UNL     1      -6.683  15.915  67.962  1.00  0.00    -0.128 C  
ENDROOT
BRANCH   3   4
HETATM    4  N   UNL     1      -6.532  14.512  68.134  1.00  0.00    -0.124 N  
HETATM    5  H   UNL     1      -5.872  14.153  68.824  1.00  0.00     0.000 HD 
BRANCH   4   6
HETATM    6  C   UNL     1      -7.264  13.645  67.379  1.00  0.00    -0.091 C  
HETATM    7  O   UNL     1      -6.738  12.719  66.767  1.00  0.00     0.071 OA 
BRANCH   6   8
HETATM    8  N   UNL     1      -8.633  13.829  67.396  1.00  0.00    -0.192 N  
BRANCH   8   9
HETATM    9  C   UNL     1      -9.351  13.381  68.572  1.00  0.00    -0.097 C  
HETATM   10  O   UNL     1      -9.724  11.047  67.813  1.00  0.00    -0.166 OA 
HETATM   11  N   UNL     1     -10.473  14.201  68.966  1.00  0.00    -0.219 N  
HETATM   12  C   UNL     1     -10.087  12.028  68.454  1.00  0.00    -0.210 C  
HETATM   13  O   UNL     1     -12.446  13.833  70.125  1.00  0.00    -0.323 OA 
HETATM   14  N   UNL     1     -11.206  12.103  69.230  1.00  0.00    -0.245 N  
HETATM   15  C   UNL     1     -11.471  13.410  69.521  1.00  0.00    -0.244 C  
BRANCH  11  16
HETATM   16  C   UNL     1     -10.391  15.603  69.254  1.00  0.00    -0.250 C  
HETATM   17  H   UNL     1     -11.263  17.223  68.634  1.00  0.00     0.000 HD 
HETATM   18  O   UNL     1     -11.317  16.294  68.443  1.00  0.00    -0.367 OA 
ENDBRANCH  11  16
BRANCH  14  19
HETATM   19  C   UNL     1     -12.207  11.086  69.347  1.00  0.00    -0.259 C  
HETATM   20  O   UNL     1     -12.703  11.047  70.672  1.00  0.00    -0.324 OA 
HETATM   21  H   UNL     1     -13.367  10.372  70.750  1.00  0.00     0.000 HD 
ENDBRANCH  14  19
ENDBRANCH   8   9
BRANCH   8  22
HETATM   22  C   UNL     1      -9.411  14.209  66.241  1.00  0.00    -0.241 C  
HETATM   23  H   UNL     1      -9.487  15.742  65.074  1.00  0.00     0.000 HD 
HETATM   24  O   UNL     1      -8.974  15.491  65.834  1.00  0.00    -0.303 OA 
ENDBRANCH   8  22
ENDBRANCH   6   8
ENDBRANCH   4   6
ENDBRANCH   3   4
TORSDOF 7
ENDMDL
MODEL      254
REMARK 921   NORMALIZED FREE ENERGY PREDICTED BY IDOCK:   -2.46 KCAL/MOL
REMARK 922        TOTAL FREE ENERGY PREDICTED BY IDOCK:   -5.00 KCAL/MOL
REMARK 923 INTER-LIGAND FREE ENERGY PREDICTED BY IDOCK:   -5.52 KCAL/MOL
REMARK 924 INTRA-LIGAND FREE ENERGY PREDICTED BY IDOCK:    0.53 KCAL/MOL
REMARK 927      BINDING AFFINITY PREDICTED BY RF-SCORE:    0.00 PKD
ROOT
HETATM    1  O   UNL     1     -10.551  10.540  62.331  1.00  0.00    -0.482 OA 
HETATM    2  H   UNL     1     -10.339  10.032  61.557  1.00  0.00     0.000 HD 
HETATM    3  C   UNL     1      -9.497  11.460  62.497  1.00  0.00    -0.039 C  
ENDROOT
BRANCH   3   4
HETATM    4  N   UNL     1      -9.815  12.220  63.655  1.00  0.00    -0.586 N  
HETATM    5  H   UNL     1      -9.391  13.137  63.793  1.00  0.00     0.000 HD 
BRANCH   4   6
HETATM    6  C   UNL     1     -10.683  11.727  64.583  1.00  0.00    -0.310 C  
HETATM    7  O   UNL     1     -10.390  10.771  65.296  1.00  0.00    -0.280 OA 
BRANCH   6   8
HETATM    8  N   UNL     1     -11.880  12.403  64.717  1.00  0.00    -0.372 N  
BRANCH   8   9
HETATM    9  C   UNL     1     -11.942  13.457  65.709  1.00  0.00    -0.407 C  
HETATM   10  O   UNL     1     -12.405  15.315  64.130  1.00  0.00    -0.630 OA 
HETATM   11  N   UNL     1     -10.811  13.535  66.605  1.00  0.00    -0.282 N  
HETATM   12  C   UNL     1     -11.910  14.907  65.175  1.00  0.00    -0.258 C  
HETATM   13  O   UNL     1      -9.815  15.221  67.844  1.00  0.00    -0.215 OA 
HETATM   14  N   UNL     1     -11.262  15.669  66.102  1.00  0.00    -0.125 N  
HETATM   15  C   UNL     1     -10.568  14.858  66.953  1.00  0.00    -0.300 C  
BRANCH  11  16
HETATM   16  C   UNL     1     -10.355  12.455  67.431  1.00  0.00    -0.207 C  
HETATM   17  H   UNL     1      -8.641  11.743  68.000  1.00  0.00     0.000 HD 
HETATM   18  O   UNL     1      -8.943  12.459  67.453  1.00  0.00    -0.171 OA 
ENDBRANCH  11  16
BRANCH  14  19
HETATM   19  C   UNL     1     -10.953  17.060  65.965  1.00  0.00     0.161 C  
HETATM   20  O   UNL     1     -11.135  17.465  64.621  1.00  0.00    -1.029 OA 
HETATM   21  H   UNL     1     -10.931  18.388  64.530  1.00  0.00     0.000 HD 
ENDBRANCH  14  19
ENDBRANCH   8   9
BRANCH   8  22
HETATM   22  C   UNL     1     -13.121  11.975  64.117  1.00  0.00     0.062 C  
HETATM   23  H   UNL     1     -13.919  12.097  62.366  1.00  0.00     0.000 HD 
HETATM   24  O   UNL     1     -13.102  12.378  62.761  1.00  0.00    -0.052 OA 
ENDBRANCH   8  22
ENDBRANCH   6   8
ENDBRANCH   4   6
ENDBRANCH   3   4
TORSDOF 7
ENDMDL
MODEL      255
REMARK 921   NORMALIZED FREE ENERGY PREDICTED BY IDOCK:   -2.45 KCAL/MOL
REMARK 922        TOTAL FREE ENERGY PREDICTED BY IDOCK:   -4.99 KCAL/MOL
REMARK 923 INTER-LIGAND FREE ENERGY PREDICTED BY IDOCK:   -3.99 KCAL/MOL
REMARK 924 INTRA-LIGAND FREE ENERGY PREDICTED BY IDOCK:   -0.99 KCAL/MOL
REMARK 927      BINDING AFFINITY PREDICTED BY RF-SCORE:    0.00 PKD
ROOT
HETATM    1  O   UNL     1      -8.148  11.063  69.501  1.00  0.00    -0.371 OA 
HETATM    2  H   UNL     1      -7.777  11.810  69.956  1.00  0.00     0.000 HD 
HETATM    3  C   UNL     1      -7.429   9.937  69.947  1.00  0.00    -0.154 C  
ENDROOT
BRANCH   3   4
HETATM    4  N   UNL     1      -7.984   8.819  69.265  1.00  0.00    -0.106 N  
HETATM    5  H   UNL     1      -8.336   8.928  68.315  1.00  0.00     0.000 HD 
BRANCH   4   6
HETATM    6  C   UNL     1      -8.046   7.603  69.878  1.00  0.00    -0.124 C  
HETATM    7  O   UNL     1      -7.560   7.416  70.991  1.00  0.00    -0.083 OA 
BRANCH   6   8
HETATM    8  N   UNL     1      -8.740   6.616  69.207  1.00  0.00    -0.131 N  
BRANCH   8   9
HETATM    9  C   UNL     1     -10.079   6.312  69.669  1.00  0.00    -0.174 C  
HETATM   10  O   UNL     1     -11.012   8.593  69.378  1.00  0.00    -0.157 OA 
HETATM   11  N   UNL     1     -10.159   5.656  70.954  1.00  0.00    -0.193 N  
HETATM   12  C   UNL     1     -10.994   7.520  69.971  1.00  0.00    -0.240 C  
HETATM   13  O   UNL     1     -11.750   5.533  72.634  1.00  0.00    -0.293 OA 
HETATM   14  N   UNL     1     -11.814   7.163  71.001  1.00  0.00    -0.319 N  
HETATM   15  C   UNL     1     -11.308   6.059  71.624  1.00  0.00    -0.252 C  
BRANCH  11  16
HETATM   16  C   UNL     1      -9.508   4.420  71.275  1.00  0.00    -0.157 C  
HETATM   17  H   UNL     1      -8.091   3.844  72.473  1.00  0.00     0.000 HD 
HETATM   18  O   UNL     1      -8.524   4.663  72.259  1.00  0.00    -0.115 OA 
ENDBRANCH  11  16
BRANCH  14  19
HETATM   19  C   UNL     1     -12.768   8.019  71.639  1.00  0.00    -0.326 C  
HETATM   20  O   UNL     1     -12.290   8.413  72.911  1.00  0.00    -0.587 OA 
HETATM   21  H   UNL     1     -12.922   8.980  73.333  1.00  0.00     0.000 HD 
ENDBRANCH  14  19
ENDBRANCH   8   9
BRANCH   8  22
HETATM   22  C   UNL     1      -8.143   5.718  68.247  1.00  0.00    -0.108 C  
HETATM   23  H   UNL     1      -7.396   5.888  66.478  1.00  0.00     0.000 HD 
HETATM   24  O   UNL     1      -7.789   6.479  67.109  1.00  0.00    -0.105 OA 
ENDBRANCH   8  22
ENDBRANCH   6   8
ENDBRANCH   4   6
ENDBRANCH   3   4
TORSDOF 7
ENDMDL
MODEL      256
REMARK 921   NORMALIZED FREE ENERGY PREDICTED BY IDOCK:   -2.45 KCAL/MOL
REMARK 922        TOTAL FREE ENERGY PREDICTED BY IDOCK:   -4.98 KCAL/MOL
REMARK 923 INTER-LIGAND FREE ENERGY PREDICTED BY IDOCK:   -4.08 KCAL/MOL
REMARK 924 INTRA-LIGAND FREE ENERGY PREDICTED BY IDOCK:   -0.90 KCAL/MOL
REMARK 927      BINDING AFFINITY PREDICTED BY RF-SCORE:    0.00 PKD
ROOT
HETATM    1  O   UNL     1      -7.049   8.641  65.372  1.00  0.00    -0.080 OA 
HETATM    2  H   UNL     1      -6.173   8.573  65.011  1.00  0.00     0.000 HD 
HETATM    3  C   UNL     1      -7.211   7.529  66.221  1.00  0.00    -0.074 C  
ENDROOT
BRANCH   3   4
HETATM    4  N   UNL     1      -8.522   7.631  66.761  1.00  0.00    -0.123 N  
HETATM    5  H   UNL     1      -8.974   6.807  67.157  1.00  0.00     0.000 HD 
BRANCH   4   6
HETATM    6  C   UNL     1      -9.177   8.826  66.750  1.00  0.00    -0.169 C  
HETATM    7  O   UNL     1      -9.689   9.271  65.725  1.00  0.00    -0.278 OA 
BRANCH   6   8
HETATM    8  N   UNL     1      -9.289   9.472  67.965  1.00  0.00    -0.133 N  
BRANCH   8   9
HETATM    9  C   UNL     1     -10.408   9.112  68.811  1.00  0.00    -0.214 C  
HETATM   10  O   UNL     1     -11.905  10.966  68.116  1.00  0.00    -0.564 OA 
HETATM   11  N   UNL     1     -10.096   8.920  70.209  1.00  0.00    -0.181 N  
HETATM   12  C   UNL     1     -11.520  10.173  68.969  1.00  0.00    -0.078 C  
HETATM   13  O   UNL     1     -11.282   9.092  72.192  1.00  0.00    -0.351 OA 
HETATM   14  N   UNL     1     -12.031  10.045  70.227  1.00  0.00    -0.225 N  
HETATM   15  C   UNL     1     -11.169   9.318  70.997  1.00  0.00    -0.321 C  
BRANCH  11  16
HETATM   16  C   UNL     1      -9.116   7.996  70.701  1.00  0.00    -0.153 C  
HETATM   17  H   UNL     1      -8.708   6.113  70.458  1.00  0.00     0.000 HD 
HETATM   18  O   UNL     1      -9.356   6.726  70.132  1.00  0.00    -0.158 OA 
ENDBRANCH  11  16
BRANCH  14  19
HETATM   19  C   UNL     1     -13.035  10.885  70.806  1.00  0.00    -0.222 C  
HETATM   20  O   UNL     1     -13.062  10.708  72.210  1.00  0.00    -0.548 OA 
HETATM   21  H   UNL     1     -13.728  11.266  72.594  1.00  0.00     0.000 HD 
ENDBRANCH  14  19
ENDBRANCH   8   9
BRANCH   8  22
HETATM   22  C   UNL     1      -8.515  10.633  68.337  1.00  0.00    -0.132 C  
HETATM   23  H   UNL     1      -6.654  10.994  68.688  1.00  0.00     0.000 HD 
HETATM   24  O   UNL     1      -7.163  10.230  68.444  1.00  0.00    -0.077 OA 
ENDBRANCH   8  22
ENDBRANCH   6   8
ENDBRANCH   4   6
ENDBRANCH   3   4
TORSDOF 7
ENDMDL
MODEL      257
REMARK 921   NORMALIZED FREE ENERGY PREDICTED BY IDOCK:   -2.44 KCAL/MOL
REMARK 922        TOTAL FREE ENERGY PREDICTED BY IDOCK:   -4.96 KCAL/MOL
REMARK 923 INTER-LIGAND FREE ENERGY PREDICTED BY IDOCK:   -3.65 KCAL/MOL
REMARK 924 INTRA-LIGAND FREE ENERGY PREDICTED BY IDOCK:   -1.32 KCAL/MOL
REMARK 927      BINDING AFFINITY PREDICTED BY RF-SCORE:    0.00 PKD
ROOT
HETATM    1  O   UNL     1      -9.761   7.765  66.257  1.00  0.00    -0.387 OA 
HETATM    2  H   UNL     1      -9.819   7.383  65.389  1.00  0.00     0.000 HD 
HETATM    3  C   UNL     1     -10.803   7.188  67.009  1.00  0.00    -0.312 C  
ENDROOT
BRANCH   3   4
HETATM    4  N   UNL     1     -10.716   7.759  68.308  1.00  0.00    -0.404 N  
HETATM    5  H   UNL     1     -10.815   7.166  69.132  1.00  0.00     0.000 HD 
BRANCH   4   6
HETATM    6  C   UNL     1     -10.502   9.097  68.456  1.00  0.00    -0.204 C  
HETATM    7  O   UNL     1     -11.111   9.926  67.784  1.00  0.00    -0.269 OA 
BRANCH   6   8
HETATM    8  N   UNL     1      -9.613   9.466  69.447  1.00  0.00    -0.166 N  
BRANCH   8   9
HETATM    9  C   UNL     1      -8.220   9.608  69.073  1.00  0.00    -0.113 C  
HETATM   10  O   UNL     1      -8.558  11.368  67.356  1.00  0.00    -0.136 OA 
HETATM   11  N   UNL     1      -7.542   8.380  68.727  1.00  0.00    -0.099 N  
HETATM   12  C   UNL     1      -7.933  10.401  67.779  1.00  0.00    -0.102 C  
HETATM   13  O   UNL     1      -5.730   7.830  67.391  1.00  0.00    -0.034 OA 
HETATM   14  N   UNL     1      -6.823   9.855  67.204  1.00  0.00    -0.082 N  
HETATM   15  C   UNL     1      -6.592   8.622  67.742  1.00  0.00    -0.062 C  
BRANCH  11  16
HETATM   16  C   UNL     1      -7.445   7.237  69.586  1.00  0.00    -0.094 C  
HETATM   17  H   UNL     1      -8.136   5.423  69.602  1.00  0.00     0.000 HD 
HETATM   18  O   UNL     1      -8.200   6.181  69.032  1.00  0.00    -0.110 OA 
ENDBRANCH  11  16
BRANCH  14  19
HETATM   19  C   UNL     1      -6.258  10.249  65.949  1.00  0.00    -0.105 C  
HETATM   20  O   UNL     1      -5.957  11.632  65.968  1.00  0.00    -0.487 OA 
HETATM   21  H   UNL     1      -5.582  11.893  65.136  1.00  0.00     0.000 HD 
ENDBRANCH  14  19
ENDBRANCH   8   9
BRANCH   8  22
HETATM   22  C   UNL     1      -9.934   9.485  70.854  1.00  0.00    -0.238 C  
HETATM   23  H   UNL     1     -11.248   8.635  71.979  1.00  0.00     0.000 HD 
HETATM   24  O   UNL     1     -11.037   8.623  71.053  1.00  0.00    -0.244 OA 
ENDBRANCH   8  22
ENDBRANCH   6   8
ENDBRANCH   4   6
ENDBRANCH   3   4
TORSDOF 7
ENDMDL
MODEL      258
REMARK 921   NORMALIZED FREE ENERGY PREDICTED BY IDOCK:   -2.42 KCAL/MOL
REMARK 922        TOTAL FREE ENERGY PREDICTED BY IDOCK:   -4.94 KCAL/MOL
REMARK 923 INTER-LIGAND FREE ENERGY PREDICTED BY IDOCK:   -4.80 KCAL/MOL
REMARK 924 INTRA-LIGAND FREE ENERGY PREDICTED BY IDOCK:   -0.14 KCAL/MOL
REMARK 927      BINDING AFFINITY PREDICTED BY RF-SCORE:    0.00 PKD
ROOT
HETATM    1  O   UNL     1     -11.534  16.647  64.459  1.00  0.00    -0.792 OA 
HETATM    2  H   UNL     1     -11.564  16.694  63.511  1.00  0.00     0.000 HD 
HETATM    3  C   UNL     1     -10.758  15.513  64.770  1.00  0.00    -0.304 C  
ENDROOT
BRANCH   3   4
HETATM    4  N   UNL     1     -10.712  15.443  66.190  1.00  0.00    -0.310 N  
HETATM    5  H   UNL     1     -11.510  15.762  66.740  1.00  0.00     0.000 HD 
BRANCH   4   6
HETATM    6  C   UNL     1      -9.607  14.952  66.818  1.00  0.00    -0.251 C  
HETATM    7  O   UNL     1      -8.472  15.259  66.460  1.00  0.00    -0.265 OA 
BRANCH   6   8
HETATM    8  N   UNL     1      -9.837  14.145  67.915  1.00  0.00    -0.219 N  
BRANCH   8   9
HETATM    9  C   UNL     1      -9.738  12.713  67.721  1.00  0.00    -0.206 C  
HETATM   10  O   UNL     1     -12.066  12.169  68.387  1.00  0.00    -0.369 OA 
HETATM   11  N   UNL     1      -8.627  12.071  68.384  1.00  0.00    -0.167 N  
HETATM   12  C   UNL     1     -10.882  11.859  68.311  1.00  0.00    -0.224 C  
HETATM   13  O   UNL     1      -8.206   9.936  69.182  1.00  0.00    -0.109 OA 
HETATM   14  N   UNL     1     -10.342  10.668  68.701  1.00  0.00    -0.176 N  
HETATM   15  C   UNL     1      -8.985  10.788  68.781  1.00  0.00    -0.170 C  
BRANCH  11  16
HETATM   16  C   UNL     1      -7.252  12.433  68.199  1.00  0.00    -0.100 C  
HETATM   17  H   UNL     1      -5.605  12.279  69.215  1.00  0.00     0.000 HD 
HETATM   18  O   UNL     1      -6.516  12.038  69.337  1.00  0.00    -0.103 OA 
ENDBRANCH  11  16
BRANCH  14  19
HETATM   19  C   UNL     1     -11.047   9.614  69.365  1.00  0.00    -0.139 C  
HETATM   20  O   UNL     1     -12.104  10.151  70.138  1.00  0.00    -0.403 OA 
HETATM   21  H   UNL     1     -12.572   9.452  70.578  1.00  0.00     0.000 HD 
ENDBRANCH  14  19
ENDBRANCH   8   9
BRANCH   8  22
HETATM   22  C   UNL     1     -10.396  14.615  69.160  1.00  0.00    -0.216 C  
HETATM   23  H   UNL     1      -9.871  15.881  70.516  1.00  0.00     0.000 HD 
HETATM   24  O   UNL     1      -9.503  15.572  69.696  1.00  0.00    -0.273 OA 
ENDBRANCH   8  22
ENDBRANCH   6   8
ENDBRANCH   4   6
ENDBRANCH   3   4
TORSDOF 7
ENDMDL
MODEL      259
REMARK 921   NORMALIZED FREE ENERGY PREDICTED BY IDOCK:   -2.42 KCAL/MOL
REMARK 922        TOTAL FREE ENERGY PREDICTED BY IDOCK:   -4.94 KCAL/MOL
REMARK 923 INTER-LIGAND FREE ENERGY PREDICTED BY IDOCK:   -3.90 KCAL/MOL
REMARK 924 INTRA-LIGAND FREE ENERGY PREDICTED BY IDOCK:   -1.04 KCAL/MOL
REMARK 927      BINDING AFFINITY PREDICTED BY RF-SCORE:    0.00 PKD
ROOT
HETATM    1  O   UNL     1      -9.768  13.261  65.870  1.00  0.00    -0.385 OA 
HETATM    2  H   UNL     1      -9.688  13.977  65.251  1.00  0.00     0.000 HD 
HETATM    3  C   UNL     1     -11.030  12.680  65.637  1.00  0.00    -0.280 C  
ENDROOT
BRANCH   3   4
HETATM    4  N   UNL     1     -11.149  11.609  66.565  1.00  0.00    -0.300 N  
HETATM    5  H   UNL     1     -11.876  10.905  66.437  1.00  0.00     0.000 HD 
BRANCH   4   6
HETATM    6  C   UNL     1     -10.297  11.521  67.624  1.00  0.00    -0.186 C  
HETATM    7  O   UNL     1     -10.176  12.438  68.433  1.00  0.00    -0.220 OA 
BRANCH   6   8
HETATM    8  N   UNL     1      -9.630  10.321  67.772  1.00  0.00    -0.151 N  
BRANCH   8   9
HETATM    9  C   UNL     1      -9.761   9.350  66.705  1.00  0.00    -0.219 C  
HETATM   10  O   UNL     1     -11.033   7.661  68.005  1.00  0.00    -0.056 OA 
HETATM   11  N   UNL     1      -8.529   8.979  66.047  1.00  0.00    -0.124 N  
HETATM   12  C   UNL     1     -10.235   7.938  67.115  1.00  0.00    -0.290 C  
HETATM   13  O   UNL     1      -7.784   7.110  64.897  1.00  0.00    -0.102 OA 
HETATM   14  N   UNL     1      -9.635   7.046  66.276  1.00  0.00    -0.092 N  
HETATM   15  C   UNL     1      -8.584   7.649  65.647  1.00  0.00    -0.123 C  
BRANCH  11  16
HETATM   16  C   UNL     1      -7.634   9.906  65.419  1.00  0.00    -0.131 C  
HETATM   17  H   UNL     1      -5.772  10.421  65.615  1.00  0.00     0.000 HD 
HETATM   18  O   UNL     1      -6.366   9.806  66.031  1.00  0.00    -0.070 OA 
ENDBRANCH  11  16
BRANCH  14  19
HETATM   19  C   UNL     1      -9.749   5.621  66.357  1.00  0.00    -0.156 C  
HETATM   20  O   UNL     1     -11.075   5.226  66.061  1.00  0.00    -0.762 OA 
HETATM   21  H   UNL     1     -11.151   4.281  66.115  1.00  0.00     0.000 HD 
ENDBRANCH  14  19
ENDBRANCH   8   9
BRANCH   8  22
HETATM   22  C   UNL     1      -9.019   9.882  69.005  1.00  0.00    -0.160 C  
HETATM   23  H   UNL     1      -7.278  10.050  69.816  1.00  0.00     0.000 HD 
HETATM   24  O   UNL     1      -7.680  10.338  69.005  1.00  0.00    -0.091 OA 
ENDBRANCH   8  22
ENDBRANCH   6   8
ENDBRANCH   4   6
ENDBRANCH   3   4
TORSDOF 7
ENDMDL
MODEL      260
REMARK 921   NORMALIZED FREE ENERGY PREDICTED BY IDOCK:   -2.42 KCAL/MOL
REMARK 922        TOTAL FREE ENERGY PREDICTED BY IDOCK:   -4.93 KCAL/MOL
REMARK 923 INTER-LIGAND FREE ENERGY PREDICTED BY IDOCK:   -3.95 KCAL/MOL
REMARK 924 INTRA-LIGAND FREE ENERGY PREDICTED BY IDOCK:   -0.98 KCAL/MOL
REMARK 927      BINDING AFFINITY PREDICTED BY RF-SCORE:    0.00 PKD
ROOT
HETATM    1  O   UNL     1      -5.467   9.973  65.929  1.00  0.00    -0.043 OA 
HETATM    2  H   UNL     1      -4.565   9.770  65.713  1.00  0.00     0.000 HD 
HETATM    3  C   UNL     1      -5.952   8.871  66.661  1.00  0.00    -0.053 C  
ENDROOT
BRANCH   3   4
HETATM    4  N   UNL     1      -7.302   9.175  66.985  1.00  0.00    -0.090 N  
HETATM    5  H   UNL     1      -8.043   8.518  66.741  1.00  0.00     0.000 HD 
BRANCH   4   6
HETATM    6  C   UNL     1      -7.610  10.341  67.619  1.00  0.00    -0.090 C  
HETATM    7  O   UNL     1      -6.798  10.916  68.341  1.00  0.00    -0.065 OA 
BRANCH   6   8
HETATM    8  N   UNL     1      -8.858  10.869  67.353  1.00  0.00    -0.133 N  
BRANCH   8   9
HETATM    9  C   UNL     1      -8.926  11.986  66.432  1.00  0.00    -0.161 C  
HETATM   10  O   UNL     1      -8.573  13.774  68.116  1.00  0.00    -0.160 OA 
HETATM   11  N   UNL     1     -10.092  12.016  65.578  1.00  0.00    -0.247 N  
HETATM   12  C   UNL     1      -9.067  13.389  67.062  1.00  0.00    -0.243 C  
HETATM   13  O   UNL     1     -11.279  13.680  64.486  1.00  0.00    -0.359 OA 
HETATM   14  N   UNL     1      -9.815  14.146  66.208  1.00  0.00    -0.296 N  
HETATM   15  C   UNL     1     -10.464  13.331  65.327  1.00  0.00    -0.313 C  
BRANCH  11  16
HETATM   16  C   UNL     1     -10.480  10.954  64.697  1.00  0.00    -0.314 C  
HETATM   17  H   UNL     1      -9.601   9.807  63.400  1.00  0.00     0.000 HD 
HETATM   18  O   UNL     1      -9.344  10.510  63.985  1.00  0.00    -0.220 OA 
ENDBRANCH  11  16
BRANCH  14  19
HETATM   19  C   UNL     1     -10.241  15.492  66.447  1.00  0.00    -0.289 C  
HETATM   20  O   UNL     1      -9.700  16.351  65.460  1.00  0.00    -0.505 OA 
HETATM   21  H   UNL     1      -9.983  17.244  65.618  1.00  0.00     0.000 HD 
ENDBRANCH  14  19
ENDBRANCH   8   9
BRANCH   8  22
HETATM   22  C   UNL     1     -10.048  10.546  68.104  1.00  0.00    -0.158 C  
HETATM   23  H   UNL     1     -10.437  10.049  69.925  1.00  0.00     0.000 HD 
HETATM   24  O   UNL     1      -9.654  10.262  69.431  1.00  0.00    -0.213 OA 
ENDBRANCH   8  22
ENDBRANCH   6   8
ENDBRANCH   4   6
ENDBRANCH   3   4
TORSDOF 7
ENDMDL
MODEL      261
REMARK 921   NORMALIZED FREE ENERGY PREDICTED BY IDOCK:   -2.40 KCAL/MOL
REMARK 922        TOTAL FREE ENERGY PREDICTED BY IDOCK:   -4.91 KCAL/MOL
REMARK 923 INTER-LIGAND FREE ENERGY PREDICTED BY IDOCK:   -3.82 KCAL/MOL
REMARK 924 INTRA-LIGAND FREE ENERGY PREDICTED BY IDOCK:   -1.09 KCAL/MOL
REMARK 927      BINDING AFFINITY PREDICTED BY RF-SCORE:    0.00 PKD
ROOT
HETATM    1  O   UNL     1      -9.426   5.328  67.505  1.00  0.00    -0.117 OA 
HETATM    2  H   UNL     1      -9.858   4.664  66.982  1.00  0.00     0.000 HD 
HETATM    3  C   UNL     1      -9.794   6.567  66.947  1.00  0.00    -0.164 C  
ENDROOT
BRANCH   3   4
HETATM    4  N   UNL     1      -9.147   7.562  67.731  1.00  0.00    -0.130 N  
HETATM    5  H   UNL     1      -8.210   7.877  67.479  1.00  0.00     0.000 HD 
BRANCH   4   6
HETATM    6  C   UNL     1      -9.773   8.094  68.818  1.00  0.00    -0.153 C  
HETATM    7  O   UNL     1     -10.693   7.506  69.384  1.00  0.00    -0.229 OA 
BRANCH   6   8
HETATM    8  N   UNL     1      -9.274   9.294  69.283  1.00  0.00    -0.148 N  
BRANCH   8   9
HETATM    9  C   UNL     1      -9.240  10.406  68.355  1.00  0.00    -0.147 C  
HETATM   10  O   UNL     1      -6.768  10.592  68.217  1.00  0.00    -0.062 OA 
HETATM   11  N   UNL     1     -10.032  11.554  68.730  1.00  0.00    -0.190 N  
HETATM   12  C   UNL     1      -7.878  11.115  68.181  1.00  0.00    -0.118 C  
HETATM   13  O   UNL     1      -9.939  13.826  68.283  1.00  0.00    -0.231 OA 
HETATM   14  N   UNL     1      -8.132  12.432  67.937  1.00  0.00    -0.149 N  
HETATM   15  C   UNL     1      -9.417  12.721  68.293  1.00  0.00    -0.203 C  
BRANCH  11  16
HETATM   16  C   UNL     1     -11.438  11.514  69.005  1.00  0.00    -0.291 C  
HETATM   17  H   UNL     1     -13.041  10.942  68.070  1.00  0.00     0.000 HD 
HETATM   18  O   UNL     1     -12.109  10.969  67.888  1.00  0.00    -0.600 OA 
ENDBRANCH  11  16
BRANCH  14  19
HETATM   19  C   UNL     1      -7.142  13.456  67.786  1.00  0.00    -0.156 C  
HETATM   20  O   UNL     1      -6.107  13.004  66.933  1.00  0.00    -0.443 OA 
HETATM   21  H   UNL     1      -5.451  13.683  66.833  1.00  0.00     0.000 HD 
ENDBRANCH  14  19
ENDBRANCH   8   9
BRANCH   8  22
HETATM   22  C   UNL     1      -8.573   9.446  70.536  1.00  0.00    -0.223 C  
HETATM   23  H   UNL     1      -7.321   8.390  71.552  1.00  0.00     0.000 HD 
HETATM   24  O   UNL     1      -7.782   8.290  70.727  1.00  0.00    -0.070 OA 
ENDBRANCH   8  22
ENDBRANCH   6   8
ENDBRANCH   4   6
ENDBRANCH   3   4
TORSDOF 7
ENDMDL
MODEL      262
REMARK 921   NORMALIZED FREE ENERGY PREDICTED BY IDOCK:   -2.40 KCAL/MOL
REMARK 922        TOTAL FREE ENERGY PREDICTED BY IDOCK:   -4.91 KCAL/MOL
REMARK 923 INTER-LIGAND FREE ENERGY PREDICTED BY IDOCK:   -4.73 KCAL/MOL
REMARK 924 INTRA-LIGAND FREE ENERGY PREDICTED BY IDOCK:   -0.18 KCAL/MOL
REMARK 927      BINDING AFFINITY PREDICTED BY RF-SCORE:    0.00 PKD
ROOT
HETATM    1  O   UNL     1      -8.873   8.549  64.570  1.00  0.00    -0.408 OA 
HETATM    2  H   UNL     1      -9.211   8.792  63.717  1.00  0.00     0.000 HD 
HETATM    3  C   UNL     1      -9.501   9.402  65.498  1.00  0.00    -0.260 C  
ENDROOT
BRANCH   3   4
HETATM    4  N   UNL     1      -8.993   9.038  66.776  1.00  0.00    -0.132 N  
HETATM    5  H   UNL     1      -8.031   8.712  66.866  1.00  0.00     0.000 HD 
BRANCH   4   6
HETATM    6  C   UNL     1      -9.788   9.123  67.879  1.00  0.00    -0.169 C  
HETATM    7  O   UNL     1     -10.738   8.362  68.050  1.00  0.00    -0.168 OA 
BRANCH   6   8
HETATM    8  N   UNL     1      -9.426  10.066  68.821  1.00  0.00    -0.155 N  
BRANCH   8   9
HETATM    9  C   UNL     1     -10.181  10.097  70.057  1.00  0.00    -0.220 C  
HETATM   10  O   UNL     1      -9.325   7.955  70.974  1.00  0.00    -0.150 OA 
HETATM   11  N   UNL     1     -11.603  10.305  69.912  1.00  0.00    -0.261 N  
HETATM   12  C   UNL     1     -10.223   8.784  70.870  1.00  0.00    -0.226 C  
HETATM   13  O   UNL     1     -13.475   9.759  71.165  1.00  0.00    -0.366 OA 
HETATM   14  N   UNL     1     -11.436   8.728  71.492  1.00  0.00    -0.282 N  
HETATM   15  C   UNL     1     -12.290   9.617  70.906  1.00  0.00    -0.263 C  
BRANCH  11  16
HETATM   16  C   UNL     1     -12.195  11.425  69.242  1.00  0.00    -0.204 C  
HETATM   17  H   UNL     1     -12.393  13.327  69.581  1.00  0.00     0.000 HD 
HETATM   18  O   UNL     1     -12.001  12.584  70.025  1.00  0.00    -0.332 OA 
ENDBRANCH  11  16
BRANCH  14  19
HETATM   19  C   UNL     1     -11.911   7.639  72.291  1.00  0.00    -0.308 C  
HETATM   20  O   UNL     1     -11.271   7.651  73.553  1.00  0.00    -0.586 OA 
HETATM   21  H   UNL     1     -11.587   6.929  74.083  1.00  0.00     0.000 HD 
ENDBRANCH  14  19
ENDBRANCH   8   9
BRANCH   8  22
HETATM   22  C   UNL     1      -8.522  11.161  68.561  1.00  0.00    -0.156 C  
HETATM   23  H   UNL     1      -6.608  11.375  68.470  1.00  0.00     0.000 HD 
HETATM   24  O   UNL     1      -7.203  10.655  68.641  1.00  0.00    -0.080 OA 
ENDBRANCH   8  22
ENDBRANCH   6   8
ENDBRANCH   4   6
ENDBRANCH   3   4
TORSDOF 7
ENDMDL
MODEL      263
REMARK 921   NORMALIZED FREE ENERGY PREDICTED BY IDOCK:   -2.37 KCAL/MOL
REMARK 922        TOTAL FREE ENERGY PREDICTED BY IDOCK:   -4.87 KCAL/MOL
REMARK 923 INTER-LIGAND FREE ENERGY PREDICTED BY IDOCK:   -3.82 KCAL/MOL
REMARK 924 INTRA-LIGAND FREE ENERGY PREDICTED BY IDOCK:   -1.05 KCAL/MOL
REMARK 927      BINDING AFFINITY PREDICTED BY RF-SCORE:    0.00 PKD
ROOT
HETATM    1  O   UNL     1     -12.763  14.262  67.383  1.00  0.00    -0.421 OA 
HETATM    2  H   UNL     1     -13.559  14.545  67.818  1.00  0.00     0.000 HD 
HETATM    3  C   UNL     1     -12.136  13.359  68.263  1.00  0.00    -0.236 C  
ENDROOT
BRANCH   3   4
HETATM    4  N   UNL     1     -10.944  12.936  67.612  1.00  0.00    -0.241 N  
HETATM    5  H   UNL     1     -10.945  12.777  66.604  1.00  0.00     0.000 HD 
BRANCH   4   6
HETATM    6  C   UNL     1      -9.802  12.741  68.329  1.00  0.00    -0.224 C  
HETATM    7  O   UNL     1      -9.685  11.802  69.113  1.00  0.00     0.051 OA 
BRANCH   6   8
HETATM    8  N   UNL     1      -8.767  13.620  68.077  1.00  0.00    -0.167 N  
BRANCH   8   9
HETATM    9  C   UNL     1      -8.940  14.994  68.502  1.00  0.00    -0.186 C  
HETATM   10  O   UNL     1      -9.998  15.813  66.411  1.00  0.00    -0.248 OA 
HETATM   11  N   UNL     1      -7.754  15.640  69.014  1.00  0.00    -0.182 N  
HETATM   12  C   UNL     1      -9.299  16.014  67.399  1.00  0.00    -0.217 C  
HETATM   13  O   UNL     1      -7.014  17.832  69.156  1.00  0.00    -0.256 OA 
HETATM   14  N   UNL     1      -8.728  17.204  67.743  1.00  0.00    -0.217 N  
HETATM   15  C   UNL     1      -7.771  16.992  68.693  1.00  0.00    -0.251 C  
BRANCH  11  16
HETATM   16  C   UNL     1      -6.969  15.148  70.108  1.00  0.00    -0.003 C  
HETATM   17  H   UNL     1      -5.123  14.620  70.393  1.00  0.00     0.000 HD 
HETATM   18  O   UNL     1      -5.643  14.946  69.668  1.00  0.00    -0.093 OA 
ENDBRANCH  11  16
BRANCH  14  19
HETATM   19  C   UNL     1      -8.758  18.399  66.954  1.00  0.00    -0.272 C  
HETATM   20  O   UNL     1      -7.930  18.248  65.817  1.00  0.00    -0.513 OA 
HETATM   21  H   UNL     1      -7.950  19.040  65.294  1.00  0.00     0.000 HD 
ENDBRANCH  14  19
ENDBRANCH   8   9
BRANCH   8  22
HETATM   22  C   UNL     1      -7.645  13.321  67.218  1.00  0.00    -0.067 C  
HETATM   23  H   UNL     1      -6.036  12.270  67.369  1.00  0.00     0.000 HD 
HETATM   24  O   UNL     1      -6.774  12.466  67.934  1.00  0.00    -0.078 OA 
ENDBRANCH   8  22
ENDBRANCH   6   8
ENDBRANCH   4   6
ENDBRANCH   3   4
TORSDOF 7
ENDMDL
MODEL      264
REMARK 921   NORMALIZED FREE ENERGY PREDICTED BY IDOCK:   -2.37 KCAL/MOL
REMARK 922        TOTAL FREE ENERGY PREDICTED BY IDOCK:   -4.87 KCAL/MOL
REMARK 923 INTER-LIGAND FREE ENERGY PREDICTED BY IDOCK:   -3.83 KCAL/MOL
REMARK 924 INTRA-LIGAND FREE ENERGY PREDICTED BY IDOCK:   -1.03 KCAL/MOL
REMARK 927      BINDING AFFINITY PREDICTED BY RF-SCORE:    0.00 PKD
ROOT
HETATM    1  O   UNL     1      -7.236   3.264  69.139  1.00  0.00    -0.048 OA 
HETATM    2  H   UNL     1      -6.665   2.535  69.351  1.00  0.00     0.000 HD 
HETATM    3  C   UNL     1      -6.391   4.355  68.860  1.00  0.00    -0.032 C  
ENDROOT
BRANCH   3   4
HETATM    4  N   UNL     1      -7.246   5.446  68.542  1.00  0.00    -0.072 N  
HETATM    5  H   UNL     1      -7.588   5.562  67.588  1.00  0.00     0.000 HD 
BRANCH   4   6
HETATM    6  C   UNL     1      -7.610   6.336  69.507  1.00  0.00    -0.094 C  
HETATM    7  O   UNL     1      -7.513   6.067  70.702  1.00  0.00    -0.082 OA 
BRANCH   6   8
HETATM    8  N   UNL     1      -8.031   7.576  69.067  1.00  0.00    -0.120 N  
BRANCH   8   9
HETATM    9  C   UNL     1      -9.349   8.016  69.476  1.00  0.00    -0.156 C  
HETATM   10  O   UNL     1      -8.662   9.013  71.643  1.00  0.00    -0.331 OA 
HETATM   11  N   UNL     1     -10.381   7.006  69.439  1.00  0.00    -0.200 N  
HETATM   12  C   UNL     1      -9.503   8.446  70.952  1.00  0.00    -0.169 C  
HETATM   13  O   UNL     1     -12.381   6.665  70.559  1.00  0.00    -0.314 OA 
HETATM   14  N   UNL     1     -10.767   8.118  71.343  1.00  0.00    -0.227 N  
HETATM   15  C   UNL     1     -11.300   7.225  70.458  1.00  0.00    -0.280 C  
BRANCH  11  16
HETATM   16  C   UNL     1     -10.733   6.247  68.274  1.00  0.00    -0.288 C  
HETATM   17  H   UNL     1     -11.157   6.630  66.419  1.00  0.00     0.000 HD 
HETATM   18  O   UNL     1     -10.924   7.133  67.191  1.00  0.00    -0.342 OA 
ENDBRANCH  11  16
BRANCH  14  19
HETATM   19  C   UNL     1     -11.298   8.282  72.663  1.00  0.00    -0.350 C  
HETATM   20  O   UNL     1     -11.379   7.026  73.310  1.00  0.00    -0.537 OA 
HETATM   21  H   UNL     1     -11.730   7.135  74.185  1.00  0.00     0.000 HD 
ENDBRANCH  14  19
ENDBRANCH   8   9
BRANCH   8  22
HETATM   22  C   UNL     1      -7.356   8.342  68.046  1.00  0.00    -0.096 C  
HETATM   23  H   UNL     1      -7.307   8.331  66.119  1.00  0.00     0.000 HD 
HETATM   24  O   UNL     1      -7.752   7.826  66.790  1.00  0.00    -0.095 OA 
ENDBRANCH   8  22
ENDBRANCH   6   8
ENDBRANCH   4   6
ENDBRANCH   3   4
TORSDOF 7
ENDMDL
MODEL      265
REMARK 921   NORMALIZED FREE ENERGY PREDICTED BY IDOCK:   -2.37 KCAL/MOL
REMARK 922        TOTAL FREE ENERGY PREDICTED BY IDOCK:   -4.86 KCAL/MOL
REMARK 923 INTER-LIGAND FREE ENERGY PREDICTED BY IDOCK:   -4.32 KCAL/MOL
REMARK 924 INTRA-LIGAND FREE ENERGY PREDICTED BY IDOCK:   -0.54 KCAL/MOL
REMARK 927      BINDING AFFINITY PREDICTED BY RF-SCORE:    0.00 PKD
ROOT
HETATM    1  O   UNL     1      -9.654   3.828  66.466  1.00  0.00    -0.220 OA 
HETATM    2  H   UNL     1      -9.942   3.658  65.577  1.00  0.00     0.000 HD 
HETATM    3  C   UNL     1      -9.885   5.198  66.697  1.00  0.00    -0.189 C  
ENDROOT
BRANCH   3   4
HETATM    4  N   UNL     1      -9.454   5.453  68.028  1.00  0.00    -0.114 N  
HETATM    5  H   UNL     1      -8.485   5.273  68.291  1.00  0.00     0.000 HD 
BRANCH   4   6
HETATM    6  C   UNL     1     -10.331   5.935  68.952  1.00  0.00    -0.228 C  
HETATM    7  O   UNL     1     -11.508   6.152  68.673  1.00  0.00    -0.223 OA 
BRANCH   6   8
HETATM    8  N   UNL     1      -9.838   6.105  70.231  1.00  0.00    -0.167 N  
BRANCH   8   9
HETATM    9  C   UNL     1     -10.127   7.359  70.896  1.00  0.00    -0.188 C  
HETATM   10  O   UNL     1     -12.333   6.696  71.819  1.00  0.00    -0.345 OA 
HETATM   11  N   UNL     1     -10.012   8.540  70.073  1.00  0.00    -0.185 N  
HETATM   12  C   UNL     1     -11.579   7.559  71.384  1.00  0.00    -0.275 C  
HETATM   13  O   UNL     1     -10.959  10.655  70.100  1.00  0.00    -0.282 OA 
HETATM   14  N   UNL     1     -11.863   8.890  71.282  1.00  0.00    -0.297 N  
HETATM   15  C   UNL     1     -10.946   9.490  70.469  1.00  0.00    -0.288 C  
BRANCH  11  16
HETATM   16  C   UNL     1      -8.830   8.916  69.354  1.00  0.00    -0.143 C  
HETATM   17  H   UNL     1      -6.941   9.117  69.756  1.00  0.00     0.000 HD 
HETATM   18  O   UNL     1      -7.724   8.867  70.232  1.00  0.00    -0.072 OA 
ENDBRANCH  11  16
BRANCH  14  19
HETATM   19  C   UNL     1     -13.130   9.493  71.567  1.00  0.00    -0.389 C  
HETATM   20  O   UNL     1     -12.955  10.593  72.439  1.00  0.00    -0.430 OA 
HETATM   21  H   UNL     1     -13.795  10.994  72.628  1.00  0.00     0.000 HD 
ENDBRANCH  14  19
ENDBRANCH   8   9
BRANCH   8  22
HETATM   22  C   UNL     1      -8.867   5.229  70.844  1.00  0.00    -0.136 C  
HETATM   23  H   UNL     1      -8.918   3.512  71.720  1.00  0.00     0.000 HD 
HETATM   24  O   UNL     1      -9.557   4.088  71.316  1.00  0.00    -0.151 OA 
ENDBRANCH   8  22
ENDBRANCH   6   8
ENDBRANCH   4   6
ENDBRANCH   3   4
TORSDOF 7
ENDMDL
MODEL      266
REMARK 921   NORMALIZED FREE ENERGY PREDICTED BY IDOCK:   -2.36 KCAL/MOL
REMARK 922        TOTAL FREE ENERGY PREDICTED BY IDOCK:   -4.85 KCAL/MOL
REMARK 923 INTER-LIGAND FREE ENERGY PREDICTED BY IDOCK:   -3.27 KCAL/MOL
REMARK 924 INTRA-LIGAND FREE ENERGY PREDICTED BY IDOCK:   -1.58 KCAL/MOL
REMARK 927      BINDING AFFINITY PREDICTED BY RF-SCORE:    0.00 PKD
ROOT
HETATM    1  O   UNL     1      -9.460  12.394  65.564  1.00  0.00    -0.423 OA 
HETATM    2  H   UNL     1      -9.312  13.113  64.961  1.00  0.00     0.000 HD 
HETATM    3  C   UNL     1     -10.774  11.946  65.325  1.00  0.00    -0.283 C  
ENDROOT
BRANCH   3   4
HETATM    4  N   UNL     1     -10.995  10.870  66.228  1.00  0.00    -0.130 N  
HETATM    5  H   UNL     1     -11.655  10.131  65.986  1.00  0.00     0.000 HD 
BRANCH   4   6
HETATM    6  C   UNL     1     -10.328  10.822  67.415  1.00  0.00    -0.211 C  
HETATM    7  O   UNL     1     -10.358  11.759  68.210  1.00  0.00    -0.192 OA 
BRANCH   6   8
HETATM    8  N   UNL     1      -9.673   9.640  67.700  1.00  0.00    -0.146 N  
BRANCH   8   9
HETATM    9  C   UNL     1      -9.897   9.052  69.005  1.00  0.00    -0.175 C  
HETATM   10  O   UNL     1      -7.980  10.138  70.146  1.00  0.00    -0.160 OA 
HETATM   11  N   UNL     1     -10.031   7.614  69.024  1.00  0.00    -0.176 N  
HETATM   12  C   UNL     1      -8.748   9.189  70.028  1.00  0.00    -0.177 C  
HETATM   13  O   UNL     1      -9.655   5.954  70.597  1.00  0.00    -0.168 OA 
HETATM   14  N   UNL     1      -8.764   8.073  70.812  1.00  0.00    -0.135 N  
HETATM   15  C   UNL     1      -9.507   7.102  70.205  1.00  0.00    -0.162 C  
BRANCH  11  16
HETATM   16  C   UNL     1     -10.995   6.878  68.261  1.00  0.00    -0.139 C  
HETATM   17  H   UNL     1     -10.956   5.529  66.864  1.00  0.00     0.000 HD 
HETATM   18  O   UNL     1     -10.317   6.017  67.371  1.00  0.00    -0.163 OA 
ENDBRANCH  11  16
BRANCH  14  19
HETATM   19  C   UNL     1      -7.818   7.767  71.842  1.00  0.00    -0.095 C  
HETATM   20  O   UNL     1      -8.496   7.354  73.013  1.00  0.00    -0.110 OA 
HETATM   21  H   UNL     1      -7.869   7.151  73.696  1.00  0.00     0.000 HD 
ENDBRANCH  14  19
ENDBRANCH   8   9
BRANCH   8  22
HETATM   22  C   UNL     1      -8.612   9.089  66.891  1.00  0.00    -0.123 C  
HETATM   23  H   UNL     1      -7.211   9.808  65.779  1.00  0.00     0.000 HD 
HETATM   24  O   UNL     1      -7.909  10.171  66.311  1.00  0.00    -0.106 OA 
ENDBRANCH   8  22
ENDBRANCH   6   8
ENDBRANCH   4   6
ENDBRANCH   3   4
TORSDOF 7
ENDMDL
MODEL      267
REMARK 921   NORMALIZED FREE ENERGY PREDICTED BY IDOCK:   -2.35 KCAL/MOL
REMARK 922        TOTAL FREE ENERGY PREDICTED BY IDOCK:   -4.84 KCAL/MOL
REMARK 923 INTER-LIGAND FREE ENERGY PREDICTED BY IDOCK:   -3.67 KCAL/MOL
REMARK 924 INTRA-LIGAND FREE ENERGY PREDICTED BY IDOCK:   -1.17 KCAL/MOL
REMARK 927      BINDING AFFINITY PREDICTED BY RF-SCORE:    0.00 PKD
ROOT
HETATM    1  O   UNL     1     -11.119  10.736  70.307  1.00  0.00    -0.405 OA 
HETATM    2  H   UNL     1     -12.034  10.906  70.494  1.00  0.00     0.000 HD 
HETATM    3  C   UNL     1     -10.891   9.391  70.656  1.00  0.00    -0.283 C  
ENDROOT
BRANCH   3   4
HETATM    4  N   UNL     1      -9.521   9.136  70.376  1.00  0.00    -0.208 N  
HETATM    5  H   UNL     1      -8.807   9.790  70.696  1.00  0.00     0.000 HD 
BRANCH   4   6
HETATM    6  C   UNL     1      -9.159   8.021  69.681  1.00  0.00    -0.152 C  
HETATM    7  O   UNL     1      -8.784   6.999  70.251  1.00  0.00    -0.142 OA 
BRANCH   6   8
HETATM    8  N   UNL     1      -9.299   8.085  68.309  1.00  0.00    -0.140 N  
BRANCH   8   9
HETATM    9  C   UNL     1      -8.806   9.274  67.643  1.00  0.00    -0.119 C  
HETATM   10  O   UNL     1     -11.009  10.382  67.359  1.00  0.00    -0.294 OA 
HETATM   11  N   UNL     1      -7.961   9.038  66.495  1.00  0.00    -0.103 N  
HETATM   12  C   UNL     1      -9.865  10.172  66.967  1.00  0.00    -0.191 C  
HETATM   13  O   UNL     1      -7.441  10.223  64.572  1.00  0.00    -0.143 OA 
HETATM   14  N   UNL     1      -9.284  10.731  65.866  1.00  0.00    -0.182 N  
HETATM   15  C   UNL     1      -8.151  10.038  65.549  1.00  0.00    -0.137 C  
BRANCH  11  16
HETATM   16  C   UNL     1      -6.757   8.260  66.520  1.00  0.00    -0.063 C  
HETATM   17  H   UNL     1      -6.162   6.561  65.793  1.00  0.00     0.000 HD 
HETATM   18  O   UNL     1      -6.960   7.077  65.776  1.00  0.00    -0.058 OA 
ENDBRANCH  11  16
BRANCH  14  19
HETATM   19  C   UNL     1      -9.943  11.576  64.917  1.00  0.00    -0.259 C  
HETATM   20  O   UNL     1     -10.937  10.843  64.226  1.00  0.00    -0.350 OA 
HETATM   21  H   UNL     1     -11.374  11.404  63.596  1.00  0.00     0.000 HD 
ENDBRANCH  14  19
ENDBRANCH   8   9
BRANCH   8  22
HETATM   22  C   UNL     1     -10.107   7.172  67.536  1.00  0.00    -0.188 C  
HETATM   23  H   UNL     1     -11.684   6.111  67.863  1.00  0.00     0.000 HD 
HETATM   24  O   UNL     1     -11.152   6.713  68.371  1.00  0.00    -0.253 OA 
ENDBRANCH   8  22
ENDBRANCH   6   8
ENDBRANCH   4   6
ENDBRANCH   3   4
TORSDOF 7
ENDMDL
MODEL      268
REMARK 921   NORMALIZED FREE ENERGY PREDICTED BY IDOCK:   -2.34 KCAL/MOL
REMARK 922        TOTAL FREE ENERGY PREDICTED BY IDOCK:   -4.83 KCAL/MOL
REMARK 923 INTER-LIGAND FREE ENERGY PREDICTED BY IDOCK:   -3.56 KCAL/MOL
REMARK 924 INTRA-LIGAND FREE ENERGY PREDICTED BY IDOCK:   -1.27 KCAL/MOL
REMARK 927      BINDING AFFINITY PREDICTED BY RF-SCORE:    0.00 PKD
ROOT
HETATM    1  O   UNL     1      -5.673  10.007  72.100  1.00  0.00    -0.293 OA 
HETATM    2  H   UNL     1      -5.549   9.975  73.041  1.00  0.00     0.000 HD 
HETATM    3  C   UNL     1      -6.687   9.076  71.805  1.00  0.00     0.012 C  
ENDROOT
BRANCH   3   4
HETATM    4  N   UNL     1      -6.872   9.125  70.396  1.00  0.00    -0.053 N  
HETATM    5  H   UNL     1      -6.621   8.319  69.823  1.00  0.00     0.000 HD 
BRANCH   4   6
HETATM    6  C   UNL     1      -7.381  10.244  69.809  1.00  0.00    -0.165 C  
HETATM    7  O   UNL     1      -6.834  11.339  69.926  1.00  0.00    -0.120 OA 
BRANCH   6   8
HETATM    8  N   UNL     1      -8.504  10.065  69.026  1.00  0.00    -0.136 N  
BRANCH   8   9
HETATM    9  C   UNL     1      -8.533  10.733  67.741  1.00  0.00    -0.120 C  
HETATM   10  O   UNL     1     -10.169  12.493  68.365  1.00  0.00    -0.225 OA 
HETATM   11  N   UNL     1      -8.788   9.880  66.603  1.00  0.00    -0.134 N  
HETATM   12  C   UNL     1      -9.673  11.753  67.522  1.00  0.00    -0.180 C  
HETATM   13  O   UNL     1      -9.697  10.190  64.494  1.00  0.00    -0.302 OA 
HETATM   14  N   UNL     1     -10.007  11.714  66.200  1.00  0.00    -0.214 N  
HETATM   15  C   UNL     1      -9.508  10.575  65.638  1.00  0.00    -0.210 C  
BRANCH  11  16
HETATM   16  C   UNL     1      -8.002   8.732  66.258  1.00  0.00    -0.106 C  
HETATM   17  H   UNL     1      -6.115   8.328  66.044  1.00  0.00     0.000 HD 
HETATM   18  O   UNL     1      -6.636   9.089  66.272  1.00  0.00    -0.065 OA 
ENDBRANCH  11  16
BRANCH  14  19
HETATM   19  C   UNL     1     -11.069  12.455  65.588  1.00  0.00    -0.306 C  
HETATM   20  O   UNL     1     -12.216  12.427  66.416  1.00  0.00    -0.604 OA 
HETATM   21  H   UNL     1     -12.920  12.918  66.011  1.00  0.00     0.000 HD 
ENDBRANCH  14  19
ENDBRANCH   8   9
BRANCH   8  22
HETATM   22  C   UNL     1      -9.730   9.465  69.497  1.00  0.00    -0.183 C  
HETATM   23  H   UNL     1     -10.428   7.673  69.620  1.00  0.00     0.000 HD 
HETATM   24  O   UNL     1      -9.622   8.068  69.310  1.00  0.00    -0.156 OA 
ENDBRANCH   8  22
ENDBRANCH   6   8
ENDBRANCH   4   6
ENDBRANCH   3   4
TORSDOF 7
ENDMDL
MODEL      269
REMARK 921   NORMALIZED FREE ENERGY PREDICTED BY IDOCK:   -2.34 KCAL/MOL
REMARK 922        TOTAL FREE ENERGY PREDICTED BY IDOCK:   -4.83 KCAL/MOL
REMARK 923 INTER-LIGAND FREE ENERGY PREDICTED BY IDOCK:   -3.62 KCAL/MOL
REMARK 924 INTRA-LIGAND FREE ENERGY PREDICTED BY IDOCK:   -1.20 KCAL/MOL
REMARK 927      BINDING AFFINITY PREDICTED BY RF-SCORE:    0.00 PKD
ROOT
HETATM    1  O   UNL     1     -12.497  11.459  69.836  1.00  0.00    -0.221 OA 
HETATM    2  H   UNL     1     -12.630  11.709  70.742  1.00  0.00     0.000 HD 
HETATM    3  C   UNL     1     -11.838  12.543  69.224  1.00  0.00    -0.304 C  
ENDROOT
BRANCH   3   4
HETATM    4  N   UNL     1     -11.638  12.170  67.867  1.00  0.00    -0.333 N  
HETATM    5  H   UNL     1     -12.439  11.919  67.286  1.00  0.00     0.000 HD 
BRANCH   4   6
HETATM    6  C   UNL     1     -10.382  12.145  67.339  1.00  0.00    -0.205 C  
HETATM    7  O   UNL     1      -9.536  12.981  67.649  1.00  0.00    -0.195 OA 
BRANCH   6   8
HETATM    8  N   UNL     1     -10.097  11.093  66.492  1.00  0.00    -0.216 N  
BRANCH   8   9
HETATM    9  C   UNL     1      -9.269  10.024  67.011  1.00  0.00    -0.146 C  
HETATM   10  O   UNL     1     -10.792   9.344  68.849  1.00  0.00    -0.204 OA 
HETATM   11  N   UNL     1      -7.900  10.383  67.302  1.00  0.00    -0.106 N  
HETATM   12  C   UNL     1      -9.658   9.465  68.398  1.00  0.00    -0.146 C  
HETATM   13  O   UNL     1      -6.271   9.595  68.750  1.00  0.00    -0.043 OA 
HETATM   14  N   UNL     1      -8.506   9.087  69.024  1.00  0.00    -0.130 N  
HETATM   15  C   UNL     1      -7.438   9.659  68.394  1.00  0.00    -0.080 C  
BRANCH  11  16
HETATM   16  C   UNL     1      -6.991  10.950  66.350  1.00  0.00    -0.134 C  
HETATM   17  H   UNL     1      -5.819  12.497  66.267  1.00  0.00     0.000 HD 
HETATM   18  O   UNL     1      -6.422  12.121  66.899  1.00  0.00    -0.125 OA 
ENDBRANCH  11  16
BRANCH  14  19
HETATM   19  C   UNL     1      -8.413   8.582  70.360  1.00  0.00    -0.137 C  
HETATM   20  O   UNL     1      -8.999   9.499  71.265  1.00  0.00    -0.314 OA 
HETATM   21  H   UNL     1      -8.937   9.163  72.151  1.00  0.00     0.000 HD 
ENDBRANCH  14  19
ENDBRANCH   8   9
BRANCH   8  22
HETATM   22  C   UNL     1     -10.363  11.104  65.073  1.00  0.00    -0.301 C  
HETATM   23  H   UNL     1     -11.201  12.324  63.837  1.00  0.00     0.000 HD 
HETATM   24  O   UNL     1     -11.026  12.317  64.771  1.00  0.00    -0.284 OA 
ENDBRANCH   8  22
ENDBRANCH   6   8
ENDBRANCH   4   6
ENDBRANCH   3   4
TORSDOF 7
ENDMDL
MODEL      270
REMARK 921   NORMALIZED FREE ENERGY PREDICTED BY IDOCK:   -2.34 KCAL/MOL
REMARK 922        TOTAL FREE ENERGY PREDICTED BY IDOCK:   -4.83 KCAL/MOL
REMARK 923 INTER-LIGAND FREE ENERGY PREDICTED BY IDOCK:   -4.75 KCAL/MOL
REMARK 924 INTRA-LIGAND FREE ENERGY PREDICTED BY IDOCK:   -0.08 KCAL/MOL
REMARK 927      BINDING AFFINITY PREDICTED BY RF-SCORE:    0.00 PKD
ROOT
HETATM    1  O   UNL     1      -6.846  10.822  70.714  1.00  0.00    -0.443 OA 
HETATM    2  H   UNL     1      -7.138  10.225  71.392  1.00  0.00     0.000 HD 
HETATM    3  C   UNL     1      -7.105  10.179  69.488  1.00  0.00    -0.101 C  
ENDROOT
BRANCH   3   4
HETATM    4  N   UNL     1      -6.668  11.073  68.472  1.00  0.00    -0.059 N  
HETATM    5  H   UNL     1      -5.770  11.547  68.565  1.00  0.00     0.000 HD 
BRANCH   4   6
HETATM    6  C   UNL     1      -7.446  11.299  67.376  1.00  0.00    -0.116 C  
HETATM    7  O   UNL     1      -7.573  12.424  66.897  1.00  0.00    -0.086 OA 
BRANCH   6   8
HETATM    8  N   UNL     1      -8.026  10.187  66.800  1.00  0.00    -0.114 N  
BRANCH   8   9
HETATM    9  C   UNL     1      -9.426  10.277  66.439  1.00  0.00    -0.174 C  
HETATM   10  O   UNL     1      -9.074  10.738  64.026  1.00  0.00    -0.199 OA 
HETATM   11  N   UNL     1     -10.218  11.181  67.241  1.00  0.00    -0.188 N  
HETATM   12  C   UNL     1      -9.741  10.870  65.047  1.00  0.00    -0.267 C  
HETATM   13  O   UNL     1     -12.153  12.409  66.897  1.00  0.00    -0.564 OA 
HETATM   14  N   UNL     1     -10.925  11.539  65.147  1.00  0.00    -0.267 N  
HETATM   15  C   UNL     1     -11.212  11.763  66.462  1.00  0.00    -0.321 C  
BRANCH  11  16
HETATM   16  C   UNL     1     -10.342  11.104  68.666  1.00  0.00    -0.203 C  
HETATM   17  H   UNL     1     -10.768   9.730  69.972  1.00  0.00     0.000 HD 
HETATM   18  O   UNL     1     -10.685   9.782  69.026  1.00  0.00    -0.212 OA 
ENDBRANCH  11  16
BRANCH  14  19
HETATM   19  C   UNL     1     -11.544  12.295  64.100  1.00  0.00    -0.388 C  
HETATM   20  O   UNL     1     -11.849  11.447  63.009  1.00  0.00    -0.903 OA 
HETATM   21  H   UNL     1     -12.259  11.949  62.314  1.00  0.00     0.000 HD 
ENDBRANCH  14  19
ENDBRANCH   8   9
BRANCH   8  22
HETATM   22  C   UNL     1      -7.406   8.884  66.756  1.00  0.00    -0.082 C  
HETATM   23  H   UNL     1      -5.696   8.189  66.200  1.00  0.00     0.000 HD 
HETATM   24  O   UNL     1      -6.104   9.047  66.229  1.00  0.00    -0.060 OA 
ENDBRANCH   8  22
ENDBRANCH   6   8
ENDBRANCH   4   6
ENDBRANCH   3   4
TORSDOF 7
ENDMDL
MODEL      271
REMARK 921   NORMALIZED FREE ENERGY PREDICTED BY IDOCK:   -2.33 KCAL/MOL
REMARK 922        TOTAL FREE ENERGY PREDICTED BY IDOCK:   -4.82 KCAL/MOL
REMARK 923 INTER-LIGAND FREE ENERGY PREDICTED BY IDOCK:   -3.38 KCAL/MOL
REMARK 924 INTRA-LIGAND FREE ENERGY PREDICTED BY IDOCK:   -1.44 KCAL/MOL
REMARK 927      BINDING AFFINITY PREDICTED BY RF-SCORE:    0.00 PKD
ROOT
HETATM    1  O   UNL     1     -10.699  11.596  69.705  1.00  0.00    -0.450 OA 
HETATM    2  H   UNL     1     -11.070  12.461  69.578  1.00  0.00     0.000 HD 
HETATM    3  C   UNL     1     -11.744  10.683  69.463  1.00  0.00    -0.284 C  
ENDROOT
BRANCH   3   4
HETATM    4  N   UNL     1     -11.190   9.388  69.652  1.00  0.00    -0.416 N  
HETATM    5  H   UNL     1     -11.093   8.756  68.857  1.00  0.00     0.000 HD 
BRANCH   4   6
HETATM    6  C   UNL     1     -10.787   8.988  70.891  1.00  0.00    -0.258 C  
HETATM    7  O   UNL     1     -11.444   9.246  71.897  1.00  0.00    -0.372 OA 
BRANCH   6   8
HETATM    8  N   UNL     1      -9.637   8.225  70.942  1.00  0.00    -0.162 N  
BRANCH   8   9
HETATM    9  C   UNL     1      -9.791   6.802  71.166  1.00  0.00    -0.177 C  
HETATM   10  O   UNL     1      -9.646   6.881  73.642  1.00  0.00    -0.169 OA 
HETATM   11  N   UNL     1      -8.895   5.954  70.415  1.00  0.00    -0.142 N  
HETATM   12  C   UNL     1      -9.457   6.289  72.584  1.00  0.00    -0.148 C  
HETATM   13  O   UNL     1      -8.004   3.836  70.718  1.00  0.00    -0.053 OA 
HETATM   14  N   UNL     1      -8.947   5.031  72.454  1.00  0.00    -0.130 N  
HETATM   15  C   UNL     1      -8.574   4.824  71.157  1.00  0.00    -0.113 C  
BRANCH  11  16
HETATM   16  C   UNL     1      -8.778   5.960  68.986  1.00  0.00    -0.114 C  
HETATM   17  H   UNL     1      -7.416   6.434  67.686  1.00  0.00     0.000 HD 
HETATM   18  O   UNL     1      -7.494   6.430  68.633  1.00  0.00    -0.084 OA 
ENDBRANCH  11  16
BRANCH  14  19
HETATM   19  C   UNL     1      -8.444   4.223  73.523  1.00  0.00    -0.093 C  
HETATM   20  O   UNL     1      -7.716   5.025  74.433  1.00  0.00    -0.089 OA 
HETATM   21  H   UNL     1      -7.383   4.489  75.143  1.00  0.00     0.000 HD 
ENDBRANCH  14  19
ENDBRANCH   8   9
BRANCH   8  22
HETATM   22  C   UNL     1      -8.305   8.776  71.027  1.00  0.00    -0.171 C  
HETATM   23  H   UNL     1      -7.511  10.511  70.754  1.00  0.00     0.000 HD 
HETATM   24  O   UNL     1      -8.388  10.149  70.698  1.00  0.00     0.047 OA 
ENDBRANCH   8  22
ENDBRANCH   6   8
ENDBRANCH   4   6
ENDBRANCH   3   4
TORSDOF 7
ENDMDL
MODEL      272
REMARK 921   NORMALIZED FREE ENERGY PREDICTED BY IDOCK:   -2.33 KCAL/MOL
REMARK 922        TOTAL FREE ENERGY PREDICTED BY IDOCK:   -4.82 KCAL/MOL
REMARK 923 INTER-LIGAND FREE ENERGY PREDICTED BY IDOCK:   -4.03 KCAL/MOL
REMARK 924 INTRA-LIGAND FREE ENERGY PREDICTED BY IDOCK:   -0.79 KCAL/MOL
REMARK 927      BINDING AFFINITY PREDICTED BY RF-SCORE:    0.00 PKD
ROOT
HETATM    1  O   UNL     1     -13.523   9.661  71.478  1.00  0.00    -0.374 OA 
HETATM    2  H   UNL     1     -13.765   9.980  72.339  1.00  0.00     0.000 HD 
HETATM    3  C   UNL     1     -12.528  10.537  71.001  1.00  0.00    -0.400 C  
ENDROOT
BRANCH   3   4
HETATM    4  N   UNL     1     -12.167  10.059  69.711  1.00  0.00    -0.478 N  
HETATM    5  H   UNL     1     -12.421   9.112  69.431  1.00  0.00     0.000 HD 
BRANCH   4   6
HETATM    6  C   UNL     1     -11.484  10.863  68.849  1.00  0.00    -0.300 C  
HETATM    7  O   UNL     1     -11.528  12.088  68.936  1.00  0.00    -0.250 OA 
BRANCH   6   8
HETATM    8  N   UNL     1     -10.690  10.223  67.917  1.00  0.00    -0.244 N  
BRANCH   8   9
HETATM    9  C   UNL     1      -9.437   9.662  68.382  1.00  0.00    -0.137 C  
HETATM   10  O   UNL     1     -10.422   7.813  69.712  1.00  0.00    -0.223 OA 
HETATM   11  N   UNL     1      -8.531  10.599  69.005  1.00  0.00    -0.151 N  
HETATM   12  C   UNL     1      -9.529   8.633  69.530  1.00  0.00    -0.162 C  
HETATM   13  O   UNL     1      -6.834  10.439  70.575  1.00  0.00    -0.289 OA 
HETATM   14  N   UNL     1      -8.406   8.772  70.292  1.00  0.00    -0.124 N  
HETATM   15  C   UNL     1      -7.809   9.967  70.010  1.00  0.00    -0.180 C  
BRANCH  11  16
HETATM   16  C   UNL     1      -8.042  11.793  68.380  1.00  0.00    -0.150 C  
HETATM   17  H   UNL     1      -7.167  12.252  66.709  1.00  0.00     0.000 HD 
HETATM   18  O   UNL     1      -7.491  11.461  67.123  1.00  0.00    -0.122 OA 
ENDBRANCH  11  16
BRANCH  14  19
HETATM   19  C   UNL     1      -8.127   8.054  71.500  1.00  0.00    -0.110 C  
HETATM   20  O   UNL     1      -6.770   7.653  71.520  1.00  0.00    -0.045 OA 
HETATM   21  H   UNL     1      -6.585   7.177  72.320  1.00  0.00     0.000 HD 
ENDBRANCH  14  19
ENDBRANCH   8   9
BRANCH   8  22
HETATM   22  C   UNL     1     -10.908  10.285  66.491  1.00  0.00     0.004 C  
HETATM   23  H   UNL     1     -10.202   9.371  64.948  1.00  0.00     0.000 HD 
HETATM   24  O   UNL     1     -10.059   9.330  65.886  1.00  0.00    -0.293 OA 
ENDBRANCH   8  22
ENDBRANCH   6   8
ENDBRANCH   4   6
ENDBRANCH   3   4
TORSDOF 7
ENDMDL
MODEL      273
REMARK 921   NORMALIZED FREE ENERGY PREDICTED BY IDOCK:   -2.31 KCAL/MOL
REMARK 922        TOTAL FREE ENERGY PREDICTED BY IDOCK:   -4.79 KCAL/MOL
REMARK 923 INTER-LIGAND FREE ENERGY PREDICTED BY IDOCK:   -4.24 KCAL/MOL
REMARK 924 INTRA-LIGAND FREE ENERGY PREDICTED BY IDOCK:   -0.55 KCAL/MOL
REMARK 927      BINDING AFFINITY PREDICTED BY RF-SCORE:    0.00 PKD
ROOT
HETATM    1  O   UNL     1      -9.527  12.270  63.323  1.00  0.00    -0.657 OA 
HETATM    2  H   UNL     1     -10.002  12.040  62.533  1.00  0.00     0.000 HD 
HETATM    3  C   UNL     1     -10.500  12.464  64.322  1.00  0.00    -0.363 C  
ENDROOT
BRANCH   3   4
HETATM    4  N   UNL     1      -9.790  12.808  65.505  1.00  0.00    -0.419 N  
HETATM    5  H   UNL     1      -9.639  13.790  65.739  1.00  0.00     0.000 HD 
BRANCH   4   6
HETATM    6  C   UNL     1      -9.309  11.832  66.325  1.00  0.00    -0.225 C  
HETATM    7  O   UNL     1      -8.447  11.041  65.949  1.00  0.00    -0.167 OA 
BRANCH   6   8
HETATM    8  N   UNL     1      -9.797  11.826  67.617  1.00  0.00    -0.182 N  
BRANCH   8   9
HETATM    9  C   UNL     1      -9.129  10.971  68.577  1.00  0.00    -0.173 C  
HETATM   10  O   UNL     1      -6.979  12.209  68.623  1.00  0.00    -0.085 OA 
HETATM   11  N   UNL     1      -9.145   9.559  68.268  1.00  0.00    -0.127 N  
HETATM   12  C   UNL     1      -7.602  11.157  68.719  1.00  0.00    -0.129 C  
HETATM   13  O   UNL     1      -7.785   7.755  68.782  1.00  0.00    -0.108 OA 
HETATM   14  N   UNL     1      -7.068   9.937  69.013  1.00  0.00    -0.065 N  
HETATM   15  C   UNL     1      -7.974   8.960  68.717  1.00  0.00    -0.102 C  
BRANCH  11  16
HETATM   16  C   UNL     1     -10.335   8.790  68.048  1.00  0.00    -0.220 C  
HETATM   17  H   UNL     1     -11.112   7.787  66.579  1.00  0.00     0.000 HD 
HETATM   18  O   UNL     1     -10.324   8.296  66.725  1.00  0.00    -0.310 OA 
ENDBRANCH  11  16
BRANCH  14  19
HETATM   19  C   UNL     1      -5.672   9.653  69.157  1.00  0.00    -0.035 C  
HETATM   20  O   UNL     1      -5.471   8.751  70.228  1.00  0.00    -0.024 OA 
HETATM   21  H   UNL     1      -4.545   8.562  70.323  1.00  0.00     0.000 HD 
ENDBRANCH  14  19
ENDBRANCH   8   9
BRANCH   8  22
HETATM   22  C   UNL     1     -11.053  12.419  68.008  1.00  0.00    -0.245 C  
HETATM   23  H   UNL     1     -12.915  12.055  67.667  1.00  0.00     0.000 HD 
HETATM   24  O   UNL     1     -12.088  11.664  67.410  1.00  0.00    -0.605 OA 
ENDBRANCH   8  22
ENDBRANCH   6   8
ENDBRANCH   4   6
ENDBRANCH   3   4
TORSDOF 7
ENDMDL
MODEL      274
REMARK 921   NORMALIZED FREE ENERGY PREDICTED BY IDOCK:   -2.30 KCAL/MOL
REMARK 922        TOTAL FREE ENERGY PREDICTED BY IDOCK:   -4.77 KCAL/MOL
REMARK 923 INTER-LIGAND FREE ENERGY PREDICTED BY IDOCK:   -5.01 KCAL/MOL
REMARK 924 INTRA-LIGAND FREE ENERGY PREDICTED BY IDOCK:    0.24 KCAL/MOL
REMARK 927      BINDING AFFINITY PREDICTED BY RF-SCORE:    0.00 PKD
ROOT
HETATM    1  O   UNL     1      -6.867  10.944  70.695  1.00  0.00    -0.472 OA 
HETATM    2  H   UNL     1      -6.515  10.063  70.722  1.00  0.00     0.000 HD 
HETATM    3  C   UNL     1      -6.424  11.507  69.483  1.00  0.00    -0.124 C  
ENDROOT
BRANCH   3   4
HETATM    4  N   UNL     1      -6.951  12.827  69.444  1.00  0.00    -0.317 N  
HETATM    5  H   UNL     1      -6.690  13.500  70.165  1.00  0.00     0.000 HD 
BRANCH   4   6
HETATM    6  C   UNL     1      -7.803  13.197  68.447  1.00  0.00    -0.135 C  
HETATM    7  O   UNL     1      -8.528  14.183  68.550  1.00  0.00    -0.162 OA 
BRANCH   6   8
HETATM    8  N   UNL     1      -7.757  12.439  67.293  1.00  0.00    -0.166 N  
BRANCH   8   9
HETATM    9  C   UNL     1      -9.012  11.924  66.783  1.00  0.00    -0.196 C  
HETATM   10  O   UNL     1      -9.565  13.875  65.351  1.00  0.00    -0.108 OA 
HETATM   11  N   UNL     1      -9.951  11.472  67.784  1.00  0.00    -0.180 N  
HETATM   12  C   UNL     1      -9.924  12.936  66.054  1.00  0.00    -0.272 C  
HETATM   13  O   UNL     1     -12.256  11.264  67.892  1.00  0.00    -0.570 OA 
HETATM   14  N   UNL     1     -11.215  12.571  66.299  1.00  0.00    -0.299 N  
HETATM   15  C   UNL     1     -11.252  11.713  67.360  1.00  0.00    -0.298 C  
BRANCH  11  16
HETATM   16  C   UNL     1      -9.665  10.473  68.771  1.00  0.00    -0.184 C  
HETATM   17  H   UNL     1      -8.885   8.695  68.792  1.00  0.00     0.000 HD 
HETATM   18  O   UNL     1      -9.074   9.358  68.138  1.00  0.00    -0.128 OA 
ENDBRANCH  11  16
BRANCH  14  19
HETATM   19  C   UNL     1     -12.378  13.285  65.865  1.00  0.00    -0.418 C  
HETATM   20  O   UNL     1     -13.089  12.517  64.914  1.00  0.00    -0.833 OA 
HETATM   21  H   UNL     1     -13.860  12.990  64.626  1.00  0.00     0.000 HD 
ENDBRANCH  14  19
ENDBRANCH   8   9
BRANCH   8  22
HETATM   22  C   UNL     1      -6.538  11.933  66.707  1.00  0.00    -0.019 C  
HETATM   23  H   UNL     1      -6.067  10.443  65.578  1.00  0.00     0.000 HD 
HETATM   24  O   UNL     1      -6.869  10.776  65.963  1.00  0.00    -0.131 OA 
ENDBRANCH   8  22
ENDBRANCH   6   8
ENDBRANCH   4   6
ENDBRANCH   3   4
TORSDOF 7
ENDMDL
MODEL      275
REMARK 921   NORMALIZED FREE ENERGY PREDICTED BY IDOCK:   -2.27 KCAL/MOL
REMARK 922        TOTAL FREE ENERGY PREDICTED BY IDOCK:   -4.73 KCAL/MOL
REMARK 923 INTER-LIGAND FREE ENERGY PREDICTED BY IDOCK:   -3.45 KCAL/MOL
REMARK 924 INTRA-LIGAND FREE ENERGY PREDICTED BY IDOCK:   -1.28 KCAL/MOL
REMARK 927      BINDING AFFINITY PREDICTED BY RF-SCORE:    0.00 PKD
ROOT
HETATM    1  O   UNL     1      -9.763   9.503  64.780  1.00  0.00    -0.441 OA 
HETATM    2  H   UNL     1      -9.651   9.652  63.849  1.00  0.00     0.000 HD 
HETATM    3  C   UNL     1     -10.217  10.721  65.321  1.00  0.00    -0.285 C  
ENDROOT
BRANCH   3   4
HETATM    4  N   UNL     1     -10.385  10.497  66.715  1.00  0.00    -0.237 N  
HETATM    5  H   UNL     1     -11.286  10.685  67.155  1.00  0.00     0.000 HD 
BRANCH   4   6
HETATM    6  C   UNL     1      -9.347  10.033  67.465  1.00  0.00    -0.144 C  
HETATM    7  O   UNL     1      -8.275  10.631  67.523  1.00  0.00    -0.111 OA 
BRANCH   6   8
HETATM    8  N   UNL     1      -9.590   8.892  68.204  1.00  0.00    -0.143 N  
BRANCH   8   9
HETATM    9  C   UNL     1      -8.931   7.672  67.783  1.00  0.00    -0.131 C  
HETATM   10  O   UNL     1     -10.937   6.576  66.816  1.00  0.00    -0.354 OA 
HETATM   11  N   UNL     1      -8.159   6.999  68.802  1.00  0.00    -0.120 N  
HETATM   12  C   UNL     1      -9.850   6.498  67.379  1.00  0.00    -0.133 C  
HETATM   13  O   UNL     1      -7.502   4.810  69.181  1.00  0.00    -0.056 OA 
HETATM   14  N   UNL     1      -9.212   5.343  67.726  1.00  0.00    -0.108 N  
HETATM   15  C   UNL     1      -8.210   5.624  68.609  1.00  0.00    -0.103 C  
BRANCH  11  16
HETATM   16  C   UNL     1      -7.093   7.605  69.545  1.00  0.00    -0.064 C  
HETATM   17  H   UNL     1      -6.857   8.345  71.325  1.00  0.00     0.000 HD 
HETATM   18  O   UNL     1      -7.564   7.943  70.832  1.00  0.00    -0.074 OA 
ENDBRANCH  11  16
BRANCH  14  19
HETATM   19  C   UNL     1      -9.750   4.023  67.589  1.00  0.00    -0.109 C  
HETATM   20  O   UNL     1     -10.105   3.784  66.240  1.00  0.00    -0.417 OA 
HETATM   21  H   UNL     1     -10.461   2.908  66.150  1.00  0.00     0.000 HD 
ENDBRANCH  14  19
ENDBRANCH   8   9
BRANCH   8  22
HETATM   22  C   UNL     1     -10.628   8.782  69.202  1.00  0.00    -0.184 C  
HETATM   23  H   UNL     1     -11.527  10.000  70.396  1.00  0.00     0.000 HD 
HETATM   24  O   UNL     1     -10.844  10.072  69.739  1.00  0.00    -0.236 OA 
ENDBRANCH   8  22
ENDBRANCH   6   8
ENDBRANCH   4   6
ENDBRANCH   3   4
TORSDOF 7
ENDMDL
MODEL      276
REMARK 921   NORMALIZED FREE ENERGY PREDICTED BY IDOCK:   -2.27 KCAL/MOL
REMARK 922        TOTAL FREE ENERGY PREDICTED BY IDOCK:   -4.72 KCAL/MOL
REMARK 923 INTER-LIGAND FREE ENERGY PREDICTED BY IDOCK:   -4.06 KCAL/MOL
REMARK 924 INTRA-LIGAND FREE ENERGY PREDICTED BY IDOCK:   -0.67 KCAL/MOL
REMARK 927      BINDING AFFINITY PREDICTED BY RF-SCORE:    0.00 PKD
ROOT
HETATM    1  O   UNL     1      -7.648   8.944  71.114  1.00  0.00    -0.109 OA 
HETATM    2  H   UNL     1      -6.962   8.784  71.750  1.00  0.00     0.000 HD 
HETATM    3  C   UNL     1      -7.175   9.975  70.278  1.00  0.00    -0.147 C  
ENDROOT
BRANCH   3   4
HETATM    4  N   UNL     1      -8.203  10.215  69.326  1.00  0.00    -0.143 N  
HETATM    5  H   UNL     1      -9.107   9.752  69.426  1.00  0.00     0.000 HD 
BRANCH   4   6
HETATM    6  C   UNL     1      -7.986  11.061  68.280  1.00  0.00    -0.124 C  
HETATM    7  O   UNL     1      -6.960  11.733  68.197  1.00  0.00    -0.068 OA 
BRANCH   6   8
HETATM    8  N   UNL     1      -8.950  11.069  67.291  1.00  0.00    -0.138 N  
BRANCH   8   9
HETATM    9  C   UNL     1     -10.150  11.841  67.537  1.00  0.00    -0.192 C  
HETATM   10  O   UNL     1      -9.164  14.070  67.066  1.00  0.00    -0.233 OA 
HETATM   11  N   UNL     1     -10.802  11.591  68.803  1.00  0.00    -0.205 N  
HETATM   12  C   UNL     1      -9.969  13.370  67.671  1.00  0.00    -0.229 C  
HETATM   13  O   UNL     1     -12.176  12.818  70.208  1.00  0.00    -0.334 OA 
HETATM   14  N   UNL     1     -10.902  13.815  68.562  1.00  0.00    -0.256 N  
HETATM   15  C   UNL     1     -11.391  12.758  69.274  1.00  0.00    -0.247 C  
BRANCH  11  16
HETATM   16  C   UNL     1     -11.250  10.303  69.243  1.00  0.00    -0.228 C  
HETATM   17  H   UNL     1     -11.020   9.194  70.821  1.00  0.00     0.000 HD 
HETATM   18  O   UNL     1     -10.722  10.048  70.528  1.00  0.00    -0.294 OA 
ENDBRANCH  11  16
BRANCH  14  19
HETATM   19  C   UNL     1     -11.032  15.163  69.025  1.00  0.00    -0.244 C  
HETATM   20  O   UNL     1     -12.399  15.523  69.085  1.00  0.00    -0.599 OA 
HETATM   21  H   UNL     1     -12.486  16.417  69.393  1.00  0.00     0.000 HD 
ENDBRANCH  14  19
ENDBRANCH   8   9
BRANCH   8  22
HETATM   22  C   UNL     1      -8.946  10.181  66.153  1.00  0.00    -0.150 C  
HETATM   23  H   UNL     1      -8.573   8.312  65.864  1.00  0.00     0.000 HD 
HETATM   24  O   UNL     1      -8.575   8.896  66.613  1.00  0.00    -0.119 OA 
ENDBRANCH   8  22
ENDBRANCH   6   8
ENDBRANCH   4   6
ENDBRANCH   3   4
TORSDOF 7
ENDMDL
MODEL      277
REMARK 921   NORMALIZED FREE ENERGY PREDICTED BY IDOCK:   -2.26 KCAL/MOL
REMARK 922        TOTAL FREE ENERGY PREDICTED BY IDOCK:   -4.71 KCAL/MOL
REMARK 923 INTER-LIGAND FREE ENERGY PREDICTED BY IDOCK:   -4.16 KCAL/MOL
REMARK 924 INTRA-LIGAND FREE ENERGY PREDICTED BY IDOCK:   -0.55 KCAL/MOL
REMARK 927      BINDING AFFINITY PREDICTED BY RF-SCORE:    0.00 PKD
ROOT
HETATM    1  O   UNL     1      -7.258   7.963  72.561  1.00  0.00    -0.078 OA 
HETATM    2  H   UNL     1      -7.009   7.542  73.375  1.00  0.00     0.000 HD 
HETATM    3  C   UNL     1      -8.612   8.325  72.705  1.00  0.00    -0.203 C  
ENDROOT
BRANCH   3   4
HETATM    4  N   UNL     1      -8.984   8.956  71.486  1.00  0.00    -0.231 N  
HETATM    5  H   UNL     1      -8.924   9.970  71.401  1.00  0.00     0.000 HD 
BRANCH   4   6
HETATM    6  C   UNL     1      -9.421   8.210  70.433  1.00  0.00    -0.163 C  
HETATM    7  O   UNL     1      -9.023   7.062  70.247  1.00  0.00    -0.147 OA 
BRANCH   6   8
HETATM    8  N   UNL     1     -10.381   8.793  69.629  1.00  0.00    -0.208 N  
BRANCH   8   9
HETATM    9  C   UNL     1     -10.427   8.381  68.241  1.00  0.00    -0.163 C  
HETATM   10  O   UNL     1     -11.530   6.190  68.625  1.00  0.00    -0.223 OA 
HETATM   11  N   UNL     1      -9.170   8.444  67.532  1.00  0.00    -0.139 N  
HETATM   12  C   UNL     1     -10.767   6.897  67.975  1.00  0.00    -0.218 C  
HETATM   13  O   UNL     1      -8.262   7.340  65.708  1.00  0.00    -0.121 OA 
HETATM   14  N   UNL     1     -10.090   6.519  66.853  1.00  0.00    -0.178 N  
HETATM   15  C   UNL     1      -9.103   7.424  66.590  1.00  0.00    -0.154 C  
BRANCH  11  16
HETATM   16  C   UNL     1      -8.369   9.625  67.405  1.00  0.00    -0.114 C  
HETATM   17  H   UNL     1      -8.664  11.483  66.922  1.00  0.00     0.000 HD 
HETATM   18  O   UNL     1      -9.195  10.699  67.007  1.00  0.00    -0.150 OA 
ENDBRANCH  11  16
BRANCH  14  19
HETATM   19  C   UNL     1     -10.071   5.199  66.299  1.00  0.00    -0.231 C  
HETATM   20  O   UNL     1     -11.271   4.957  65.588  1.00  0.00    -0.860 OA 
HETATM   21  H   UNL     1     -11.258   4.081  65.220  1.00  0.00     0.000 HD 
ENDBRANCH  14  19
ENDBRANCH   8   9
BRANCH   8  22
HETATM   22  C   UNL     1     -11.168   9.940  70.014  1.00  0.00    -0.276 C  
HETATM   23  H   UNL     1     -12.499  10.311  71.359  1.00  0.00     0.000 HD 
HETATM   24  O   UNL     1     -11.981   9.556  71.106  1.00  0.00    -0.304 OA 
ENDBRANCH   8  22
ENDBRANCH   6   8
ENDBRANCH   4   6
ENDBRANCH   3   4
TORSDOF 7
ENDMDL
MODEL      278
REMARK 921   NORMALIZED FREE ENERGY PREDICTED BY IDOCK:   -2.25 KCAL/MOL
REMARK 922        TOTAL FREE ENERGY PREDICTED BY IDOCK:   -4.70 KCAL/MOL
REMARK 923 INTER-LIGAND FREE ENERGY PREDICTED BY IDOCK:   -3.91 KCAL/MOL
REMARK 924 INTRA-LIGAND FREE ENERGY PREDICTED BY IDOCK:   -0.79 KCAL/MOL
REMARK 927      BINDING AFFINITY PREDICTED BY RF-SCORE:    0.00 PKD
ROOT
HETATM    1  O   UNL     1      -8.815   6.064  63.042  1.00  0.00    -0.332 OA 
HETATM    2  H   UNL     1      -8.340   5.871  62.242  1.00  0.00     0.000 HD 
HETATM    3  C   UNL     1      -7.907   6.733  63.885  1.00  0.00    -0.106 C  
ENDROOT
BRANCH   3   4
HETATM    4  N   UNL     1      -8.618   7.022  65.082  1.00  0.00    -0.345 N  
HETATM    5  H   UNL     1      -9.161   7.881  65.155  1.00  0.00     0.000 HD 
BRANCH   4   6
HETATM    6  C   UNL     1      -8.575   6.153  66.131  1.00  0.00    -0.141 C  
HETATM    7  O   UNL     1      -7.558   6.004  66.804  1.00  0.00    -0.092 OA 
BRANCH   6   8
HETATM    8  N   UNL     1      -9.756   5.503  66.434  1.00  0.00    -0.157 N  
BRANCH   8   9
HETATM    9  C   UNL     1     -10.501   5.975  67.583  1.00  0.00    -0.235 C  
HETATM   10  O   UNL     1     -10.708   8.336  66.845  1.00  0.00    -0.299 OA 
HETATM   11  N   UNL     1      -9.919   5.668  68.870  1.00  0.00    -0.152 N  
HETATM   12  C   UNL     1     -10.618   7.507  67.745  1.00  0.00    -0.206 C  
HETATM   13  O   UNL     1     -10.012   6.622  70.979  1.00  0.00    -0.183 OA 
HETATM   14  N   UNL     1     -10.643   7.775  69.082  1.00  0.00    -0.212 N  
HETATM   15  C   UNL     1     -10.195   6.687  69.773  1.00  0.00    -0.187 C  
BRANCH  11  16
HETATM   16  C   UNL     1      -9.597   4.345  69.319  1.00  0.00    -0.191 C  
HETATM   17  H   UNL     1      -7.997   3.254  69.457  1.00  0.00     0.000 HD 
HETATM   18  O   UNL     1      -8.211   4.131  69.160  1.00  0.00    -0.069 OA 
ENDBRANCH  11  16
BRANCH  14  19
HETATM   19  C   UNL     1     -10.674   9.082  69.668  1.00  0.00    -0.219 C  
HETATM   20  O   UNL     1     -11.981   9.616  69.587  1.00  0.00    -0.439 OA 
HETATM   21  H   UNL     1     -12.002  10.482  69.976  1.00  0.00     0.000 HD 
ENDBRANCH  14  19
ENDBRANCH   8   9
BRANCH   8  22
HETATM   22  C   UNL     1     -10.166   4.254  65.837  1.00  0.00    -0.173 C  
HETATM   23  H   UNL     1     -11.428   3.725  64.478  1.00  0.00     0.000 HD 
HETATM   24  O   UNL     1     -11.157   4.547  64.871  1.00  0.00    -0.172 OA 
ENDBRANCH   8  22
ENDBRANCH   6   8
ENDBRANCH   4   6
ENDBRANCH   3   4
TORSDOF 7
ENDMDL
MODEL      279
REMARK 921   NORMALIZED FREE ENERGY PREDICTED BY IDOCK:   -2.24 KCAL/MOL
REMARK 922        TOTAL FREE ENERGY PREDICTED BY IDOCK:   -4.69 KCAL/MOL
REMARK 923 INTER-LIGAND FREE ENERGY PREDICTED BY IDOCK:   -3.89 KCAL/MOL
REMARK 924 INTRA-LIGAND FREE ENERGY PREDICTED BY IDOCK:   -0.80 KCAL/MOL
REMARK 927      BINDING AFFINITY PREDICTED BY RF-SCORE:    0.00 PKD
ROOT
HETATM    1  O   UNL     1     -11.151  12.508  66.053  1.00  0.00    -0.274 OA 
HETATM    2  H   UNL     1     -11.174  12.829  65.159  1.00  0.00     0.000 HD 
HETATM    3  C   UNL     1     -10.722  11.169  65.978  1.00  0.00    -0.211 C  
ENDROOT
BRANCH   3   4
HETATM    4  N   UNL     1     -10.688  10.689  67.316  1.00  0.00    -0.270 N  
HETATM    5  H   UNL     1     -11.110  11.239  68.064  1.00  0.00     0.000 HD 
BRANCH   4   6
HETATM    6  C   UNL     1     -10.092   9.498  67.603  1.00  0.00    -0.205 C  
HETATM    7  O   UNL     1     -10.237   8.514  66.881  1.00  0.00    -0.261 OA 
BRANCH   6   8
HETATM    8  N   UNL     1      -9.267   9.479  68.710  1.00  0.00    -0.138 N  
BRANCH   8   9
HETATM    9  C   UNL     1      -9.588   8.540  69.765  1.00  0.00    -0.170 C  
HETATM   10  O   UNL     1      -8.250   6.645  68.883  1.00  0.00    -0.117 OA 
HETATM   11  N   UNL     1     -10.997   8.366  70.035  1.00  0.00    -0.228 N  
HETATM   12  C   UNL     1      -9.222   7.061  69.504  1.00  0.00    -0.149 C  
HETATM   13  O   UNL     1     -12.300   6.662  70.911  1.00  0.00    -0.353 OA 
HETATM   14  N   UNL     1     -10.159   6.292  70.128  1.00  0.00    -0.175 N  
HETATM   15  C   UNL     1     -11.250   7.057  70.427  1.00  0.00    -0.299 C  
BRANCH  11  16
HETATM   16  C   UNL     1     -11.893   9.430  70.381  1.00  0.00    -0.090 C  
HETATM   17  H   UNL     1     -12.216  10.554  71.931  1.00  0.00     0.000 HD 
HETATM   18  O   UNL     1     -11.622   9.849  71.702  1.00  0.00    -0.360 OA 
ENDBRANCH  11  16
BRANCH  14  19
HETATM   19  C   UNL     1     -10.231   4.863  70.078  1.00  0.00    -0.243 C  
HETATM   20  O   UNL     1      -9.042   4.302  70.602  1.00  0.00    -0.098 OA 
HETATM   21  H   UNL     1      -9.089   3.354  70.568  1.00  0.00     0.000 HD 
ENDBRANCH  14  19
ENDBRANCH   8   9
BRANCH   8  22
HETATM   22  C   UNL     1      -8.267  10.483  68.989  1.00  0.00    -0.145 C  
HETATM   23  H   UNL     1      -7.036  11.531  67.939  1.00  0.00     0.000 HD 
HETATM   24  O   UNL     1      -7.694  10.871  67.756  1.00  0.00    -0.104 OA 
ENDBRANCH   8  22
ENDBRANCH   6   8
ENDBRANCH   4   6
ENDBRANCH   3   4
TORSDOF 7
ENDMDL
MODEL      280
REMARK 921   NORMALIZED FREE ENERGY PREDICTED BY IDOCK:   -2.23 KCAL/MOL
REMARK 922        TOTAL FREE ENERGY PREDICTED BY IDOCK:   -4.67 KCAL/MOL
REMARK 923 INTER-LIGAND FREE ENERGY PREDICTED BY IDOCK:   -3.87 KCAL/MOL
REMARK 924 INTRA-LIGAND FREE ENERGY PREDICTED BY IDOCK:   -0.79 KCAL/MOL
REMARK 927      BINDING AFFINITY PREDICTED BY RF-SCORE:    0.00 PKD
ROOT
HETATM    1  O   UNL     1     -13.634   7.911  71.062  1.00  0.00    -0.564 OA 
HETATM    2  H   UNL     1     -14.341   7.475  71.522  1.00  0.00     0.000 HD 
HETATM    3  C   UNL     1     -12.455   7.588  71.761  1.00  0.00    -0.330 C  
ENDROOT
BRANCH   3   4
HETATM    4  N   UNL     1     -11.396   8.241  71.072  1.00  0.00    -0.265 N  
HETATM    5  H   UNL     1     -11.607   8.903  70.326  1.00  0.00     0.000 HD 
BRANCH   4   6
HETATM    6  C   UNL     1     -10.100   7.984  71.405  1.00  0.00    -0.185 C  
HETATM    7  O   UNL     1      -9.512   8.639  72.262  1.00  0.00    -0.283 OA 
BRANCH   6   8
HETATM    8  N   UNL     1      -9.509   6.907  70.772  1.00  0.00    -0.165 N  
BRANCH   8   9
HETATM    9  C   UNL     1      -9.358   6.981  69.334  1.00  0.00    -0.146 C  
HETATM   10  O   UNL     1     -11.648   6.218  68.760  1.00  0.00    -0.167 OA 
HETATM   11  N   UNL     1      -8.209   6.292  68.793  1.00  0.00    -0.118 N  
HETATM   12  C   UNL     1     -10.454   6.294  68.490  1.00  0.00    -0.229 C  
HETATM   13  O   UNL     1      -7.688   5.326  66.752  1.00  0.00    -0.094 OA 
HETATM   14  N   UNL     1      -9.860   5.817  67.359  1.00  0.00    -0.129 N  
HETATM   15  C   UNL     1      -8.508   5.779  67.537  1.00  0.00    -0.103 C  
BRANCH  11  16
HETATM   16  C   UNL     1      -6.854   6.539  69.191  1.00  0.00    -0.065 C  
HETATM   17  H   UNL     1      -5.305   5.466  69.661  1.00  0.00     0.000 HD 
HETATM   18  O   UNL     1      -6.203   5.303  69.397  1.00  0.00    -0.026 OA 
ENDBRANCH  11  16
BRANCH  14  19
HETATM   19  C   UNL     1     -10.510   5.050  66.339  1.00  0.00    -0.300 C  
HETATM   20  O   UNL     1      -9.882   3.788  66.211  1.00  0.00    -0.360 OA 
HETATM   21  H   UNL     1     -10.313   3.279  65.535  1.00  0.00     0.000 HD 
ENDBRANCH  14  19
ENDBRANCH   8   9
BRANCH   8  22
HETATM   22  C   UNL     1      -9.258   5.635  71.408  1.00  0.00    -0.146 C  
HETATM   23  H   UNL     1     -10.194   4.515  72.667  1.00  0.00     0.000 HD 
HETATM   24  O   UNL     1     -10.359   5.352  72.249  1.00  0.00    -0.195 OA 
ENDBRANCH   8  22
ENDBRANCH   6   8
ENDBRANCH   4   6
ENDBRANCH   3   4
TORSDOF 7
ENDMDL
MODEL      281
REMARK 921   NORMALIZED FREE ENERGY PREDICTED BY IDOCK:   -2.22 KCAL/MOL
REMARK 922        TOTAL FREE ENERGY PREDICTED BY IDOCK:   -4.66 KCAL/MOL
REMARK 923 INTER-LIGAND FREE ENERGY PREDICTED BY IDOCK:   -3.53 KCAL/MOL
REMARK 924 INTRA-LIGAND FREE ENERGY PREDICTED BY IDOCK:   -1.13 KCAL/MOL
REMARK 927      BINDING AFFINITY PREDICTED BY RF-SCORE:    0.00 PKD
ROOT
HETATM    1  O   UNL     1      -8.903   5.214  67.987  1.00  0.00    -0.103 OA 
HETATM    2  H   UNL     1      -8.488   4.858  67.211  1.00  0.00     0.000 HD 
HETATM    3  C   UNL     1     -10.285   5.235  67.716  1.00  0.00    -0.156 C  
ENDROOT
BRANCH   3   4
HETATM    4  N   UNL     1     -10.908   5.768  68.879  1.00  0.00    -0.270 N  
HETATM    5  H   UNL     1     -11.461   5.160  69.482  1.00  0.00     0.000 HD 
BRANCH   4   6
HETATM    6  C   UNL     1     -10.767   7.087  69.188  1.00  0.00    -0.218 C  
HETATM    7  O   UNL     1     -10.491   7.925  68.333  1.00  0.00    -0.205 OA 
BRANCH   6   8
HETATM    8  N   UNL     1     -11.017   7.436  70.501  1.00  0.00    -0.248 N  
BRANCH   8   9
HETATM    9  C   UNL     1      -9.891   7.877  71.299  1.00  0.00    -0.168 C  
HETATM   10  O   UNL     1      -9.546  10.045  70.140  1.00  0.00    -0.225 OA 
HETATM   11  N   UNL     1      -8.801   6.935  71.411  1.00  0.00    -0.134 N  
HETATM   12  C   UNL     1      -9.095   9.085  70.756  1.00  0.00    -0.245 C  
HETATM   13  O   UNL     1      -6.521   7.105  71.790  1.00  0.00    -0.047 OA 
HETATM   14  N   UNL     1      -7.792   8.913  71.121  1.00  0.00    -0.141 N  
HETATM   15  C   UNL     1      -7.591   7.614  71.489  1.00  0.00    -0.081 C  
BRANCH  11  16
HETATM   16  C   UNL     1      -8.934   5.596  71.904  1.00  0.00    -0.139 C  
HETATM   17  H   UNL     1      -8.756   3.803  71.180  1.00  0.00     0.000 HD 
HETATM   18  O   UNL     1      -8.668   4.691  70.853  1.00  0.00    -0.105 OA 
ENDBRANCH  11  16
BRANCH  14  19
HETATM   19  C   UNL     1      -6.706   9.772  70.758  1.00  0.00    -0.077 C  
HETATM   20  O   UNL     1      -5.939  10.091  71.903  1.00  0.00    -0.300 OA 
HETATM   21  H   UNL     1      -5.218  10.661  71.662  1.00  0.00     0.000 HD 
ENDBRANCH  14  19
ENDBRANCH   8   9
BRANCH   8  22
HETATM   22  C   UNL     1     -12.258   7.163  71.187  1.00  0.00    -0.365 C  
HETATM   23  H   UNL     1     -13.102   7.782  72.806  1.00  0.00     0.000 HD 
HETATM   24  O   UNL     1     -12.286   7.962  72.354  1.00  0.00    -0.306 OA 
ENDBRANCH   8  22
ENDBRANCH   6   8
ENDBRANCH   4   6
ENDBRANCH   3   4
TORSDOF 7
ENDMDL
MODEL      282
REMARK 921   NORMALIZED FREE ENERGY PREDICTED BY IDOCK:   -2.22 KCAL/MOL
REMARK 922        TOTAL FREE ENERGY PREDICTED BY IDOCK:   -4.66 KCAL/MOL
REMARK 923 INTER-LIGAND FREE ENERGY PREDICTED BY IDOCK:   -3.63 KCAL/MOL
REMARK 924 INTRA-LIGAND FREE ENERGY PREDICTED BY IDOCK:   -1.02 KCAL/MOL
REMARK 927      BINDING AFFINITY PREDICTED BY RF-SCORE:    0.00 PKD
ROOT
HETATM    1  O   UNL     1     -11.472   6.571  70.424  1.00  0.00    -0.352 OA 
HETATM    2  H   UNL     1     -12.015   6.605  69.645  1.00  0.00     0.000 HD 
HETATM    3  C   UNL     1     -10.607   5.473  70.250  1.00  0.00    -0.287 C  
ENDROOT
BRANCH   3   4
HETATM    4  N   UNL     1      -9.794   5.423  71.416  1.00  0.00    -0.161 N  
HETATM    5  H   UNL     1      -8.941   4.863  71.417  1.00  0.00     0.000 HD 
BRANCH   4   6
HETATM    6  C   UNL     1     -10.151   6.119  72.532  1.00  0.00    -0.178 C  
HETATM    7  O   UNL     1     -11.275   6.026  73.018  1.00  0.00    -0.254 OA 
BRANCH   6   8
HETATM    8  N   UNL     1      -9.159   6.881  73.118  1.00  0.00    -0.130 N  
BRANCH   8   9
HETATM    9  C   UNL     1      -8.734   8.075  72.416  1.00  0.00    -0.167 C  
HETATM   10  O   UNL     1     -10.991   9.069  72.138  1.00  0.00    -0.348 OA 
HETATM   11  N   UNL     1      -7.895   7.851  71.261  1.00  0.00    -0.084 N  
HETATM   12  C   UNL     1      -9.845   8.905  71.734  1.00  0.00    -0.315 C  
HETATM   13  O   UNL     1      -7.460   9.011  69.302  1.00  0.00    -0.072 OA 
HETATM   14  N   UNL     1      -9.307   9.462  70.612  1.00  0.00    -0.260 N  
HETATM   15  C   UNL     1      -8.147   8.818  70.294  1.00  0.00    -0.116 C  
BRANCH  11  16
HETATM   16  C   UNL     1      -6.655   7.133  71.286  1.00  0.00    -0.044 C  
HETATM   17  H   UNL     1      -4.929   7.331  72.155  1.00  0.00     0.000 HD 
HETATM   18  O   UNL     1      -5.752   7.807  72.138  1.00  0.00    -0.036 OA 
ENDBRANCH  11  16
BRANCH  14  19
HETATM   19  C   UNL     1     -10.019  10.251  69.652  1.00  0.00    -0.207 C  
HETATM   20  O   UNL     1      -9.192  11.296  69.177  1.00  0.00    -0.397 OA 
HETATM   21  H   UNL     1      -9.664  11.819  68.540  1.00  0.00     0.000 HD 
ENDBRANCH  14  19
ENDBRANCH   8   9
BRANCH   8  22
HETATM   22  C   UNL     1      -8.364   6.446  74.242  1.00  0.00    -0.126 C  
HETATM   23  H   UNL     1      -7.614   4.772  74.834  1.00  0.00     0.000 HD 
HETATM   24  O   UNL     1      -8.137   5.058  74.094  1.00  0.00    -0.100 OA 
ENDBRANCH   8  22
ENDBRANCH   6   8
ENDBRANCH   4   6
ENDBRANCH   3   4
TORSDOF 7
ENDMDL
MODEL      283
REMARK 921   NORMALIZED FREE ENERGY PREDICTED BY IDOCK:   -2.20 KCAL/MOL
REMARK 922        TOTAL FREE ENERGY PREDICTED BY IDOCK:   -4.63 KCAL/MOL
REMARK 923 INTER-LIGAND FREE ENERGY PREDICTED BY IDOCK:   -3.43 KCAL/MOL
REMARK 924 INTRA-LIGAND FREE ENERGY PREDICTED BY IDOCK:   -1.20 KCAL/MOL
REMARK 927      BINDING AFFINITY PREDICTED BY RF-SCORE:    0.00 PKD
ROOT
HETATM    1  O   UNL     1      -8.828   4.083  66.592  1.00  0.00    -0.113 OA 
HETATM    2  H   UNL     1      -9.053   3.255  66.185  1.00  0.00     0.000 HD 
HETATM    3  C   UNL     1      -9.672   5.048  66.008  1.00  0.00    -0.180 C  
ENDROOT
BRANCH   3   4
HETATM    4  N   UNL     1      -9.335   6.288  66.618  1.00  0.00    -0.145 N  
HETATM    5  H   UNL     1      -8.438   6.728  66.412  1.00  0.00     0.000 HD 
BRANCH   4   6
HETATM    6  C   UNL     1     -10.207   6.890  67.475  1.00  0.00    -0.194 C  
HETATM    7  O   UNL     1     -11.396   6.584  67.505  1.00  0.00    -0.284 OA 
BRANCH   6   8
HETATM    8  N   UNL     1      -9.665   7.813  68.348  1.00  0.00    -0.156 N  
BRANCH   8   9
HETATM    9  C   UNL     1      -9.540   7.422  69.737  1.00  0.00    -0.163 C  
HETATM   10  O   UNL     1      -8.264   5.331  69.337  1.00  0.00    -0.093 OA 
HETATM   11  N   UNL     1     -10.775   7.384  70.485  1.00  0.00    -0.229 N  
HETATM   12  C   UNL     1      -9.065   5.977  70.005  1.00  0.00    -0.146 C  
HETATM   13  O   UNL     1     -11.528   6.227  72.347  1.00  0.00    -0.279 OA 
HETATM   14  N   UNL     1      -9.671   5.554  71.152  1.00  0.00    -0.169 N  
HETATM   15  C   UNL     1     -10.725   6.374  71.438  1.00  0.00    -0.245 C  
BRANCH  11  16
HETATM   16  C   UNL     1     -11.672   8.494  70.627  1.00  0.00    -0.144 C  
HETATM   17  H   UNL     1     -11.614  10.258  71.437  1.00  0.00     0.000 HD 
HETATM   18  O   UNL     1     -11.020   9.522  71.342  1.00  0.00    -0.351 OA 
ENDBRANCH  11  16
BRANCH  14  19
HETATM   19  C   UNL     1      -9.559   4.244  71.718  1.00  0.00    -0.154 C  
HETATM   20  O   UNL     1      -9.597   4.323  73.130  1.00  0.00    -0.121 OA 
HETATM   21  H   UNL     1      -9.523   3.454  73.505  1.00  0.00     0.000 HD 
ENDBRANCH  14  19
ENDBRANCH   8   9
BRANCH   8  22
HETATM   22  C   UNL     1      -9.442   9.201  68.020  1.00  0.00    -0.141 C  
HETATM   23  H   UNL     1      -8.615  10.159  66.565  1.00  0.00     0.000 HD 
HETATM   24  O   UNL     1      -8.762   9.245  66.781  1.00  0.00    -0.125 OA 
ENDBRANCH   8  22
ENDBRANCH   6   8
ENDBRANCH   4   6
ENDBRANCH   3   4
TORSDOF 7
ENDMDL
MODEL      284
REMARK 921   NORMALIZED FREE ENERGY PREDICTED BY IDOCK:   -2.19 KCAL/MOL
REMARK 922        TOTAL FREE ENERGY PREDICTED BY IDOCK:   -4.62 KCAL/MOL
REMARK 923 INTER-LIGAND FREE ENERGY PREDICTED BY IDOCK:   -3.57 KCAL/MOL
REMARK 924 INTRA-LIGAND FREE ENERGY PREDICTED BY IDOCK:   -1.05 KCAL/MOL
REMARK 927      BINDING AFFINITY PREDICTED BY RF-SCORE:    0.00 PKD
ROOT
HETATM    1  O   UNL     1     -12.004  10.589  68.220  1.00  0.00    -0.790 OA 
HETATM    2  H   UNL     1     -12.424  11.044  68.940  1.00  0.00     0.000 HD 
HETATM    3  C   UNL     1     -10.987  11.444  67.755  1.00  0.00    -0.247 C  
ENDROOT
BRANCH   3   4
HETATM    4  N   UNL     1     -10.358  10.762  66.677  1.00  0.00    -0.233 N  
HETATM    5  H   UNL     1     -10.923  10.385  65.917  1.00  0.00     0.000 HD 
BRANCH   4   6
HETATM    6  C   UNL     1      -9.004  10.611  66.657  1.00  0.00    -0.150 C  
HETATM    7  O   UNL     1      -8.257  11.417  67.206  1.00  0.00    -0.138 OA 
BRANCH   6   8
HETATM    8  N   UNL     1      -8.527   9.470  66.043  1.00  0.00    -0.122 N  
BRANCH   8   9
HETATM    9  C   UNL     1      -8.541   8.243  66.813  1.00  0.00    -0.127 C  
HETATM   10  O   UNL     1     -11.006   7.954  66.853  1.00  0.00    -0.188 OA 
HETATM   11  N   UNL     1      -7.796   8.277  68.050  1.00  0.00    -0.116 N  
HETATM   12  C   UNL     1      -9.909   7.804  67.381  1.00  0.00    -0.175 C  
HETATM   13  O   UNL     1      -7.920   7.146  70.069  1.00  0.00    -0.113 OA 
HETATM   14  N   UNL     1      -9.674   7.175  68.568  1.00  0.00    -0.142 N  
HETATM   15  C   UNL     1      -8.416   7.476  69.002  1.00  0.00    -0.133 C  
BRANCH  11  16
HETATM   16  C   UNL     1      -6.405   8.607  68.151  1.00  0.00    -0.052 C  
HETATM   17  H   UNL     1      -5.337   9.949  69.062  1.00  0.00     0.000 HD 
HETATM   18  O   UNL     1      -6.259   9.730  68.995  1.00  0.00    -0.041 OA 
ENDBRANCH  11  16
BRANCH  14  19
HETATM   19  C   UNL     1     -10.680   6.674  69.457  1.00  0.00    -0.260 C  
HETATM   20  O   UNL     1     -10.308   5.395  69.934  1.00  0.00    -0.260 OA 
HETATM   21  H   UNL     1     -10.975   5.063  70.523  1.00  0.00     0.000 HD 
ENDBRANCH  14  19
ENDBRANCH   8   9
BRANCH   8  22
HETATM   22  C   UNL     1      -7.804   9.468  64.793  1.00  0.00    -0.120 C  
HETATM   23  H   UNL     1      -8.126  10.136  63.013  1.00  0.00     0.000 HD 
HETATM   24  O   UNL     1      -8.601  10.138  63.836  1.00  0.00    -0.166 OA 
ENDBRANCH   8  22
ENDBRANCH   6   8
ENDBRANCH   4   6
ENDBRANCH   3   4
TORSDOF 7
ENDMDL
MODEL      285
REMARK 921   NORMALIZED FREE ENERGY PREDICTED BY IDOCK:   -2.19 KCAL/MOL
REMARK 922        TOTAL FREE ENERGY PREDICTED BY IDOCK:   -4.62 KCAL/MOL
REMARK 923 INTER-LIGAND FREE ENERGY PREDICTED BY IDOCK:   -3.44 KCAL/MOL
REMARK 924 INTRA-LIGAND FREE ENERGY PREDICTED BY IDOCK:   -1.18 KCAL/MOL
REMARK 927      BINDING AFFINITY PREDICTED BY RF-SCORE:    0.00 PKD
ROOT
HETATM    1  O   UNL     1     -11.748  13.588  70.558  1.00  0.00    -0.513 OA 
HETATM    2  H   UNL     1     -12.384  13.347  71.221  1.00  0.00     0.000 HD 
HETATM    3  C   UNL     1     -11.942  12.694  69.487  1.00  0.00    -0.270 C  
ENDROOT
BRANCH   3   4
HETATM    4  N   UNL     1     -10.990  13.054  68.494  1.00  0.00    -0.252 N  
HETATM    5  H   UNL     1     -10.573  13.984  68.505  1.00  0.00     0.000 HD 
BRANCH   4   6
HETATM    6  C   UNL     1     -10.633  12.160  67.530  1.00  0.00    -0.214 C  
HETATM    7  O   UNL     1     -11.332  11.970  66.537  1.00  0.00    -0.324 OA 
BRANCH   6   8
HETATM    8  N   UNL     1      -9.415  11.532  67.701  1.00  0.00    -0.165 N  
BRANCH   8   9
HETATM    9  C   UNL     1      -9.386  10.089  67.578  1.00  0.00    -0.144 C  
HETATM   10  O   UNL     1      -9.678   9.586  69.991  1.00  0.00    -0.204 OA 
HETATM   11  N   UNL     1      -8.256   9.549  66.857  1.00  0.00    -0.112 N  
HETATM   12  C   UNL     1      -9.225   9.290  68.890  1.00  0.00    -0.143 C  
HETATM   13  O   UNL     1      -7.118   7.530  66.870  1.00  0.00    -0.079 OA 
HETATM   14  N   UNL     1      -8.514   8.163  68.597  1.00  0.00    -0.126 N  
HETATM   15  C   UNL     1      -7.898   8.315  67.388  1.00  0.00    -0.106 C  
BRANCH  11  16
HETATM   16  C   UNL     1      -7.900   9.911  65.517  1.00  0.00    -0.126 C  
HETATM   17  H   UNL     1      -6.419  10.817  64.648  1.00  0.00     0.000 HD 
HETATM   18  O   UNL     1      -6.655  10.576  65.536  1.00  0.00    -0.124 OA 
ENDBRANCH  11  16
BRANCH  14  19
HETATM   19  C   UNL     1      -8.083   7.181  69.546  1.00  0.00    -0.130 C  
HETATM   20  O   UNL     1      -7.442   7.814  70.637  1.00  0.00    -0.068 OA 
HETATM   21  H   UNL     1      -7.156   7.163  71.267  1.00  0.00     0.000 HD 
ENDBRANCH  14  19
ENDBRANCH   8   9
BRANCH   8  22
HETATM   22  C   UNL     1      -8.237  12.183  68.223  1.00  0.00    -0.168 C  
HETATM   23  H   UNL     1      -7.232  13.770  67.789  1.00  0.00     0.000 HD 
HETATM   24  O   UNL     1      -8.008  13.342  67.446  1.00  0.00    -0.171 OA 
ENDBRANCH   8  22
ENDBRANCH   6   8
ENDBRANCH   4   6
ENDBRANCH   3   4
TORSDOF 7
ENDMDL
MODEL      286
REMARK 921   NORMALIZED FREE ENERGY PREDICTED BY IDOCK:   -2.19 KCAL/MOL
REMARK 922        TOTAL FREE ENERGY PREDICTED BY IDOCK:   -4.61 KCAL/MOL
REMARK 923 INTER-LIGAND FREE ENERGY PREDICTED BY IDOCK:   -3.60 KCAL/MOL
REMARK 924 INTRA-LIGAND FREE ENERGY PREDICTED BY IDOCK:   -1.01 KCAL/MOL
REMARK 927      BINDING AFFINITY PREDICTED BY RF-SCORE:    0.00 PKD
ROOT
HETATM    1  O   UNL     1      -8.631   6.948  63.674  1.00  0.00    -0.325 OA 
HETATM    2  H   UNL     1      -8.091   6.743  62.921  1.00  0.00     0.000 HD 
HETATM    3  C   UNL     1      -8.106   8.135  64.221  1.00  0.00    -0.127 C  
ENDROOT
BRANCH   3   4
HETATM    4  N   UNL     1      -8.915   8.442  65.350  1.00  0.00    -0.377 N  
HETATM    5  H   UNL     1      -9.872   8.765  65.215  1.00  0.00     0.000 HD 
BRANCH   4   6
HETATM    6  C   UNL     1      -8.414   8.305  66.610  1.00  0.00    -0.123 C  
HETATM    7  O   UNL     1      -7.607   9.107  67.074  1.00  0.00    -0.090 OA 
BRANCH   6   8
HETATM    8  N   UNL     1      -8.915   7.255  67.354  1.00  0.00    -0.122 N  
BRANCH   8   9
HETATM    9  C   UNL     1      -9.638   7.583  68.566  1.00  0.00    -0.150 C  
HETATM   10  O   UNL     1     -11.112   9.311  67.565  1.00  0.00    -0.101 OA 
HETATM   11  N   UNL     1      -8.819   7.905  69.711  1.00  0.00    -0.141 N  
HETATM   12  C   UNL     1     -10.495   8.867  68.529  1.00  0.00    -0.182 C  
HETATM   13  O   UNL     1      -9.107   9.180  71.625  1.00  0.00    -0.334 OA 
HETATM   14  N   UNL     1     -10.479   9.405  69.782  1.00  0.00    -0.214 N  
HETATM   15  C   UNL     1      -9.454   8.859  70.498  1.00  0.00    -0.204 C  
BRANCH  11  16
HETATM   16  C   UNL     1      -7.814   7.042  70.258  1.00  0.00    -0.105 C  
HETATM   17  H   UNL     1      -5.877   7.044  70.396  1.00  0.00     0.000 HD 
HETATM   18  O   UNL     1      -6.543   7.616  70.034  1.00  0.00    -0.037 OA 
ENDBRANCH  11  16
BRANCH  14  19
HETATM   19  C   UNL     1     -11.092  10.641  70.165  1.00  0.00    -0.268 C  
HETATM   20  O   UNL     1     -10.480  11.717  69.479  1.00  0.00    -0.440 OA 
HETATM   21  H   UNL     1     -10.887  12.536  69.732  1.00  0.00     0.000 HD 
ENDBRANCH  14  19
ENDBRANCH   8   9
BRANCH   8  22
HETATM   22  C   UNL     1      -8.562   5.872  67.138  1.00  0.00    -0.106 C  
HETATM   23  H   UNL     1      -8.973   4.537  65.810  1.00  0.00     0.000 HD 
HETATM   24  O   UNL     1      -9.205   5.447  65.952  1.00  0.00    -0.158 OA 
ENDBRANCH   8  22
ENDBRANCH   6   8
ENDBRANCH   4   6
ENDBRANCH   3   4
TORSDOF 7
ENDMDL
MODEL      287
REMARK 921   NORMALIZED FREE ENERGY PREDICTED BY IDOCK:   -2.17 KCAL/MOL
REMARK 922        TOTAL FREE ENERGY PREDICTED BY IDOCK:   -4.59 KCAL/MOL
REMARK 923 INTER-LIGAND FREE ENERGY PREDICTED BY IDOCK:   -3.95 KCAL/MOL
REMARK 924 INTRA-LIGAND FREE ENERGY PREDICTED BY IDOCK:   -0.64 KCAL/MOL
REMARK 927      BINDING AFFINITY PREDICTED BY RF-SCORE:    0.00 PKD
ROOT
HETATM    1  O   UNL     1      -7.068   6.005  68.495  1.00  0.00    -0.076 OA 
HETATM    2  H   UNL     1      -6.302   5.778  67.983  1.00  0.00     0.000 HD 
HETATM    3  C   UNL     1      -6.764   5.664  69.827  1.00  0.00    -0.052 C  
ENDROOT
BRANCH   3   4
HETATM    4  N   UNL     1      -7.912   6.004  70.594  1.00  0.00    -0.109 N  
HETATM    5  H   UNL     1      -8.839   5.948  70.173  1.00  0.00     0.000 HD 
BRANCH   4   6
HETATM    6  C   UNL     1      -7.777   6.405  71.890  1.00  0.00    -0.096 C  
HETATM    7  O   UNL     1      -6.783   6.120  72.553  1.00  0.00    -0.066 OA 
BRANCH   6   8
HETATM    8  N   UNL     1      -8.789   7.200  72.391  1.00  0.00    -0.127 N  
BRANCH   8   9
HETATM    9  C   UNL     1      -9.932   7.442  71.534  1.00  0.00    -0.181 C  
HETATM   10  O   UNL     1      -9.313   9.750  70.866  1.00  0.00    -0.100 OA 
HETATM   11  N   UNL     1     -11.222   7.183  72.132  1.00  0.00    -0.247 N  
HETATM   12  C   UNL     1     -10.170   8.906  71.101  1.00  0.00    -0.266 C  
HETATM   13  O   UNL     1     -13.374   7.971  71.790  1.00  0.00    -0.336 OA 
HETATM   14  N   UNL     1     -11.518   9.083  70.986  1.00  0.00    -0.280 N  
HETATM   15  C   UNL     1     -12.167   8.070  71.630  1.00  0.00    -0.307 C  
BRANCH  11  16
HETATM   16  C   UNL     1     -11.613   5.929  72.707  1.00  0.00    -0.189 C  
HETATM   17  H   UNL     1     -11.239   4.052  72.380  1.00  0.00     0.000 HD 
HETATM   18  O   UNL     1     -10.980   4.883  72.000  1.00  0.00    -0.101 OA 
ENDBRANCH  11  16
BRANCH  14  19
HETATM   19  C   UNL     1     -12.170  10.319  70.673  1.00  0.00    -0.329 C  
HETATM   20  O   UNL     1     -11.924  10.665  69.323  1.00  0.00    -0.454 OA 
HETATM   21  H   UNL     1     -12.356  11.485  69.115  1.00  0.00     0.000 HD 
ENDBRANCH  14  19
ENDBRANCH   8   9
BRANCH   8  22
HETATM   22  C   UNL     1      -8.675   7.990  73.594  1.00  0.00    -0.268 C  
HETATM   23  H   UNL     1      -7.540   9.427  74.197  1.00  0.00     0.000 HD 
HETATM   24  O   UNL     1      -7.615   8.907  73.405  1.00  0.00    -0.371 OA 
ENDBRANCH   8  22
ENDBRANCH   6   8
ENDBRANCH   4   6
ENDBRANCH   3   4
TORSDOF 7
ENDMDL
MODEL      288
REMARK 921   NORMALIZED FREE ENERGY PREDICTED BY IDOCK:   -2.15 KCAL/MOL
REMARK 922        TOTAL FREE ENERGY PREDICTED BY IDOCK:   -4.56 KCAL/MOL
REMARK 923 INTER-LIGAND FREE ENERGY PREDICTED BY IDOCK:   -4.31 KCAL/MOL
REMARK 924 INTRA-LIGAND FREE ENERGY PREDICTED BY IDOCK:   -0.25 KCAL/MOL
REMARK 927      BINDING AFFINITY PREDICTED BY RF-SCORE:    0.00 PKD
ROOT
HETATM    1  O   UNL     1      -8.122   7.411  67.324  1.00  0.00    -0.109 OA 
HETATM    2  H   UNL     1      -8.557   6.609  67.060  1.00  0.00     0.000 HD 
HETATM    3  C   UNL     1      -9.045   8.450  67.099  1.00  0.00    -0.138 C  
ENDROOT
BRANCH   3   4
HETATM    4  N   UNL     1      -8.393   9.650  67.494  1.00  0.00    -0.117 N  
HETATM    5  H   UNL     1      -7.501   9.907  67.070  1.00  0.00     0.000 HD 
BRANCH   4   6
HETATM    6  C   UNL     1      -8.955  10.459  68.436  1.00  0.00    -0.137 C  
HETATM    7  O   UNL     1      -8.272  11.197  69.143  1.00  0.00    -0.109 OA 
BRANCH   6   8
HETATM    8  N   UNL     1     -10.334  10.448  68.505  1.00  0.00    -0.167 N  
BRANCH   8   9
HETATM    9  C   UNL     1     -11.048  11.437  67.722  1.00  0.00    -0.265 C  
HETATM   10  O   UNL     1     -10.486  10.502  65.492  1.00  0.00    -0.237 OA 
HETATM   11  N   UNL     1     -10.737  12.814  68.029  1.00  0.00    -0.224 N  
HETATM   12  C   UNL     1     -10.744  11.465  66.208  1.00  0.00    -0.270 C  
HETATM   13  O   UNL     1     -10.810  14.810  66.854  1.00  0.00    -0.302 OA 
HETATM   14  N   UNL     1     -10.854  12.760  65.794  1.00  0.00    -0.269 N  
HETATM   15  C   UNL     1     -10.819  13.589  66.878  1.00  0.00    -0.282 C  
BRANCH  11  16
HETATM   16  C   UNL     1     -10.861  13.403  69.330  1.00  0.00    -0.040 C  
HETATM   17  H   UNL     1     -12.298  13.754  70.587  1.00  0.00     0.000 HD 
HETATM   18  O   UNL     1     -12.216  13.364  69.725  1.00  0.00    -0.302 OA 
ENDBRANCH  11  16
BRANCH  14  19
HETATM   19  C   UNL     1     -10.583  13.236  64.471  1.00  0.00    -0.419 C  
HETATM   20  O   UNL     1      -9.435  12.591  63.952  1.00  0.00    -0.558 OA 
HETATM   21  H   UNL     1      -9.256  12.906  63.074  1.00  0.00     0.000 HD 
ENDBRANCH  14  19
ENDBRANCH   8   9
BRANCH   8  22
HETATM   22  C   UNL     1     -11.089   9.689  69.473  1.00  0.00    -0.168 C  
HETATM   23  H   UNL     1     -10.785   8.095  70.515  1.00  0.00     0.000 HD 
HETATM   24  O   UNL     1     -10.289   8.595  69.877  1.00  0.00    -0.199 OA 
ENDBRANCH   8  22
ENDBRANCH   6   8
ENDBRANCH   4   6
ENDBRANCH   3   4
TORSDOF 7
ENDMDL
MODEL      289
REMARK 921   NORMALIZED FREE ENERGY PREDICTED BY IDOCK:   -2.15 KCAL/MOL
REMARK 922        TOTAL FREE ENERGY PREDICTED BY IDOCK:   -4.56 KCAL/MOL
REMARK 923 INTER-LIGAND FREE ENERGY PREDICTED BY IDOCK:   -3.38 KCAL/MOL
REMARK 924 INTRA-LIGAND FREE ENERGY PREDICTED BY IDOCK:   -1.18 KCAL/MOL
REMARK 927      BINDING AFFINITY PREDICTED BY RF-SCORE:    0.00 PKD
ROOT
HETATM    1  O   UNL     1     -11.128  14.881  66.955  1.00  0.00    -0.323 OA 
HETATM    2  H   UNL     1     -11.005  15.810  66.801  1.00  0.00     0.000 HD 
HETATM    3  C   UNL     1      -9.889  14.393  67.415  1.00  0.00    -0.224 C  
ENDROOT
BRANCH   3   4
HETATM    4  N   UNL     1     -10.073  13.002  67.646  1.00  0.00    -0.214 N  
HETATM    5  H   UNL     1     -10.906  12.674  68.135  1.00  0.00     0.000 HD 
BRANCH   4   6
HETATM    6  C   UNL     1      -9.140  12.106  67.217  1.00  0.00    -0.181 C  
HETATM    7  O   UNL     1      -7.962  12.189  67.557  1.00  0.00    -0.142 OA 
BRANCH   6   8
HETATM    8  N   UNL     1      -9.606  11.068  66.435  1.00  0.00    -0.193 N  
BRANCH   8   9
HETATM    9  C   UNL     1      -8.775   9.885  66.334  1.00  0.00    -0.132 C  
HETATM   10  O   UNL     1      -7.764  10.428  64.133  1.00  0.00    -0.129 OA 
HETATM   11  N   UNL     1      -9.459   8.627  66.525  1.00  0.00    -0.197 N  
HETATM   12  C   UNL     1      -8.152   9.599  64.949  1.00  0.00    -0.133 C  
HETATM   13  O   UNL     1      -9.105   6.446  65.826  1.00  0.00    -0.112 OA 
HETATM   14  N   UNL     1      -8.072   8.244  64.810  1.00  0.00    -0.146 N  
HETATM   15  C   UNL     1      -8.880   7.644  65.733  1.00  0.00    -0.100 C  
BRANCH  11  16
HETATM   16  C   UNL     1     -10.220   8.287  67.692  1.00  0.00    -0.231 C  
HETATM   17  H   UNL     1      -9.947   8.326  69.614  1.00  0.00     0.000 HD 
HETATM   18  O   UNL     1      -9.443   8.552  68.840  1.00  0.00    -0.146 OA 
ENDBRANCH  11  16
BRANCH  14  19
HETATM   19  C   UNL     1      -7.618   7.554  63.641  1.00  0.00    -0.118 C  
HETATM   20  O   UNL     1      -8.243   8.090  62.491  1.00  0.00    -0.194 OA 
HETATM   21  H   UNL     1      -7.942   7.632  61.715  1.00  0.00     0.000 HD 
ENDBRANCH  14  19
ENDBRANCH   8   9
BRANCH   8  22
HETATM   22  C   UNL     1     -10.729  11.176  65.535  1.00  0.00    -0.185 C  
HETATM   23  H   UNL     1     -11.272  12.401  64.148  1.00  0.00     0.000 HD 
HETATM   24  O   UNL     1     -10.532  12.330  64.741  1.00  0.00    -0.276 OA 
ENDBRANCH   8  22
ENDBRANCH   6   8
ENDBRANCH   4   6
ENDBRANCH   3   4
TORSDOF 7
ENDMDL
MODEL      290
REMARK 921   NORMALIZED FREE ENERGY PREDICTED BY IDOCK:   -2.14 KCAL/MOL
REMARK 922        TOTAL FREE ENERGY PREDICTED BY IDOCK:   -4.54 KCAL/MOL
REMARK 923 INTER-LIGAND FREE ENERGY PREDICTED BY IDOCK:   -3.04 KCAL/MOL
REMARK 924 INTRA-LIGAND FREE ENERGY PREDICTED BY IDOCK:   -1.50 KCAL/MOL
REMARK 927      BINDING AFFINITY PREDICTED BY RF-SCORE:    0.00 PKD
ROOT
HETATM    1  O   UNL     1     -11.388   6.342  72.111  1.00  0.00    -0.267 OA 
HETATM    2  H   UNL     1     -11.843   6.156  72.924  1.00  0.00     0.000 HD 
HETATM    3  C   UNL     1     -11.582   7.714  71.859  1.00  0.00    -0.280 C  
ENDROOT
BRANCH   3   4
HETATM    4  N   UNL     1     -10.901   7.992  70.642  1.00  0.00    -0.230 N  
HETATM    5  H   UNL     1     -10.478   8.908  70.496  1.00  0.00     0.000 HD 
BRANCH   4   6
HETATM    6  C   UNL     1     -10.812   7.039  69.672  1.00  0.00    -0.247 C  
HETATM    7  O   UNL     1     -11.763   6.312  69.394  1.00  0.00    -0.319 OA 
BRANCH   6   8
HETATM    8  N   UNL     1      -9.619   6.983  68.980  1.00  0.00    -0.142 N  
BRANCH   8   9
HETATM    9  C   UNL     1      -9.675   7.143  67.541  1.00  0.00    -0.142 C  
HETATM   10  O   UNL     1      -9.635   4.726  66.979  1.00  0.00    -0.147 OA 
HETATM   11  N   UNL     1      -8.688   8.034  66.975  1.00  0.00    -0.126 N  
HETATM   12  C   UNL     1      -9.361   5.888  66.697  1.00  0.00    -0.145 C  
HETATM   13  O   UNL     1      -7.655   8.236  64.911  1.00  0.00    -0.087 OA 
HETATM   14  N   UNL     1      -8.753   6.309  65.550  1.00  0.00    -0.123 N  
HETATM   15  C   UNL     1      -8.314   7.591  65.713  1.00  0.00    -0.142 C  
BRANCH  11  16
HETATM   16  C   UNL     1      -8.516   9.404  67.362  1.00  0.00    -0.125 C  
HETATM   17  H   UNL     1      -7.141  10.457  68.241  1.00  0.00     0.000 HD 
HETATM   18  O   UNL     1      -7.256   9.550  67.984  1.00  0.00    -0.080 OA 
ENDBRANCH  11  16
BRANCH  14  19
HETATM   19  C   UNL     1      -8.234   5.457  64.523  1.00  0.00    -0.133 C  
HETATM   20  O   UNL     1      -6.820   5.445  64.576  1.00  0.00    -0.046 OA 
HETATM   21  H   UNL     1      -6.476   4.879  63.895  1.00  0.00     0.000 HD 
ENDBRANCH  14  19
ENDBRANCH   8   9
BRANCH   8  22
HETATM   22  C   UNL     1      -8.370   6.543  69.556  1.00  0.00    -0.130 C  
HETATM   23  H   UNL     1      -7.727   6.177  71.336  1.00  0.00     0.000 HD 
HETATM   24  O   UNL     1      -8.549   6.466  70.957  1.00  0.00    -0.129 OA 
ENDBRANCH   8  22
ENDBRANCH   6   8
ENDBRANCH   4   6
ENDBRANCH   3   4
TORSDOF 7
ENDMDL
MODEL      291
REMARK 921   NORMALIZED FREE ENERGY PREDICTED BY IDOCK:   -2.12 KCAL/MOL
REMARK 922        TOTAL FREE ENERGY PREDICTED BY IDOCK:   -4.52 KCAL/MOL
REMARK 923 INTER-LIGAND FREE ENERGY PREDICTED BY IDOCK:   -3.31 KCAL/MOL
REMARK 924 INTRA-LIGAND FREE ENERGY PREDICTED BY IDOCK:   -1.20 KCAL/MOL
REMARK 927      BINDING AFFINITY PREDICTED BY RF-SCORE:    0.00 PKD
ROOT
HETATM    1  O   UNL     1      -9.432   6.388  67.192  1.00  0.00    -0.123 OA 
HETATM    2  H   UNL     1      -9.525   6.847  66.366  1.00  0.00     0.000 HD 
HETATM    3  C   UNL     1     -10.655   6.551  67.871  1.00  0.00    -0.252 C  
ENDROOT
BRANCH   3   4
HETATM    4  N   UNL     1     -10.515   5.863  69.108  1.00  0.00    -0.240 N  
HETATM    5  H   UNL     1     -10.023   4.970  69.139  1.00  0.00     0.000 HD 
BRANCH   4   6
HETATM    6  C   UNL     1     -11.036   6.393  70.250  1.00  0.00    -0.318 C  
HETATM    7  O   UNL     1     -12.248   6.513  70.411  1.00  0.00    -0.306 OA 
BRANCH   6   8
HETATM    8  N   UNL     1     -10.129   6.726  71.237  1.00  0.00    -0.187 N  
BRANCH   8   9
HETATM    9  C   UNL     1      -9.326   7.914  71.031  1.00  0.00    -0.152 C  
HETATM   10  O   UNL     1     -11.194   9.419  70.392  1.00  0.00    -0.245 OA 
HETATM   11  N   UNL     1      -8.193   7.754  70.149  1.00  0.00    -0.121 N  
HETATM   12  C   UNL     1     -10.015   9.092  70.306  1.00  0.00    -0.208 C  
HETATM   13  O   UNL     1      -6.969   9.167  68.780  1.00  0.00    -0.060 OA 
HETATM   14  N   UNL     1      -9.060   9.736  69.575  1.00  0.00    -0.200 N  
HETATM   15  C   UNL     1      -7.966   8.930  69.445  1.00  0.00    -0.100 C  
BRANCH  11  16
HETATM   16  C   UNL     1      -7.149   6.789  70.337  1.00  0.00    -0.068 C  
HETATM   17  H   UNL     1      -6.645   5.087  69.550  1.00  0.00     0.000 HD 
HETATM   18  O   UNL     1      -7.336   5.727  69.426  1.00  0.00    -0.068 OA 
ENDBRANCH  11  16
BRANCH  14  19
HETATM   19  C   UNL     1      -9.290  10.844  68.698  1.00  0.00    -0.187 C  
HETATM   20  O   UNL     1     -10.516  10.671  68.014  1.00  0.00    -0.175 OA 
HETATM   21  H   UNL     1     -10.669  11.405  67.432  1.00  0.00     0.000 HD 
ENDBRANCH  14  19
ENDBRANCH   8   9
BRANCH   8  22
HETATM   22  C   UNL     1      -9.763   5.852  72.326  1.00  0.00    -0.160 C  
HETATM   23  H   UNL     1      -9.347   3.979  72.509  1.00  0.00     0.000 HD 
HETATM   24  O   UNL     1      -9.587   4.554  71.793  1.00  0.00    -0.144 OA 
ENDBRANCH   8  22
ENDBRANCH   6   8
ENDBRANCH   4   6
ENDBRANCH   3   4
TORSDOF 7
ENDMDL
MODEL      292
REMARK 921   NORMALIZED FREE ENERGY PREDICTED BY IDOCK:   -2.11 KCAL/MOL
REMARK 922        TOTAL FREE ENERGY PREDICTED BY IDOCK:   -4.50 KCAL/MOL
REMARK 923 INTER-LIGAND FREE ENERGY PREDICTED BY IDOCK:   -3.60 KCAL/MOL
REMARK 924 INTRA-LIGAND FREE ENERGY PREDICTED BY IDOCK:   -0.91 KCAL/MOL
REMARK 927      BINDING AFFINITY PREDICTED BY RF-SCORE:    0.00 PKD
ROOT
HETATM    1  O   UNL     1     -10.798  10.175  70.670  1.00  0.00    -0.311 OA 
HETATM    2  H   UNL     1     -11.061  10.944  70.179  1.00  0.00     0.000 HD 
HETATM    3  C   UNL     1     -11.901   9.829  71.475  1.00  0.00    -0.399 C  
ENDROOT
BRANCH   3   4
HETATM    4  N   UNL     1     -11.507   8.677  72.211  1.00  0.00    -0.370 N  
HETATM    5  H   UNL     1     -11.341   8.748  73.215  1.00  0.00     0.000 HD 
BRANCH   4   6
HETATM    6  C   UNL     1     -11.350   7.480  71.579  1.00  0.00    -0.255 C  
HETATM    7  O   UNL     1     -11.996   7.192  70.575  1.00  0.00    -0.290 OA 
BRANCH   6   8
HETATM    8  N   UNL     1     -10.381   6.642  72.094  1.00  0.00    -0.199 N  
BRANCH   8   9
HETATM    9  C   UNL     1      -9.214   6.390  71.273  1.00  0.00    -0.156 C  
HETATM   10  O   UNL     1      -9.617   3.966  70.929  1.00  0.00    -0.163 OA 
HETATM   11  N   UNL     1      -7.958   6.844  71.824  1.00  0.00    -0.100 N  
HETATM   12  C   UNL     1      -8.841   4.909  71.043  1.00  0.00    -0.126 C  
HETATM   13  O   UNL     1      -5.740   6.214  71.583  1.00  0.00    -0.026 OA 
HETATM   14  N   UNL     1      -7.483   4.840  70.946  1.00  0.00    -0.062 N  
HETATM   15  C   UNL     1      -6.932   5.986  71.443  1.00  0.00    -0.072 C  
BRANCH  11  16
HETATM   16  C   UNL     1      -7.686   8.194  72.221  1.00  0.00    -0.120 C  
HETATM   17  H   UNL     1      -8.244   9.382  73.652  1.00  0.00     0.000 HD 
HETATM   18  O   UNL     1      -8.424   8.487  73.389  1.00  0.00    -0.367 OA 
ENDBRANCH  11  16
BRANCH  14  19
HETATM   19  C   UNL     1      -6.719   3.637  70.801  1.00  0.00    -0.032 C  
HETATM   20  O   UNL     1      -7.143   2.679  71.752  1.00  0.00    -0.033 OA 
HETATM   21  H   UNL     1      -6.637   1.881  71.656  1.00  0.00     0.000 HD 
ENDBRANCH  14  19
ENDBRANCH   8   9
BRANCH   8  22
HETATM   22  C   UNL     1     -10.562   5.823  73.269  1.00  0.00    -0.254 C  
HETATM   23  H   UNL     1     -11.914   4.604  73.904  1.00  0.00     0.000 HD 
HETATM   24  O   UNL     1     -11.795   5.143  73.131  1.00  0.00    -0.263 OA 
ENDBRANCH   8  22
ENDBRANCH   6   8
ENDBRANCH   4   6
ENDBRANCH   3   4
TORSDOF 7
ENDMDL
MODEL      293
REMARK 921   NORMALIZED FREE ENERGY PREDICTED BY IDOCK:   -2.11 KCAL/MOL
REMARK 922        TOTAL FREE ENERGY PREDICTED BY IDOCK:   -4.50 KCAL/MOL
REMARK 923 INTER-LIGAND FREE ENERGY PREDICTED BY IDOCK:   -3.02 KCAL/MOL
REMARK 924 INTRA-LIGAND FREE ENERGY PREDICTED BY IDOCK:   -1.48 KCAL/MOL
REMARK 927      BINDING AFFINITY PREDICTED BY RF-SCORE:    0.00 PKD
ROOT
HETATM    1  O   UNL     1      -9.153   6.246  65.396  1.00  0.00    -0.366 OA 
HETATM    2  H   UNL     1      -9.040   6.110  64.463  1.00  0.00     0.000 HD 
HETATM    3  C   UNL     1     -10.393   5.669  65.729  1.00  0.00     0.311 C  
ENDROOT
BRANCH   3   4
HETATM    4  N   UNL     1     -10.561   5.872  67.126  1.00  0.00    -0.267 N  
HETATM    5  H   UNL     1     -11.497   6.005  67.511  1.00  0.00     0.000 HD 
BRANCH   4   6
HETATM    6  C   UNL     1      -9.478   5.892  67.952  1.00  0.00    -0.110 C  
HETATM    7  O   UNL     1      -8.644   4.989  67.943  1.00  0.00    -0.104 OA 
BRANCH   6   8
HETATM    8  N   UNL     1      -9.338   7.011  68.749  1.00  0.00    -0.135 N  
BRANCH   8   9
HETATM    9  C   UNL     1      -9.278   6.806  70.182  1.00  0.00    -0.155 C  
HETATM   10  O   UNL     1     -11.729   6.721  70.565  1.00  0.00    -0.351 OA 
HETATM   11  N   UNL     1      -8.464   7.750  70.912  1.00  0.00    -0.125 N  
HETATM   12  C   UNL     1     -10.600   6.995  70.959  1.00  0.00    -0.218 C  
HETATM   13  O   UNL     1      -8.445   8.563  73.082  1.00  0.00    -0.365 OA 
HETATM   14  N   UNL     1     -10.283   7.487  72.190  1.00  0.00    -0.191 N  
HETATM   15  C   UNL     1      -9.008   7.976  72.170  1.00  0.00    -0.164 C  
BRANCH  11  16
HETATM   16  C   UNL     1      -7.078   8.001  70.647  1.00  0.00    -0.045 C  
HETATM   17  H   UNL     1      -5.407   7.033  70.855  1.00  0.00     0.000 HD 
HETATM   18  O   UNL     1      -6.326   6.868  71.030  1.00  0.00    -0.039 OA 
ENDBRANCH  11  16
BRANCH  14  19
HETATM   19  C   UNL     1     -11.223   7.871  73.200  1.00  0.00    -0.145 C  
HETATM   20  O   UNL     1     -10.829   7.342  74.452  1.00  0.00    -0.288 OA 
HETATM   21  H   UNL     1     -11.452   7.596  75.122  1.00  0.00     0.000 HD 
ENDBRANCH  14  19
ENDBRANCH   8   9
BRANCH   8  22
HETATM   22  C   UNL     1      -9.488   8.366  68.272  1.00  0.00    -0.138 C  
HETATM   23  H   UNL     1      -8.914   9.351  66.718  1.00  0.00     0.000 HD 
HETATM   24  O   UNL     1      -8.815   8.460  67.031  1.00  0.00    -0.129 OA 
ENDBRANCH   8  22
ENDBRANCH   6   8
ENDBRANCH   4   6
ENDBRANCH   3   4
TORSDOF 7
ENDMDL
MODEL      294
REMARK 921   NORMALIZED FREE ENERGY PREDICTED BY IDOCK:   -2.08 KCAL/MOL
REMARK 922        TOTAL FREE ENERGY PREDICTED BY IDOCK:   -4.46 KCAL/MOL
REMARK 923 INTER-LIGAND FREE ENERGY PREDICTED BY IDOCK:   -3.34 KCAL/MOL
REMARK 924 INTRA-LIGAND FREE ENERGY PREDICTED BY IDOCK:   -1.12 KCAL/MOL
REMARK 927      BINDING AFFINITY PREDICTED BY RF-SCORE:    0.00 PKD
ROOT
HETATM    1  O   UNL     1     -11.315   6.426  73.365  1.00  0.00    -0.452 OA 
HETATM    2  H   UNL     1     -12.016   6.317  73.996  1.00  0.00     0.000 HD 
HETATM    3  C   UNL     1     -11.254   7.804  73.081  1.00  0.00    -0.218 C  
ENDROOT
BRANCH   3   4
HETATM    4  N   UNL     1     -10.204   7.967  72.136  1.00  0.00    -0.223 N  
HETATM    5  H   UNL     1      -9.234   7.959  72.449  1.00  0.00     0.000 HD 
BRANCH   4   6
HETATM    6  C   UNL     1     -10.491   8.136  70.815  1.00  0.00    -0.202 C  
HETATM    7  O   UNL     1     -11.335   8.944  70.436  1.00  0.00    -0.257 OA 
BRANCH   6   8
HETATM    8  N   UNL     1      -9.735   7.395  69.928  1.00  0.00    -0.171 N  
BRANCH   8   9
HETATM    9  C   UNL     1      -8.581   8.040  69.335  1.00  0.00    -0.136 C  
HETATM   10  O   UNL     1      -7.182   8.075  71.385  1.00  0.00    -0.060 OA 
HETATM   11  N   UNL     1      -8.853   9.268  68.624  1.00  0.00    -0.131 N  
HETATM   12  C   UNL     1      -7.513   8.575  70.315  1.00  0.00    -0.064 C  
HETATM   13  O   UNL     1      -7.629  11.166  68.105  1.00  0.00    -0.095 OA 
HETATM   14  N   UNL     1      -6.968   9.692  69.754  1.00  0.00    -0.068 N  
HETATM   15  C   UNL     1      -7.780  10.142  68.753  1.00  0.00    -0.088 C  
BRANCH  11  16
HETATM   16  C   UNL     1      -9.780   9.388  67.537  1.00  0.00    -0.157 C  
HETATM   17  H   UNL     1     -10.052   8.530  65.816  1.00  0.00     0.000 HD 
HETATM   18  O   UNL     1      -9.438   8.451  66.537  1.00  0.00    -0.186 OA 
ENDBRANCH  11  16
BRANCH  14  19
HETATM   19  C   UNL     1      -5.987  10.537  70.367  1.00  0.00    -0.112 C  
HETATM   20  O   UNL     1      -6.604  11.708  70.867  1.00  0.00    -0.282 OA 
HETATM   21  H   UNL     1      -5.954  12.268  71.274  1.00  0.00     0.000 HD 
ENDBRANCH  14  19
ENDBRANCH   8   9
BRANCH   8  22
HETATM   22  C   UNL     1     -10.148   6.126  69.378  1.00  0.00    -0.184 C  
HETATM   23  H   UNL     1     -11.505   4.821  69.792  1.00  0.00     0.000 HD 
HETATM   24  O   UNL     1     -11.233   5.656  70.154  1.00  0.00    -0.258 OA 
ENDBRANCH   8  22
ENDBRANCH   6   8
ENDBRANCH   4   6
ENDBRANCH   3   4
TORSDOF 7
ENDMDL
MODEL      295
REMARK 921   NORMALIZED FREE ENERGY PREDICTED BY IDOCK:   -2.07 KCAL/MOL
REMARK 922        TOTAL FREE ENERGY PREDICTED BY IDOCK:   -4.44 KCAL/MOL
REMARK 923 INTER-LIGAND FREE ENERGY PREDICTED BY IDOCK:   -3.25 KCAL/MOL
REMARK 924 INTRA-LIGAND FREE ENERGY PREDICTED BY IDOCK:   -1.19 KCAL/MOL
REMARK 927      BINDING AFFINITY PREDICTED BY RF-SCORE:    0.00 PKD
ROOT
HETATM    1  O   UNL     1      -7.820   8.778  73.803  1.00  0.00    -0.409 OA 
HETATM    2  H   UNL     1      -7.614   9.031  74.694  1.00  0.00     0.000 HD 
HETATM    3  C   UNL     1      -8.706   7.687  73.901  1.00  0.00    -0.251 C  
ENDROOT
BRANCH   3   4
HETATM    4  N   UNL     1      -9.015   7.308  72.565  1.00  0.00    -0.126 N  
HETATM    5  H   UNL     1      -8.882   6.341  72.269  1.00  0.00     0.000 HD 
BRANCH   4   6
HETATM    6  C   UNL     1      -9.487   8.231  71.682  1.00  0.00    -0.195 C  
HETATM    7  O   UNL     1     -10.381   9.017  71.986  1.00  0.00    -0.339 OA 
BRANCH   6   8
HETATM    8  N   UNL     1      -8.859   8.276  70.452  1.00  0.00    -0.138 N  
BRANCH   8   9
HETATM    9  C   UNL     1      -8.704   7.025  69.738  1.00  0.00    -0.142 C  
HETATM   10  O   UNL     1      -6.235   7.132  69.499  1.00  0.00    -0.033 OA 
HETATM   11  N   UNL     1      -9.538   6.869  68.569  1.00  0.00    -0.132 N  
HETATM   12  C   UNL     1      -7.330   6.778  69.074  1.00  0.00    -0.094 C  
HETATM   13  O   UNL     1      -9.387   5.659  66.598  1.00  0.00    -0.134 OA 
HETATM   14  N   UNL     1      -7.550   6.054  67.940  1.00  0.00    -0.095 N  
HETATM   15  C   UNL     1      -8.871   6.124  67.603  1.00  0.00    -0.103 C  
BRANCH  11  16
HETATM   16  C   UNL     1     -10.968   6.966  68.574  1.00  0.00    -0.136 C  
HETATM   17  H   UNL     1     -12.440   6.049  69.448  1.00  0.00     0.000 HD 
HETATM   18  O   UNL     1     -11.491   5.985  69.445  1.00  0.00    -0.372 OA 
ENDBRANCH  11  16
BRANCH  14  19
HETATM   19  C   UNL     1      -6.548   5.671  66.991  1.00  0.00    -0.056 C  
HETATM   20  O   UNL     1      -6.664   6.460  65.822  1.00  0.00    -0.046 OA 
HETATM   21  H   UNL     1      -6.000   6.207  65.193  1.00  0.00     0.000 HD 
ENDBRANCH  14  19
ENDBRANCH   8   9
BRANCH   8  22
HETATM   22  C   UNL     1      -8.145   9.426  69.951  1.00  0.00    -0.138 C  
HETATM   23  H   UNL     1      -6.843  10.657  70.661  1.00  0.00     0.000 HD 
HETATM   24  O   UNL     1      -7.312   9.900  70.991  1.00  0.00    -0.312 OA 
ENDBRANCH   8  22
ENDBRANCH   6   8
ENDBRANCH   4   6
ENDBRANCH   3   4
TORSDOF 7
ENDMDL
MODEL      296
REMARK 921   NORMALIZED FREE ENERGY PREDICTED BY IDOCK:   -2.05 KCAL/MOL
REMARK 922        TOTAL FREE ENERGY PREDICTED BY IDOCK:   -4.41 KCAL/MOL
REMARK 923 INTER-LIGAND FREE ENERGY PREDICTED BY IDOCK:   -3.56 KCAL/MOL
REMARK 924 INTRA-LIGAND FREE ENERGY PREDICTED BY IDOCK:   -0.85 KCAL/MOL
REMARK 927      BINDING AFFINITY PREDICTED BY RF-SCORE:    0.00 PKD
ROOT
HETATM    1  O   UNL     1     -10.532   3.863  65.602  1.00  0.00    -0.447 OA 
HETATM    2  H   UNL     1     -11.232   3.356  65.209  1.00  0.00     0.000 HD 
HETATM    3  C   UNL     1     -11.017   5.181  65.713  1.00  0.00     0.154 C  
ENDROOT
BRANCH   3   4
HETATM    4  N   UNL     1      -9.968   5.939  66.301  1.00  0.00    -0.344 N  
HETATM    5  H   UNL     1      -9.301   6.431  65.706  1.00  0.00     0.000 HD 
BRANCH   4   6
HETATM    6  C   UNL     1      -9.850   6.011  67.657  1.00  0.00    -0.123 C  
HETATM    7  O   UNL     1     -10.696   5.526  68.404  1.00  0.00    -0.182 OA 
BRANCH   6   8
HETATM    8  N   UNL     1      -8.697   6.600  68.139  1.00  0.00    -0.118 N  
BRANCH   8   9
HETATM    9  C   UNL     1      -8.835   7.862  68.837  1.00  0.00    -0.142 C  
HETATM   10  O   UNL     1      -9.845   6.939  70.908  1.00  0.00    -0.185 OA 
HETATM   11  N   UNL     1      -9.513   8.906  68.104  1.00  0.00    -0.142 N  
HETATM   12  C   UNL     1      -9.724   7.855  70.101  1.00  0.00    -0.179 C  
HETATM   13  O   UNL     1     -10.741  10.783  68.687  1.00  0.00    -0.181 OA 
HETATM   14  N   UNL     1     -10.324   9.076  70.184  1.00  0.00    -0.200 N  
HETATM   15  C   UNL     1     -10.234   9.711  68.979  1.00  0.00    -0.199 C  
BRANCH  11  16
HETATM   16  C   UNL     1      -9.108   9.388  66.816  1.00  0.00    -0.140 C  
HETATM   17  H   UNL     1      -9.851   9.408  65.022  1.00  0.00     0.000 HD 
HETATM   18  O   UNL     1     -10.119   9.089  65.876  1.00  0.00    -0.240 OA 
ENDBRANCH  11  16
BRANCH  14  19
HETATM   19  C   UNL     1     -11.285   9.465  71.172  1.00  0.00    -0.357 C  
HETATM   20  O   UNL     1     -12.413   8.612  71.110  1.00  0.00    -0.403 OA 
HETATM   21  H   UNL     1     -13.050   8.869  71.765  1.00  0.00     0.000 HD 
ENDBRANCH  14  19
ENDBRANCH   8   9
BRANCH   8  22
HETATM   22  C   UNL     1      -7.364   6.170  67.789  1.00  0.00    -0.084 C  
HETATM   23  H   UNL     1      -5.654   7.031  67.564  1.00  0.00     0.000 HD 
HETATM   24  O   UNL     1      -6.531   7.313  67.794  1.00  0.00    -0.048 OA 
ENDBRANCH   8  22
ENDBRANCH   6   8
ENDBRANCH   4   6
ENDBRANCH   3   4
TORSDOF 7
ENDMDL
MODEL      297
REMARK 921   NORMALIZED FREE ENERGY PREDICTED BY IDOCK:   -2.04 KCAL/MOL
REMARK 922        TOTAL FREE ENERGY PREDICTED BY IDOCK:   -4.41 KCAL/MOL
REMARK 923 INTER-LIGAND FREE ENERGY PREDICTED BY IDOCK:   -3.36 KCAL/MOL
REMARK 924 INTRA-LIGAND FREE ENERGY PREDICTED BY IDOCK:   -1.05 KCAL/MOL
REMARK 927      BINDING AFFINITY PREDICTED BY RF-SCORE:    0.00 PKD
ROOT
HETATM    1  O   UNL     1     -11.953  10.838  68.438  1.00  0.00    -0.752 OA 
HETATM    2  H   UNL     1     -12.644  11.294  68.902  1.00  0.00     0.000 HD 
HETATM    3  C   UNL     1     -10.777  11.581  68.657  1.00  0.00    -0.207 C  
ENDROOT
BRANCH   3   4
HETATM    4  N   UNL     1      -9.742  10.898  67.961  1.00  0.00    -0.161 N  
HETATM    5  H   UNL     1      -9.948  10.425  67.081  1.00  0.00     0.000 HD 
BRANCH   4   6
HETATM    6  C   UNL     1      -8.477  10.873  68.466  1.00  0.00    -0.147 C  
HETATM    7  O   UNL     1      -7.920  11.894  68.862  1.00  0.00    -0.079 OA 
BRANCH   6   8
HETATM    8  N   UNL     1      -7.885   9.629  68.567  1.00  0.00    -0.084 N  
BRANCH   8   9
HETATM    9  C   UNL     1      -7.377   9.032  67.349  1.00  0.00    -0.084 C  
HETATM   10  O   UNL     1      -5.792  10.853  66.773  1.00  0.00    -0.064 OA 
HETATM   11  N   UNL     1      -8.379   8.617  66.395  1.00  0.00    -0.110 N  
HETATM   12  C   UNL     1      -6.549   9.953  66.425  1.00  0.00    -0.073 C  
HETATM   13  O   UNL     1      -8.434   8.329  64.097  1.00  0.00    -0.097 OA 
HETATM   14  N   UNL     1      -6.782   9.558  65.140  1.00  0.00    -0.084 N  
HETATM   15  C   UNL     1      -7.901   8.777  65.100  1.00  0.00    -0.108 C  
BRANCH  11  16
HETATM   16  C   UNL     1      -9.445   7.702  66.685  1.00  0.00    -0.198 C  
HETATM   17  H   UNL     1     -11.327   7.831  67.145  1.00  0.00     0.000 HD 
HETATM   18  O   UNL     1     -10.620   8.437  66.953  1.00  0.00    -0.305 OA 
ENDBRANCH  11  16
BRANCH  14  19
HETATM   19  C   UNL     1      -6.264  10.195  63.968  1.00  0.00    -0.132 C  
HETATM   20  O   UNL     1      -7.312  10.825  63.257  1.00  0.00    -0.349 OA 
HETATM   21  H   UNL     1      -6.968  11.247  62.479  1.00  0.00     0.000 HD 
ENDBRANCH  14  19
ENDBRANCH   8   9
BRANCH   8  22
HETATM   22  C   UNL     1      -7.954   8.795  69.744  1.00  0.00    -0.095 C  
HETATM   23  H   UNL     1      -8.859   8.882  71.444  1.00  0.00     0.000 HD 
HETATM   24  O   UNL     1      -8.813   9.431  70.670  1.00  0.00    -0.232 OA 
ENDBRANCH   8  22
ENDBRANCH   6   8
ENDBRANCH   4   6
ENDBRANCH   3   4
TORSDOF 7
ENDMDL
MODEL      298
REMARK 921   NORMALIZED FREE ENERGY PREDICTED BY IDOCK:   -2.03 KCAL/MOL
REMARK 922        TOTAL FREE ENERGY PREDICTED BY IDOCK:   -4.39 KCAL/MOL
REMARK 923 INTER-LIGAND FREE ENERGY PREDICTED BY IDOCK:   -3.22 KCAL/MOL
REMARK 924 INTRA-LIGAND FREE ENERGY PREDICTED BY IDOCK:   -1.17 KCAL/MOL
REMARK 927      BINDING AFFINITY PREDICTED BY RF-SCORE:    0.00 PKD
ROOT
HETATM    1  O   UNL     1      -7.710   8.992  62.416  1.00  0.00    -0.113 OA 
HETATM    2  H   UNL     1      -7.959   8.397  61.719  1.00  0.00     0.000 HD 
HETATM    3  C   UNL     1      -8.633  10.054  62.374  1.00  0.00    -0.193 C  
ENDROOT
BRANCH   3   4
HETATM    4  N   UNL     1      -8.259  10.944  63.418  1.00  0.00    -0.373 N  
HETATM    5  H   UNL     1      -8.319  11.952  63.272  1.00  0.00     0.000 HD 
BRANCH   4   6
HETATM    6  C   UNL     1      -7.822  10.455  64.612  1.00  0.00    -0.077 C  
HETATM    7  O   UNL     1      -6.625  10.387  64.882  1.00  0.00    -0.121 OA 
BRANCH   6   8
HETATM    8  N   UNL     1      -8.800  10.104  65.522  1.00  0.00    -0.160 N  
BRANCH   8   9
HETATM    9  C   UNL     1      -8.474   9.072  66.486  1.00  0.00    -0.119 C  
HETATM   10  O   UNL     1      -8.364   7.191  64.870  1.00  0.00    -0.110 OA 
HETATM   11  N   UNL     1      -9.350   8.992  67.631  1.00  0.00    -0.135 N  
HETATM   12  C   UNL     1      -8.600   7.612  65.998  1.00  0.00    -0.151 C  
HETATM   13  O   UNL     1      -9.975   7.314  69.102  1.00  0.00    -0.164 OA 
HETATM   14  N   UNL     1      -8.985   6.857  67.067  1.00  0.00    -0.118 N  
HETATM   15  C   UNL     1      -9.470   7.672  68.049  1.00  0.00    -0.143 C  
BRANCH  11  16
HETATM   16  C   UNL     1      -9.617  10.080  68.526  1.00  0.00    -0.151 C  
HETATM   17  H   UNL     1      -8.640  11.053  69.893  1.00  0.00     0.000 HD 
HETATM   18  O   UNL     1      -8.463  10.332  69.300  1.00  0.00    -0.147 OA 
ENDBRANCH  11  16
BRANCH  14  19
HETATM   19  C   UNL     1      -9.285   5.457  67.031  1.00  0.00    -0.113 C  
HETATM   20  O   UNL     1     -10.673   5.266  66.835  1.00  0.00    -0.318 OA 
HETATM   21  H   UNL     1     -10.872   4.338  66.812  1.00  0.00     0.000 HD 
ENDBRANCH  14  19
ENDBRANCH   8   9
BRANCH   8  22
HETATM   22  C   UNL     1     -10.180  10.517  65.425  1.00  0.00    -0.270 C  
HETATM   23  H   UNL     1     -11.114  12.202  65.371  1.00  0.00     0.000 HD 
HETATM   24  O   UNL     1     -10.206  11.931  65.435  1.00  0.00    -0.246 OA 
ENDBRANCH   8  22
ENDBRANCH   6   8
ENDBRANCH   4   6
ENDBRANCH   3   4
TORSDOF 7
ENDMDL
MODEL      299
REMARK 921   NORMALIZED FREE ENERGY PREDICTED BY IDOCK:   -2.01 KCAL/MOL
REMARK 922        TOTAL FREE ENERGY PREDICTED BY IDOCK:   -4.37 KCAL/MOL
REMARK 923 INTER-LIGAND FREE ENERGY PREDICTED BY IDOCK:   -3.67 KCAL/MOL
REMARK 924 INTRA-LIGAND FREE ENERGY PREDICTED BY IDOCK:   -0.70 KCAL/MOL
REMARK 927      BINDING AFFINITY PREDICTED BY RF-SCORE:    0.00 PKD
ROOT
HETATM    1  O   UNL     1     -11.978  10.825  68.404  1.00  0.00    -0.752 OA 
HETATM    2  H   UNL     1     -12.652  11.269  68.905  1.00  0.00     0.000 HD 
HETATM    3  C   UNL     1     -10.798  11.570  68.591  1.00  0.00    -0.212 C  
ENDROOT
BRANCH   3   4
HETATM    4  N   UNL     1      -9.789  10.906  67.840  1.00  0.00    -0.169 N  
HETATM    5  H   UNL     1     -10.026  10.459  66.955  1.00  0.00     0.000 HD 
BRANCH   4   6
HETATM    6  C   UNL     1      -8.507  10.866  68.300  1.00  0.00    -0.134 C  
HETATM    7  O   UNL     1      -7.967  11.854  68.792  1.00  0.00    -0.123 OA 
BRANCH   6   8
HETATM    8  N   UNL     1      -7.876   9.639  68.241  1.00  0.00    -0.086 N  
BRANCH   8   9
HETATM    9  C   UNL     1      -8.158   8.692  69.300  1.00  0.00    -0.112 C  
HETATM   10  O   UNL     1     -10.507   8.222  68.650  1.00  0.00    -0.211 OA 
HETATM   11  N   UNL     1      -7.855   9.148  70.638  1.00  0.00    -0.132 N  
HETATM   12  C   UNL     1      -9.643   8.324  69.515  1.00  0.00    -0.171 C  
HETATM   13  O   UNL     1      -8.646   8.647  72.758  1.00  0.00    -0.394 OA 
HETATM   14  N   UNL     1      -9.817   8.090  70.847  1.00  0.00    -0.175 N  
HETATM   15  C   UNL     1      -8.763   8.609  71.542  1.00  0.00    -0.202 C  
BRANCH  11  16
HETATM   16  C   UNL     1      -6.567   9.608  71.065  1.00  0.00    -0.031 C  
HETATM   17  H   UNL     1      -4.906   8.797  71.659  1.00  0.00     0.000 HD 
HETATM   18  O   UNL     1      -5.760   8.492  71.375  1.00  0.00    -0.034 OA 
ENDBRANCH  11  16
BRANCH  14  19
HETATM   19  C   UNL     1     -11.064   7.788  71.483  1.00  0.00    -0.236 C  
HETATM   20  O   UNL     1     -11.473   8.878  72.287  1.00  0.00    -0.348 OA 
HETATM   21  H   UNL     1     -12.300   8.677  72.708  1.00  0.00     0.000 HD 
ENDBRANCH  14  19
ENDBRANCH   8   9
BRANCH   8  22
HETATM   22  C   UNL     1      -6.788   9.333  67.342  1.00  0.00    -0.077 C  
HETATM   23  H   UNL     1      -5.735  10.321  66.065  1.00  0.00     0.000 HD 
HETATM   24  O   UNL     1      -6.451  10.523  66.656  1.00  0.00    -0.073 OA 
ENDBRANCH   8  22
ENDBRANCH   6   8
ENDBRANCH   4   6
ENDBRANCH   3   4
TORSDOF 7
ENDMDL
MODEL      300
REMARK 921   NORMALIZED FREE ENERGY PREDICTED BY IDOCK:   -2.01 KCAL/MOL
REMARK 922        TOTAL FREE ENERGY PREDICTED BY IDOCK:   -4.37 KCAL/MOL
REMARK 923 INTER-LIGAND FREE ENERGY PREDICTED BY IDOCK:   -2.79 KCAL/MOL
REMARK 924 INTRA-LIGAND FREE ENERGY PREDICTED BY IDOCK:   -1.58 KCAL/MOL
REMARK 927      BINDING AFFINITY PREDICTED BY RF-SCORE:    0.00 PKD
ROOT
HETATM    1  O   UNL     1      -8.807   2.953  67.678  1.00  0.00    -0.109 OA 
HETATM    2  H   UNL     1      -8.662   2.015  67.690  1.00  0.00     0.000 HD 
HETATM    3  C   UNL     1      -8.427   3.424  68.950  1.00  0.00    -0.074 C  
ENDROOT
BRANCH   3   4
HETATM    4  N   UNL     1      -8.643   4.829  68.932  1.00  0.00    -0.084 N  
HETATM    5  H   UNL     1      -9.029   5.294  69.753  1.00  0.00     0.000 HD 
BRANCH   4   6
HETATM    6  C   UNL     1      -8.338   5.557  67.821  1.00  0.00    -0.099 C  
HETATM    7  O   UNL     1      -7.344   5.310  67.142  1.00  0.00    -0.080 OA 
BRANCH   6   8
HETATM    8  N   UNL     1      -9.241   6.540  67.467  1.00  0.00    -0.114 N  
BRANCH   8   9
HETATM    9  C   UNL     1      -9.034   7.864  68.017  1.00  0.00    -0.127 C  
HETATM   10  O   UNL     1     -10.841   7.759  69.715  1.00  0.00    -0.249 OA 
HETATM   11  N   UNL     1      -9.009   8.940  67.054  1.00  0.00    -0.125 N  
HETATM   12  C   UNL     1     -10.149   8.408  68.938  1.00  0.00    -0.199 C  
HETATM   13  O   UNL     1      -9.474  11.209  67.119  1.00  0.00    -0.170 OA 
HETATM   14  N   UNL     1     -10.200   9.759  68.763  1.00  0.00    -0.186 N  
HETATM   15  C   UNL     1      -9.544  10.094  67.613  1.00  0.00    -0.148 C  
BRANCH  11  16
HETATM   16  C   UNL     1      -8.118   9.004  65.932  1.00  0.00    -0.108 C  
HETATM   17  H   UNL     1      -6.212   8.781  65.632  1.00  0.00     0.000 HD 
HETATM   18  O   UNL     1      -6.803   8.738  66.375  1.00  0.00    -0.072 OA 
ENDBRANCH  11  16
BRANCH  14  19
HETATM   19  C   UNL     1     -11.144  10.643  69.377  1.00  0.00    -0.260 C  
HETATM   20  O   UNL     1     -12.445  10.372  68.892  1.00  0.00    -0.641 OA 
HETATM   21  H   UNL     1     -13.072  10.957  69.300  1.00  0.00     0.000 HD 
ENDBRANCH  14  19
ENDBRANCH   8   9
BRANCH   8  22
HETATM   22  C   UNL     1     -10.492   6.282  66.793  1.00  0.00    -0.244 C  
HETATM   23  H   UNL     1     -11.884   4.956  66.930  1.00  0.00     0.000 HD 
HETATM   24  O   UNL     1     -11.061   5.125  67.373  1.00  0.00     0.301 OA 
ENDBRANCH   8  22
ENDBRANCH   6   8
ENDBRANCH   4   6
ENDBRANCH   3   4
TORSDOF 7
ENDMDL
MODEL      301
REMARK 921   NORMALIZED FREE ENERGY PREDICTED BY IDOCK:   -2.01 KCAL/MOL
REMARK 922        TOTAL FREE ENERGY PREDICTED BY IDOCK:   -4.37 KCAL/MOL
REMARK 923 INTER-LIGAND FREE ENERGY PREDICTED BY IDOCK:   -3.92 KCAL/MOL
REMARK 924 INTRA-LIGAND FREE ENERGY PREDICTED BY IDOCK:   -0.45 KCAL/MOL
REMARK 927      BINDING AFFINITY PREDICTED BY RF-SCORE:    0.00 PKD
ROOT
HETATM    1  O   UNL     1     -12.820  15.703  71.174  1.00  0.00    -0.462 OA 
HETATM    2  H   UNL     1     -13.678  15.834  71.558  1.00  0.00     0.000 HD 
HETATM    3  C   UNL     1     -12.831  14.409  70.619  1.00  0.00    -0.328 C  
ENDROOT
BRANCH   3   4
HETATM    4  N   UNL     1     -11.545  14.213  70.045  1.00  0.00    -0.372 N  
HETATM    5  H   UNL     1     -10.847  13.659  70.540  1.00  0.00     0.000 HD 
BRANCH   4   6
HETATM    6  C   UNL     1     -11.243  14.764  68.836  1.00  0.00    -0.266 C  
HETATM    7  O   UNL     1     -12.108  15.266  68.121  1.00  0.00    -0.176 OA 
BRANCH   6   8
HETATM    8  N   UNL     1      -9.906  14.784  68.492  1.00  0.00    -0.212 N  
BRANCH   8   9
HETATM    9  C   UNL     1      -9.238  16.070  68.485  1.00  0.00    -0.206 C  
HETATM   10  O   UNL     1     -10.613  17.120  70.264  1.00  0.00     0.125 OA 
HETATM   11  N   UNL     1      -9.123  16.703  67.191  1.00  0.00    -0.211 N  
HETATM   12  C   UNL     1      -9.948  17.217  69.238  1.00  0.00    -0.151 C  
HETATM   13  O   UNL     1      -8.934  18.890  66.448  1.00  0.00    -0.317 OA 
HETATM   14  N   UNL     1      -9.667  18.375  68.576  1.00  0.00    -0.345 N  
HETATM   15  C   UNL     1      -9.198  18.084  67.328  1.00  0.00    -0.255 C  
BRANCH  11  16
HETATM   16  C   UNL     1      -8.501  16.103  66.047  1.00  0.00    -0.120 C  
HETATM   17  H   UNL     1      -6.693  15.910  65.365  1.00  0.00     0.000 HD 
HETATM   18  O   UNL     1      -7.106  16.307  66.124  1.00  0.00     0.056 OA 
ENDBRANCH  11  16
BRANCH  14  19
HETATM   19  C   UNL     1     -10.188  19.668  68.904  1.00  0.00    -0.325 C  
HETATM   20  O   UNL     1     -11.118  20.077  67.920  1.00  0.00    -0.023 OA 
HETATM   21  H   UNL     1     -11.464  20.934  68.138  1.00  0.00     0.000 HD 
ENDBRANCH  14  19
ENDBRANCH   8   9
BRANCH   8  22
HETATM   22  C   UNL     1      -9.203  13.662  67.915  1.00  0.00    -0.203 C  
HETATM   23  H   UNL     1      -7.424  12.932  68.051  1.00  0.00     0.000 HD 
HETATM   24  O   UNL     1      -7.887  13.670  68.431  1.00  0.00    -0.129 OA 
ENDBRANCH   8  22
ENDBRANCH   6   8
ENDBRANCH   4   6
ENDBRANCH   3   4
TORSDOF 7
ENDMDL
MODEL      302
REMARK 921   NORMALIZED FREE ENERGY PREDICTED BY IDOCK:   -1.98 KCAL/MOL
REMARK 922        TOTAL FREE ENERGY PREDICTED BY IDOCK:   -4.32 KCAL/MOL
REMARK 923 INTER-LIGAND FREE ENERGY PREDICTED BY IDOCK:   -3.61 KCAL/MOL
REMARK 924 INTRA-LIGAND FREE ENERGY PREDICTED BY IDOCK:   -0.71 KCAL/MOL
REMARK 927      BINDING AFFINITY PREDICTED BY RF-SCORE:    0.00 PKD
ROOT
HETATM    1  O   UNL     1     -10.305   7.412  66.437  1.00  0.00    -0.487 OA 
HETATM    2  H   UNL     1     -10.909   7.091  65.778  1.00  0.00     0.000 HD 
HETATM    3  C   UNL     1     -10.745   6.879  67.664  1.00  0.00    -0.274 C  
ENDROOT
BRANCH   3   4
HETATM    4  N   UNL     1      -9.840   7.359  68.651  1.00  0.00    -0.159 N  
HETATM    5  H   UNL     1      -9.000   6.825  68.872  1.00  0.00     0.000 HD 
BRANCH   4   6
HETATM    6  C   UNL     1     -10.092   8.529  69.302  1.00  0.00    -0.202 C  
HETATM    7  O   UNL     1     -11.235   8.871  69.596  1.00  0.00    -0.114 OA 
BRANCH   6   8
HETATM    8  N   UNL     1      -8.988   9.274  69.668  1.00  0.00    -0.149 N  
BRANCH   8   9
HETATM    9  C   UNL     1      -8.482  10.232  68.706  1.00  0.00    -0.130 C  
HETATM   10  O   UNL     1     -10.404  11.800  68.821  1.00  0.00    -0.213 OA 
HETATM   11  N   UNL     1      -8.073   9.681  67.435  1.00  0.00    -0.110 N  
HETATM   12  C   UNL     1      -9.490  11.282  68.187  1.00  0.00    -0.184 C  
HETATM   13  O   UNL     1      -7.909  10.497  65.272  1.00  0.00    -0.151 OA 
HETATM   14  N   UNL     1      -9.155  11.565  66.895  1.00  0.00    -0.174 N  
HETATM   15  C   UNL     1      -8.326  10.592  66.416  1.00  0.00    -0.151 C  
BRANCH  11  16
HETATM   16  C   UNL     1      -7.096   8.645  67.277  1.00  0.00    -0.079 C  
HETATM   17  H   UNL     1      -5.194   8.438  67.611  1.00  0.00     0.000 HD 
HETATM   18  O   UNL     1      -5.842   9.125  67.716  1.00  0.00    -0.042 OA 
ENDBRANCH  11  16
BRANCH  14  19
HETATM   19  C   UNL     1      -9.878  12.439  66.021  1.00  0.00    -0.257 C  
HETATM   20  O   UNL     1     -10.048  13.703  66.634  1.00  0.00    -0.265 OA 
HETATM   21  H   UNL     1     -10.527  14.282  66.054  1.00  0.00     0.000 HD 
ENDBRANCH  14  19
ENDBRANCH   8   9
BRANCH   8  22
HETATM   22  C   UNL     1      -8.173   8.994  70.826  1.00  0.00    -0.181 C  
HETATM   23  H   UNL     1      -6.508   9.660  71.533  1.00  0.00     0.000 HD 
HETATM   24  O   UNL     1      -7.044   9.844  70.771  1.00  0.00    -0.294 OA 
ENDBRANCH   8  22
ENDBRANCH   6   8
ENDBRANCH   4   6
ENDBRANCH   3   4
TORSDOF 7
ENDMDL
MODEL      303
REMARK 921   NORMALIZED FREE ENERGY PREDICTED BY IDOCK:   -1.92 KCAL/MOL
REMARK 922        TOTAL FREE ENERGY PREDICTED BY IDOCK:   -4.23 KCAL/MOL
REMARK 923 INTER-LIGAND FREE ENERGY PREDICTED BY IDOCK:   -3.26 KCAL/MOL
REMARK 924 INTRA-LIGAND FREE ENERGY PREDICTED BY IDOCK:   -0.97 KCAL/MOL
REMARK 927      BINDING AFFINITY PREDICTED BY RF-SCORE:    0.00 PKD
ROOT
HETATM    1  O   UNL     1     -10.374   3.454  65.061  1.00  0.00    -0.401 OA 
HETATM    2  H   UNL     1     -11.110   3.066  64.604  1.00  0.00     0.000 HD 
HETATM    3  C   UNL     1     -10.823   4.700  65.541  1.00  0.00    -0.063 C  
ENDROOT
BRANCH   3   4
HETATM    4  N   UNL     1      -9.720   5.281  66.225  1.00  0.00    -0.160 N  
HETATM    5  H   UNL     1      -8.769   4.994  65.992  1.00  0.00     0.000 HD 
BRANCH   4   6
HETATM    6  C   UNL     1      -9.929   6.219  67.191  1.00  0.00    -0.151 C  
HETATM    7  O   UNL     1     -11.060   6.587  67.499  1.00  0.00    -0.341 OA 
BRANCH   6   8
HETATM    8  N   UNL     1      -8.804   6.681  67.846  1.00  0.00    -0.116 N  
BRANCH   8   9
HETATM    9  C   UNL     1      -8.443   8.071  67.651  1.00  0.00    -0.131 C  
HETATM   10  O   UNL     1     -10.183   9.034  69.137  1.00  0.00    -0.194 OA 
HETATM   11  N   UNL     1      -8.348   8.501  66.275  1.00  0.00    -0.112 N  
HETATM   12  C   UNL     1      -9.460   9.122  68.149  1.00  0.00    -0.142 C  
HETATM   13  O   UNL     1      -8.581  10.526  65.171  1.00  0.00    -0.175 OA 
HETATM   14  N   UNL     1      -9.382  10.195  67.311  1.00  0.00    -0.151 N  
HETATM   15  C   UNL     1      -8.742   9.829  66.162  1.00  0.00    -0.136 C  
BRANCH  11  16
HETATM   16  C   UNL     1      -7.501   7.893  65.292  1.00  0.00    -0.081 C  
HETATM   17  H   UNL     1      -7.741   6.975  63.597  1.00  0.00     0.000 HD 
HETATM   18  O   UNL     1      -8.303   7.379  64.249  1.00  0.00    -0.036 OA 
ENDBRANCH  11  16
BRANCH  14  19
HETATM   19  C   UNL     1     -10.208  11.363  67.376  1.00  0.00    -0.193 C  
HETATM   20  O   UNL     1     -11.570  10.999  67.253  1.00  0.00    -0.496 OA 
HETATM   21  H   UNL     1     -12.117  11.773  67.297  1.00  0.00     0.000 HD 
ENDBRANCH  14  19
ENDBRANCH   8   9
BRANCH   8  22
HETATM   22  C   UNL     1      -7.846   5.827  68.506  1.00  0.00    -0.097 C  
HETATM   23  H   UNL     1      -7.893   4.091  69.342  1.00  0.00     0.000 HD 
HETATM   24  O   UNL     1      -8.524   4.653  68.908  1.00  0.00    -0.081 OA 
ENDBRANCH   8  22
ENDBRANCH   6   8
ENDBRANCH   4   6
ENDBRANCH   3   4
TORSDOF 7
ENDMDL
MODEL      304
REMARK 921   NORMALIZED FREE ENERGY PREDICTED BY IDOCK:   -1.91 KCAL/MOL
REMARK 922        TOTAL FREE ENERGY PREDICTED BY IDOCK:   -4.22 KCAL/MOL
REMARK 923 INTER-LIGAND FREE ENERGY PREDICTED BY IDOCK:   -3.14 KCAL/MOL
REMARK 924 INTRA-LIGAND FREE ENERGY PREDICTED BY IDOCK:   -1.08 KCAL/MOL
REMARK 927      BINDING AFFINITY PREDICTED BY RF-SCORE:    0.00 PKD
ROOT
HETATM    1  O   UNL     1      -7.804   8.794  73.729  1.00  0.00    -0.409 OA 
HETATM    2  H   UNL     1      -7.752   8.867  74.674  1.00  0.00     0.000 HD 
HETATM    3  C   UNL     1      -8.818   7.854  73.463  1.00  0.00    -0.272 C  
ENDROOT
BRANCH   3   4
HETATM    4  N   UNL     1      -8.896   7.744  72.047  1.00  0.00    -0.123 N  
HETATM    5  H   UNL     1      -9.649   7.205  71.620  1.00  0.00     0.000 HD 
BRANCH   4   6
HETATM    6  C   UNL     1      -7.967   8.357  71.260  1.00  0.00    -0.121 C  
HETATM    7  O   UNL     1      -7.929   9.579  71.139  1.00  0.00    -0.315 OA 
BRANCH   6   8
HETATM    8  N   UNL     1      -7.035   7.532  70.662  1.00  0.00    -0.051 N  
BRANCH   8   9
HETATM    9  C   UNL     1      -7.494   6.677  69.586  1.00  0.00    -0.096 C  
HETATM   10  O   UNL     1      -8.498   8.473  68.198  1.00  0.00    -0.132 OA 
HETATM   11  N   UNL     1      -8.293   5.543  69.991  1.00  0.00    -0.114 N  
HETATM   12  C   UNL     1      -8.484   7.308  68.582  1.00  0.00    -0.129 C  
HETATM   13  O   UNL     1      -9.928   4.247  68.981  1.00  0.00    -0.129 OA 
HETATM   14  N   UNL     1      -9.325   6.320  68.162  1.00  0.00    -0.116 N  
HETATM   15  C   UNL     1      -9.246   5.260  69.019  1.00  0.00    -0.118 C  
BRANCH  11  16
HETATM   16  C   UNL     1      -7.868   4.544  70.926  1.00  0.00    -0.068 C  
HETATM   17  H   UNL     1      -6.421   3.254  71.050  1.00  0.00     0.000 HD 
HETATM   18  O   UNL     1      -6.703   3.917  70.430  1.00  0.00    -0.032 OA 
ENDBRANCH  11  16
BRANCH  14  19
HETATM   19  C   UNL     1     -10.438   6.495  67.279  1.00  0.00    -0.272 C  
HETATM   20  O   UNL     1     -11.648   6.454  68.013  1.00  0.00    -0.575 OA 
HETATM   21  H   UNL     1     -12.386   6.570  67.427  1.00  0.00     0.000 HD 
ENDBRANCH  14  19
ENDBRANCH   8   9
BRANCH   8  22
HETATM   22  C   UNL     1      -5.712   7.292  71.189  1.00  0.00    -0.035 C  
HETATM   23  H   UNL     1      -4.982   6.760  72.892  1.00  0.00     0.000 HD 
HETATM   24  O   UNL     1      -5.853   6.917  72.546  1.00  0.00    -0.038 OA 
ENDBRANCH   8  22
ENDBRANCH   6   8
ENDBRANCH   4   6
ENDBRANCH   3   4
TORSDOF 7
ENDMDL
MODEL      305
REMARK 921   NORMALIZED FREE ENERGY PREDICTED BY IDOCK:   -1.90 KCAL/MOL
REMARK 922        TOTAL FREE ENERGY PREDICTED BY IDOCK:   -4.21 KCAL/MOL
REMARK 923 INTER-LIGAND FREE ENERGY PREDICTED BY IDOCK:   -3.02 KCAL/MOL
REMARK 924 INTRA-LIGAND FREE ENERGY PREDICTED BY IDOCK:   -1.19 KCAL/MOL
REMARK 927      BINDING AFFINITY PREDICTED BY RF-SCORE:    0.00 PKD
ROOT
HETATM    1  O   UNL     1      -6.134   4.010  67.577  1.00  0.00    -0.027 OA 
HETATM    2  H   UNL     1      -5.355   3.706  67.128  1.00  0.00     0.000 HD 
HETATM    3  C   UNL     1      -5.922   5.375  67.852  1.00  0.00    -0.018 C  
ENDROOT
BRANCH   3   4
HETATM    4  N   UNL     1      -7.089   5.829  68.526  1.00  0.00    -0.075 N  
HETATM    5  H   UNL     1      -7.735   6.460  68.053  1.00  0.00     0.000 HD 
BRANCH   4   6
HETATM    6  C   UNL     1      -7.347   5.423  69.801  1.00  0.00    -0.065 C  
HETATM    7  O   UNL     1      -6.794   4.440  70.289  1.00  0.00    -0.032 OA 
BRANCH   6   8
HETATM    8  N   UNL     1      -8.211   6.215  70.530  1.00  0.00    -0.112 N  
BRANCH   8   9
HETATM    9  C   UNL     1      -9.569   5.740  70.698  1.00  0.00    -0.174 C  
HETATM   10  O   UNL     1     -10.675   7.567  69.432  1.00  0.00    -0.229 OA 
HETATM   11  N   UNL     1      -9.966   5.460  72.059  1.00  0.00    -0.179 N  
HETATM   12  C   UNL     1     -10.695   6.732  70.331  1.00  0.00    -0.241 C  
HETATM   13  O   UNL     1     -11.981   5.426  73.204  1.00  0.00    -0.121 OA 
HETATM   14  N   UNL     1     -11.745   6.486  71.167  1.00  0.00    -0.332 N  
HETATM   15  C   UNL     1     -11.315   5.746  72.231  1.00  0.00    -0.278 C  
BRANCH  11  16
HETATM   16  C   UNL     1      -9.284   4.550  72.931  1.00  0.00    -0.123 C  
HETATM   17  H   UNL     1      -8.881   2.650  72.950  1.00  0.00     0.000 HD 
HETATM   18  O   UNL     1      -9.333   3.254  72.372  1.00  0.00    -0.099 OA 
ENDBRANCH  11  16
BRANCH  14  19
HETATM   19  C   UNL     1     -12.966   7.231  71.210  1.00  0.00    -0.328 C  
HETATM   20  O   UNL     1     -12.688   8.618  71.163  1.00  0.00    -0.454 OA 
HETATM   21  H   UNL     1     -13.498   9.112  71.191  1.00  0.00     0.000 HD 
ENDBRANCH  14  19
ENDBRANCH   8   9
BRANCH   8  22
HETATM   22  C   UNL     1      -7.924   7.574  70.924  1.00  0.00    -0.096 C  
HETATM   23  H   UNL     1      -6.437   8.783  70.719  1.00  0.00     0.000 HD 
HETATM   24  O   UNL     1      -6.626   7.889  70.460  1.00  0.00    -0.037 OA 
ENDBRANCH   8  22
ENDBRANCH   6   8
ENDBRANCH   4   6
ENDBRANCH   3   4
TORSDOF 7
ENDMDL
MODEL      306
REMARK 921   NORMALIZED FREE ENERGY PREDICTED BY IDOCK:   -1.86 KCAL/MOL
REMARK 922        TOTAL FREE ENERGY PREDICTED BY IDOCK:   -4.15 KCAL/MOL
REMARK 923 INTER-LIGAND FREE ENERGY PREDICTED BY IDOCK:   -3.81 KCAL/MOL
REMARK 924 INTRA-LIGAND FREE ENERGY PREDICTED BY IDOCK:   -0.34 KCAL/MOL
REMARK 927      BINDING AFFINITY PREDICTED BY RF-SCORE:    0.00 PKD
ROOT
HETATM    1  O   UNL     1     -10.623  11.772  64.775  1.00  0.00    -0.274 OA 
HETATM    2  H   UNL     1     -11.147  12.168  64.089  1.00  0.00     0.000 HD 
HETATM    3  C   UNL     1     -11.407  11.823  65.944  1.00  0.00    -0.263 C  
ENDROOT
BRANCH   3   4
HETATM    4  N   UNL     1     -10.622  11.231  66.972  1.00  0.00    -0.234 N  
HETATM    5  H   UNL     1      -9.624  11.082  66.827  1.00  0.00     0.000 HD 
BRANCH   4   6
HETATM    6  C   UNL     1     -11.201  10.860  68.149  1.00  0.00    -0.301 C  
HETATM    7  O   UNL     1     -12.352  11.183  68.431  1.00  0.00    -0.556 OA 
BRANCH   6   8
HETATM    8  N   UNL     1     -10.443  10.051  68.972  1.00  0.00    -0.202 N  
BRANCH   8   9
HETATM    9  C   UNL     1      -9.799   8.902  68.368  1.00  0.00    -0.174 C  
HETATM   10  O   UNL     1     -11.174   7.171  69.496  1.00  0.00    -0.188 OA 
HETATM   11  N   UNL     1      -8.359   8.868  68.479  1.00  0.00    -0.123 N  
HETATM   12  C   UNL     1     -10.110   7.527  69.000  1.00  0.00    -0.192 C  
HETATM   13  O   UNL     1      -6.757   7.193  68.496  1.00  0.00    -0.056 OA 
HETATM   14  N   UNL     1      -8.992   6.757  68.872  1.00  0.00    -0.131 N  
HETATM   15  C   UNL     1      -7.921   7.553  68.589  1.00  0.00    -0.123 C  
BRANCH  11  16
HETATM   16  C   UNL     1      -7.485   9.905  68.015  1.00  0.00    -0.085 C  
HETATM   17  H   UNL     1      -7.314  10.993  66.416  1.00  0.00     0.000 HD 
HETATM   18  O   UNL     1      -7.893  10.306  66.724  1.00  0.00    -0.110 OA 
ENDBRANCH  11  16
BRANCH  14  19
HETATM   19  C   UNL     1      -8.832   5.432  69.390  1.00  0.00    -0.105 C  
HETATM   20  O   UNL     1      -9.932   5.100  70.216  1.00  0.00    -0.208 OA 
HETATM   21  H   UNL     1      -9.826   4.221  70.559  1.00  0.00     0.000 HD 
ENDBRANCH  14  19
ENDBRANCH   8   9
BRANCH   8  22
HETATM   22  C   UNL     1     -10.448  10.134  70.414  1.00  0.00    -0.173 C  
HETATM   23  H   UNL     1     -11.791  10.053  71.794  1.00  0.00     0.000 HD 
HETATM   24  O   UNL     1     -11.788   9.998  70.846  1.00  0.00    -0.311 OA 
ENDBRANCH   8  22
ENDBRANCH   6   8
ENDBRANCH   4   6
ENDBRANCH   3   4
TORSDOF 7
ENDMDL
MODEL      307
REMARK 921   NORMALIZED FREE ENERGY PREDICTED BY IDOCK:   -1.77 KCAL/MOL
REMARK 922        TOTAL FREE ENERGY PREDICTED BY IDOCK:   -4.02 KCAL/MOL
REMARK 923 INTER-LIGAND FREE ENERGY PREDICTED BY IDOCK:   -3.49 KCAL/MOL
REMARK 924 INTRA-LIGAND FREE ENERGY PREDICTED BY IDOCK:   -0.53 KCAL/MOL
REMARK 927      BINDING AFFINITY PREDICTED BY RF-SCORE:    0.00 PKD
ROOT
HETATM    1  O   UNL     1      -7.853   5.768  66.432  1.00  0.00    -0.098 OA 
HETATM    2  H   UNL     1      -8.167   4.895  66.229  1.00  0.00     0.000 HD 
HETATM    3  C   UNL     1      -9.000   6.570  66.589  1.00  0.00    -0.138 C  
ENDROOT
BRANCH   3   4
HETATM    4  N   UNL     1      -8.530   7.877  66.893  1.00  0.00    -0.125 N  
HETATM    5  H   UNL     1      -7.886   8.346  66.256  1.00  0.00     0.000 HD 
BRANCH   4   6
HETATM    6  C   UNL     1      -8.936   8.505  68.032  1.00  0.00    -0.141 C  
HETATM    7  O   UNL     1      -8.160   9.170  68.714  1.00  0.00    -0.099 OA 
BRANCH   6   8
HETATM    8  N   UNL     1     -10.279   8.404  68.338  1.00  0.00    -0.202 N  
BRANCH   8   9
HETATM    9  C   UNL     1     -11.125   9.531  68.003  1.00  0.00     0.005 C  
HETATM   10  O   UNL     1     -10.496   9.663  65.606  1.00  0.00    -0.054 OA 
HETATM   11  N   UNL     1     -10.983  10.690  68.854  1.00  0.00    -0.231 N  
HETATM   12  C   UNL     1     -10.857  10.211  66.642  1.00  0.00    -0.014 C  
HETATM   13  O   UNL     1     -11.326  12.967  68.592  1.00  0.00    -0.249 OA 
HETATM   14  N   UNL     1     -11.135  11.538  66.788  1.00  0.00    -0.298 N  
HETATM   15  C   UNL     1     -11.183  11.850  68.116  1.00  0.00    -0.258 C  
BRANCH  11  16
HETATM   16  C   UNL     1     -11.152  10.677  70.277  1.00  0.00    -0.233 C  
HETATM   17  H   UNL     1     -12.644  10.590  71.518  1.00  0.00     0.000 HD 
HETATM   18  O   UNL     1     -12.531  10.598  70.574  1.00  0.00    -0.316 OA 
ENDBRANCH  11  16
BRANCH  14  19
HETATM   19  C   UNL     1     -10.952  12.542  65.783  1.00  0.00    -0.292 C  
HETATM   20  O   UNL     1      -9.588  12.611  65.414  1.00  0.00    -0.450 OA 
HETATM   21  H   UNL     1      -9.466  13.276  64.747  1.00  0.00     0.000 HD 
ENDBRANCH  14  19
ENDBRANCH   8   9
BRANCH   8  22
HETATM   22  C   UNL     1     -10.842   7.369  69.174  1.00  0.00    -0.111 C  
HETATM   23  H   UNL     1     -10.361   6.531  70.842  1.00  0.00     0.000 HD 
HETATM   24  O   UNL     1      -9.991   7.212  70.292  1.00  0.00    -0.186 OA 
ENDBRANCH   8  22
ENDBRANCH   6   8
ENDBRANCH   4   6
ENDBRANCH   3   4
TORSDOF 7
ENDMDL
MODEL      308
REMARK 921   NORMALIZED FREE ENERGY PREDICTED BY IDOCK:   -1.77 KCAL/MOL
REMARK 922        TOTAL FREE ENERGY PREDICTED BY IDOCK:   -4.02 KCAL/MOL
REMARK 923 INTER-LIGAND FREE ENERGY PREDICTED BY IDOCK:   -4.05 KCAL/MOL
REMARK 924 INTRA-LIGAND FREE ENERGY PREDICTED BY IDOCK:    0.03 KCAL/MOL
REMARK 927      BINDING AFFINITY PREDICTED BY RF-SCORE:    0.00 PKD
ROOT
HETATM    1  O   UNL     1     -11.495  16.483  71.849  1.00  0.00    -0.404 OA 
HETATM    2  H   UNL     1     -12.175  16.754  72.454  1.00  0.00     0.000 HD 
HETATM    3  C   UNL     1     -11.822  15.171  71.454  1.00  0.00    -0.362 C  
ENDROOT
BRANCH   3   4
HETATM    4  N   UNL     1     -10.804  14.765  70.548  1.00  0.00    -0.497 N  
HETATM    5  H   UNL     1     -10.590  13.774  70.435  1.00  0.00     0.000 HD 
BRANCH   4   6
HETATM    6  C   UNL     1     -10.113  15.695  69.831  1.00  0.00    -0.265 C  
HETATM    7  O   UNL     1     -10.566  16.819  69.628  1.00  0.00    -0.319 OA 
BRANCH   6   8
HETATM    8  N   UNL     1      -8.853  15.325  69.405  1.00  0.00    -0.240 N  
BRANCH   8   9
HETATM    9  C   UNL     1      -8.430  15.784  68.098  1.00  0.00    -0.162 C  
HETATM   10  O   UNL     1      -7.314  17.863  68.867  1.00  0.00    -0.276 OA 
HETATM   11  N   UNL     1      -9.468  15.848  67.095  1.00  0.00    -0.211 N  
HETATM   12  C   UNL     1      -7.935  17.245  68.009  1.00  0.00    -0.215 C  
HETATM   13  O   UNL     1      -9.810  17.088  65.168  1.00  0.00    -0.179 OA 
HETATM   14  N   UNL     1      -8.278  17.718  66.777  1.00  0.00    -0.239 N  
HETATM   15  C   UNL     1      -9.226  16.904  66.225  1.00  0.00    -0.267 C  
BRANCH  11  16
HETATM   16  C   UNL     1     -10.290  14.740  66.706  1.00  0.00    -0.268 C  
HETATM   17  H   UNL     1     -12.136  14.196  66.963  1.00  0.00     0.000 HD 
HETATM   18  O   UNL     1     -11.591  14.930  67.220  1.00  0.00    -0.360 OA 
ENDBRANCH  11  16
BRANCH  14  19
HETATM   19  C   UNL     1      -8.067  19.055  66.311  1.00  0.00    -0.285 C  
HETATM   20  O   UNL     1      -7.208  19.044  65.186  1.00  0.00    -0.407 OA 
HETATM   21  H   UNL     1      -7.068  19.931  64.877  1.00  0.00     0.000 HD 
ENDBRANCH  14  19
ENDBRANCH   8   9
BRANCH   8  22
HETATM   22  C   UNL     1      -8.039  14.328  70.061  1.00  0.00     1.019 C  
HETATM   23  H   UNL     1      -6.532  13.235  69.563  1.00  0.00     0.000 HD 
HETATM   24  O   UNL     1      -7.067  13.890  69.132  1.00  0.00    -0.111 OA 
ENDBRANCH   8  22
ENDBRANCH   6   8
ENDBRANCH   4   6
ENDBRANCH   3   4
TORSDOF 7
ENDMDL
MODEL      309
REMARK 921   NORMALIZED FREE ENERGY PREDICTED BY IDOCK:   -1.75 KCAL/MOL
REMARK 922        TOTAL FREE ENERGY PREDICTED BY IDOCK:   -3.99 KCAL/MOL
REMARK 923 INTER-LIGAND FREE ENERGY PREDICTED BY IDOCK:   -4.09 KCAL/MOL
REMARK 924 INTRA-LIGAND FREE ENERGY PREDICTED BY IDOCK:    0.10 KCAL/MOL
REMARK 927      BINDING AFFINITY PREDICTED BY RF-SCORE:    0.00 PKD
ROOT
HETATM    1  O   UNL     1     -12.137  13.216  68.443  1.00  0.00    -0.318 OA 
HETATM    2  H   UNL     1     -12.690  13.548  69.139  1.00  0.00     0.000 HD 
HETATM    3  C   UNL     1     -11.222  12.338  69.056  1.00  0.00    -0.265 C  
ENDROOT
BRANCH   3   4
HETATM    4  N   UNL     1     -10.393  11.840  68.013  1.00  0.00    -0.192 N  
HETATM    5  H   UNL     1     -10.773  11.725  67.073  1.00  0.00     0.000 HD 
BRANCH   4   6
HETATM    6  C   UNL     1      -9.093  11.516  68.265  1.00  0.00    -0.185 C  
HETATM    7  O   UNL     1      -8.767  10.899  69.277  1.00  0.00    -0.099 OA 
BRANCH   6   8
HETATM    8  N   UNL     1      -8.178  11.862  67.290  1.00  0.00    -0.162 N  
BRANCH   8   9
HETATM    9  C   UNL     1      -8.697  12.405  66.051  1.00  0.00     0.311 C  
HETATM   10  O   UNL     1      -9.289  14.645  66.942  1.00  0.00    -0.220 OA 
HETATM   11  N   UNL     1      -9.700  11.600  65.392  1.00  0.00    -0.230 N  
HETATM   12  C   UNL     1      -9.496  13.723  66.160  1.00  0.00    -0.159 C  
HETATM   13  O   UNL     1     -11.454  12.033  63.940  1.00  0.00    -0.373 OA 
HETATM   14  N   UNL     1     -10.459  13.697  65.194  1.00  0.00    -0.353 N  
HETATM   15  C   UNL     1     -10.617  12.418  64.743  1.00  0.00    -0.300 C  
BRANCH  11  16
HETATM   16  C   UNL     1      -9.514  10.235  64.996  1.00  0.00    -0.257 C  
HETATM   17  H   UNL     1     -10.160   8.498  65.576  1.00  0.00     0.000 HD 
HETATM   18  O   UNL     1     -10.284   9.403  65.838  1.00  0.00    -0.259 OA 
ENDBRANCH  11  16
BRANCH  14  19
HETATM   19  C   UNL     1     -11.463  14.698  64.994  1.00  0.00    -0.386 C  
HETATM   20  O   UNL     1     -10.873  15.984  65.011  1.00  0.00    -0.465 OA 
HETATM   21  H   UNL     1     -11.539  16.647  64.878  1.00  0.00     0.000 HD 
ENDBRANCH  14  19
ENDBRANCH   8   9
BRANCH   8  22
HETATM   22  C   UNL     1      -6.781  11.499  67.329  1.00  0.00    -0.112 C  
HETATM   23  H   UNL     1      -5.178  12.269  68.073  1.00  0.00     0.000 HD 
HETATM   24  O   UNL     1      -6.097  12.507  68.048  1.00  0.00    -0.069 OA 
ENDBRANCH   8  22
ENDBRANCH   6   8
ENDBRANCH   4   6
ENDBRANCH   3   4
TORSDOF 7
ENDMDL
MODEL      310
REMARK 921   NORMALIZED FREE ENERGY PREDICTED BY IDOCK:   -1.74 KCAL/MOL
REMARK 922        TOTAL FREE ENERGY PREDICTED BY IDOCK:   -3.99 KCAL/MOL
REMARK 923 INTER-LIGAND FREE ENERGY PREDICTED BY IDOCK:   -2.86 KCAL/MOL
REMARK 924 INTRA-LIGAND FREE ENERGY PREDICTED BY IDOCK:   -1.12 KCAL/MOL
REMARK 927      BINDING AFFINITY PREDICTED BY RF-SCORE:    0.00 PKD
ROOT
HETATM    1  O   UNL     1      -6.329   4.398  67.864  1.00  0.00    -0.035 OA 
HETATM    2  H   UNL     1      -5.485   3.963  67.865  1.00  0.00     0.000 HD 
HETATM    3  C   UNL     1      -6.081   5.734  68.233  1.00  0.00    -0.018 C  
ENDROOT
BRANCH   3   4
HETATM    4  N   UNL     1      -7.345   6.386  68.231  1.00  0.00    -0.085 N  
HETATM    5  H   UNL     1      -7.850   6.511  67.354  1.00  0.00     0.000 HD 
BRANCH   4   6
HETATM    6  C   UNL     1      -7.882   6.845  69.396  1.00  0.00    -0.113 C  
HETATM    7  O   UNL     1      -7.629   6.315  70.475  1.00  0.00    -0.091 OA 
BRANCH   6   8
HETATM    8  N   UNL     1      -8.671   7.974  69.301  1.00  0.00    -0.137 N  
BRANCH   8   9
HETATM    9  C   UNL     1      -8.298   8.966  68.313  1.00  0.00    -0.125 C  
HETATM   10  O   UNL     1      -7.491  10.682  69.915  1.00  0.00    -0.133 OA 
HETATM   11  N   UNL     1      -9.323   9.301  67.351  1.00  0.00    -0.126 N  
HETATM   12  C   UNL     1      -8.009  10.389  68.842  1.00  0.00    -0.123 C  
HETATM   13  O   UNL     1      -9.807  11.158  66.052  1.00  0.00    -0.211 OA 
HETATM   14  N   UNL     1      -8.398  11.270  67.877  1.00  0.00    -0.127 N  
HETATM   15  C   UNL     1      -9.217  10.638  66.987  1.00  0.00    -0.151 C  
BRANCH  11  16
HETATM   16  C   UNL     1      -9.978   8.350  66.501  1.00  0.00    -0.265 C  
HETATM   17  H   UNL     1      -9.439   6.880  65.352  1.00  0.00     0.000 HD 
HETATM   18  O   UNL     1      -9.005   7.510  65.916  1.00  0.00    -0.159 OA 
ENDBRANCH  11  16
BRANCH  14  19
HETATM   19  C   UNL     1      -8.368  12.697  67.993  1.00  0.00    -0.175 C  
HETATM   20  O   UNL     1      -9.294  13.121  68.975  1.00  0.00    -0.366 OA 
HETATM   21  H   UNL     1      -9.274  14.068  69.052  1.00  0.00     0.000 HD 
ENDBRANCH  14  19
ENDBRANCH   8   9
BRANCH   8  22
HETATM   22  C   UNL     1      -9.681   8.338  70.267  1.00  0.00    -0.175 C  
HETATM   23  H   UNL     1     -11.503   7.816  70.617  1.00  0.00     0.000 HD 
HETATM   24  O   UNL     1     -10.839   7.577  69.982  1.00  0.00    -0.247 OA 
ENDBRANCH   8  22
ENDBRANCH   6   8
ENDBRANCH   4   6
ENDBRANCH   3   4
TORSDOF 7
ENDMDL
MODEL      311
REMARK 921   NORMALIZED FREE ENERGY PREDICTED BY IDOCK:   -1.73 KCAL/MOL
REMARK 922        TOTAL FREE ENERGY PREDICTED BY IDOCK:   -3.97 KCAL/MOL
REMARK 923 INTER-LIGAND FREE ENERGY PREDICTED BY IDOCK:   -3.40 KCAL/MOL
REMARK 924 INTRA-LIGAND FREE ENERGY PREDICTED BY IDOCK:   -0.58 KCAL/MOL
REMARK 927      BINDING AFFINITY PREDICTED BY RF-SCORE:    0.00 PKD
ROOT
HETATM    1  O   UNL     1     -10.933  10.485  70.854  1.00  0.00    -0.328 OA 
HETATM    2  H   UNL     1     -11.178  11.332  71.205  1.00  0.00     0.000 HD 
HETATM    3  C   UNL     1     -12.030   9.632  71.086  1.00  0.00    -0.367 C  
ENDROOT
BRANCH   3   4
HETATM    4  N   UNL     1     -11.663   8.363  70.559  1.00  0.00    -0.466 N  
HETATM    5  H   UNL     1     -11.356   8.285  69.590  1.00  0.00     0.000 HD 
BRANCH   4   6
HETATM    6  C   UNL     1     -11.722   7.252  71.345  1.00  0.00    -0.287 C  
HETATM    7  O   UNL     1     -12.628   6.430  71.233  1.00  0.00    -0.129 OA 
BRANCH   6   8
HETATM    8  N   UNL     1     -10.673   7.071  72.225  1.00  0.00    -0.214 N  
BRANCH   8   9
HETATM    9  C   UNL     1      -9.841   5.899  72.039  1.00  0.00    -0.157 C  
HETATM   10  O   UNL     1      -8.961   6.521  69.803  1.00  0.00    -0.141 OA 
HETATM   11  N   UNL     1     -10.505   4.630  72.228  1.00  0.00    -0.193 N  
HETATM   12  C   UNL     1      -9.296   5.663  70.613  1.00  0.00    -0.159 C  
HETATM   13  O   UNL     1     -10.175   2.476  71.439  1.00  0.00     0.021 OA 
HETATM   14  N   UNL     1      -9.215   4.314  70.425  1.00  0.00    -0.107 N  
HETATM   15  C   UNL     1      -9.964   3.677  71.372  1.00  0.00    -0.093 C  
BRANCH  11  16
HETATM   16  C   UNL     1     -11.196   4.246  73.423  1.00  0.00    -0.268 C  
HETATM   17  H   UNL     1     -10.707   3.590  75.185  1.00  0.00     0.000 HD 
HETATM   18  O   UNL     1     -10.249   3.845  74.392  1.00  0.00    -0.159 OA 
ENDBRANCH  11  16
BRANCH  14  19
HETATM   19  C   UNL     1      -8.823   3.665  69.211  1.00  0.00    -0.101 C  
HETATM   20  O   UNL     1      -9.964   3.162  68.542  1.00  0.00     0.161 OA 
HETATM   21  H   UNL     1      -9.704   2.732  67.737  1.00  0.00     0.000 HD 
ENDBRANCH  14  19
ENDBRANCH   8   9
BRANCH   8  22
HETATM   22  C   UNL     1     -10.500   7.828  73.442  1.00  0.00    -0.207 C  
HETATM   23  H   UNL     1      -9.070   8.841  74.244  1.00  0.00     0.000 HD 
HETATM   24  O   UNL     1      -9.183   8.343  73.443  1.00  0.00    -0.200 OA 
ENDBRANCH   8  22
ENDBRANCH   6   8
ENDBRANCH   4   6
ENDBRANCH   3   4
TORSDOF 7
ENDMDL
MODEL      312
REMARK 921   NORMALIZED FREE ENERGY PREDICTED BY IDOCK:   -1.73 KCAL/MOL
REMARK 922        TOTAL FREE ENERGY PREDICTED BY IDOCK:   -3.97 KCAL/MOL
REMARK 923 INTER-LIGAND FREE ENERGY PREDICTED BY IDOCK:   -3.14 KCAL/MOL
REMARK 924 INTRA-LIGAND FREE ENERGY PREDICTED BY IDOCK:   -0.83 KCAL/MOL
REMARK 927      BINDING AFFINITY PREDICTED BY RF-SCORE:    0.00 PKD
ROOT
HETATM    1  O   UNL     1     -10.577  10.445  70.856  1.00  0.00    -0.258 OA 
HETATM    2  H   UNL     1     -11.324  11.003  71.039  1.00  0.00     0.000 HD 
HETATM    3  C   UNL     1     -11.018   9.498  69.911  1.00  0.00    -0.238 C  
ENDROOT
BRANCH   3   4
HETATM    4  N   UNL     1      -9.900   8.663  69.638  1.00  0.00    -0.183 N  
HETATM    5  H   UNL     1      -9.811   7.763  70.109  1.00  0.00     0.000 HD 
BRANCH   4   6
HETATM    6  C   UNL     1      -8.947   9.062  68.749  1.00  0.00    -0.137 C  
HETATM    7  O   UNL     1      -7.751   9.040  69.032  1.00  0.00    -0.086 OA 
BRANCH   6   8
HETATM    8  N   UNL     1      -9.397   9.427  67.495  1.00  0.00    -0.126 N  
BRANCH   8   9
HETATM    9  C   UNL     1      -9.462   8.392  66.483  1.00  0.00    -0.220 C  
HETATM   10  O   UNL     1     -11.248   7.046  67.560  1.00  0.00    -0.198 OA 
HETATM   11  N   UNL     1      -8.201   7.778  66.139  1.00  0.00    -0.116 N  
HETATM   12  C   UNL     1     -10.245   7.114  66.857  1.00  0.00    -0.260 C  
HETATM   13  O   UNL     1      -7.558   5.718  65.294  1.00  0.00    -0.079 OA 
HETATM   14  N   UNL     1      -9.641   6.067  66.226  1.00  0.00    -0.138 N  
HETATM   15  C   UNL     1      -8.395   6.441  65.815  1.00  0.00    -0.146 C  
BRANCH  11  16
HETATM   16  C   UNL     1      -7.050   8.495  65.675  1.00  0.00    -0.079 C  
HETATM   17  H   UNL     1      -6.593   9.580  64.131  1.00  0.00     0.000 HD 
HETATM   18  O   UNL     1      -7.356   9.105  64.439  1.00  0.00    -0.097 OA 
ENDBRANCH  11  16
BRANCH  14  19
HETATM   19  C   UNL     1     -10.010   4.690  66.361  1.00  0.00    -0.245 C  
HETATM   20  O   UNL     1      -9.151   4.048  67.284  1.00  0.00    -0.127 OA 
HETATM   21  H   UNL     1      -9.396   3.135  67.374  1.00  0.00     0.000 HD 
ENDBRANCH  14  19
ENDBRANCH   8   9
BRANCH   8  22
HETATM   22  C   UNL     1      -9.572  10.795  67.067  1.00  0.00    -0.169 C  
HETATM   23  H   UNL     1     -10.888  11.760  66.041  1.00  0.00     0.000 HD 
HETATM   24  O   UNL     1     -10.773  10.860  66.323  1.00  0.00    -0.243 OA 
ENDBRANCH   8  22
ENDBRANCH   6   8
ENDBRANCH   4   6
ENDBRANCH   3   4
TORSDOF 7
ENDMDL
MODEL      313
REMARK 921   NORMALIZED FREE ENERGY PREDICTED BY IDOCK:   -1.63 KCAL/MOL
REMARK 922        TOTAL FREE ENERGY PREDICTED BY IDOCK:   -3.83 KCAL/MOL
REMARK 923 INTER-LIGAND FREE ENERGY PREDICTED BY IDOCK:   -3.49 KCAL/MOL
REMARK 924 INTRA-LIGAND FREE ENERGY PREDICTED BY IDOCK:   -0.34 KCAL/MOL
REMARK 927      BINDING AFFINITY PREDICTED BY RF-SCORE:    0.00 PKD
ROOT
HETATM    1  O   UNL     1      -7.307   7.804  72.073  1.00  0.00    -0.067 OA 
HETATM    2  H   UNL     1      -7.383   7.422  72.940  1.00  0.00     0.000 HD 
HETATM    3  C   UNL     1      -8.624   7.975  71.604  1.00  0.00    -0.129 C  
ENDROOT
BRANCH   3   4
HETATM    4  N   UNL     1      -8.510   8.547  70.307  1.00  0.00    -0.122 N  
HETATM    5  H   UNL     1      -8.245   9.526  70.205  1.00  0.00     0.000 HD 
BRANCH   4   6
HETATM    6  C   UNL     1      -8.753   7.790  69.200  1.00  0.00    -0.139 C  
HETATM    7  O   UNL     1      -8.696   6.563  69.232  1.00  0.00    -0.129 OA 
BRANCH   6   8
HETATM    8  N   UNL     1      -9.130   8.476  68.063  1.00  0.00    -0.140 N  
BRANCH   8   9
HETATM    9  C   UNL     1      -9.126   7.746  66.812  1.00  0.00    -0.154 C  
HETATM   10  O   UNL     1     -11.317   6.622  67.125  1.00  0.00    -0.343 OA 
HETATM   11  N   UNL     1      -7.941   6.962  66.553  1.00  0.00    -0.106 N  
HETATM   12  C   UNL     1     -10.179   6.625  66.667  1.00  0.00    -0.138 C  
HETATM   13  O   UNL     1      -7.471   5.064  65.309  1.00  0.00    -0.074 OA 
HETATM   14  N   UNL     1      -9.627   5.644  65.896  1.00  0.00    -0.085 N  
HETATM   15  C   UNL     1      -8.273   5.815  65.843  1.00  0.00    -0.121 C  
BRANCH  11  16
HETATM   16  C   UNL     1      -6.609   7.491  66.527  1.00  0.00    -0.053 C  
HETATM   17  H   UNL     1      -4.978   7.255  67.555  1.00  0.00     0.000 HD 
HETATM   18  O   UNL     1      -5.861   6.904  67.572  1.00  0.00    -0.019 OA 
ENDBRANCH  11  16
BRANCH  14  19
HETATM   19  C   UNL     1     -10.243   4.392  65.576  1.00  0.00    -0.241 C  
HETATM   20  O   UNL     1     -11.589   4.600  65.194  1.00  0.00    -1.107 OA 
HETATM   21  H   UNL     1     -11.998   3.770  64.981  1.00  0.00     0.000 HD 
ENDBRANCH  14  19
ENDBRANCH   8   9
BRANCH   8  22
HETATM   22  C   UNL     1      -9.292   9.910  68.001  1.00  0.00    -0.130 C  
HETATM   23  H   UNL     1     -10.672  11.163  68.491  1.00  0.00     0.000 HD 
HETATM   24  O   UNL     1     -10.566  10.220  68.532  1.00  0.00    -0.190 OA 
ENDBRANCH   8  22
ENDBRANCH   6   8
ENDBRANCH   4   6
ENDBRANCH   3   4
TORSDOF 7
ENDMDL
MODEL      314
REMARK 921   NORMALIZED FREE ENERGY PREDICTED BY IDOCK:   -1.53 KCAL/MOL
REMARK 922        TOTAL FREE ENERGY PREDICTED BY IDOCK:   -3.69 KCAL/MOL
REMARK 923 INTER-LIGAND FREE ENERGY PREDICTED BY IDOCK:   -2.57 KCAL/MOL
REMARK 924 INTRA-LIGAND FREE ENERGY PREDICTED BY IDOCK:   -1.12 KCAL/MOL
REMARK 927      BINDING AFFINITY PREDICTED BY RF-SCORE:    0.00 PKD
ROOT
HETATM    1  O   UNL     1      -6.127   7.021  71.227  1.00  0.00    -0.036 OA 
HETATM    2  H   UNL     1      -5.203   6.976  71.443  1.00  0.00     0.000 HD 
HETATM    3  C   UNL     1      -6.822   6.840  72.438  1.00  0.00    -0.063 C  
ENDROOT
BRANCH   3   4
HETATM    4  N   UNL     1      -8.205   6.906  72.113  1.00  0.00    -0.105 N  
HETATM    5  H   UNL     1      -8.882   6.378  72.664  1.00  0.00     0.000 HD 
BRANCH   4   6
HETATM    6  C   UNL     1      -8.629   7.674  71.070  1.00  0.00    -0.131 C  
HETATM    7  O   UNL     1      -8.275   8.844  70.945  1.00  0.00    -0.142 OA 
BRANCH   6   8
HETATM    8  N   UNL     1      -9.422   7.043  70.132  1.00  0.00    -0.162 N  
BRANCH   8   9
HETATM    9  C   UNL     1      -8.791   6.052  69.284  1.00  0.00    -0.123 C  
HETATM   10  O   UNL     1      -8.675   7.451  67.237  1.00  0.00    -0.120 OA 
HETATM   11  N   UNL     1      -9.443   4.763  69.244  1.00  0.00    -0.139 N  
HETATM   12  C   UNL     1      -8.780   6.350  67.768  1.00  0.00    -0.114 C  
HETATM   13  O   UNL     1      -9.560   3.034  67.706  1.00  0.00    -0.196 OA 
HETATM   14  N   UNL     1      -8.866   5.155  67.117  1.00  0.00    -0.110 N  
HETATM   15  C   UNL     1      -9.296   4.193  67.985  1.00  0.00    -0.162 C  
BRANCH  11  16
HETATM   16  C   UNL     1      -9.715   3.956  70.396  1.00  0.00    -0.175 C  
HETATM   17  H   UNL     1      -8.761   3.426  72.003  1.00  0.00     0.000 HD 
HETATM   18  O   UNL     1      -8.582   3.961  71.239  1.00  0.00    -0.081 OA 
ENDBRANCH  11  16
BRANCH  14  19
HETATM   19  C   UNL     1      -8.957   4.986  65.698  1.00  0.00    -0.149 C  
HETATM   20  O   UNL     1      -7.885   5.656  65.062  1.00  0.00    -0.090 OA 
HETATM   21  H   UNL     1      -7.945   5.544  64.121  1.00  0.00     0.000 HD 
ENDBRANCH  14  19
ENDBRANCH   8   9
BRANCH   8  22
HETATM   22  C   UNL     1     -10.755   7.472  69.782  1.00  0.00    -0.242 C  
HETATM   23  H   UNL     1     -11.579   9.140  69.277  1.00  0.00     0.000 HD 
HETATM   24  O   UNL     1     -10.701   8.858  69.507  1.00  0.00    -0.230 OA 
ENDBRANCH   8  22
ENDBRANCH   6   8
ENDBRANCH   4   6
ENDBRANCH   3   4
TORSDOF 7
ENDMDL
MODEL      315
REMARK 921   NORMALIZED FREE ENERGY PREDICTED BY IDOCK:   -1.51 KCAL/MOL
REMARK 922        TOTAL FREE ENERGY PREDICTED BY IDOCK:   -3.66 KCAL/MOL
REMARK 923 INTER-LIGAND FREE ENERGY PREDICTED BY IDOCK:   -2.74 KCAL/MOL
REMARK 924 INTRA-LIGAND FREE ENERGY PREDICTED BY IDOCK:   -0.92 KCAL/MOL
REMARK 927      BINDING AFFINITY PREDICTED BY RF-SCORE:    0.00 PKD
ROOT
HETATM    1  O   UNL     1      -9.480  12.371  63.432  1.00  0.00    -0.650 OA 
HETATM    2  H   UNL     1      -9.987  12.184  62.651  1.00  0.00     0.000 HD 
HETATM    3  C   UNL     1     -10.397  12.377  64.502  1.00  0.00    -0.325 C  
ENDROOT
BRANCH   3   4
HETATM    4  N   UNL     1      -9.638  12.658  65.671  1.00  0.00    -0.448 N  
HETATM    5  H   UNL     1      -9.497  13.624  65.966  1.00  0.00     0.000 HD 
BRANCH   4   6
HETATM    6  C   UNL     1      -9.099  11.640  66.399  1.00  0.00    -0.206 C  
HETATM    7  O   UNL     1      -8.082  11.054  66.034  1.00  0.00    -0.159 OA 
BRANCH   6   8
HETATM    8  N   UNL     1      -9.721  11.351  67.598  1.00  0.00    -0.171 N  
BRANCH   8   9
HETATM    9  C   UNL     1      -9.063  11.789  68.812  1.00  0.00     0.017 C  
HETATM   10  O   UNL     1      -8.769  14.161  68.143  1.00  0.00    -0.165 OA 
HETATM   11  N   UNL     1      -7.920  11.004  69.218  1.00  0.00    -0.083 N  
HETATM   12  C   UNL     1      -8.384  13.176  68.765  1.00  0.00     0.120 C  
HETATM   13  O   UNL     1      -6.006  11.417  70.458  1.00  0.00    -0.206 OA 
HETATM   14  N   UNL     1      -7.290  13.122  69.577  1.00  0.00     0.334 N  
HETATM   15  C   UNL     1      -6.977  11.818  69.835  1.00  0.00     0.320 C  
BRANCH  11  16
HETATM   16  C   UNL     1      -7.950   9.591  69.458  1.00  0.00    -0.110 C  
HETATM   17  H   UNL     1      -7.178   8.007  68.643  1.00  0.00     0.000 HD 
HETATM   18  O   UNL     1      -7.158   8.944  68.484  1.00  0.00    -0.070 OA 
ENDBRANCH  11  16
BRANCH  14  19
HETATM   19  C   UNL     1      -6.339  14.177  69.763  1.00  0.00    -0.141 C  
HETATM   20  O   UNL     1      -5.913  14.210  71.112  1.00  0.00    -0.244 OA 
HETATM   21  H   UNL     1      -5.282  14.910  71.235  1.00  0.00     0.000 HD 
ENDBRANCH  14  19
ENDBRANCH   8   9
BRANCH   8  22
HETATM   22  C   UNL     1     -10.839  10.447  67.730  1.00  0.00    -0.297 C  
HETATM   23  H   UNL     1     -11.193   8.613  67.251  1.00  0.00     0.000 HD 
HETATM   24  O   UNL     1     -10.457   9.208  67.164  1.00  0.00    -0.260 OA 
ENDBRANCH   8  22
ENDBRANCH   6   8
ENDBRANCH   4   6
ENDBRANCH   3   4
TORSDOF 7
ENDMDL
MODEL      316
REMARK 921   NORMALIZED FREE ENERGY PREDICTED BY IDOCK:   -1.50 KCAL/MOL
REMARK 922        TOTAL FREE ENERGY PREDICTED BY IDOCK:   -3.64 KCAL/MOL
REMARK 923 INTER-LIGAND FREE ENERGY PREDICTED BY IDOCK:   -3.97 KCAL/MOL
REMARK 924 INTRA-LIGAND FREE ENERGY PREDICTED BY IDOCK:    0.33 KCAL/MOL
REMARK 927      BINDING AFFINITY PREDICTED BY RF-SCORE:    0.00 PKD
ROOT
HETATM    1  O   UNL     1      -6.485  12.152  66.597  1.00  0.00    -0.413 OA 
HETATM    2  H   UNL     1      -5.824  11.548  66.914  1.00  0.00     0.000 HD 
HETATM    3  C   UNL     1      -7.638  11.909  67.369  1.00  0.00    -0.151 C  
ENDROOT
BRANCH   3   4
HETATM    4  N   UNL     1      -8.629  12.813  66.895  1.00  0.00    -0.341 N  
HETATM    5  H   UNL     1      -9.515  12.454  66.541  1.00  0.00     0.000 HD 
BRANCH   4   6
HETATM    6  C   UNL     1      -8.397  14.156  66.912  1.00  0.00    -0.034 C  
HETATM    7  O   UNL     1      -8.850  14.899  66.045  1.00  0.00    -0.099 OA 
BRANCH   6   8
HETATM    8  N   UNL     1      -7.681  14.638  67.990  1.00  0.00    -0.120 N  
BRANCH   8   9
HETATM    9  C   UNL     1      -8.416  15.354  69.011  1.00  0.00    -0.229 C  
HETATM   10  O   UNL     1     -10.347  13.798  69.123  1.00  0.00    -0.121 OA 
HETATM   11  N   UNL     1      -8.633  16.759  68.752  1.00  0.00    -0.258 N  
HETATM   12  C   UNL     1      -9.887  14.931  69.224  1.00  0.00    -0.159 C  
HETATM   13  O   UNL     1     -10.222  18.318  69.396  1.00  0.00    -0.192 OA 
HETATM   14  N   UNL     1     -10.584  16.046  69.587  1.00  0.00    -0.286 N  
HETATM   15  C   UNL     1      -9.855  17.158  69.280  1.00  0.00    -0.100 C  
BRANCH  11  16
HETATM   16  C   UNL     1      -7.588  17.707  68.499  1.00  0.00    -0.272 C  
HETATM   17  H   UNL     1      -6.969  18.750  66.982  1.00  0.00     0.000 HD 
HETATM   18  O   UNL     1      -7.661  18.122  67.150  1.00  0.00    -0.212 OA 
ENDBRANCH  11  16
BRANCH  14  19
HETATM   19  C   UNL     1     -11.997  16.107  69.811  1.00  0.00    -0.052 C  
HETATM   20  O   UNL     1     -12.257  16.441  71.161  1.00  0.00    -0.509 OA 
HETATM   21  H   UNL     1     -13.194  16.482  71.310  1.00  0.00     0.000 HD 
ENDBRANCH  14  19
ENDBRANCH   8   9
BRANCH   8  22
HETATM   22  C   UNL     1      -6.239  14.685  68.046  1.00  0.00    -0.156 C  
HETATM   23  H   UNL     1      -4.845  15.507  66.999  1.00  0.00     0.000 HD 
HETATM   24  O   UNL     1      -5.794  15.477  66.962  1.00  0.00    -0.264 OA 
ENDBRANCH   8  22
ENDBRANCH   6   8
ENDBRANCH   4   6
ENDBRANCH   3   4
TORSDOF 7
ENDMDL
MODEL      317
REMARK 921   NORMALIZED FREE ENERGY PREDICTED BY IDOCK:   -1.46 KCAL/MOL
REMARK 922        TOTAL FREE ENERGY PREDICTED BY IDOCK:   -3.59 KCAL/MOL
REMARK 923 INTER-LIGAND FREE ENERGY PREDICTED BY IDOCK:   -2.63 KCAL/MOL
REMARK 924 INTRA-LIGAND FREE ENERGY PREDICTED BY IDOCK:   -0.96 KCAL/MOL
REMARK 927      BINDING AFFINITY PREDICTED BY RF-SCORE:    0.00 PKD
ROOT
HETATM    1  O   UNL     1      -6.907   4.854  64.556  1.00  0.00    -0.047 OA 
HETATM    2  H   UNL     1      -6.625   4.178  63.952  1.00  0.00     0.000 HD 
HETATM    3  C   UNL     1      -7.840   4.246  65.417  1.00  0.00    -0.086 C  
ENDROOT
BRANCH   3   4
HETATM    4  N   UNL     1      -8.262   5.260  66.321  1.00  0.00    -0.109 N  
HETATM    5  H   UNL     1      -9.256   5.394  66.506  1.00  0.00     0.000 HD 
BRANCH   4   6
HETATM    6  C   UNL     1      -7.343   6.052  66.942  1.00  0.00    -0.076 C  
HETATM    7  O   UNL     1      -6.235   5.626  67.260  1.00  0.00    -0.028 OA 
BRANCH   6   8
HETATM    8  N   UNL     1      -7.704   7.371  67.131  1.00  0.00    -0.113 N  
BRANCH   8   9
HETATM    9  C   UNL     1      -8.506   7.682  68.297  1.00  0.00    -0.125 C  
HETATM   10  O   UNL     1      -6.808   7.050  69.994  1.00  0.00    -0.054 OA 
HETATM   11  N   UNL     1      -9.818   7.079  68.328  1.00  0.00    -0.141 N  
HETATM   12  C   UNL     1      -7.981   7.157  69.652  1.00  0.00    -0.124 C  
HETATM   13  O   UNL     1     -11.299   6.460  70.000  1.00  0.00    -0.370 OA 
HETATM   14  N   UNL     1      -9.067   6.868  70.426  1.00  0.00    -0.156 N  
HETATM   15  C   UNL     1     -10.178   6.786  69.637  1.00  0.00    -0.187 C  
BRANCH  11  16
HETATM   16  C   UNL     1     -10.809   7.241  67.305  1.00  0.00    -0.284 C  
HETATM   17  H   UNL     1     -11.688   6.101  66.001  1.00  0.00     0.000 HD 
HETATM   18  O   UNL     1     -11.032   5.994  66.679  1.00  0.00    -0.293 OA 
ENDBRANCH  11  16
BRANCH  14  19
HETATM   19  C   UNL     1      -9.025   6.289  71.735  1.00  0.00    -0.140 C  
HETATM   20  O   UNL     1      -9.558   4.979  71.700  1.00  0.00    -0.147 OA 
HETATM   21  H   UNL     1      -9.529   4.594  72.568  1.00  0.00     0.000 HD 
ENDBRANCH  14  19
ENDBRANCH   8   9
BRANCH   8  22
HETATM   22  C   UNL     1      -7.543   8.404  66.135  1.00  0.00    -0.089 C  
HETATM   23  H   UNL     1      -6.178   9.692  65.693  1.00  0.00     0.000 HD 
HETATM   24  O   UNL     1      -6.284   9.012  66.349  1.00  0.00    -0.062 OA 
ENDBRANCH   8  22
ENDBRANCH   6   8
ENDBRANCH   4   6
ENDBRANCH   3   4
TORSDOF 7
ENDMDL
MODEL      318
REMARK 921   NORMALIZED FREE ENERGY PREDICTED BY IDOCK:   -1.44 KCAL/MOL
REMARK 922        TOTAL FREE ENERGY PREDICTED BY IDOCK:   -3.55 KCAL/MOL
REMARK 923 INTER-LIGAND FREE ENERGY PREDICTED BY IDOCK:   -4.11 KCAL/MOL
REMARK 924 INTRA-LIGAND FREE ENERGY PREDICTED BY IDOCK:    0.56 KCAL/MOL
REMARK 927      BINDING AFFINITY PREDICTED BY RF-SCORE:    0.00 PKD
ROOT
HETATM    1  O   UNL     1      -7.615  11.185  70.085  1.00  0.00    -0.302 OA 
HETATM    2  H   UNL     1      -7.355  10.314  69.811  1.00  0.00     0.000 HD 
HETATM    3  C   UNL     1      -6.584  12.051  69.672  1.00  0.00    -0.043 C  
ENDROOT
BRANCH   3   4
HETATM    4  N   UNL     1      -6.974  13.355  70.083  1.00  0.00    -0.104 N  
HETATM    5  H   UNL     1      -6.861  13.636  71.057  1.00  0.00     0.000 HD 
BRANCH   4   6
HETATM    6  C   UNL     1      -7.500  14.230  69.180  1.00  0.00    -0.067 C  
HETATM    7  O   UNL     1      -8.153  15.208  69.535  1.00  0.00    -0.220 OA 
BRANCH   6   8
HETATM    8  N   UNL     1      -7.200  13.991  67.853  1.00  0.00    -0.140 N  
BRANCH   8   9
HETATM    9  C   UNL     1      -8.290  14.059  66.902  1.00  0.00    -0.017 C  
HETATM   10  O   UNL     1      -7.852  16.375  66.124  1.00  0.00    -0.261 OA 
HETATM   11  N   UNL     1      -9.591  13.704  67.420  1.00  0.00    -0.220 N  
HETATM   12  C   UNL     1      -8.637  15.461  66.353  1.00  0.00    -0.209 C  
HETATM   13  O   UNL     1     -11.777  14.241  66.868  1.00  0.00    -0.371 OA 
HETATM   14  N   UNL     1      -9.982  15.490  66.128  1.00  0.00    -0.286 N  
HETATM   15  C   UNL     1     -10.577  14.455  66.790  1.00  0.00    -0.282 C  
BRANCH  11  16
HETATM   16  C   UNL     1      -9.900  12.453  68.049  1.00  0.00    -0.205 C  
HETATM   17  H   UNL     1      -9.431  10.588  67.782  1.00  0.00     0.000 HD 
HETATM   18  O   UNL     1      -9.226  11.417  67.365  1.00  0.00    -0.161 OA 
ENDBRANCH  11  16
BRANCH  14  19
HETATM   19  C   UNL     1     -10.727  16.629  65.684  1.00  0.00    -0.214 C  
HETATM   20  O   UNL     1     -10.999  16.519  64.300  1.00  0.00    -1.152 OA 
HETATM   21  H   UNL     1     -11.493  17.274  64.005  1.00  0.00     0.000 HD 
ENDBRANCH  14  19
ENDBRANCH   8   9
BRANCH   8  22
HETATM   22  C   UNL     1      -5.943  13.449  67.394  1.00  0.00     0.090 C  
HETATM   23  H   UNL     1      -5.406  12.000  66.242  1.00  0.00     0.000 HD 
HETATM   24  O   UNL     1      -6.233  12.357  66.544  1.00  0.00     0.051 OA 
ENDBRANCH   8  22
ENDBRANCH   6   8
ENDBRANCH   4   6
ENDBRANCH   3   4
TORSDOF 7
ENDMDL
MODEL      319
REMARK 921   NORMALIZED FREE ENERGY PREDICTED BY IDOCK:   -1.42 KCAL/MOL
REMARK 922        TOTAL FREE ENERGY PREDICTED BY IDOCK:   -3.53 KCAL/MOL
REMARK 923 INTER-LIGAND FREE ENERGY PREDICTED BY IDOCK:   -3.09 KCAL/MOL
REMARK 924 INTRA-LIGAND FREE ENERGY PREDICTED BY IDOCK:   -0.44 KCAL/MOL
REMARK 927      BINDING AFFINITY PREDICTED BY RF-SCORE:    0.00 PKD
ROOT
HETATM    1  O   UNL     1      -9.046   6.108  65.300  1.00  0.00    -0.370 OA 
HETATM    2  H   UNL     1      -9.349   6.221  64.407  1.00  0.00     0.000 HD 
HETATM    3  C   UNL     1     -10.036   5.351  65.957  1.00  0.00    -0.084 C  
ENDROOT
BRANCH   3   4
HETATM    4  N   UNL     1      -9.582   5.182  67.294  1.00  0.00    -0.134 N  
HETATM    5  H   UNL     1     -10.103   4.585  67.935  1.00  0.00     0.000 HD 
BRANCH   4   6
HETATM    6  C   UNL     1      -8.454   5.816  67.720  1.00  0.00    -0.103 C  
HETATM    7  O   UNL     1      -7.423   5.819  67.051  1.00  0.00    -0.079 OA 
BRANCH   6   8
HETATM    8  N   UNL     1      -8.556   6.506  68.912  1.00  0.00    -0.124 N  
BRANCH   8   9
HETATM    9  C   UNL     1      -9.591   7.515  69.011  1.00  0.00    -0.153 C  
HETATM   10  O   UNL     1      -8.477   9.216  67.587  1.00  0.00    -0.116 OA 
HETATM   11  N   UNL     1     -10.003   7.853  70.354  1.00  0.00    -0.191 N  
HETATM   12  C   UNL     1      -9.220   8.932  68.522  1.00  0.00    -0.137 C  
HETATM   13  O   UNL     1     -10.928   9.723  71.363  1.00  0.00    -0.342 OA 
HETATM   14  N   UNL     1      -9.902   9.823  69.297  1.00  0.00    -0.188 N  
HETATM   15  C   UNL     1     -10.354   9.196  70.422  1.00  0.00    -0.223 C  
BRANCH  11  16
HETATM   16  C   UNL     1     -10.495   6.908  71.314  1.00  0.00    -0.208 C  
HETATM   17  H   UNL     1     -12.082   5.810  71.524  1.00  0.00     0.000 HD 
HETATM   18  O   UNL     1     -11.756   6.436  70.888  1.00  0.00    -0.349 OA 
ENDBRANCH  11  16
BRANCH  14  19
HETATM   19  C   UNL     1      -9.789  11.249  69.222  1.00  0.00     0.094 C  
HETATM   20  O   UNL     1     -11.077  11.834  69.182  1.00  0.00    -0.232 OA 
HETATM   21  H   UNL     1     -11.001  12.779  69.132  1.00  0.00     0.000 HD 
ENDBRANCH  14  19
ENDBRANCH   8   9
BRANCH   8  22
HETATM   22  C   UNL     1      -7.563   6.460  69.960  1.00  0.00    -0.096 C  
HETATM   23  H   UNL     1      -6.540   5.077  70.829  1.00  0.00     0.000 HD 
HETATM   24  O   UNL     1      -7.193   5.108  70.139  1.00  0.00    -0.055 OA 
ENDBRANCH   8  22
ENDBRANCH   6   8
ENDBRANCH   4   6
ENDBRANCH   3   4
TORSDOF 7
ENDMDL
MODEL      320
REMARK 921   NORMALIZED FREE ENERGY PREDICTED BY IDOCK:   -1.38 KCAL/MOL
REMARK 922        TOTAL FREE ENERGY PREDICTED BY IDOCK:   -3.47 KCAL/MOL
REMARK 923 INTER-LIGAND FREE ENERGY PREDICTED BY IDOCK:   -2.76 KCAL/MOL
REMARK 924 INTRA-LIGAND FREE ENERGY PREDICTED BY IDOCK:   -0.71 KCAL/MOL
REMARK 927      BINDING AFFINITY PREDICTED BY RF-SCORE:    0.00 PKD
ROOT
HETATM    1  O   UNL     1      -7.419   2.737  68.810  1.00  0.00    -0.048 OA 
HETATM    2  H   UNL     1      -6.813   2.082  69.136  1.00  0.00     0.000 HD 
HETATM    3  C   UNL     1      -6.682   3.933  68.702  1.00  0.00    -0.046 C  
ENDROOT
BRANCH   3   4
HETATM    4  N   UNL     1      -7.589   4.913  68.214  1.00  0.00    -0.077 N  
HETATM    5  H   UNL     1      -7.234   5.731  67.718  1.00  0.00     0.000 HD 
BRANCH   4   6
HETATM    6  C   UNL     1      -8.929   4.765  68.408  1.00  0.00    -0.111 C  
HETATM    7  O   UNL     1      -9.608   4.035  67.689  1.00  0.00    -0.180 OA 
BRANCH   6   8
HETATM    8  N   UNL     1      -9.466   5.428  69.494  1.00  0.00    -0.126 N  
BRANCH   8   9
HETATM    9  C   UNL     1      -9.546   6.873  69.419  1.00  0.00    -0.147 C  
HETATM   10  O   UNL     1     -10.908   6.981  67.347  1.00  0.00    -0.285 OA 
HETATM   11  N   UNL     1      -8.282   7.570  69.492  1.00  0.00    -0.128 N  
HETATM   12  C   UNL     1     -10.058   7.465  68.088  1.00  0.00    -0.179 C  
HETATM   13  O   UNL     1      -7.493   9.613  68.735  1.00  0.00    -0.073 OA 
HETATM   14  N   UNL     1      -9.419   8.656  67.898  1.00  0.00    -0.138 N  
HETATM   15  C   UNL     1      -8.328   8.722  68.715  1.00  0.00    -0.124 C  
BRANCH  11  16
HETATM   16  C   UNL     1      -7.343   7.437  70.567  1.00  0.00    -0.076 C  
HETATM   17  H   UNL     1      -7.315   7.825  72.469  1.00  0.00     0.000 HD 
HETATM   18  O   UNL     1      -7.937   7.913  71.757  1.00  0.00    -0.091 OA 
ENDBRANCH  11  16
BRANCH  14  19
HETATM   19  C   UNL     1      -9.553   9.497  66.747  1.00  0.00    -0.176 C  
HETATM   20  O   UNL     1      -9.579   8.708  65.573  1.00  0.00    -0.453 OA 
HETATM   21  H   UNL     1      -9.668   9.266  64.810  1.00  0.00     0.000 HD 
ENDBRANCH  14  19
ENDBRANCH   8   9
BRANCH   8  22
HETATM   22  C   UNL     1      -9.723   4.809  70.772  1.00  0.00    -0.197 C  
HETATM   23  H   UNL     1      -8.656   4.278  72.287  1.00  0.00     0.000 HD 
HETATM   24  O   UNL     1      -8.486   4.686  71.446  1.00  0.00    -0.103 OA 
ENDBRANCH   8  22
ENDBRANCH   6   8
ENDBRANCH   4   6
ENDBRANCH   3   4
TORSDOF 7
ENDMDL
MODEL      321
REMARK 921   NORMALIZED FREE ENERGY PREDICTED BY IDOCK:   -1.32 KCAL/MOL
REMARK 922        TOTAL FREE ENERGY PREDICTED BY IDOCK:   -3.39 KCAL/MOL
REMARK 923 INTER-LIGAND FREE ENERGY PREDICTED BY IDOCK:   -2.56 KCAL/MOL
REMARK 924 INTRA-LIGAND FREE ENERGY PREDICTED BY IDOCK:   -0.84 KCAL/MOL
REMARK 927      BINDING AFFINITY PREDICTED BY RF-SCORE:    0.00 PKD
ROOT
HETATM    1  O   UNL     1      -6.167   6.930  71.620  1.00  0.00    -0.037 OA 
HETATM    2  H   UNL     1      -5.923   6.662  72.497  1.00  0.00     0.000 HD 
HETATM    3  C   UNL     1      -7.554   6.705  71.514  1.00  0.00    -0.089 C  
ENDROOT
BRANCH   3   4
HETATM    4  N   UNL     1      -7.920   7.107  70.200  1.00  0.00    -0.112 N  
HETATM    5  H   UNL     1      -7.679   8.041  69.869  1.00  0.00     0.000 HD 
BRANCH   4   6
HETATM    6  C   UNL     1      -8.592   6.249  69.382  1.00  0.00    -0.125 C  
HETATM    7  O   UNL     1      -8.769   5.072  69.688  1.00  0.00    -0.089 OA 
BRANCH   6   8
HETATM    8  N   UNL     1      -9.115   6.792  68.225  1.00  0.00    -0.126 N  
BRANCH   8   9
HETATM    9  C   UNL     1      -8.191   7.083  67.148  1.00  0.00    -0.118 C  
HETATM   10  O   UNL     1      -8.205   9.551  67.413  1.00  0.00    -0.113 OA 
HETATM   11  N   UNL     1      -8.517   6.491  65.872  1.00  0.00    -0.143 N  
HETATM   12  C   UNL     1      -8.101   8.559  66.699  1.00  0.00    -0.104 C  
HETATM   13  O   UNL     1      -8.077   7.020  63.659  1.00  0.00    -0.095 OA 
HETATM   14  N   UNL     1      -7.842   8.563  65.360  1.00  0.00    -0.101 N  
HETATM   15  C   UNL     1      -8.118   7.332  64.840  1.00  0.00    -0.108 C  
BRANCH  11  16
HETATM   16  C   UNL     1      -8.705   5.086  65.654  1.00  0.00    -0.139 C  
HETATM   17  H   UNL     1     -10.213   3.885  65.422  1.00  0.00     0.000 HD 
HETATM   18  O   UNL     1     -10.088   4.816  65.566  1.00  0.00    -0.183 OA 
ENDBRANCH  11  16
BRANCH  14  19
HETATM   19  C   UNL     1      -7.752   9.729  64.534  1.00  0.00    -0.137 C  
HETATM   20  O   UNL     1      -8.113  10.877  65.279  1.00  0.00    -0.331 OA 
HETATM   21  H   UNL     1      -8.053  11.650  64.731  1.00  0.00     0.000 HD 
ENDBRANCH  14  19
ENDBRANCH   8   9
BRANCH   8  22
HETATM   22  C   UNL     1     -10.460   7.304  68.110  1.00  0.00    -0.198 C  
HETATM   23  H   UNL     1     -11.601   8.433  69.178  1.00  0.00     0.000 HD 
HETATM   24  O   UNL     1     -10.716   8.096  69.253  1.00  0.00    -0.211 OA 
ENDBRANCH   8  22
ENDBRANCH   6   8
ENDBRANCH   4   6
ENDBRANCH   3   4
TORSDOF 7
ENDMDL
MODEL      322
REMARK 921   NORMALIZED FREE ENERGY PREDICTED BY IDOCK:   -1.26 KCAL/MOL
REMARK 922        TOTAL FREE ENERGY PREDICTED BY IDOCK:   -3.30 KCAL/MOL
REMARK 923 INTER-LIGAND FREE ENERGY PREDICTED BY IDOCK:   -2.94 KCAL/MOL
REMARK 924 INTRA-LIGAND FREE ENERGY PREDICTED BY IDOCK:   -0.37 KCAL/MOL
REMARK 927      BINDING AFFINITY PREDICTED BY RF-SCORE:    0.00 PKD
ROOT
HETATM    1  O   UNL     1      -5.561   6.511  71.768  1.00  0.00    -0.030 OA 
HETATM    2  H   UNL     1      -5.162   5.967  72.437  1.00  0.00     0.000 HD 
HETATM    3  C   UNL     1      -6.627   5.760  71.236  1.00  0.00    -0.046 C  
ENDROOT
BRANCH   3   4
HETATM    4  N   UNL     1      -7.224   6.575  70.235  1.00  0.00    -0.078 N  
HETATM    5  H   UNL     1      -7.033   6.392  69.251  1.00  0.00     0.000 HD 
BRANCH   4   6
HETATM    6  C   UNL     1      -8.049   7.600  70.588  1.00  0.00    -0.108 C  
HETATM    7  O   UNL     1      -8.578   7.651  71.696  1.00  0.00    -0.112 OA 
BRANCH   6   8
HETATM    8  N   UNL     1      -8.205   8.607  69.656  1.00  0.00    -0.112 N  
BRANCH   8   9
HETATM    9  C   UNL     1      -9.491   8.712  68.997  1.00  0.00    -0.153 C  
HETATM   10  O   UNL     1      -8.631   8.647  66.669  1.00  0.00    -0.113 OA 
HETATM   11  N   UNL     1     -10.323   9.811  69.430  1.00  0.00    -0.203 N  
HETATM   12  C   UNL     1      -9.465   9.027  67.484  1.00  0.00    -0.137 C  
HETATM   13  O   UNL     1     -12.014  11.065  68.463  1.00  0.00    -0.535 OA 
HETATM   14  N   UNL     1     -10.569   9.778  67.205  1.00  0.00    -0.264 N  
HETATM   15  C   UNL     1     -11.080  10.284  68.365  1.00  0.00    -0.247 C  
BRANCH  11  16
HETATM   16  C   UNL     1     -10.729  10.035  70.786  1.00  0.00    -0.202 C  
HETATM   17  H   UNL     1     -12.048   9.293  72.003  1.00  0.00     0.000 HD 
HETATM   18  O   UNL     1     -11.779   9.144  71.104  1.00  0.00    -0.279 OA 
ENDBRANCH  11  16
BRANCH  14  19
HETATM   19  C   UNL     1     -10.889  10.343  65.929  1.00  0.00     0.149 C  
HETATM   20  O   UNL     1      -9.872  10.032  64.995  1.00  0.00    -0.310 OA 
HETATM   21  H   UNL     1     -10.085  10.407  64.149  1.00  0.00     0.000 HD 
ENDBRANCH  14  19
ENDBRANCH   8   9
BRANCH   8  22
HETATM   22  C   UNL     1      -7.116   9.394  69.127  1.00  0.00    -0.062 C  
HETATM   23  H   UNL     1      -5.916  10.731  69.827  1.00  0.00     0.000 HD 
HETATM   24  O   UNL     1      -6.632  10.213  70.174  1.00  0.00    -0.095 OA 
ENDBRANCH   8  22
ENDBRANCH   6   8
ENDBRANCH   4   6
ENDBRANCH   3   4
TORSDOF 7
ENDMDL
MODEL      323
REMARK 921   NORMALIZED FREE ENERGY PREDICTED BY IDOCK:    0.27 KCAL/MOL
REMARK 922        TOTAL FREE ENERGY PREDICTED BY IDOCK:   -1.15 KCAL/MOL
REMARK 923 INTER-LIGAND FREE ENERGY PREDICTED BY IDOCK:   -3.18 KCAL/MOL
REMARK 924 INTRA-LIGAND FREE ENERGY PREDICTED BY IDOCK:    2.03 KCAL/MOL
REMARK 927      BINDING AFFINITY PREDICTED BY RF-SCORE:    0.00 PKD
ROOT
HETATM    1  O   UNL     1     -11.192  10.661  65.184  1.00  0.00     0.236 OA 
HETATM    2  H   UNL     1     -10.839   9.842  64.859  1.00  0.00     0.000 HD 
HETATM    3  C   UNL     1     -10.396  11.020  66.290  1.00  0.00    -0.251 C  
ENDROOT
BRANCH   3   4
HETATM    4  N   UNL     1     -10.925  12.246  66.777  1.00  0.00    -0.263 N  
HETATM    5  H   UNL     1     -10.878  13.085  66.199  1.00  0.00     0.000 HD 
BRANCH   4   6
HETATM    6  C   UNL     1     -11.494  12.304  68.014  1.00  0.00    -0.321 C  
HETATM    7  O   UNL     1     -11.761  11.287  68.649  1.00  0.00    -0.297 OA 
BRANCH   6   8
HETATM    8  N   UNL     1     -11.691  13.568  68.536  1.00  0.00    -0.336 N  
BRANCH   8   9
HETATM    9  C   UNL     1     -10.570  14.485  68.502  1.00  0.00    -0.252 C  
HETATM   10  O   UNL     1     -11.075  15.638  70.642  1.00  0.00    -0.314 OA 
HETATM   11  N   UNL     1     -10.428  15.249  67.285  1.00  0.00    -0.270 N  
HETATM   12  C   UNL     1     -10.612  15.659  69.506  1.00  0.00    -0.266 C  
HETATM   13  O   UNL     1      -9.493  17.297  66.735  1.00  0.00    -0.247 OA 
HETATM   14  N   UNL     1     -10.000  16.724  68.913  1.00  0.00    -0.258 N  
HETATM   15  C   UNL     1      -9.910  16.507  67.569  1.00  0.00    -0.248 C  
BRANCH  11  16
HETATM   16  C   UNL     1     -10.308  14.676  65.976  1.00  0.00    -0.305 C  
HETATM   17  H   UNL     1     -10.956  15.086  64.193  1.00  0.00     0.000 HD 
HETATM   18  O   UNL     1     -11.035  15.466  65.060  1.00  0.00    -0.391 OA 
ENDBRANCH  11  16
BRANCH  14  19
HETATM   19  C   UNL     1      -9.886  18.036  69.476  1.00  0.00     0.248 C  
HETATM   20  O   UNL     1      -9.121  18.863  68.620  1.00  0.00    -0.340 OA 
HETATM   21  H   UNL     1      -9.045  19.733  68.993  1.00  0.00     0.000 HD 
ENDBRANCH  14  19
ENDBRANCH   8   9
BRANCH   8  22
HETATM   22  C   UNL     1     -12.844  13.948  69.316  1.00  0.00     0.812 C  
HETATM   23  H   UNL     1     -13.596  13.421  71.012  1.00  0.00     0.000 HD 
HETATM   24  O   UNL     1     -12.837  13.171  70.498  1.00  0.00    -0.112 OA 
ENDBRANCH   8  22
ENDBRANCH   6   8
ENDBRANCH   4   6
ENDBRANCH   3   4
TORSDOF 7
ENDMDL
MODEL      324
REMARK 921   NORMALIZED FREE ENERGY PREDICTED BY IDOCK:    2.44 KCAL/MOL
REMARK 922        TOTAL FREE ENERGY PREDICTED BY IDOCK:    1.91 KCAL/MOL
REMARK 923 INTER-LIGAND FREE ENERGY PREDICTED BY IDOCK:   -0.83 KCAL/MOL
REMARK 924 INTRA-LIGAND FREE ENERGY PREDICTED BY IDOCK:    2.75 KCAL/MOL
REMARK 927      BINDING AFFINITY PREDICTED BY RF-SCORE:    0.00 PKD
ROOT
HETATM    1  O   UNL     1      -9.165  17.815  67.493  1.00  0.00    -0.242 OA 
HETATM    2  H   UNL     1     -10.103  17.924  67.391  1.00  0.00     0.000 HD 
HETATM    3  C   UNL     1      -8.604  18.029  66.219  1.00  0.00    -0.176 C  
ENDROOT
BRANCH   3   4
HETATM    4  N   UNL     1      -7.200  17.865  66.373  1.00  0.00    -0.239 N  
HETATM    5  H   UNL     1      -6.595  18.685  66.417  1.00  0.00     0.000 HD 
BRANCH   4   6
HETATM    6  C   UNL     1      -6.660  16.617  66.463  1.00  0.00    -0.006 C  
HETATM    7  O   UNL     1      -5.732  16.263  65.740  1.00  0.00     1.521 OA 
BRANCH   6   8
HETATM    8  N   UNL     1      -7.172  15.801  67.452  1.00  0.00    -0.184 N  
BRANCH   8   9
HETATM    9  C   UNL     1      -7.180  14.375  67.201  1.00  0.00     0.197 C  
HETATM   10  O   UNL     1      -9.288  14.323  65.891  1.00  0.00    -0.181 OA 
HETATM   11  N   UNL     1      -7.034  13.537  68.369  1.00  0.00    -0.094 N  
HETATM   12  C   UNL     1      -8.499  13.780  66.657  1.00  0.00     0.166 C  
HETATM   13  O   UNL     1      -7.668  11.379  68.927  1.00  0.00    -0.134 OA 
HETATM   14  N   UNL     1      -8.611  12.514  67.153  1.00  0.00    -0.195 N  
HETATM   15  C   UNL     1      -7.757  12.361  68.206  1.00  0.00    -0.140 C  
BRANCH  11  16
HETATM   16  C   UNL     1      -5.937  13.612  69.289  1.00  0.00    -0.090 C  
HETATM   17  H   UNL     1      -5.375  12.671  70.892  1.00  0.00     0.000 HD 
HETATM   18  O   UNL     1      -6.102  12.621  70.282  1.00  0.00    -0.148 OA 
ENDBRANCH  11  16
BRANCH  14  19
HETATM   19  C   UNL     1      -9.724  11.637  66.949  1.00  0.00    -0.195 C  
HETATM   20  O   UNL     1     -10.936  12.352  67.101  1.00  0.00    -0.243 OA 
HETATM   21  H   UNL     1     -11.674  11.771  66.966  1.00  0.00     0.000 HD 
ENDBRANCH  14  19
ENDBRANCH   8   9
BRANCH   8  22
HETATM   22  C   UNL     1      -7.906  16.284  68.598  1.00  0.00    -0.202 C  
HETATM   23  H   UNL     1      -7.779  17.804  69.776  1.00  0.00     0.000 HD 
HETATM   24  O   UNL     1      -7.295  17.487  69.023  1.00  0.00    -0.250 OA 
ENDBRANCH   8  22
ENDBRANCH   6   8
ENDBRANCH   4   6
ENDBRANCH   3   4
TORSDOF 7
ENDMDL
MODEL      325
REMARK 921   NORMALIZED FREE ENERGY PREDICTED BY IDOCK:    4.87 KCAL/MOL
REMARK 922        TOTAL FREE ENERGY PREDICTED BY IDOCK:    5.34 KCAL/MOL
REMARK 923 INTER-LIGAND FREE ENERGY PREDICTED BY IDOCK:   -1.78 KCAL/MOL
REMARK 924 INTRA-LIGAND FREE ENERGY PREDICTED BY IDOCK:    7.12 KCAL/MOL
REMARK 927      BINDING AFFINITY PREDICTED BY RF-SCORE:    0.00 PKD
ROOT
HETATM    1  O   UNL     1      -9.181  18.102  67.294  1.00  0.00    -0.249 OA 
HETATM    2  H   UNL     1     -10.015  17.865  66.908  1.00  0.00     0.000 HD 
HETATM    3  C   UNL     1      -8.602  19.047  66.426  1.00  0.00    -0.315 C  
ENDROOT
BRANCH   3   4
HETATM    4  N   UNL     1      -7.352  19.402  67.004  1.00  0.00    -0.212 N  
HETATM    5  H   UNL     1      -7.114  20.385  67.135  1.00  0.00     0.000 HD 
BRANCH   4   6
HETATM    6  C   UNL     1      -6.472  18.433  67.383  1.00  0.00    -0.190 C  
HETATM    7  O   UNL     1      -5.381  18.302  66.833  1.00  0.00    -0.132 OA 
BRANCH   6   8
HETATM    8  N   UNL     1      -6.849  17.653  68.459  1.00  0.00    -0.214 N  
BRANCH   8   9
HETATM    9  C   UNL     1      -7.449  16.366  68.171  1.00  0.00    -0.149 C  
HETATM   10  O   UNL     1      -9.797  17.160  68.050  1.00  0.00    -0.265 OA 
HETATM   11  N   UNL     1      -7.092  15.298  69.076  1.00  0.00    -0.130 N  
HETATM   12  C   UNL     1      -8.985  16.278  68.307  1.00  0.00    -0.192 C  
HETATM   13  O   UNL     1      -8.098  13.326  69.760  1.00  0.00     1.138 OA 
HETATM   14  N   UNL     1      -9.285  15.016  68.729  1.00  0.00    -0.194 N  
HETATM   15  C   UNL     1      -8.161  14.422  69.225  1.00  0.00     0.092 C  
BRANCH  11  16
HETATM   16  C   UNL     1      -5.748  14.881  69.348  1.00  0.00    -0.096 C  
HETATM   17  H   UNL     1      -4.890  13.398  70.261  1.00  0.00     0.000 HD 
HETATM   18  O   UNL     1      -5.781  13.674  70.080  1.00  0.00    -0.115 OA 
ENDBRANCH  11  16
BRANCH  14  19
HETATM   19  C   UNL     1     -10.596  14.535  69.048  1.00  0.00    -0.247 C  
HETATM   20  O   UNL     1     -11.312  15.525  69.762  1.00  0.00    -0.269 OA 
HETATM   21  H   UNL     1     -12.181  15.206  69.973  1.00  0.00     0.000 HD 
ENDBRANCH  14  19
ENDBRANCH   8   9
BRANCH   8  22
HETATM   22  C   UNL     1      -6.907  18.130  69.820  1.00  0.00     0.192 C  
HETATM   23  H   UNL     1      -5.820  19.272  70.928  1.00  0.00     0.000 HD 
HETATM   24  O   UNL     1      -5.782  18.959  70.032  1.00  0.00    -0.235 OA 
ENDBRANCH   8  22
ENDBRANCH   6   8
ENDBRANCH   4   6
ENDBRANCH   3   4
TORSDOF 7
ENDMDL
MODEL      326
REMARK 921   NORMALIZED FREE ENERGY PREDICTED BY IDOCK:    8.71 KCAL/MOL
REMARK 922        TOTAL FREE ENERGY PREDICTED BY IDOCK:   10.75 KCAL/MOL
REMARK 923 INTER-LIGAND FREE ENERGY PREDICTED BY IDOCK:    6.91 KCAL/MOL
REMARK 924 INTRA-LIGAND FREE ENERGY PREDICTED BY IDOCK:    3.84 KCAL/MOL
REMARK 927      BINDING AFFINITY PREDICTED BY RF-SCORE:    0.00 PKD
ROOT
HETATM    1  O   UNL     1      -9.168  18.869  67.830  1.00  0.00    -0.292 OA 
HETATM    2  H   UNL     1      -9.991  18.626  67.424  1.00  0.00     0.000 HD 
HETATM    3  C   UNL     1      -8.539  19.759  66.939  1.00  0.00    -0.329 C  
ENDROOT
BRANCH   3   4
HETATM    4  N   UNL     1      -7.306  20.123  67.547  1.00  0.00    -0.277 N  
HETATM    5  H   UNL     1      -7.027  21.104  67.583  1.00  0.00     0.000 HD 
BRANCH   4   6
HETATM    6  C   UNL     1      -6.496  19.167  68.082  1.00  0.00    -0.227 C  
HETATM    7  O   UNL     1      -5.394  18.913  67.602  1.00  0.00    -0.167 OA 
BRANCH   6   8
HETATM    8  N   UNL     1      -6.957  18.548  69.227  1.00  0.00    -0.235 N  
BRANCH   8   9
HETATM    9  C   UNL     1      -6.053  17.639  69.903  1.00  0.00    -0.178 C  
HETATM   10  O   UNL     1      -6.650  15.613  68.599  1.00  0.00    -0.106 OA 
HETATM   11  N   UNL     1      -6.148  17.626  71.345  1.00  0.00     1.361 N  
HETATM   12  C   UNL     1      -6.273  16.132  69.645  1.00  0.00    -0.191 C  
HETATM   13  O   UNL     1      -5.691  16.072  73.002  1.00  0.00     1.153 OA 
HETATM   14  N   UNL     1      -5.932  15.469  70.787  1.00  0.00     0.055 N  
HETATM   15  C   UNL     1      -5.883  16.350  71.828  1.00  0.00     1.303 C  
BRANCH  11  16
HETATM   16  C   UNL     1      -5.994  18.782  72.178  1.00  0.00     1.030 C  
HETATM   17  H   UNL     1      -7.018  19.658  73.576  1.00  0.00     0.000 HD 
HETATM   18  O   UNL     1      -7.119  18.892  73.024  1.00  0.00     3.560 OA 
ENDBRANCH  11  16
BRANCH  14  19
HETATM   19  C   UNL     1      -6.056  14.058  70.998  1.00  0.00    -0.106 C  
HETATM   20  O   UNL     1      -6.947  13.504  70.048  1.00  0.00    -0.339 OA 
HETATM   21  H   UNL     1      -7.029  12.569  70.187  1.00  0.00     0.000 HD 
ENDBRANCH  14  19
ENDBRANCH   8   9
BRANCH   8  22
HETATM   22  C   UNL     1      -8.336  18.560  69.653  1.00  0.00     0.806 C  
HETATM   23  H   UNL     1      -9.782  17.285  69.676  1.00  0.00     0.000 HD 
HETATM   24  O   UNL     1      -8.875  17.277  69.396  1.00  0.00     0.092 OA 
ENDBRANCH   8  22
ENDBRANCH   6   8
ENDBRANCH   4   6
ENDBRANCH   3   4
TORSDOF 7
ENDMDL
