MODEL        1
REMARK 921   NORMALIZED FREE ENERGY PREDICTED BY IDOCK:   -6.63 KCAL/MOL
REMARK 922        TOTAL FREE ENERGY PREDICTED BY IDOCK:   -7.92 KCAL/MOL
REMARK 923 INTER-LIGAND FREE ENERGY PREDICTED BY IDOCK:   -7.79 KCAL/MOL
REMARK 924 INTRA-LIGAND FREE ENERGY PREDICTED BY IDOCK:   -0.13 KCAL/MOL
REMARK 927      BINDING AFFINITY PREDICTED BY RF-SCORE:    0.00 PKD
ROOT
HETATM    1  C   UNL     1      -6.596  14.614  69.239  1.00  0.00    -0.128 C  
HETATM    2  N   UNL     1      -7.587  15.500  68.615  1.00  0.00    -0.133 NA 
HETATM    3  C   UNL     1      -7.045  16.857  68.542  1.00  0.00    -0.198 C  
ENDROOT
BRANCH   2   4
HETATM    4  C   UNL     1      -7.944  14.959  67.287  1.00  0.00    -0.209 C  
BRANCH   4   5
HETATM    5  C   UNL     1      -8.323  15.995  66.208  1.00  0.00    -0.252 C  
BRANCH   5   6
HETATM    6  N   UNL     1      -9.705  15.822  65.696  1.00  0.00    -0.328 N  
HETATM    7  C   UNL     1     -10.441  14.786  66.325  1.00  0.00    -0.296 A  
HETATM    8  C   UNL     1     -10.528  13.597  65.569  1.00  0.00    -0.314 A  
HETATM    9  C   UNL     1     -11.243  12.511  66.042  1.00  0.00    -0.354 A  
HETATM   10  C   UNL     1     -11.873  12.616  67.270  1.00  0.00    -0.395 A  
HETATM   11  C   UNL     1     -11.801  13.811  68.011  1.00  0.00    -0.408 A  
HETATM   12  C   UNL     1     -11.093  14.957  67.576  1.00  0.00    -0.317 A  
HETATM   13  N   UNL     1     -11.024  16.167  68.346  1.00  0.00    -0.326 NA 
HETATM   14  C   UNL     1     -11.531  16.127  69.735  1.00  0.00    -0.282 C  
HETATM   15  C   UNL     1     -10.633  17.499  67.948  1.00  0.00    -0.390 A  
HETATM   16  C   UNL     1     -10.373  18.516  68.899  1.00  0.00    -0.147 A  
HETATM   17  C   UNL     1     -10.061  19.838  68.540  1.00  0.00    -0.555 A  
HETATM   18  C   UNL     1     -10.012  20.210  67.205  1.00  0.00    -0.583 A  
HETATM   19  C   UNL     1     -10.225  19.244  66.234  1.00  0.00    -0.546 A  
HETATM   20  C   UNL     1     -10.486  17.913  66.608  1.00  0.00    -0.318 A  
HETATM   21  C   UNL     1     -10.497  16.947  65.508  1.00  0.00    -0.204 C  
HETATM   22  O   UNL     1     -11.167  17.155  64.500  1.00  0.00    -1.104 OA 
ENDBRANCH   5   6
ENDBRANCH   4   5
ENDBRANCH   2   4
TORSDOF 3
ENDMDL
MODEL        2
REMARK 921   NORMALIZED FREE ENERGY PREDICTED BY IDOCK:   -6.59 KCAL/MOL
REMARK 922        TOTAL FREE ENERGY PREDICTED BY IDOCK:   -7.87 KCAL/MOL
REMARK 923 INTER-LIGAND FREE ENERGY PREDICTED BY IDOCK:   -7.47 KCAL/MOL
REMARK 924 INTRA-LIGAND FREE ENERGY PREDICTED BY IDOCK:   -0.41 KCAL/MOL
REMARK 927      BINDING AFFINITY PREDICTED BY RF-SCORE:    0.00 PKD
ROOT
HETATM    1  C   UNL     1     -13.254  13.875  71.455  1.00  0.00    -0.352 C  
HETATM    2  N   UNL     1     -13.382  15.338  71.441  1.00  0.00    -0.456 NA 
HETATM    3  C   UNL     1     -13.783  15.803  72.769  1.00  0.00    -0.560 C  
ENDROOT
BRANCH   2   4
HETATM    4  C   UNL     1     -12.101  15.925  70.995  1.00  0.00    -0.395 C  
BRANCH   4   5
HETATM    5  C   UNL     1     -11.849  15.935  69.473  1.00  0.00    -0.301 C  
BRANCH   5   6
HETATM    6  N   UNL     1     -10.674  15.122  69.073  1.00  0.00    -0.230 N  
HETATM    7  C   UNL     1     -10.939  14.158  68.067  1.00  0.00    -0.255 A  
HETATM    8  C   UNL     1     -11.078  12.840  68.552  1.00  0.00    -0.300 A  
HETATM    9  C   UNL     1     -11.306  11.789  67.683  1.00  0.00    -0.370 A  
HETATM   10  C   UNL     1     -11.394  12.056  66.328  1.00  0.00    -0.415 A  
HETATM   11  C   UNL     1     -11.233  13.370  65.847  1.00  0.00    -0.314 A  
HETATM   12  C   UNL     1     -10.989  14.483  66.685  1.00  0.00    -0.321 A  
HETATM   13  N   UNL     1     -10.833  15.818  66.179  1.00  0.00    -0.283 NA 
HETATM   14  C   UNL     1     -11.157  16.055  64.755  1.00  0.00    -0.365 C  
HETATM   15  C   UNL     1     -10.286  16.993  66.816  1.00  0.00    -0.302 A  
HETATM   16  C   UNL     1     -10.451  18.286  66.261  1.00  0.00    -0.397 A  
HETATM   17  C   UNL     1      -9.869  19.438  66.819  1.00  0.00    -0.453 A  
HETATM   18  C   UNL     1      -9.078  19.345  67.954  1.00  0.00    -0.377 A  
HETATM   19  C   UNL     1      -8.914  18.107  68.554  1.00  0.00    -0.309 A  
HETATM   20  C   UNL     1      -9.544  16.971  68.014  1.00  0.00    -0.260 A  
HETATM   21  C   UNL     1      -9.464  15.762  68.837  1.00  0.00    -0.229 C  
HETATM   22  O   UNL     1      -8.385  15.376  69.277  1.00  0.00    -0.224 OA 
ENDBRANCH   5   6
ENDBRANCH   4   5
ENDBRANCH   2   4
TORSDOF 3
ENDMDL
MODEL        3
REMARK 921   NORMALIZED FREE ENERGY PREDICTED BY IDOCK:   -6.54 KCAL/MOL
REMARK 922        TOTAL FREE ENERGY PREDICTED BY IDOCK:   -7.82 KCAL/MOL
REMARK 923 INTER-LIGAND FREE ENERGY PREDICTED BY IDOCK:   -7.45 KCAL/MOL
REMARK 924 INTRA-LIGAND FREE ENERGY PREDICTED BY IDOCK:   -0.37 KCAL/MOL
REMARK 927      BINDING AFFINITY PREDICTED BY RF-SCORE:    0.00 PKD
ROOT
HETATM    1  C   UNL     1     -12.774  11.860  63.487  1.00  0.00    -0.405 C  
HETATM    2  N   UNL     1     -11.855  12.484  64.448  1.00  0.00    -0.363 NA 
HETATM    3  C   UNL     1     -10.523  12.582  63.852  1.00  0.00    -0.434 C  
ENDROOT
BRANCH   2   4
HETATM    4  C   UNL     1     -12.399  13.800  64.845  1.00  0.00    -0.405 C  
BRANCH   4   5
HETATM    5  C   UNL     1     -12.212  14.196  66.324  1.00  0.00    -0.449 C  
BRANCH   5   6
HETATM    6  N   UNL     1     -10.813  14.559  66.657  1.00  0.00    -0.305 N  
HETATM    7  C   UNL     1     -10.641  15.894  67.105  1.00  0.00    -0.316 A  
HETATM    8  C   UNL     1     -10.125  16.770  66.125  1.00  0.00    -0.360 A  
HETATM    9  C   UNL     1      -9.873  18.096  66.427  1.00  0.00    -0.353 A  
HETATM   10  C   UNL     1     -10.136  18.545  67.709  1.00  0.00    -0.391 A  
HETATM   11  C   UNL     1     -10.631  17.663  68.689  1.00  0.00    -0.245 A  
HETATM   12  C   UNL     1     -10.899  16.296  68.443  1.00  0.00    -0.334 A  
HETATM   13  N   UNL     1     -11.409  15.410  69.452  1.00  0.00    -0.284 NA 
HETATM   14  C   UNL     1     -11.870  16.009  70.723  1.00  0.00    -0.340 C  
HETATM   15  C   UNL     1     -11.448  13.967  69.484  1.00  0.00    -0.274 A  
HETATM   16  C   UNL     1     -12.223  13.263  70.438  1.00  0.00    -0.404 A  
HETATM   17  C   UNL     1     -12.224  11.861  70.541  1.00  0.00    -0.426 A  
HETATM   18  C   UNL     1     -11.432  11.096  69.700  1.00  0.00    -0.383 A  
HETATM   19  C   UNL     1     -10.680  11.734  68.726  1.00  0.00    -0.255 A  
HETATM   20  C   UNL     1     -10.729  13.135  68.602  1.00  0.00    -0.274 A  
HETATM   21  C   UNL     1     -10.055  13.681  67.422  1.00  0.00    -0.241 C  
HETATM   22  O   UNL     1      -8.902  13.355  67.154  1.00  0.00    -0.209 OA 
ENDBRANCH   5   6
ENDBRANCH   4   5
ENDBRANCH   2   4
TORSDOF 3
ENDMDL
MODEL        4
REMARK 921   NORMALIZED FREE ENERGY PREDICTED BY IDOCK:   -6.51 KCAL/MOL
REMARK 922        TOTAL FREE ENERGY PREDICTED BY IDOCK:   -7.79 KCAL/MOL
REMARK 923 INTER-LIGAND FREE ENERGY PREDICTED BY IDOCK:   -7.42 KCAL/MOL
REMARK 924 INTRA-LIGAND FREE ENERGY PREDICTED BY IDOCK:   -0.37 KCAL/MOL
REMARK 927      BINDING AFFINITY PREDICTED BY RF-SCORE:    0.00 PKD
ROOT
HETATM    1  C   UNL     1     -12.198  14.346  63.991  1.00  0.00    -0.265 C  
HETATM    2  N   UNL     1     -12.737  13.037  64.384  1.00  0.00    -0.691 NA 
HETATM    3  C   UNL     1     -12.327  12.030  63.404  1.00  0.00    -0.523 C  
ENDROOT
BRANCH   2   4
HETATM    4  C   UNL     1     -12.275  12.720  65.752  1.00  0.00    -0.408 C  
BRANCH   4   5
HETATM    5  C   UNL     1     -12.149  13.914  66.721  1.00  0.00    -0.439 C  
BRANCH   5   6
HETATM    6  N   UNL     1     -10.752  14.169  67.150  1.00  0.00    -0.279 N  
HETATM    7  C   UNL     1     -10.480  15.516  67.504  1.00  0.00    -0.282 A  
HETATM    8  C   UNL     1      -9.798  16.249  66.509  1.00  0.00    -0.287 A  
HETATM    9  C   UNL     1      -9.437  17.566  66.726  1.00  0.00    -0.282 A  
HETATM   10  C   UNL     1      -9.757  18.149  67.939  1.00  0.00    -0.302 A  
HETATM   11  C   UNL     1     -10.419  17.408  68.937  1.00  0.00    -0.312 A  
HETATM   12  C   UNL     1     -10.805  16.056  68.777  1.00  0.00    -0.302 A  
HETATM   13  N   UNL     1     -11.485  15.315  69.802  1.00  0.00    -0.289 NA 
HETATM   14  C   UNL     1     -11.985  16.065  70.975  1.00  0.00    -0.366 C  
HETATM   15  C   UNL     1     -11.675  13.891  69.946  1.00  0.00    -0.291 A  
HETATM   16  C   UNL     1     -12.594  13.351  70.878  1.00  0.00    -0.406 A  
HETATM   17  C   UNL     1     -12.748  11.970  71.091  1.00  0.00    -0.365 A  
HETATM   18  C   UNL     1     -11.972  11.062  70.388  1.00  0.00    -0.459 A  
HETATM   19  C   UNL     1     -11.081  11.537  69.439  1.00  0.00    -0.287 A  
HETATM   20  C   UNL     1     -10.975  12.920  69.201  1.00  0.00    -0.184 A  
HETATM   21  C   UNL     1     -10.154  13.293  68.047  1.00  0.00    -0.235 C  
HETATM   22  O   UNL     1      -9.023  12.836  67.911  1.00  0.00    -0.170 OA 
ENDBRANCH   5   6
ENDBRANCH   4   5
ENDBRANCH   2   4
TORSDOF 3
ENDMDL
MODEL        5
REMARK 921   NORMALIZED FREE ENERGY PREDICTED BY IDOCK:   -6.44 KCAL/MOL
REMARK 922        TOTAL FREE ENERGY PREDICTED BY IDOCK:   -7.70 KCAL/MOL
REMARK 923 INTER-LIGAND FREE ENERGY PREDICTED BY IDOCK:   -7.25 KCAL/MOL
REMARK 924 INTRA-LIGAND FREE ENERGY PREDICTED BY IDOCK:   -0.46 KCAL/MOL
REMARK 927      BINDING AFFINITY PREDICTED BY RF-SCORE:    0.00 PKD
ROOT
HETATM    1  C   UNL     1      -9.874  10.557  64.269  1.00  0.00    -0.338 C  
HETATM    2  N   UNL     1      -9.842  10.245  65.704  1.00  0.00    -0.249 NA 
HETATM    3  C   UNL     1      -9.451   8.847  65.888  1.00  0.00    -0.234 C  
ENDROOT
BRANCH   2   4
HETATM    4  C   UNL     1      -8.921  11.185  66.377  1.00  0.00    -0.182 C  
BRANCH   4   5
HETATM    5  C   UNL     1      -9.580  12.282  67.240  1.00  0.00    -0.187 C  
BRANCH   5   6
HETATM    6  N   UNL     1     -11.057  12.161  67.306  1.00  0.00    -0.269 N  
HETATM    7  C   UNL     1     -11.591  12.174  68.620  1.00  0.00    -0.321 A  
HETATM    8  C   UNL     1     -11.948  10.899  69.111  1.00  0.00    -0.359 A  
HETATM    9  C   UNL     1     -12.513  10.760  70.366  1.00  0.00    -0.430 A  
HETATM   10  C   UNL     1     -12.722  11.895  71.129  1.00  0.00    -0.384 A  
HETATM   11  C   UNL     1     -12.383  13.167  70.627  1.00  0.00    -0.405 A  
HETATM   12  C   UNL     1     -11.812  13.373  69.349  1.00  0.00    -0.335 A  
HETATM   13  N   UNL     1     -11.467  14.677  68.853  1.00  0.00    -0.281 NA 
HETATM   14  C   UNL     1     -11.515  15.808  69.804  1.00  0.00    -0.349 C  
HETATM   15  C   UNL     1     -11.179  15.110  67.506  1.00  0.00    -0.330 A  
HETATM   16  C   UNL     1     -10.603  16.375  67.237  1.00  0.00    -0.293 A  
HETATM   17  C   UNL     1     -10.378  16.852  65.934  1.00  0.00    -0.327 A  
HETATM   18  C   UNL     1     -10.738  16.088  64.835  1.00  0.00    -0.339 A  
HETATM   19  C   UNL     1     -11.275  14.828  65.044  1.00  0.00    -0.399 A  
HETATM   20  C   UNL     1     -11.446  14.342  66.354  1.00  0.00    -0.365 A  
HETATM   21  C   UNL     1     -11.833  12.934  66.450  1.00  0.00    -0.415 C  
HETATM   22  O   UNL     1     -12.778  12.498  65.799  1.00  0.00    -0.455 OA 
ENDBRANCH   5   6
ENDBRANCH   4   5
ENDBRANCH   2   4
TORSDOF 3
ENDMDL
MODEL        6
REMARK 921   NORMALIZED FREE ENERGY PREDICTED BY IDOCK:   -6.42 KCAL/MOL
REMARK 922        TOTAL FREE ENERGY PREDICTED BY IDOCK:   -7.68 KCAL/MOL
REMARK 923 INTER-LIGAND FREE ENERGY PREDICTED BY IDOCK:   -7.29 KCAL/MOL
REMARK 924 INTRA-LIGAND FREE ENERGY PREDICTED BY IDOCK:   -0.38 KCAL/MOL
REMARK 927      BINDING AFFINITY PREDICTED BY RF-SCORE:    0.00 PKD
ROOT
HETATM    1  C   UNL     1      -7.321  14.731  67.455  1.00  0.00    -0.185 C  
HETATM    2  N   UNL     1      -6.803  16.063  67.792  1.00  0.00    -0.134 NA 
HETATM    3  C   UNL     1      -6.847  16.915  66.604  1.00  0.00    -0.236 C  
ENDROOT
BRANCH   2   4
HETATM    4  C   UNL     1      -7.592  16.612  68.915  1.00  0.00    -0.240 C  
BRANCH   4   5
HETATM    5  C   UNL     1      -8.819  15.785  69.354  1.00  0.00    -0.237 C  
BRANCH   5   6
HETATM    6  N   UNL     1     -10.085  16.558  69.314  1.00  0.00    -0.276 N  
HETATM    7  C   UNL     1     -10.133  17.559  68.310  1.00  0.00    -0.346 A  
HETATM    8  C   UNL     1      -9.913  18.868  68.788  1.00  0.00    -0.466 A  
HETATM    9  C   UNL     1      -9.963  19.951  67.928  1.00  0.00    -0.552 A  
HETATM   10  C   UNL     1     -10.234  19.723  66.591  1.00  0.00    -0.595 A  
HETATM   11  C   UNL     1     -10.474  18.417  66.122  1.00  0.00    -0.422 A  
HETATM   12  C   UNL     1     -10.446  17.273  66.954  1.00  0.00    -0.272 A  
HETATM   13  N   UNL     1     -10.686  15.946  66.459  1.00  0.00    -0.293 NA 
HETATM   14  C   UNL     1     -10.749  15.760  64.993  1.00  0.00    -0.421 C  
HETATM   15  C   UNL     1     -11.002  14.732  67.175  1.00  0.00    -0.320 A  
HETATM   16  C   UNL     1     -10.948  13.462  66.550  1.00  0.00    -0.299 A  
HETATM   17  C   UNL     1     -11.319  12.273  67.201  1.00  0.00    -0.398 A  
HETATM   18  C   UNL     1     -11.779  12.302  68.508  1.00  0.00    -0.381 A  
HETATM   19  C   UNL     1     -11.818  13.516  69.176  1.00  0.00    -0.386 A  
HETATM   20  C   UNL     1     -11.395  14.691  68.528  1.00  0.00    -0.305 A  
HETATM   21  C   UNL     1     -11.292  15.873  69.387  1.00  0.00    -0.349 C  
HETATM   22  O   UNL     1     -12.225  16.201  70.113  1.00  0.00    -0.181 OA 
ENDBRANCH   5   6
ENDBRANCH   4   5
ENDBRANCH   2   4
TORSDOF 3
ENDMDL
MODEL        7
REMARK 921   NORMALIZED FREE ENERGY PREDICTED BY IDOCK:   -6.29 KCAL/MOL
REMARK 922        TOTAL FREE ENERGY PREDICTED BY IDOCK:   -7.53 KCAL/MOL
REMARK 923 INTER-LIGAND FREE ENERGY PREDICTED BY IDOCK:   -7.07 KCAL/MOL
REMARK 924 INTRA-LIGAND FREE ENERGY PREDICTED BY IDOCK:   -0.46 KCAL/MOL
REMARK 927      BINDING AFFINITY PREDICTED BY RF-SCORE:    0.00 PKD
ROOT
HETATM    1  C   UNL     1      -8.557  10.388  65.642  1.00  0.00    -0.167 C  
HETATM    2  N   UNL     1      -9.153  10.173  66.967  1.00  0.00    -0.138 NA 
HETATM    3  C   UNL     1      -8.922   8.790  67.384  1.00  0.00    -0.133 C  
ENDROOT
BRANCH   2   4
HETATM    4  C   UNL     1      -8.581  11.154  67.913  1.00  0.00    -0.135 C  
BRANCH   4   5
HETATM    5  C   UNL     1      -9.426  12.418  68.177  1.00  0.00    -0.214 C  
BRANCH   5   6
HETATM    6  N   UNL     1     -10.885  12.180  68.043  1.00  0.00    -0.213 N  
HETATM    7  C   UNL     1     -11.597  12.179  69.269  1.00  0.00    -0.318 A  
HETATM    8  C   UNL     1     -11.921  10.891  69.748  1.00  0.00    -0.423 A  
HETATM    9  C   UNL     1     -12.644  10.735  70.917  1.00  0.00    -0.498 A  
HETATM   10  C   UNL     1     -13.044  11.866  71.606  1.00  0.00    -0.433 A  
HETATM   11  C   UNL     1     -12.737  13.149  71.113  1.00  0.00    -0.386 A  
HETATM   12  C   UNL     1     -12.009  13.373  69.920  1.00  0.00    -0.338 A  
HETATM   13  N   UNL     1     -11.699  14.688  69.434  1.00  0.00    -0.298 NA 
HETATM   14  C   UNL     1     -11.966  15.833  70.332  1.00  0.00    -0.359 C  
HETATM   15  C   UNL     1     -11.259  15.113  68.126  1.00  0.00    -0.320 A  
HETATM   16  C   UNL     1     -10.749  16.414  67.897  1.00  0.00    -0.332 A  
HETATM   17  C   UNL     1     -10.380  16.879  66.623  1.00  0.00    -0.299 A  
HETATM   18  C   UNL     1     -10.523  16.065  65.510  1.00  0.00    -0.426 A  
HETATM   19  C   UNL     1     -10.986  14.770  65.685  1.00  0.00    -0.345 A  
HETATM   20  C   UNL     1     -11.302  14.302  66.974  1.00  0.00    -0.354 A  
HETATM   21  C   UNL     1     -11.590  12.869  67.063  1.00  0.00    -0.362 C  
HETATM   22  O   UNL     1     -12.398  12.344  66.302  1.00  0.00    -0.577 OA 
ENDBRANCH   5   6
ENDBRANCH   4   5
ENDBRANCH   2   4
TORSDOF 3
ENDMDL
MODEL        8
REMARK 921   NORMALIZED FREE ENERGY PREDICTED BY IDOCK:   -6.22 KCAL/MOL
REMARK 922        TOTAL FREE ENERGY PREDICTED BY IDOCK:   -7.45 KCAL/MOL
REMARK 923 INTER-LIGAND FREE ENERGY PREDICTED BY IDOCK:   -6.89 KCAL/MOL
REMARK 924 INTRA-LIGAND FREE ENERGY PREDICTED BY IDOCK:   -0.56 KCAL/MOL
REMARK 927      BINDING AFFINITY PREDICTED BY RF-SCORE:    0.00 PKD
ROOT
HETATM    1  C   UNL     1     -10.359  13.492  64.413  1.00  0.00    -0.281 C  
HETATM    2  N   UNL     1     -11.718  13.744  64.909  1.00  0.00    -0.347 NA 
HETATM    3  C   UNL     1     -12.353  12.472  65.254  1.00  0.00    -0.403 C  
ENDROOT
BRANCH   2   4
HETATM    4  C   UNL     1     -11.643  14.672  66.057  1.00  0.00    -0.328 C  
BRANCH   4   5
HETATM    5  C   UNL     1     -12.284  14.180  67.372  1.00  0.00    -0.243 C  
BRANCH   5   6
HETATM    6  N   UNL     1     -11.429  14.421  68.561  1.00  0.00    -0.281 N  
HETATM    7  C   UNL     1     -12.106  14.324  69.803  1.00  0.00    -0.347 A  
HETATM    8  C   UNL     1     -12.429  15.570  70.384  1.00  0.00    -0.443 A  
HETATM    9  C   UNL     1     -13.061  15.633  71.612  1.00  0.00    -0.554 A  
HETATM   10  C   UNL     1     -13.370  14.450  72.260  1.00  0.00    -0.512 A  
HETATM   11  C   UNL     1     -13.028  13.210  71.687  1.00  0.00    -0.429 A  
HETATM   12  C   UNL     1     -12.373  13.082  70.440  1.00  0.00    -0.277 A  
HETATM   13  N   UNL     1     -12.035  11.809  69.865  1.00  0.00    -0.330 NA 
HETATM   14  C   UNL     1     -12.591  10.597  70.506  1.00  0.00    -0.348 C  
HETATM   15  C   UNL     1     -11.121  11.489  68.795  1.00  0.00    -0.233 A  
HETATM   16  C   UNL     1     -11.108  10.211  68.183  1.00  0.00    -0.290 A  
HETATM   17  C   UNL     1     -10.182   9.847  67.190  1.00  0.00    -0.285 A  
HETATM   18  C   UNL     1      -9.210  10.744  66.774  1.00  0.00    -0.174 A  
HETATM   19  C   UNL     1      -9.202  12.019  67.317  1.00  0.00    -0.182 A  
HETATM   20  C   UNL     1     -10.167  12.386  68.273  1.00  0.00    -0.230 A  
HETATM   21  C   UNL     1     -10.185  13.806  68.628  1.00  0.00    -0.208 C  
HETATM   22  O   UNL     1      -9.150  14.384  68.949  1.00  0.00    -0.161 OA 
ENDBRANCH   5   6
ENDBRANCH   4   5
ENDBRANCH   2   4
TORSDOF 3
ENDMDL
MODEL        9
REMARK 921   NORMALIZED FREE ENERGY PREDICTED BY IDOCK:   -6.16 KCAL/MOL
REMARK 922        TOTAL FREE ENERGY PREDICTED BY IDOCK:   -7.37 KCAL/MOL
REMARK 923 INTER-LIGAND FREE ENERGY PREDICTED BY IDOCK:   -6.81 KCAL/MOL
REMARK 924 INTRA-LIGAND FREE ENERGY PREDICTED BY IDOCK:   -0.56 KCAL/MOL
REMARK 927      BINDING AFFINITY PREDICTED BY RF-SCORE:    0.00 PKD
ROOT
HETATM    1  C   UNL     1      -7.634  13.967  67.627  1.00  0.00    -0.178 C  
HETATM    2  N   UNL     1      -7.482  12.667  66.960  1.00  0.00    -0.035 NA 
HETATM    3  C   UNL     1      -6.191  12.083  67.324  1.00  0.00    -0.149 C  
ENDROOT
BRANCH   2   4
HETATM    4  C   UNL     1      -8.622  11.803  67.333  1.00  0.00    -0.160 C  
BRANCH   4   5
HETATM    5  C   UNL     1      -9.480  12.283  68.522  1.00  0.00    -0.112 C  
BRANCH   5   6
HETATM    6  N   UNL     1     -10.931  12.040  68.327  1.00  0.00    -0.219 N  
HETATM    7  C   UNL     1     -11.689  12.006  69.525  1.00  0.00    -0.342 A  
HETATM    8  C   UNL     1     -12.023  10.706  69.961  1.00  0.00    -0.408 A  
HETATM    9  C   UNL     1     -12.788  10.517  71.098  1.00  0.00    -0.513 A  
HETATM   10  C   UNL     1     -13.221  11.630  71.797  1.00  0.00    -0.438 A  
HETATM   11  C   UNL     1     -12.904  12.926  71.347  1.00  0.00    -0.377 A  
HETATM   12  C   UNL     1     -12.134  13.182  70.188  1.00  0.00    -0.321 A  
HETATM   13  N   UNL     1     -11.814  14.510  69.744  1.00  0.00    -0.296 NA 
HETATM   14  C   UNL     1     -12.121  15.632  70.658  1.00  0.00    -0.405 C  
HETATM   15  C   UNL     1     -11.327  14.968  68.464  1.00  0.00    -0.303 A  
HETATM   16  C   UNL     1     -10.817  16.277  68.286  1.00  0.00    -0.340 A  
HETATM   17  C   UNL     1     -10.404  16.774  67.037  1.00  0.00    -0.300 A  
HETATM   18  C   UNL     1     -10.500  15.985  65.901  1.00  0.00    -0.373 A  
HETATM   19  C   UNL     1     -10.960  14.685  66.028  1.00  0.00    -0.325 A  
HETATM   20  C   UNL     1     -11.322  14.184  67.293  1.00  0.00    -0.349 A  
HETATM   21  C   UNL     1     -11.603  12.748  67.338  1.00  0.00    -0.356 C  
HETATM   22  O   UNL     1     -12.379  12.237  66.535  1.00  0.00    -0.504 OA 
ENDBRANCH   5   6
ENDBRANCH   4   5
ENDBRANCH   2   4
TORSDOF 3
ENDMDL
MODEL       10
REMARK 921   NORMALIZED FREE ENERGY PREDICTED BY IDOCK:   -6.07 KCAL/MOL
REMARK 922        TOTAL FREE ENERGY PREDICTED BY IDOCK:   -7.27 KCAL/MOL
REMARK 923 INTER-LIGAND FREE ENERGY PREDICTED BY IDOCK:   -6.89 KCAL/MOL
REMARK 924 INTRA-LIGAND FREE ENERGY PREDICTED BY IDOCK:   -0.38 KCAL/MOL
REMARK 927      BINDING AFFINITY PREDICTED BY RF-SCORE:    0.00 PKD
ROOT
HETATM    1  C   UNL     1     -10.413  12.375  63.457  1.00  0.00    -0.393 C  
HETATM    2  N   UNL     1     -11.749  12.973  63.576  1.00  0.00    -0.495 NA 
HETATM    3  C   UNL     1     -12.750  11.910  63.674  1.00  0.00    -0.390 C  
ENDROOT
BRANCH   2   4
HETATM    4  C   UNL     1     -11.765  13.879  64.743  1.00  0.00    -0.386 C  
BRANCH   4   5
HETATM    5  C   UNL     1     -11.920  13.208  66.124  1.00  0.00    -0.422 C  
BRANCH   5   6
HETATM    6  N   UNL     1     -10.910  13.667  67.110  1.00  0.00    -0.283 N  
HETATM    7  C   UNL     1     -11.424  13.914  68.408  1.00  0.00    -0.311 A  
HETATM    8  C   UNL     1     -11.623  15.281  68.700  1.00  0.00    -0.370 A  
HETATM    9  C   UNL     1     -12.088  15.676  69.941  1.00  0.00    -0.360 A  
HETATM   10  C   UNL     1     -12.353  14.705  70.890  1.00  0.00    -0.406 A  
HETATM   11  C   UNL     1     -12.134  13.344  70.602  1.00  0.00    -0.374 A  
HETATM   12  C   UNL     1     -11.651  12.880  69.356  1.00  0.00    -0.302 A  
HETATM   13  N   UNL     1     -11.437  11.487  69.075  1.00  0.00    -0.262 NA 
HETATM   14  C   UNL     1     -11.949  10.503  70.053  1.00  0.00    -0.288 C  
HETATM   15  C   UNL     1     -10.681  10.861  68.016  1.00  0.00    -0.220 A  
HETATM   16  C   UNL     1     -10.794   9.476  67.738  1.00  0.00    -0.258 A  
HETATM   17  C   UNL     1     -10.018   8.825  66.763  1.00  0.00    -0.338 A  
HETATM   18  C   UNL     1      -9.076   9.531  66.030  1.00  0.00    -0.220 A  
HETATM   19  C   UNL     1      -8.951  10.895  66.240  1.00  0.00    -0.188 A  
HETATM   20  C   UNL     1      -9.770  11.542  67.183  1.00  0.00    -0.199 A  
HETATM   21  C   UNL     1      -9.690  13.004  67.179  1.00  0.00    -0.230 C  
HETATM   22  O   UNL     1      -8.603  13.571  67.227  1.00  0.00    -0.198 OA 
ENDBRANCH   5   6
ENDBRANCH   4   5
ENDBRANCH   2   4
TORSDOF 3
ENDMDL
MODEL       11
REMARK 921   NORMALIZED FREE ENERGY PREDICTED BY IDOCK:   -5.94 KCAL/MOL
REMARK 922        TOTAL FREE ENERGY PREDICTED BY IDOCK:   -7.12 KCAL/MOL
REMARK 923 INTER-LIGAND FREE ENERGY PREDICTED BY IDOCK:   -6.85 KCAL/MOL
REMARK 924 INTRA-LIGAND FREE ENERGY PREDICTED BY IDOCK:   -0.27 KCAL/MOL
REMARK 927      BINDING AFFINITY PREDICTED BY RF-SCORE:    0.00 PKD
ROOT
HETATM    1  C   UNL     1     -12.075  12.468  65.690  1.00  0.00    -0.400 C  
HETATM    2  N   UNL     1     -11.520  13.288  64.605  1.00  0.00    -0.328 NA 
HETATM    3  C   UNL     1     -12.109  12.871  63.333  1.00  0.00    -0.530 C  
ENDROOT
BRANCH   2   4
HETATM    4  C   UNL     1     -11.769  14.713  64.907  1.00  0.00    -0.403 C  
BRANCH   4   5
HETATM    5  C   UNL     1     -10.567  15.515  65.448  1.00  0.00    -0.408 C  
BRANCH   5   6
HETATM    6  N   UNL     1     -10.331  15.303  66.897  1.00  0.00    -0.272 N  
HETATM    7  C   UNL     1      -9.139  14.598  67.204  1.00  0.00    -0.223 A  
HETATM    8  C   UNL     1      -9.339  13.240  67.530  1.00  0.00    -0.218 A  
HETATM    9  C   UNL     1      -8.271  12.435  67.884  1.00  0.00    -0.163 A  
HETATM   10  C   UNL     1      -7.004  12.990  67.912  1.00  0.00    -0.127 A  
HETATM   11  C   UNL     1      -6.812  14.351  67.606  1.00  0.00    -0.202 A  
HETATM   12  C   UNL     1      -7.865  15.225  67.247  1.00  0.00    -0.209 A  
HETATM   13  N   UNL     1      -7.652  16.610  66.932  1.00  0.00    -0.201 NA 
HETATM   14  C   UNL     1      -6.256  17.071  66.769  1.00  0.00    -0.210 C  
HETATM   15  C   UNL     1      -8.597  17.699  66.853  1.00  0.00    -0.242 A  
HETATM   16  C   UNL     1      -8.253  18.945  66.273  1.00  0.00    -0.283 A  
HETATM   17  C   UNL     1      -9.127  20.045  66.247  1.00  0.00    -0.402 A  
HETATM   18  C   UNL     1     -10.387  19.953  66.819  1.00  0.00    -0.599 A  
HETATM   19  C   UNL     1     -10.785  18.746  67.369  1.00  0.00    -0.487 A  
HETATM   20  C   UNL     1      -9.918  17.638  67.342  1.00  0.00    -0.321 A  
HETATM   21  C   UNL     1     -10.513  16.370  67.769  1.00  0.00    -0.300 C  
HETATM   22  O   UNL     1     -11.129  16.294  68.828  1.00  0.00    -0.323 OA 
ENDBRANCH   5   6
ENDBRANCH   4   5
ENDBRANCH   2   4
TORSDOF 3
ENDMDL
MODEL       12
REMARK 921   NORMALIZED FREE ENERGY PREDICTED BY IDOCK:   -5.92 KCAL/MOL
REMARK 922        TOTAL FREE ENERGY PREDICTED BY IDOCK:   -7.09 KCAL/MOL
REMARK 923 INTER-LIGAND FREE ENERGY PREDICTED BY IDOCK:   -6.81 KCAL/MOL
REMARK 924 INTRA-LIGAND FREE ENERGY PREDICTED BY IDOCK:   -0.27 KCAL/MOL
REMARK 927      BINDING AFFINITY PREDICTED BY RF-SCORE:    0.00 PKD
ROOT
HETATM    1  C   UNL     1     -12.423  11.985  63.346  1.00  0.00    -0.509 C  
HETATM    2  N   UNL     1     -11.738  12.328  64.599  1.00  0.00    -0.354 NA 
HETATM    3  C   UNL     1     -10.423  12.892  64.293  1.00  0.00    -0.407 C  
ENDROOT
BRANCH   2   4
HETATM    4  C   UNL     1     -12.589  13.257  65.371  1.00  0.00    -0.468 C  
BRANCH   4   5
HETATM    5  C   UNL     1     -11.868  14.447  66.039  1.00  0.00    -0.372 C  
BRANCH   5   6
HETATM    6  N   UNL     1     -11.738  14.297  67.509  1.00  0.00    -0.366 N  
HETATM    7  C   UNL     1     -10.989  13.166  67.923  1.00  0.00    -0.249 A  
HETATM    8  C   UNL     1     -11.777  12.082  68.367  1.00  0.00    -0.390 A  
HETATM    9  C   UNL     1     -11.183  10.923  68.832  1.00  0.00    -0.327 A  
HETATM   10  C   UNL     1      -9.802  10.848  68.854  1.00  0.00    -0.203 A  
HETATM   11  C   UNL     1      -9.020  11.940  68.430  1.00  0.00    -0.163 A  
HETATM   12  C   UNL     1      -9.569  13.153  67.953  1.00  0.00    -0.218 A  
HETATM   13  N   UNL     1      -8.758  14.256  67.518  1.00  0.00    -0.187 NA 
HETATM   14  C   UNL     1      -7.305  14.022  67.364  1.00  0.00    -0.114 C  
HETATM   15  C   UNL     1      -9.111  15.640  67.305  1.00  0.00    -0.205 A  
HETATM   16  C   UNL     1      -8.248  16.533  66.624  1.00  0.00    -0.306 A  
HETATM   17  C   UNL     1      -8.533  17.900  66.465  1.00  0.00    -0.284 A  
HETATM   18  C   UNL     1      -9.693  18.442  66.997  1.00  0.00    -0.316 A  
HETATM   19  C   UNL     1     -10.587  17.603  67.643  1.00  0.00    -0.364 A  
HETATM   20  C   UNL     1     -10.313  16.227  67.750  1.00  0.00    -0.287 A  
HETATM   21  C   UNL     1     -11.411  15.412  68.272  1.00  0.00    -0.353 C  
HETATM   22  O   UNL     1     -11.985  15.726  69.310  1.00  0.00    -0.369 OA 
ENDBRANCH   5   6
ENDBRANCH   4   5
ENDBRANCH   2   4
TORSDOF 3
ENDMDL
MODEL       13
REMARK 921   NORMALIZED FREE ENERGY PREDICTED BY IDOCK:   -5.87 KCAL/MOL
REMARK 922        TOTAL FREE ENERGY PREDICTED BY IDOCK:   -7.04 KCAL/MOL
REMARK 923 INTER-LIGAND FREE ENERGY PREDICTED BY IDOCK:   -6.61 KCAL/MOL
REMARK 924 INTRA-LIGAND FREE ENERGY PREDICTED BY IDOCK:   -0.43 KCAL/MOL
REMARK 927      BINDING AFFINITY PREDICTED BY RF-SCORE:    0.00 PKD
ROOT
HETATM    1  C   UNL     1     -10.549  12.326  63.664  1.00  0.00    -0.462 C  
HETATM    2  N   UNL     1     -11.910  12.814  63.406  1.00  0.00    -0.536 NA 
HETATM    3  C   UNL     1     -12.867  11.735  63.654  1.00  0.00    -0.217 C  
ENDROOT
BRANCH   2   4
HETATM    4  C   UNL     1     -12.161  14.001  64.249  1.00  0.00    -0.445 C  
BRANCH   4   5
HETATM    5  C   UNL     1     -10.978  14.483  65.116  1.00  0.00    -0.379 C  
BRANCH   5   6
HETATM    6  N   UNL     1     -11.230  14.343  66.572  1.00  0.00    -0.332 N  
HETATM    7  C   UNL     1     -10.633  13.202  67.166  1.00  0.00    -0.257 A  
HETATM    8  C   UNL     1     -11.529  12.136  67.399  1.00  0.00    -0.415 A  
HETATM    9  C   UNL     1     -11.095  10.970  68.004  1.00  0.00    -0.343 A  
HETATM   10  C   UNL     1      -9.767  10.871  68.377  1.00  0.00    -0.179 A  
HETATM   11  C   UNL     1      -8.881  11.945  68.161  1.00  0.00    -0.178 A  
HETATM   12  C   UNL     1      -9.268  13.165  67.557  1.00  0.00    -0.206 A  
HETATM   13  N   UNL     1      -8.351  14.249  67.338  1.00  0.00    -0.187 NA 
HETATM   14  C   UNL     1      -6.912  13.987  67.559  1.00  0.00    -0.148 C  
HETATM   15  C   UNL     1      -8.612  15.637  67.037  1.00  0.00    -0.224 A  
HETATM   16  C   UNL     1      -7.587  16.509  66.595  1.00  0.00    -0.310 A  
HETATM   17  C   UNL     1      -7.795  17.880  66.363  1.00  0.00    -0.307 A  
HETATM   18  C   UNL     1      -9.041  18.447  66.581  1.00  0.00    -0.301 A  
HETATM   19  C   UNL     1     -10.086  17.629  66.981  1.00  0.00    -0.330 A  
HETATM   20  C   UNL     1      -9.875  16.250  67.159  1.00  0.00    -0.243 A  
HETATM   21  C   UNL     1     -11.086  15.458  67.388  1.00  0.00    -0.311 C  
HETATM   22  O   UNL     1     -11.899  15.792  68.245  1.00  0.00    -0.301 OA 
ENDBRANCH   5   6
ENDBRANCH   4   5
ENDBRANCH   2   4
TORSDOF 3
ENDMDL
MODEL       14
REMARK 921   NORMALIZED FREE ENERGY PREDICTED BY IDOCK:   -5.75 KCAL/MOL
REMARK 922        TOTAL FREE ENERGY PREDICTED BY IDOCK:   -6.89 KCAL/MOL
REMARK 923 INTER-LIGAND FREE ENERGY PREDICTED BY IDOCK:   -6.56 KCAL/MOL
REMARK 924 INTRA-LIGAND FREE ENERGY PREDICTED BY IDOCK:   -0.33 KCAL/MOL
REMARK 927      BINDING AFFINITY PREDICTED BY RF-SCORE:    0.00 PKD
ROOT
HETATM    1  C   UNL     1     -13.500  14.059  72.571  1.00  0.00    -0.558 C  
HETATM    2  N   UNL     1     -13.169  15.087  71.575  1.00  0.00    -0.368 NA 
HETATM    3  C   UNL     1     -12.136  15.971  72.117  1.00  0.00    -0.526 C  
ENDROOT
BRANCH   2   4
HETATM    4  C   UNL     1     -12.749  14.422  70.324  1.00  0.00    -0.263 C  
BRANCH   4   5
HETATM    5  C   UNL     1     -11.368  14.829  69.767  1.00  0.00    -0.283 C  
BRANCH   5   6
HETATM    6  N   UNL     1     -11.378  15.061  68.301  1.00  0.00    -0.304 N  
HETATM    7  C   UNL     1     -10.306  15.857  67.823  1.00  0.00    -0.278 A  
HETATM    8  C   UNL     1     -10.658  17.197  67.551  1.00  0.00    -0.323 A  
HETATM    9  C   UNL     1      -9.723  18.083  67.047  1.00  0.00    -0.303 A  
HETATM   10  C   UNL     1      -8.436  17.629  66.815  1.00  0.00    -0.274 A  
HETATM   11  C   UNL     1      -8.095  16.286  67.069  1.00  0.00    -0.244 A  
HETATM   12  C   UNL     1      -9.009  15.332  67.575  1.00  0.00    -0.185 A  
HETATM   13  N   UNL     1      -8.644  13.967  67.834  1.00  0.00    -0.168 NA 
HETATM   14  C   UNL     1      -7.209  13.616  67.772  1.00  0.00    -0.164 C  
HETATM   15  C   UNL     1      -9.480  12.808  68.044  1.00  0.00    -0.213 A  
HETATM   16  C   UNL     1      -8.955  11.592  68.546  1.00  0.00    -0.146 A  
HETATM   17  C   UNL     1      -9.728  10.427  68.691  1.00  0.00    -0.178 A  
HETATM   18  C   UNL     1     -11.064  10.421  68.323  1.00  0.00    -0.338 A  
HETATM   19  C   UNL     1     -11.634  11.595  67.858  1.00  0.00    -0.369 A  
HETATM   20  C   UNL     1     -10.861  12.767  67.766  1.00  0.00    -0.248 A  
HETATM   21  C   UNL     1     -11.610  13.985  67.453  1.00  0.00    -0.368 C  
HETATM   22  O   UNL     1     -12.388  14.015  66.504  1.00  0.00    -0.457 OA 
ENDBRANCH   5   6
ENDBRANCH   4   5
ENDBRANCH   2   4
TORSDOF 3
ENDMDL
MODEL       15
REMARK 921   NORMALIZED FREE ENERGY PREDICTED BY IDOCK:   -5.75 KCAL/MOL
REMARK 922        TOTAL FREE ENERGY PREDICTED BY IDOCK:   -6.89 KCAL/MOL
REMARK 923 INTER-LIGAND FREE ENERGY PREDICTED BY IDOCK:   -6.82 KCAL/MOL
REMARK 924 INTRA-LIGAND FREE ENERGY PREDICTED BY IDOCK:   -0.07 KCAL/MOL
REMARK 927      BINDING AFFINITY PREDICTED BY RF-SCORE:    0.00 PKD
ROOT
HETATM    1  C   UNL     1     -12.221  13.950  70.375  1.00  0.00    -0.368 C  
HETATM    2  N   UNL     1     -12.339  15.412  70.432  1.00  0.00    -0.379 NA 
HETATM    3  C   UNL     1     -12.045  15.870  71.791  1.00  0.00    -0.492 C  
ENDROOT
BRANCH   2   4
HETATM    4  C   UNL     1     -11.434  16.005  69.425  1.00  0.00    -0.336 C  
BRANCH   4   5
HETATM    5  C   UNL     1     -11.573  15.469  67.985  1.00  0.00    -0.268 C  
BRANCH   5   6
HETATM    6  N   UNL     1     -10.632  16.109  67.033  1.00  0.00    -0.310 N  
HETATM    7  C   UNL     1      -9.279  16.115  67.456  1.00  0.00    -0.208 A  
HETATM    8  C   UNL     1      -8.841  17.354  67.972  1.00  0.00    -0.252 A  
HETATM    9  C   UNL     1      -7.534  17.520  68.394  1.00  0.00    -0.247 A  
HETATM   10  C   UNL     1      -6.665  16.447  68.298  1.00  0.00    -0.134 A  
HETATM   11  C   UNL     1      -7.101  15.219  67.764  1.00  0.00    -0.180 A  
HETATM   12  C   UNL     1      -8.421  14.992  67.308  1.00  0.00    -0.198 A  
HETATM   13  N   UNL     1      -8.852  13.732  66.770  1.00  0.00    -0.186 NA 
HETATM   14  C   UNL     1      -7.936  12.578  66.905  1.00  0.00    -0.008 C  
HETATM   15  C   UNL     1     -10.024  13.408  65.991  1.00  0.00    -0.293 A  
HETATM   16  C   UNL     1     -10.425  12.068  65.768  1.00  0.00    -0.290 A  
HETATM   17  C   UNL     1     -11.517  11.721  64.955  1.00  0.00    -0.253 A  
HETATM   18  C   UNL     1     -12.252  12.704  64.310  1.00  0.00    -0.524 A  
HETATM   19  C   UNL     1     -11.922  14.032  64.522  1.00  0.00    -0.470 A  
HETATM   20  C   UNL     1     -10.857  14.367  65.379  1.00  0.00    -0.351 A  
HETATM   21  C   UNL     1     -10.726  15.794  65.683  1.00  0.00    -0.348 C  
HETATM   22  O   UNL     1     -10.711  16.626  64.780  1.00  0.00    -0.721 OA 
ENDBRANCH   5   6
ENDBRANCH   4   5
ENDBRANCH   2   4
TORSDOF 3
ENDMDL
MODEL       16
REMARK 921   NORMALIZED FREE ENERGY PREDICTED BY IDOCK:   -5.74 KCAL/MOL
REMARK 922        TOTAL FREE ENERGY PREDICTED BY IDOCK:   -6.88 KCAL/MOL
REMARK 923 INTER-LIGAND FREE ENERGY PREDICTED BY IDOCK:   -6.92 KCAL/MOL
REMARK 924 INTRA-LIGAND FREE ENERGY PREDICTED BY IDOCK:    0.05 KCAL/MOL
REMARK 927      BINDING AFFINITY PREDICTED BY RF-SCORE:    0.00 PKD
ROOT
HETATM    1  C   UNL     1     -12.083  16.066  72.046  1.00  0.00    -0.525 C  
HETATM    2  N   UNL     1     -11.541  15.255  70.948  1.00  0.00    -0.312 NA 
HETATM    3  C   UNL     1     -12.540  14.269  70.534  1.00  0.00    -0.353 C  
ENDROOT
BRANCH   2   4
HETATM    4  C   UNL     1     -11.137  16.152  69.845  1.00  0.00    -0.357 C  
BRANCH   4   5
HETATM    5  C   UNL     1     -11.520  15.695  68.421  1.00  0.00    -0.369 C  
BRANCH   5   6
HETATM    6  N   UNL     1     -10.902  16.526  67.358  1.00  0.00    -0.256 N  
HETATM    7  C   UNL     1      -9.902  17.422  67.817  1.00  0.00    -0.283 A  
HETATM    8  C   UNL     1     -10.336  18.759  67.939  1.00  0.00    -0.461 A  
HETATM    9  C   UNL     1      -9.460  19.750  68.344  1.00  0.00    -0.423 A  
HETATM   10  C   UNL     1      -8.151  19.404  68.625  1.00  0.00    -0.402 A  
HETATM   11  C   UNL     1      -7.717  18.072  68.481  1.00  0.00    -0.308 A  
HETATM   12  C   UNL     1      -8.562  17.018  68.062  1.00  0.00    -0.217 A  
HETATM   13  N   UNL     1      -8.106  15.662  67.926  1.00  0.00    -0.138 NA 
HETATM   14  C   UNL     1      -6.763  15.333  68.453  1.00  0.00    -0.113 C  
HETATM   15  C   UNL     1      -8.709  14.546  67.236  1.00  0.00    -0.210 A  
HETATM   16  C   UNL     1      -8.253  13.218  67.426  1.00  0.00    -0.185 A  
HETATM   17  C   UNL     1      -8.772  12.122  66.715  1.00  0.00    -0.183 A  
HETATM   18  C   UNL     1      -9.764  12.308  65.765  1.00  0.00    -0.228 A  
HETATM   19  C   UNL     1     -10.268  13.583  65.566  1.00  0.00    -0.308 A  
HETATM   20  C   UNL     1      -9.775  14.663  66.322  1.00  0.00    -0.329 A  
HETATM   21  C   UNL     1     -10.514  15.918  66.171  1.00  0.00    -0.326 C  
HETATM   22  O   UNL     1     -10.762  16.368  65.056  1.00  0.00    -0.638 OA 
ENDBRANCH   5   6
ENDBRANCH   4   5
ENDBRANCH   2   4
TORSDOF 3
ENDMDL
MODEL       17
REMARK 921   NORMALIZED FREE ENERGY PREDICTED BY IDOCK:   -5.70 KCAL/MOL
REMARK 922        TOTAL FREE ENERGY PREDICTED BY IDOCK:   -6.84 KCAL/MOL
REMARK 923 INTER-LIGAND FREE ENERGY PREDICTED BY IDOCK:   -6.54 KCAL/MOL
REMARK 924 INTRA-LIGAND FREE ENERGY PREDICTED BY IDOCK:   -0.29 KCAL/MOL
REMARK 927      BINDING AFFINITY PREDICTED BY RF-SCORE:    0.00 PKD
ROOT
HETATM    1  C   UNL     1     -12.755  13.855  65.408  1.00  0.00    -0.490 C  
HETATM    2  N   UNL     1     -12.616  12.439  65.044  1.00  0.00    -0.604 NA 
HETATM    3  C   UNL     1     -12.709  12.300  63.591  1.00  0.00    -0.411 C  
ENDROOT
BRANCH   2   4
HETATM    4  C   UNL     1     -11.338  11.930  65.583  1.00  0.00    -0.284 C  
BRANCH   4   5
HETATM    5  C   UNL     1     -11.377  11.380  67.025  1.00  0.00    -0.236 C  
BRANCH   5   6
HETATM    6  N   UNL     1     -10.545  12.165  67.970  1.00  0.00    -0.204 N  
HETATM    7  C   UNL     1     -11.277  13.040  68.812  1.00  0.00    -0.282 A  
HETATM    8  C   UNL     1     -11.241  14.393  68.411  1.00  0.00    -0.294 A  
HETATM    9  C   UNL     1     -11.882  15.367  69.156  1.00  0.00    -0.357 A  
HETATM   10  C   UNL     1     -12.558  14.987  70.301  1.00  0.00    -0.363 A  
HETATM   11  C   UNL     1     -12.574  13.639  70.709  1.00  0.00    -0.397 A  
HETATM   12  C   UNL     1     -11.930  12.601  69.995  1.00  0.00    -0.306 A  
HETATM   13  N   UNL     1     -11.960  11.230  70.421  1.00  0.00    -0.360 NA 
HETATM   14  C   UNL     1     -12.880  10.873  71.523  1.00  0.00    -0.454 C  
HETATM   15  C   UNL     1     -11.134  10.116  70.019  1.00  0.00    -0.308 A  
HETATM   16  C   UNL     1     -11.473   8.780  70.345  1.00  0.00    -0.163 A  
HETATM   17  C   UNL     1     -10.653   7.683  70.031  1.00  0.00    -0.240 A  
HETATM   18  C   UNL     1      -9.440   7.875  69.387  1.00  0.00    -0.156 A  
HETATM   19  C   UNL     1      -9.078   9.160  69.015  1.00  0.00    -0.143 A  
HETATM   20  C   UNL     1      -9.933  10.243  69.291  1.00  0.00    -0.244 A  
HETATM   21  C   UNL     1      -9.544  11.516  68.682  1.00  0.00    -0.152 C  
HETATM   22  O   UNL     1      -8.401  11.945  68.806  1.00  0.00    -0.096 OA 
ENDBRANCH   5   6
ENDBRANCH   4   5
ENDBRANCH   2   4
TORSDOF 3
ENDMDL
MODEL       18
REMARK 921   NORMALIZED FREE ENERGY PREDICTED BY IDOCK:   -5.63 KCAL/MOL
REMARK 922        TOTAL FREE ENERGY PREDICTED BY IDOCK:   -6.75 KCAL/MOL
REMARK 923 INTER-LIGAND FREE ENERGY PREDICTED BY IDOCK:   -6.25 KCAL/MOL
REMARK 924 INTRA-LIGAND FREE ENERGY PREDICTED BY IDOCK:   -0.50 KCAL/MOL
REMARK 927      BINDING AFFINITY PREDICTED BY RF-SCORE:    0.00 PKD
ROOT
HETATM    1  C   UNL     1     -11.720  14.788  70.275  1.00  0.00    -0.298 C  
HETATM    2  N   UNL     1     -11.212  14.948  68.906  1.00  0.00    -0.254 NA 
HETATM    3  C   UNL     1     -11.225  16.366  68.547  1.00  0.00    -0.334 C  
ENDROOT
BRANCH   2   4
HETATM    4  C   UNL     1      -9.861  14.353  68.825  1.00  0.00    -0.214 C  
BRANCH   4   5
HETATM    5  C   UNL     1      -9.702  13.154  67.867  1.00  0.00    -0.221 C  
BRANCH   5   6
HETATM    6  N   UNL     1     -10.997  12.545  67.476  1.00  0.00    -0.241 N  
HETATM    7  C   UNL     1     -11.245  12.532  66.080  1.00  0.00    -0.321 A  
HETATM    8  C   UNL     1     -12.136  13.536  65.642  1.00  0.00    -0.467 A  
HETATM    9  C   UNL     1     -12.498  13.625  64.310  1.00  0.00    -0.304 A  
HETATM   10  C   UNL     1     -11.970  12.710  63.417  1.00  0.00    -0.613 A  
HETATM   11  C   UNL     1     -11.098  11.697  63.862  1.00  0.00    -0.477 A  
HETATM   12  C   UNL     1     -10.699  11.549  65.211  1.00  0.00    -0.279 A  
HETATM   13  N   UNL     1      -9.804  10.514  65.649  1.00  0.00    -0.236 NA 
HETATM   14  C   UNL     1      -9.114   9.718  64.610  1.00  0.00    -0.245 C  
HETATM   15  C   UNL     1      -9.536  10.022  66.980  1.00  0.00    -0.172 A  
HETATM   16  C   UNL     1      -8.433   9.178  67.254  1.00  0.00    -0.121 A  
HETATM   17  C   UNL     1      -8.188   8.626  68.523  1.00  0.00    -0.122 A  
HETATM   18  C   UNL     1      -9.051   8.881  69.578  1.00  0.00    -0.146 A  
HETATM   19  C   UNL     1     -10.128   9.728  69.370  1.00  0.00    -0.221 A  
HETATM   20  C   UNL     1     -10.331  10.315  68.107  1.00  0.00    -0.208 A  
HETATM   21  C   UNL     1     -11.375  11.340  68.056  1.00  0.00    -0.304 C  
HETATM   22  O   UNL     1     -12.492  11.118  68.512  1.00  0.00    -0.452 OA 
ENDBRANCH   5   6
ENDBRANCH   4   5
ENDBRANCH   2   4
TORSDOF 3
ENDMDL
MODEL       19
REMARK 921   NORMALIZED FREE ENERGY PREDICTED BY IDOCK:   -5.63 KCAL/MOL
REMARK 922        TOTAL FREE ENERGY PREDICTED BY IDOCK:   -6.74 KCAL/MOL
REMARK 923 INTER-LIGAND FREE ENERGY PREDICTED BY IDOCK:   -6.41 KCAL/MOL
REMARK 924 INTRA-LIGAND FREE ENERGY PREDICTED BY IDOCK:   -0.33 KCAL/MOL
REMARK 927      BINDING AFFINITY PREDICTED BY RF-SCORE:    0.00 PKD
ROOT
HETATM    1  C   UNL     1     -13.264  13.653  71.658  1.00  0.00    -0.367 C  
HETATM    2  N   UNL     1     -12.181  12.983  70.926  1.00  0.00    -0.308 NA 
HETATM    3  C   UNL     1     -12.488  11.558  70.803  1.00  0.00    -0.349 C  
ENDROOT
BRANCH   2   4
HETATM    4  C   UNL     1     -12.010  13.643  69.615  1.00  0.00    -0.343 C  
BRANCH   4   5
HETATM    5  C   UNL     1     -11.786  12.709  68.407  1.00  0.00    -0.301 C  
BRANCH   5   6
HETATM    6  N   UNL     1     -10.372  12.286  68.254  1.00  0.00    -0.216 N  
HETATM    7  C   UNL     1     -10.193  11.089  67.513  1.00  0.00    -0.188 A  
HETATM    8  C   UNL     1      -9.943   9.950  68.308  1.00  0.00    -0.172 A  
HETATM    9  C   UNL     1      -9.715   8.718  67.722  1.00  0.00    -0.194 A  
HETATM   10  C   UNL     1      -9.735   8.626  66.342  1.00  0.00    -0.333 A  
HETATM   11  C   UNL     1      -9.964   9.770  65.552  1.00  0.00    -0.329 A  
HETATM   12  C   UNL     1     -10.194  11.057  66.093  1.00  0.00    -0.247 A  
HETATM   13  N   UNL     1     -10.431  12.213  65.274  1.00  0.00    -0.267 NA 
HETATM   14  C   UNL     1     -10.656  11.996  63.828  1.00  0.00    -0.430 C  
HETATM   15  C   UNL     1     -10.375  13.616  65.612  1.00  0.00    -0.300 A  
HETATM   16  C   UNL     1     -10.894  14.611  64.749  1.00  0.00    -0.402 A  
HETATM   17  C   UNL     1     -10.789  15.987  65.017  1.00  0.00    -0.421 A  
HETATM   18  C   UNL     1     -10.142  16.432  66.159  1.00  0.00    -0.364 A  
HETATM   19  C   UNL     1      -9.647  15.497  67.054  1.00  0.00    -0.233 A  
HETATM   20  C   UNL     1      -9.804  14.122  66.797  1.00  0.00    -0.275 A  
HETATM   21  C   UNL     1      -9.422  13.235  67.897  1.00  0.00    -0.214 C  
HETATM   22  O   UNL     1      -8.332  13.355  68.448  1.00  0.00    -0.159 OA 
ENDBRANCH   5   6
ENDBRANCH   4   5
ENDBRANCH   2   4
TORSDOF 3
ENDMDL
MODEL       20
REMARK 921   NORMALIZED FREE ENERGY PREDICTED BY IDOCK:   -5.62 KCAL/MOL
REMARK 922        TOTAL FREE ENERGY PREDICTED BY IDOCK:   -6.74 KCAL/MOL
REMARK 923 INTER-LIGAND FREE ENERGY PREDICTED BY IDOCK:   -6.31 KCAL/MOL
REMARK 924 INTRA-LIGAND FREE ENERGY PREDICTED BY IDOCK:   -0.43 KCAL/MOL
REMARK 927      BINDING AFFINITY PREDICTED BY RF-SCORE:    0.00 PKD
ROOT
HETATM    1  C   UNL     1      -8.582  17.145  66.719  1.00  0.00    -0.243 C  
HETATM    2  N   UNL     1     -10.046  17.224  66.803  1.00  0.00    -0.292 NA 
HETATM    3  C   UNL     1     -10.506  18.433  66.119  1.00  0.00    -0.395 C  
ENDROOT
BRANCH   2   4
HETATM    4  C   UNL     1     -10.626  15.992  66.229  1.00  0.00    -0.285 C  
BRANCH   4   5
HETATM    5  C   UNL     1     -11.234  14.993  67.236  1.00  0.00    -0.338 C  
BRANCH   5   6
HETATM    6  N   UNL     1     -10.464  14.900  68.501  1.00  0.00    -0.236 N  
HETATM    7  C   UNL     1     -11.260  14.773  69.668  1.00  0.00    -0.275 A  
HETATM    8  C   UNL     1     -11.400  15.969  70.405  1.00  0.00    -0.405 A  
HETATM    9  C   UNL     1     -12.122  15.990  71.584  1.00  0.00    -0.537 A  
HETATM   10  C   UNL     1     -12.702  14.815  72.027  1.00  0.00    -0.400 A  
HETATM   11  C   UNL     1     -12.543  13.620  71.300  1.00  0.00    -0.435 A  
HETATM   12  C   UNL     1     -11.809  13.534  70.093  1.00  0.00    -0.278 A  
HETATM   13  N   UNL     1     -11.661  12.308  69.359  1.00  0.00    -0.303 NA 
HETATM   14  C   UNL     1     -12.487  11.154  69.774  1.00  0.00    -0.162 C  
HETATM   15  C   UNL     1     -10.725  11.960  68.315  1.00  0.00    -0.223 A  
HETATM   16  C   UNL     1     -10.891  10.798  67.523  1.00  0.00    -0.342 A  
HETATM   17  C   UNL     1      -9.960  10.395  66.550  1.00  0.00    -0.271 A  
HETATM   18  C   UNL     1      -8.805  11.132  66.337  1.00  0.00    -0.182 A  
HETATM   19  C   UNL     1      -8.612  12.296  67.063  1.00  0.00    -0.191 A  
HETATM   20  C   UNL     1      -9.578  12.714  67.997  1.00  0.00    -0.213 A  
HETATM   21  C   UNL     1      -9.366  14.050  68.557  1.00  0.00    -0.182 C  
HETATM   22  O   UNL     1      -8.277  14.366  69.029  1.00  0.00    -0.123 OA 
ENDBRANCH   5   6
ENDBRANCH   4   5
ENDBRANCH   2   4
TORSDOF 3
ENDMDL
MODEL       21
REMARK 921   NORMALIZED FREE ENERGY PREDICTED BY IDOCK:   -5.60 KCAL/MOL
REMARK 922        TOTAL FREE ENERGY PREDICTED BY IDOCK:   -6.71 KCAL/MOL
REMARK 923 INTER-LIGAND FREE ENERGY PREDICTED BY IDOCK:   -6.48 KCAL/MOL
REMARK 924 INTRA-LIGAND FREE ENERGY PREDICTED BY IDOCK:   -0.23 KCAL/MOL
REMARK 927      BINDING AFFINITY PREDICTED BY RF-SCORE:    0.00 PKD
ROOT
HETATM    1  C   UNL     1     -12.528  12.524  63.353  1.00  0.00    -0.408 C  
HETATM    2  N   UNL     1     -12.165  13.692  64.166  1.00  0.00    -0.597 NA 
HETATM    3  C   UNL     1     -13.001  13.725  65.366  1.00  0.00    -0.312 C  
ENDROOT
BRANCH   2   4
HETATM    4  C   UNL     1     -10.722  13.626  64.480  1.00  0.00    -0.407 C  
BRANCH   4   5
HETATM    5  C   UNL     1     -10.333  12.797  65.722  1.00  0.00    -0.281 C  
BRANCH   5   6
HETATM    6  N   UNL     1      -9.313  13.464  66.569  1.00  0.00    -0.245 N  
HETATM    7  C   UNL     1      -9.637  14.791  66.948  1.00  0.00    -0.241 A  
HETATM    8  C   UNL     1      -8.968  15.785  66.202  1.00  0.00    -0.372 A  
HETATM    9  C   UNL     1      -9.160  17.126  66.482  1.00  0.00    -0.294 A  
HETATM   10  C   UNL     1     -10.021  17.472  67.508  1.00  0.00    -0.315 A  
HETATM   11  C   UNL     1     -10.670  16.477  68.264  1.00  0.00    -0.345 A  
HETATM   12  C   UNL     1     -10.507  15.091  68.031  1.00  0.00    -0.242 A  
HETATM   13  N   UNL     1     -11.181  14.087  68.807  1.00  0.00    -0.256 NA 
HETATM   14  C   UNL     1     -12.245  14.534  69.732  1.00  0.00    -0.312 C  
HETATM   15  C   UNL     1     -10.914  12.673  68.927  1.00  0.00    -0.229 A  
HETATM   16  C   UNL     1     -11.840  11.788  69.531  1.00  0.00    -0.402 A  
HETATM   17  C   UNL     1     -11.576  10.422  69.727  1.00  0.00    -0.339 A  
HETATM   18  C   UNL     1     -10.360   9.879  69.341  1.00  0.00    -0.238 A  
HETATM   19  C   UNL     1      -9.433  10.696  68.714  1.00  0.00    -0.186 A  
HETATM   20  C   UNL     1      -9.731  12.051  68.478  1.00  0.00    -0.165 A  
HETATM   21  C   UNL     1      -8.767  12.764  67.638  1.00  0.00    -0.180 C  
HETATM   22  O   UNL     1      -7.566  12.718  67.888  1.00  0.00    -0.111 OA 
ENDBRANCH   5   6
ENDBRANCH   4   5
ENDBRANCH   2   4
TORSDOF 3
ENDMDL
MODEL       22
REMARK 921   NORMALIZED FREE ENERGY PREDICTED BY IDOCK:   -5.58 KCAL/MOL
REMARK 922        TOTAL FREE ENERGY PREDICTED BY IDOCK:   -6.69 KCAL/MOL
REMARK 923 INTER-LIGAND FREE ENERGY PREDICTED BY IDOCK:   -6.63 KCAL/MOL
REMARK 924 INTRA-LIGAND FREE ENERGY PREDICTED BY IDOCK:   -0.06 KCAL/MOL
REMARK 927      BINDING AFFINITY PREDICTED BY RF-SCORE:    0.00 PKD
ROOT
HETATM    1  C   UNL     1     -12.261  14.761  64.338  1.00  0.00    -0.428 C  
HETATM    2  N   UNL     1     -12.607  13.344  64.512  1.00  0.00    -0.643 NA 
HETATM    3  C   UNL     1     -11.949  12.553  63.473  1.00  0.00    -0.543 C  
ENDROOT
BRANCH   2   4
HETATM    4  C   UNL     1     -12.224  12.922  65.876  1.00  0.00    -0.407 C  
BRANCH   4   5
HETATM    5  C   UNL     1     -12.049  14.051  66.914  1.00  0.00    -0.430 C  
BRANCH   5   6
HETATM    6  N   UNL     1     -11.795  13.544  68.285  1.00  0.00    -0.356 N  
HETATM    7  C   UNL     1     -10.933  12.420  68.348  1.00  0.00    -0.241 A  
HETATM    8  C   UNL     1     -11.599  11.190  68.539  1.00  0.00    -0.385 A  
HETATM    9  C   UNL     1     -10.885  10.011  68.653  1.00  0.00    -0.265 A  
HETATM   10  C   UNL     1      -9.505  10.062  68.578  1.00  0.00    -0.150 A  
HETATM   11  C   UNL     1      -8.843  11.294  68.409  1.00  0.00    -0.159 A  
HETATM   12  C   UNL     1      -9.517  12.532  68.295  1.00  0.00    -0.201 A  
HETATM   13  N   UNL     1      -8.828  13.780  68.118  1.00  0.00    -0.179 NA 
HETATM   14  C   UNL     1      -7.378  13.729  67.827  1.00  0.00    -0.164 C  
HETATM   15  C   UNL     1      -9.300  15.134  68.291  1.00  0.00    -0.193 A  
HETATM   16  C   UNL     1      -8.563  16.247  67.819  1.00  0.00    -0.175 A  
HETATM   17  C   UNL     1      -8.961  17.577  68.037  1.00  0.00    -0.258 A  
HETATM   18  C   UNL     1     -10.114  17.856  68.755  1.00  0.00    -0.384 A  
HETATM   19  C   UNL     1     -10.889  16.801  69.209  1.00  0.00    -0.275 A  
HETATM   20  C   UNL     1     -10.505  15.474  68.940  1.00  0.00    -0.223 A  
HETATM   21  C   UNL     1     -11.494  14.454  69.292  1.00  0.00    -0.285 C  
HETATM   22  O   UNL     1     -12.008  14.440  70.407  1.00  0.00    -0.287 OA 
ENDBRANCH   5   6
ENDBRANCH   4   5
ENDBRANCH   2   4
TORSDOF 3
ENDMDL
MODEL       23
REMARK 921   NORMALIZED FREE ENERGY PREDICTED BY IDOCK:   -5.57 KCAL/MOL
REMARK 922        TOTAL FREE ENERGY PREDICTED BY IDOCK:   -6.68 KCAL/MOL
REMARK 923 INTER-LIGAND FREE ENERGY PREDICTED BY IDOCK:   -6.31 KCAL/MOL
REMARK 924 INTRA-LIGAND FREE ENERGY PREDICTED BY IDOCK:   -0.37 KCAL/MOL
REMARK 927      BINDING AFFINITY PREDICTED BY RF-SCORE:    0.00 PKD
ROOT
HETATM    1  C   UNL     1     -10.691  18.481  66.821  1.00  0.00    -0.257 C  
HETATM    2  N   UNL     1      -9.873  17.730  65.860  1.00  0.00    -0.550 NA 
HETATM    3  C   UNL     1      -8.718  17.156  66.551  1.00  0.00    -0.261 C  
ENDROOT
BRANCH   2   4
HETATM    4  C   UNL     1     -10.717  16.703  65.214  1.00  0.00    -0.204 C  
BRANCH   4   5
HETATM    5  C   UNL     1     -10.070  15.316  65.016  1.00  0.00    -0.215 C  
BRANCH   5   6
HETATM    6  N   UNL     1     -11.038  14.199  65.148  1.00  0.00    -0.331 N  
HETATM    7  C   UNL     1     -10.489  12.913  64.910  1.00  0.00    -0.331 A  
HETATM    8  C   UNL     1     -10.789  12.383  63.637  1.00  0.00    -0.509 A  
HETATM    9  C   UNL     1     -10.349  11.122  63.277  1.00  0.00    -0.368 A  
HETATM   10  C   UNL     1      -9.610  10.391  64.190  1.00  0.00    -0.381 A  
HETATM   11  C   UNL     1      -9.331  10.916  65.467  1.00  0.00    -0.237 A  
HETATM   12  C   UNL     1      -9.761  12.193  65.896  1.00  0.00    -0.239 A  
HETATM   13  N   UNL     1      -9.464  12.717  67.200  1.00  0.00    -0.207 NA 
HETATM   14  C   UNL     1      -8.490  11.976  68.032  1.00  0.00    -0.168 C  
HETATM   15  C   UNL     1     -10.057  13.823  67.913  1.00  0.00    -0.246 A  
HETATM   16  C   UNL     1      -9.463  14.363  69.080  1.00  0.00    -0.042 A  
HETATM   17  C   UNL     1     -10.055  15.391  69.835  1.00  0.00    -0.253 A  
HETATM   18  C   UNL     1     -11.282  15.917  69.463  1.00  0.00    -0.325 A  
HETATM   19  C   UNL     1     -11.889  15.447  68.309  1.00  0.00    -0.225 A  
HETATM   20  C   UNL     1     -11.261  14.453  67.536  1.00  0.00    -0.329 A  
HETATM   21  C   UNL     1     -11.892  14.177  66.244  1.00  0.00    -0.411 C  
HETATM   22  O   UNL     1     -13.097  13.954  66.171  1.00  0.00    -0.215 OA 
ENDBRANCH   5   6
ENDBRANCH   4   5
ENDBRANCH   2   4
TORSDOF 3
ENDMDL
MODEL       24
REMARK 921   NORMALIZED FREE ENERGY PREDICTED BY IDOCK:   -5.56 KCAL/MOL
REMARK 922        TOTAL FREE ENERGY PREDICTED BY IDOCK:   -6.67 KCAL/MOL
REMARK 923 INTER-LIGAND FREE ENERGY PREDICTED BY IDOCK:   -6.06 KCAL/MOL
REMARK 924 INTRA-LIGAND FREE ENERGY PREDICTED BY IDOCK:   -0.61 KCAL/MOL
REMARK 927      BINDING AFFINITY PREDICTED BY RF-SCORE:    0.00 PKD
ROOT
HETATM    1  C   UNL     1      -9.870  16.891  67.065  1.00  0.00    -0.270 C  
HETATM    2  N   UNL     1      -8.762  16.252  67.787  1.00  0.00    -0.178 NA 
HETATM    3  C   UNL     1      -9.111  16.132  69.203  1.00  0.00    -0.243 C  
ENDROOT
BRANCH   2   4
HETATM    4  C   UNL     1      -8.474  14.944  67.161  1.00  0.00    -0.220 C  
BRANCH   4   5
HETATM    5  C   UNL     1      -9.155  13.717  67.803  1.00  0.00    -0.193 C  
BRANCH   5   6
HETATM    6  N   UNL     1     -10.248  13.158  66.970  1.00  0.00    -0.248 N  
HETATM    7  C   UNL     1     -10.246  11.743  66.868  1.00  0.00    -0.209 A  
HETATM    8  C   UNL     1      -9.722  11.252  65.653  1.00  0.00    -0.267 A  
HETATM    9  C   UNL     1      -9.687   9.893  65.398  1.00  0.00    -0.375 A  
HETATM   10  C   UNL     1     -10.177   9.026  66.358  1.00  0.00    -0.297 A  
HETATM   11  C   UNL     1     -10.718   9.521  67.560  1.00  0.00    -0.311 A  
HETATM   12  C   UNL     1     -10.790  10.899  67.873  1.00  0.00    -0.247 A  
HETATM   13  N   UNL     1     -11.340  11.388  69.106  1.00  0.00    -0.261 NA 
HETATM   14  C   UNL     1     -11.637  10.400  70.166  1.00  0.00    -0.312 C  
HETATM   15  C   UNL     1     -11.775  12.718  69.465  1.00  0.00    -0.318 A  
HETATM   16  C   UNL     1     -12.046  13.077  70.808  1.00  0.00    -0.268 A  
HETATM   17  C   UNL     1     -12.539  14.340  71.178  1.00  0.00    -0.432 A  
HETATM   18  C   UNL     1     -12.801  15.301  70.213  1.00  0.00    -0.298 A  
HETATM   19  C   UNL     1     -12.520  15.012  68.888  1.00  0.00     0.109 A  
HETATM   20  C   UNL     1     -11.978  13.761  68.538  1.00  0.00    -0.402 A  
HETATM   21  C   UNL     1     -11.540  13.638  67.146  1.00  0.00    -0.361 C  
HETATM   22  O   UNL     1     -12.287  13.956  66.225  1.00  0.00    -0.453 OA 
ENDBRANCH   5   6
ENDBRANCH   4   5
ENDBRANCH   2   4
TORSDOF 3
ENDMDL
MODEL       25
REMARK 921   NORMALIZED FREE ENERGY PREDICTED BY IDOCK:   -5.56 KCAL/MOL
REMARK 922        TOTAL FREE ENERGY PREDICTED BY IDOCK:   -6.67 KCAL/MOL
REMARK 923 INTER-LIGAND FREE ENERGY PREDICTED BY IDOCK:   -6.11 KCAL/MOL
REMARK 924 INTRA-LIGAND FREE ENERGY PREDICTED BY IDOCK:   -0.55 KCAL/MOL
REMARK 927      BINDING AFFINITY PREDICTED BY RF-SCORE:    0.00 PKD
ROOT
HETATM    1  C   UNL     1     -11.111   6.101  69.094  1.00  0.00    -0.378 C  
HETATM    2  N   UNL     1     -10.034   6.091  68.096  1.00  0.00    -0.138 NA 
HETATM    3  C   UNL     1     -10.529   5.498  66.853  1.00  0.00    -0.287 C  
ENDROOT
BRANCH   2   4
HETATM    4  C   UNL     1      -9.542   7.473  67.909  1.00  0.00    -0.143 C  
BRANCH   4   5
HETATM    5  C   UNL     1     -10.482   8.600  68.386  1.00  0.00    -0.176 C  
BRANCH   5   6
HETATM    6  N   UNL     1      -9.757   9.744  68.992  1.00  0.00    -0.169 N  
HETATM    7  C   UNL     1     -10.468  10.972  68.967  1.00  0.00    -0.216 A  
HETATM    8  C   UNL     1     -10.046  11.863  67.958  1.00  0.00    -0.199 A  
HETATM    9  C   UNL     1     -10.625  13.113  67.834  1.00  0.00    -0.243 A  
HETATM   10  C   UNL     1     -11.625  13.471  68.720  1.00  0.00    -0.362 A  
HETATM   11  C   UNL     1     -12.029  12.586  69.739  1.00  0.00    -0.359 A  
HETATM   12  C   UNL     1     -11.467  11.301  69.922  1.00  0.00    -0.293 A  
HETATM   13  N   UNL     1     -11.894  10.407  70.962  1.00  0.00    -0.362 NA 
HETATM   14  C   UNL     1     -13.109  10.770  71.724  1.00  0.00    -0.468 C  
HETATM   15  C   UNL     1     -11.253   9.225  71.490  1.00  0.00    -0.386 A  
HETATM   16  C   UNL     1     -11.940   8.319  72.334  1.00  0.00    -0.447 A  
HETATM   17  C   UNL     1     -11.323   7.200  72.920  1.00  0.00    -0.257 A  
HETATM   18  C   UNL     1      -9.977   6.947  72.701  1.00  0.00    -0.191 A  
HETATM   19  C   UNL     1      -9.269   7.784  71.855  1.00  0.00    -0.182 A  
HETATM   20  C   UNL     1      -9.913   8.871  71.235  1.00  0.00    -0.358 A  
HETATM   21  C   UNL     1      -9.124   9.565  70.215  1.00  0.00    -0.253 C  
HETATM   22  O   UNL     1      -7.980   9.940  70.458  1.00  0.00    -0.246 OA 
ENDBRANCH   5   6
ENDBRANCH   4   5
ENDBRANCH   2   4
TORSDOF 3
ENDMDL
MODEL       26
REMARK 921   NORMALIZED FREE ENERGY PREDICTED BY IDOCK:   -5.56 KCAL/MOL
REMARK 922        TOTAL FREE ENERGY PREDICTED BY IDOCK:   -6.66 KCAL/MOL
REMARK 923 INTER-LIGAND FREE ENERGY PREDICTED BY IDOCK:   -6.40 KCAL/MOL
REMARK 924 INTRA-LIGAND FREE ENERGY PREDICTED BY IDOCK:   -0.26 KCAL/MOL
REMARK 927      BINDING AFFINITY PREDICTED BY RF-SCORE:    0.00 PKD
ROOT
HETATM    1  C   UNL     1     -10.768   9.297  71.449  1.00  0.00    -0.362 C  
HETATM    2  N   UNL     1     -12.132   9.410  70.916  1.00  0.00    -0.280 NA 
HETATM    3  C   UNL     1     -13.094   9.216  72.001  1.00  0.00    -0.429 C  
ENDROOT
BRANCH   2   4
HETATM    4  C   UNL     1     -12.280  10.723  70.254  1.00  0.00    -0.348 C  
BRANCH   4   5
HETATM    5  C   UNL     1     -11.264  11.041  69.136  1.00  0.00    -0.255 C  
BRANCH   5   6
HETATM    6  N   UNL     1     -11.658  12.206  68.306  1.00  0.00    -0.305 N  
HETATM    7  C   UNL     1     -11.185  13.455  68.783  1.00  0.00    -0.275 A  
HETATM    8  C   UNL     1     -12.158  14.221  69.460  1.00  0.00    -0.376 A  
HETATM    9  C   UNL     1     -11.851  15.477  69.951  1.00  0.00    -0.380 A  
HETATM   10  C   UNL     1     -10.570  15.967  69.764  1.00  0.00    -0.323 A  
HETATM   11  C   UNL     1      -9.608  15.208  69.069  1.00  0.00    -0.229 A  
HETATM   12  C   UNL     1      -9.866  13.923  68.536  1.00  0.00    -0.214 A  
HETATM   13  N   UNL     1      -8.873  13.158  67.835  1.00  0.00    -0.186 NA 
HETATM   14  C   UNL     1      -7.478  13.650  67.868  1.00  0.00    -0.158 C  
HETATM   15  C   UNL     1      -9.024  12.008  66.976  1.00  0.00    -0.198 A  
HETATM   16  C   UNL     1      -7.914  11.223  66.579  1.00  0.00    -0.145 A  
HETATM   17  C   UNL     1      -8.021  10.142  65.686  1.00  0.00    -0.147 A  
HETATM   18  C   UNL     1      -9.247   9.807  65.133  1.00  0.00    -0.297 A  
HETATM   19  C   UNL     1     -10.370  10.523  65.516  1.00  0.00    -0.287 A  
HETATM   20  C   UNL     1     -10.256  11.570  66.450  1.00  0.00    -0.261 A  
HETATM   21  C   UNL     1     -11.526  12.122  66.926  1.00  0.00    -0.351 C  
HETATM   22  O   UNL     1     -12.395  12.468  66.130  1.00  0.00    -0.596 OA 
ENDBRANCH   5   6
ENDBRANCH   4   5
ENDBRANCH   2   4
TORSDOF 3
ENDMDL
MODEL       27
REMARK 921   NORMALIZED FREE ENERGY PREDICTED BY IDOCK:   -5.54 KCAL/MOL
REMARK 922        TOTAL FREE ENERGY PREDICTED BY IDOCK:   -6.65 KCAL/MOL
REMARK 923 INTER-LIGAND FREE ENERGY PREDICTED BY IDOCK:   -6.24 KCAL/MOL
REMARK 924 INTRA-LIGAND FREE ENERGY PREDICTED BY IDOCK:   -0.41 KCAL/MOL
REMARK 927      BINDING AFFINITY PREDICTED BY RF-SCORE:    0.00 PKD
ROOT
HETATM    1  C   UNL     1     -11.562  13.738  66.223  1.00  0.00    -0.350 C  
HETATM    2  N   UNL     1     -12.082  12.411  65.867  1.00  0.00    -0.623 NA 
HETATM    3  C   UNL     1     -12.316  12.353  64.424  1.00  0.00    -0.447 C  
ENDROOT
BRANCH   2   4
HETATM    4  C   UNL     1     -11.126  11.383  66.329  1.00  0.00    -0.221 C  
BRANCH   4   5
HETATM    5  C   UNL     1     -11.503  10.636  67.626  1.00  0.00    -0.086 C  
BRANCH   5   6
HETATM    6  N   UNL     1     -10.798  11.158  68.823  1.00  0.00    -0.198 N  
HETATM    7  C   UNL     1     -11.653  11.595  69.867  1.00  0.00    -0.288 A  
HETATM    8  C   UNL     1     -11.805  12.996  69.942  1.00  0.00    -0.377 A  
HETATM    9  C   UNL     1     -12.584  13.569  70.931  1.00  0.00    -0.414 A  
HETATM   10  C   UNL     1     -13.209  12.741  71.845  1.00  0.00    -0.511 A  
HETATM   11  C   UNL     1     -13.038  11.344  71.780  1.00  0.00    -0.523 A  
HETATM   12  C   UNL     1     -12.247  10.701  70.798  1.00  0.00    -0.375 A  
HETATM   13  N   UNL     1     -12.087   9.275  70.741  1.00  0.00    -0.225 NA 
HETATM   14  C   UNL     1     -12.957   8.450  71.608  1.00  0.00    -0.334 C  
HETATM   15  C   UNL     1     -11.108   8.479  70.037  1.00  0.00    -0.151 A  
HETATM   16  C   UNL     1     -11.258   7.080  69.881  1.00  0.00    -0.286 A  
HETATM   17  C   UNL     1     -10.289   6.270  69.266  1.00  0.00    -0.266 A  
HETATM   18  C   UNL     1      -9.110   6.824  68.791  1.00  0.00    -0.132 A  
HETATM   19  C   UNL     1      -8.930   8.195  68.889  1.00  0.00    -0.141 A  
HETATM   20  C   UNL     1      -9.932   9.000  69.461  1.00  0.00    -0.193 A  
HETATM   21  C   UNL     1      -9.721  10.443  69.333  1.00  0.00    -0.200 C  
HETATM   22  O   UNL     1      -8.651  10.950  69.656  1.00  0.00     0.104 OA 
ENDBRANCH   5   6
ENDBRANCH   4   5
ENDBRANCH   2   4
TORSDOF 3
ENDMDL
MODEL       28
REMARK 921   NORMALIZED FREE ENERGY PREDICTED BY IDOCK:   -5.52 KCAL/MOL
REMARK 922        TOTAL FREE ENERGY PREDICTED BY IDOCK:   -6.62 KCAL/MOL
REMARK 923 INTER-LIGAND FREE ENERGY PREDICTED BY IDOCK:   -6.21 KCAL/MOL
REMARK 924 INTRA-LIGAND FREE ENERGY PREDICTED BY IDOCK:   -0.41 KCAL/MOL
REMARK 927      BINDING AFFINITY PREDICTED BY RF-SCORE:    0.00 PKD
ROOT
HETATM    1  C   UNL     1     -12.947  11.503  71.725  1.00  0.00    -0.394 C  
HETATM    2  N   UNL     1     -12.799  12.413  70.582  1.00  0.00    -0.020 NA 
HETATM    3  C   UNL     1     -12.505  13.761  71.070  1.00  0.00    -0.380 C  
ENDROOT
BRANCH   2   4
HETATM    4  C   UNL     1     -11.745  11.890  69.687  1.00  0.00    -0.343 C  
BRANCH   4   5
HETATM    5  C   UNL     1     -11.709  12.478  68.261  1.00  0.00    -0.340 C  
BRANCH   5   6
HETATM    6  N   UNL     1     -10.375  12.365  67.620  1.00  0.00    -0.214 N  
HETATM    7  C   UNL     1     -10.410  12.219  66.209  1.00  0.00    -0.232 A  
HETATM    8  C   UNL     1     -10.203  10.897  65.760  1.00  0.00    -0.318 A  
HETATM    9  C   UNL     1     -10.177  10.608  64.408  1.00  0.00    -0.400 A  
HETATM   10  C   UNL     1     -10.357  11.641  63.505  1.00  0.00    -0.488 A  
HETATM   11  C   UNL     1     -10.543  12.962  63.958  1.00  0.00    -0.418 A  
HETATM   12  C   UNL     1     -10.570  13.320  65.326  1.00  0.00    -0.315 A  
HETATM   13  N   UNL     1     -10.766  14.672  65.772  1.00  0.00    -0.301 NA 
HETATM   14  C   UNL     1     -11.170  15.676  64.763  1.00  0.00    -0.382 C  
HETATM   15  C   UNL     1     -10.520  15.267  67.064  1.00  0.00    -0.292 A  
HETATM   16  C   UNL     1     -11.016  16.549  67.401  1.00  0.00    -0.121 A  
HETATM   17  C   UNL     1     -10.732  17.184  68.623  1.00  0.00    -0.306 A  
HETATM   18  C   UNL     1      -9.919  16.567  69.561  1.00  0.00    -0.119 A  
HETATM   19  C   UNL     1      -9.436  15.296  69.294  1.00  0.00    -0.242 A  
HETATM   20  C   UNL     1      -9.770  14.653  68.088  1.00  0.00    -0.220 A  
HETATM   21  C   UNL     1      -9.371  13.247  68.000  1.00  0.00    -0.218 C  
HETATM   22  O   UNL     1      -8.220  12.906  68.260  1.00  0.00    -0.150 OA 
ENDBRANCH   5   6
ENDBRANCH   4   5
ENDBRANCH   2   4
TORSDOF 3
ENDMDL
MODEL       29
REMARK 921   NORMALIZED FREE ENERGY PREDICTED BY IDOCK:   -5.51 KCAL/MOL
REMARK 922        TOTAL FREE ENERGY PREDICTED BY IDOCK:   -6.61 KCAL/MOL
REMARK 923 INTER-LIGAND FREE ENERGY PREDICTED BY IDOCK:   -6.17 KCAL/MOL
REMARK 924 INTRA-LIGAND FREE ENERGY PREDICTED BY IDOCK:   -0.44 KCAL/MOL
REMARK 927      BINDING AFFINITY PREDICTED BY RF-SCORE:    0.00 PKD
ROOT
HETATM    1  C   UNL     1      -8.859  16.601  68.895  1.00  0.00    -0.238 C  
HETATM    2  N   UNL     1      -9.355  15.580  67.964  1.00  0.00    -0.192 NA 
HETATM    3  C   UNL     1      -8.508  15.558  66.772  1.00  0.00    -0.279 C  
ENDROOT
BRANCH   2   4
HETATM    4  C   UNL     1      -9.391  14.276  68.659  1.00  0.00    -0.172 C  
BRANCH   4   5
HETATM    5  C   UNL     1      -9.438  13.024  67.758  1.00  0.00    -0.209 C  
BRANCH   5   6
HETATM    6  N   UNL     1     -10.820  12.600  67.423  1.00  0.00    -0.238 N  
HETATM    7  C   UNL     1     -11.204  12.848  66.080  1.00  0.00    -0.292 A  
HETATM    8  C   UNL     1     -12.028  13.982  65.914  1.00  0.00    -0.424 A  
HETATM    9  C   UNL     1     -12.508  14.328  64.664  1.00  0.00    -0.371 A  
HETATM   10  C   UNL     1     -12.164  13.540  63.581  1.00  0.00    -0.438 A  
HETATM   11  C   UNL     1     -11.359  12.397  63.754  1.00  0.00    -0.536 A  
HETATM   12  C   UNL     1     -10.847  11.988  65.008  1.00  0.00    -0.304 A  
HETATM   13  N   UNL     1     -10.022  10.823  65.167  1.00  0.00    -0.269 NA 
HETATM   14  C   UNL     1      -9.520  10.163  63.942  1.00  0.00    -0.275 C  
HETATM   15  C   UNL     1      -9.675  10.089  66.362  1.00  0.00    -0.210 A  
HETATM   16  C   UNL     1      -8.640   9.122  66.369  1.00  0.00    -0.135 A  
HETATM   17  C   UNL     1      -8.329   8.341  67.495  1.00  0.00    -0.130 A  
HETATM   18  C   UNL     1      -9.055   8.482  68.668  1.00  0.00    -0.139 A  
HETATM   19  C   UNL     1     -10.056   9.438  68.724  1.00  0.00    -0.208 A  
HETATM   20  C   UNL     1     -10.322  10.248  67.604  1.00  0.00    -0.264 A  
HETATM   21  C   UNL     1     -11.258  11.349  67.839  1.00  0.00    -0.288 C  
HETATM   22  O   UNL     1     -12.342  11.144  68.377  1.00  0.00    -0.556 OA 
ENDBRANCH   5   6
ENDBRANCH   4   5
ENDBRANCH   2   4
TORSDOF 3
ENDMDL
MODEL       30
REMARK 921   NORMALIZED FREE ENERGY PREDICTED BY IDOCK:   -5.46 KCAL/MOL
REMARK 922        TOTAL FREE ENERGY PREDICTED BY IDOCK:   -6.55 KCAL/MOL
REMARK 923 INTER-LIGAND FREE ENERGY PREDICTED BY IDOCK:   -6.44 KCAL/MOL
REMARK 924 INTRA-LIGAND FREE ENERGY PREDICTED BY IDOCK:   -0.10 KCAL/MOL
REMARK 927      BINDING AFFINITY PREDICTED BY RF-SCORE:    0.00 PKD
ROOT
HETATM    1  C   UNL     1     -13.202  14.113  72.101  1.00  0.00    -0.420 C  
HETATM    2  N   UNL     1     -12.817  15.266  71.277  1.00  0.00    -0.388 NA 
HETATM    3  C   UNL     1     -11.963  16.159  72.061  1.00  0.00    -0.526 C  
ENDROOT
BRANCH   2   4
HETATM    4  C   UNL     1     -12.153  14.777  70.050  1.00  0.00    -0.329 C  
BRANCH   4   5
HETATM    5  C   UNL     1     -10.777  15.397  69.728  1.00  0.00    -0.291 C  
BRANCH   5   6
HETATM    6  N   UNL     1     -10.033  14.651  68.683  1.00  0.00    -0.230 N  
HETATM    7  C   UNL     1     -10.739  14.485  67.463  1.00  0.00    -0.276 A  
HETATM    8  C   UNL     1     -11.305  13.204  67.292  1.00  0.00    -0.344 A  
HETATM    9  C   UNL     1     -11.994  12.885  66.136  1.00  0.00    -0.491 A  
HETATM   10  C   UNL     1     -12.115  13.849  65.150  1.00  0.00    -0.415 A  
HETATM   11  C   UNL     1     -11.530  15.119  65.316  1.00  0.00    -0.266 A  
HETATM   12  C   UNL     1     -10.807  15.500  66.471  1.00  0.00    -0.284 A  
HETATM   13  N   UNL     1     -10.221  16.802  66.627  1.00  0.00    -0.301 NA 
HETATM   14  C   UNL     1     -10.579  17.840  65.636  1.00  0.00    -0.123 C  
HETATM   15  C   UNL     1      -9.216  17.261  67.557  1.00  0.00    -0.227 A  
HETATM   16  C   UNL     1      -8.947  18.639  67.744  1.00  0.00    -0.301 A  
HETATM   17  C   UNL     1      -7.926  19.112  68.587  1.00  0.00    -0.398 A  
HETATM   18  C   UNL     1      -7.113  18.223  69.272  1.00  0.00    -0.139 A  
HETATM   19  C   UNL     1      -7.358  16.864  69.150  1.00  0.00    -0.197 A  
HETATM   20  C   UNL     1      -8.415  16.407  68.342  1.00  0.00    -0.204 A  
HETATM   21  C   UNL     1      -8.704  14.975  68.444  1.00  0.00    -0.175 C  
HETATM   22  O   UNL     1      -7.805  14.146  68.329  1.00  0.00    -0.120 OA 
ENDBRANCH   5   6
ENDBRANCH   4   5
ENDBRANCH   2   4
TORSDOF 3
ENDMDL
MODEL       31
REMARK 921   NORMALIZED FREE ENERGY PREDICTED BY IDOCK:   -5.45 KCAL/MOL
REMARK 922        TOTAL FREE ENERGY PREDICTED BY IDOCK:   -6.54 KCAL/MOL
REMARK 923 INTER-LIGAND FREE ENERGY PREDICTED BY IDOCK:   -6.06 KCAL/MOL
REMARK 924 INTRA-LIGAND FREE ENERGY PREDICTED BY IDOCK:   -0.47 KCAL/MOL
REMARK 927      BINDING AFFINITY PREDICTED BY RF-SCORE:    0.00 PKD
ROOT
HETATM    1  C   UNL     1     -10.894   9.472  71.178  1.00  0.00    -0.355 C  
HETATM    2  N   UNL     1     -11.466   9.854  69.880  1.00  0.00    -0.215 NA 
HETATM    3  C   UNL     1     -12.081  11.177  69.992  1.00  0.00    -0.359 C  
ENDROOT
BRANCH   2   4
HETATM    4  C   UNL     1     -10.402   9.806  68.855  1.00  0.00    -0.210 C  
BRANCH   4   5
HETATM    5  C   UNL     1     -10.754  10.414  67.481  1.00  0.00    -0.287 C  
BRANCH   5   6
HETATM    6  N   UNL     1      -9.574  10.968  66.772  1.00  0.00    -0.187 N  
HETATM    7  C   UNL     1      -9.681  10.966  65.357  1.00  0.00    -0.238 A  
HETATM    8  C   UNL     1      -8.967   9.925  64.725  1.00  0.00    -0.255 A  
HETATM    9  C   UNL     1      -8.952   9.816  63.346  1.00  0.00    -0.271 A  
HETATM   10  C   UNL     1      -9.651  10.749  62.600  1.00  0.00    -0.296 A  
HETATM   11  C   UNL     1     -10.345  11.798  63.235  1.00  0.00    -0.446 A  
HETATM   12  C   UNL     1     -10.389  11.966  64.638  1.00  0.00    -0.284 A  
HETATM   13  N   UNL     1     -11.106  13.038  65.271  1.00  0.00    -0.283 NA 
HETATM   14  C   UNL     1     -12.003  13.857  64.426  1.00  0.00    -0.450 C  
HETATM   15  C   UNL     1     -11.015  13.546  66.620  1.00  0.00    -0.288 A  
HETATM   16  C   UNL     1     -11.983  14.435  67.148  1.00  0.00    -0.419 A  
HETATM   17  C   UNL     1     -11.882  15.002  68.431  1.00  0.00    -0.298 A  
HETATM   18  C   UNL     1     -10.794  14.716  69.240  1.00  0.00    -0.272 A  
HETATM   19  C   UNL     1      -9.836  13.825  68.783  1.00  0.00    -0.093 A  
HETATM   20  C   UNL     1      -9.977  13.226  67.517  1.00  0.00    -0.223 A  
HETATM   21  C   UNL     1      -9.018  12.159  67.223  1.00  0.00    -0.184 C  
HETATM   22  O   UNL     1      -7.814  12.338  67.383  1.00  0.00    -0.152 OA 
ENDBRANCH   5   6
ENDBRANCH   4   5
ENDBRANCH   2   4
TORSDOF 3
ENDMDL
MODEL       32
REMARK 921   NORMALIZED FREE ENERGY PREDICTED BY IDOCK:   -5.41 KCAL/MOL
REMARK 922        TOTAL FREE ENERGY PREDICTED BY IDOCK:   -6.49 KCAL/MOL
REMARK 923 INTER-LIGAND FREE ENERGY PREDICTED BY IDOCK:   -5.87 KCAL/MOL
REMARK 924 INTRA-LIGAND FREE ENERGY PREDICTED BY IDOCK:   -0.62 KCAL/MOL
REMARK 927      BINDING AFFINITY PREDICTED BY RF-SCORE:    0.00 PKD
ROOT
HETATM    1  C   UNL     1      -8.372   7.546  66.988  1.00  0.00    -0.121 C  
HETATM    2  N   UNL     1      -9.716   7.725  66.425  1.00  0.00    -0.186 NA 
HETATM    3  C   UNL     1     -10.655   6.847  67.124  1.00  0.00    -0.338 C  
ENDROOT
BRANCH   2   4
HETATM    4  C   UNL     1     -10.091   9.151  66.524  1.00  0.00    -0.287 C  
BRANCH   4   5
HETATM    5  C   UNL     1     -10.948   9.547  67.745  1.00  0.00    -0.100 C  
BRANCH   5   6
HETATM    6  N   UNL     1     -10.211  10.379  68.727  1.00  0.00    -0.177 N  
HETATM    7  C   UNL     1     -10.953  11.467  69.253  1.00  0.00    -0.229 A  
HETATM    8  C   UNL     1     -10.632  12.716  68.680  1.00  0.00    -0.245 A  
HETATM    9  C   UNL     1     -11.252  13.873  69.117  1.00  0.00    -0.311 A  
HETATM   10  C   UNL     1     -12.192  13.780  70.127  1.00  0.00    -0.425 A  
HETATM   11  C   UNL     1     -12.495  12.534  70.710  1.00  0.00    -0.357 A  
HETATM   12  C   UNL     1     -11.888  11.319  70.313  1.00  0.00    -0.357 A  
HETATM   13  N   UNL     1     -12.212  10.055  70.914  1.00  0.00    -0.323 NA 
HETATM   14  C   UNL     1     -13.376  10.006  71.825  1.00  0.00    -0.393 C  
HETATM   15  C   UNL     1     -11.502   8.798  70.868  1.00  0.00    -0.284 A  
HETATM   16  C   UNL     1     -12.100   7.589  71.299  1.00  0.00    -0.351 A  
HETATM   17  C   UNL     1     -11.411   6.364  71.335  1.00  0.00    -0.363 A  
HETATM   18  C   UNL     1     -10.080   6.297  70.954  1.00  0.00    -0.227 A  
HETATM   19  C   UNL     1      -9.458   7.446  70.491  1.00  0.00    -0.161 A  
HETATM   20  C   UNL     1     -10.176   8.654  70.413  1.00  0.00    -0.218 A  
HETATM   21  C   UNL     1      -9.483   9.748  69.729  1.00  0.00    -0.228 C  
HETATM   22  O   UNL     1      -8.336  10.053  70.040  1.00  0.00    -0.188 OA 
ENDBRANCH   5   6
ENDBRANCH   4   5
ENDBRANCH   2   4
TORSDOF 3
ENDMDL
MODEL       33
REMARK 921   NORMALIZED FREE ENERGY PREDICTED BY IDOCK:   -5.38 KCAL/MOL
REMARK 922        TOTAL FREE ENERGY PREDICTED BY IDOCK:   -6.46 KCAL/MOL
REMARK 923 INTER-LIGAND FREE ENERGY PREDICTED BY IDOCK:   -5.99 KCAL/MOL
REMARK 924 INTRA-LIGAND FREE ENERGY PREDICTED BY IDOCK:   -0.47 KCAL/MOL
REMARK 927      BINDING AFFINITY PREDICTED BY RF-SCORE:    0.00 PKD
ROOT
HETATM    1  C   UNL     1      -8.130   8.013  65.668  1.00  0.00    -0.121 C  
HETATM    2  N   UNL     1      -9.047   9.090  66.065  1.00  0.00    -0.192 NA 
HETATM    3  C   UNL     1      -9.384   9.896  64.892  1.00  0.00    -0.268 C  
ENDROOT
BRANCH   2   4
HETATM    4  C   UNL     1     -10.238   8.492  66.705  1.00  0.00    -0.300 C  
BRANCH   4   5
HETATM    5  C   UNL     1     -10.895   9.322  67.829  1.00  0.00    -0.126 C  
BRANCH   5   6
HETATM    6  N   UNL     1     -10.014  10.397  68.348  1.00  0.00    -0.157 N  
HETATM    7  C   UNL     1     -10.609  11.685  68.375  1.00  0.00    -0.211 A  
HETATM    8  C   UNL     1     -10.207  12.529  67.318  1.00  0.00    -0.222 A  
HETATM    9  C   UNL     1     -10.680  13.826  67.232  1.00  0.00    -0.286 A  
HETATM   10  C   UNL     1     -11.554  14.278  68.205  1.00  0.00    -0.365 A  
HETATM   11  C   UNL     1     -11.937  13.439  69.269  1.00  0.00    -0.367 A  
HETATM   12  C   UNL     1     -11.479  12.108  69.415  1.00  0.00    -0.290 A  
HETATM   13  N   UNL     1     -11.883  11.262  70.504  1.00  0.00    -0.348 NA 
HETATM   14  C   UNL     1     -12.982  11.738  71.372  1.00  0.00    -0.306 C  
HETATM   15  C   UNL     1     -11.305  10.029  70.984  1.00  0.00    -0.357 A  
HETATM   16  C   UNL     1     -11.987   9.194  71.902  1.00  0.00    -0.443 A  
HETATM   17  C   UNL     1     -11.420   8.026  72.442  1.00  0.00    -0.449 A  
HETATM   18  C   UNL     1     -10.131   7.649  72.099  1.00  0.00    -0.246 A  
HETATM   19  C   UNL     1      -9.433   8.415  71.178  1.00  0.00    -0.227 A  
HETATM   20  C   UNL     1     -10.033   9.553  70.607  1.00  0.00    -0.342 A  
HETATM   21  C   UNL     1      -9.285  10.166  69.508  1.00  0.00    -0.204 C  
HETATM   22  O   UNL     1      -8.094  10.437  69.636  1.00  0.00    -0.161 OA 
ENDBRANCH   5   6
ENDBRANCH   4   5
ENDBRANCH   2   4
TORSDOF 3
ENDMDL
MODEL       34
REMARK 921   NORMALIZED FREE ENERGY PREDICTED BY IDOCK:   -5.35 KCAL/MOL
REMARK 922        TOTAL FREE ENERGY PREDICTED BY IDOCK:   -6.43 KCAL/MOL
REMARK 923 INTER-LIGAND FREE ENERGY PREDICTED BY IDOCK:   -6.01 KCAL/MOL
REMARK 924 INTRA-LIGAND FREE ENERGY PREDICTED BY IDOCK:   -0.42 KCAL/MOL
REMARK 927      BINDING AFFINITY PREDICTED BY RF-SCORE:    0.00 PKD
ROOT
HETATM    1  C   UNL     1     -10.007  13.741  65.342  1.00  0.00    -0.229 C  
HETATM    2  N   UNL     1     -11.200  14.188  64.610  1.00  0.00    -0.373 NA 
HETATM    3  C   UNL     1     -12.362  13.423  65.063  1.00  0.00    -0.436 C  
ENDROOT
BRANCH   2   4
HETATM    4  C   UNL     1     -11.365  15.643  64.810  1.00  0.00    -0.343 C  
BRANCH   4   5
HETATM    5  C   UNL     1     -10.249  16.352  65.606  1.00  0.00    -0.324 C  
BRANCH   5   6
HETATM    6  N   UNL     1     -10.753  17.059  66.810  1.00  0.00    -0.176 N  
HETATM    7  C   UNL     1     -10.678  16.306  68.010  1.00  0.00    -0.331 A  
HETATM    8  C   UNL     1     -11.908  15.745  68.418  1.00  0.00    -0.180 A  
HETATM    9  C   UNL     1     -11.995  15.013  69.588  1.00  0.00    -0.356 A  
HETATM   10  C   UNL     1     -10.853  14.843  70.350  1.00  0.00    -0.111 A  
HETATM   11  C   UNL     1      -9.633  15.422  69.950  1.00  0.00    -0.109 A  
HETATM   12  C   UNL     1      -9.484  16.188  68.770  1.00  0.00    -0.230 A  
HETATM   13  N   UNL     1      -8.231  16.768  68.373  1.00  0.00    -0.215 NA 
HETATM   14  C   UNL     1      -7.019  16.360  69.116  1.00  0.00    -0.218 C  
HETATM   15  C   UNL     1      -7.954  17.806  67.408  1.00  0.00    -0.211 A  
HETATM   16  C   UNL     1      -6.639  18.070  66.953  1.00  0.00    -0.210 A  
HETATM   17  C   UNL     1      -6.330  19.119  66.071  1.00  0.00    -0.221 A  
HETATM   18  C   UNL     1      -7.327  19.968  65.614  1.00  0.00    -0.311 A  
HETATM   19  C   UNL     1      -8.635  19.731  66.002  1.00  0.00    -0.292 A  
HETATM   20  C   UNL     1      -8.937  18.646  66.845  1.00  0.00    -0.296 A  
HETATM   21  C   UNL     1     -10.364  18.375  67.028  1.00  0.00    -0.393 C  
HETATM   22  O   UNL     1     -11.136  19.276  67.344  1.00  0.00    -0.444 OA 
ENDBRANCH   5   6
ENDBRANCH   4   5
ENDBRANCH   2   4
TORSDOF 3
ENDMDL
MODEL       35
REMARK 921   NORMALIZED FREE ENERGY PREDICTED BY IDOCK:   -5.35 KCAL/MOL
REMARK 922        TOTAL FREE ENERGY PREDICTED BY IDOCK:   -6.42 KCAL/MOL
REMARK 923 INTER-LIGAND FREE ENERGY PREDICTED BY IDOCK:   -6.16 KCAL/MOL
REMARK 924 INTRA-LIGAND FREE ENERGY PREDICTED BY IDOCK:   -0.25 KCAL/MOL
REMARK 927      BINDING AFFINITY PREDICTED BY RF-SCORE:    0.00 PKD
ROOT
HETATM    1  C   UNL     1      -5.869  15.820  70.029  1.00  0.00    -0.159 C  
HETATM    2  N   UNL     1      -6.745  15.175  69.043  1.00  0.00    -0.113 NA 
HETATM    3  C   UNL     1      -6.786  13.735  69.299  1.00  0.00    -0.101 C  
ENDROOT
BRANCH   2   4
HETATM    4  C   UNL     1      -8.083  15.801  69.108  1.00  0.00    -0.237 C  
BRANCH   4   5
HETATM    5  C   UNL     1      -9.289  14.846  68.993  1.00  0.00    -0.179 C  
BRANCH   5   6
HETATM    6  N   UNL     1     -10.553  15.544  68.652  1.00  0.00    -0.236 N  
HETATM    7  C   UNL     1     -10.771  15.724  67.262  1.00  0.00    -0.313 A  
HETATM    8  C   UNL     1     -10.491  17.027  66.798  1.00  0.00    -0.257 A  
HETATM    9  C   UNL     1     -10.689  17.360  65.470  1.00  0.00    -0.081 A  
HETATM   10  C   UNL     1     -11.167  16.390  64.608  1.00  0.00    -0.201 A  
HETATM   11  C   UNL     1     -11.465  15.097  65.080  1.00  0.00    -0.339 A  
HETATM   12  C   UNL     1     -11.293  14.700  66.427  1.00  0.00    -0.348 A  
HETATM   13  N   UNL     1     -11.596  13.375  66.892  1.00  0.00    -0.346 NA 
HETATM   14  C   UNL     1     -11.890  12.341  65.876  1.00  0.00    -0.354 C  
HETATM   15  C   UNL     1     -11.780  12.885  68.238  1.00  0.00    -0.350 A  
HETATM   16  C   UNL     1     -11.814  11.499  68.528  1.00  0.00    -0.365 A  
HETATM   17  C   UNL     1     -12.064  10.992  69.815  1.00  0.00    -0.424 A  
HETATM   18  C   UNL     1     -12.310  11.854  70.873  1.00  0.00    -0.400 A  
HETATM   19  C   UNL     1     -12.254  13.220  70.648  1.00  0.00    -0.417 A  
HETATM   20  C   UNL     1     -11.952  13.713  69.365  1.00  0.00    -0.394 A  
HETATM   21  C   UNL     1     -11.726  15.158  69.290  1.00  0.00    -0.329 C  
HETATM   22  O   UNL     1     -12.534  15.943  69.775  1.00  0.00    -0.220 OA 
ENDBRANCH   5   6
ENDBRANCH   4   5
ENDBRANCH   2   4
TORSDOF 3
ENDMDL
MODEL       36
REMARK 921   NORMALIZED FREE ENERGY PREDICTED BY IDOCK:   -5.32 KCAL/MOL
REMARK 922        TOTAL FREE ENERGY PREDICTED BY IDOCK:   -6.38 KCAL/MOL
REMARK 923 INTER-LIGAND FREE ENERGY PREDICTED BY IDOCK:   -6.18 KCAL/MOL
REMARK 924 INTRA-LIGAND FREE ENERGY PREDICTED BY IDOCK:   -0.20 KCAL/MOL
REMARK 927      BINDING AFFINITY PREDICTED BY RF-SCORE:    0.00 PKD
ROOT
HETATM    1  C   UNL     1      -6.122  13.429  69.429  1.00  0.00    -0.104 C  
HETATM    2  N   UNL     1      -7.358  14.136  69.070  1.00  0.00    -0.122 NA 
HETATM    3  C   UNL     1      -7.049  15.536  68.779  1.00  0.00    -0.124 C  
ENDROOT
BRANCH   2   4
HETATM    4  C   UNL     1      -7.990  13.444  67.927  1.00  0.00    -0.155 C  
BRANCH   4   5
HETATM    5  C   UNL     1      -8.563  14.349  66.816  1.00  0.00    -0.108 C  
BRANCH   5   6
HETATM    6  N   UNL     1     -10.001  14.100  66.547  1.00  0.00    -0.274 N  
HETATM    7  C   UNL     1     -10.671  13.364  67.558  1.00  0.00    -0.254 A  
HETATM    8  C   UNL     1     -10.872  12.002  67.244  1.00  0.00    -0.290 A  
HETATM    9  C   UNL     1     -11.542  11.168  68.122  1.00  0.00    -0.350 A  
HETATM   10  C   UNL     1     -12.010  11.696  69.311  1.00  0.00    -0.382 A  
HETATM   11  C   UNL     1     -11.825  13.060  69.611  1.00  0.00    -0.385 A  
HETATM   12  C   UNL     1     -11.158  13.963  68.750  1.00  0.00    -0.265 A  
HETATM   13  N   UNL     1     -10.972  15.351  69.073  1.00  0.00    -0.238 NA 
HETATM   14  C   UNL     1     -11.301  15.787  70.447  1.00  0.00    -0.374 C  
HETATM   15  C   UNL     1     -10.610  16.460  68.221  1.00  0.00    -0.318 A  
HETATM   16  C   UNL     1     -10.216  17.711  68.755  1.00  0.00    -0.373 A  
HETATM   17  C   UNL     1      -9.928  18.829  67.953  1.00  0.00    -0.400 A  
HETATM   18  C   UNL     1     -10.040  18.750  66.573  1.00  0.00    -0.437 A  
HETATM   19  C   UNL     1     -10.390  17.538  65.999  1.00  0.00    -0.309 A  
HETATM   20  C   UNL     1     -10.625  16.414  66.813  1.00  0.00    -0.238 A  
HETATM   21  C   UNL     1     -10.791  15.149  66.094  1.00  0.00    -0.330 C  
HETATM   22  O   UNL     1     -11.578  15.061  65.156  1.00  0.00    -0.348 OA 
ENDBRANCH   5   6
ENDBRANCH   4   5
ENDBRANCH   2   4
TORSDOF 3
ENDMDL
MODEL       37
REMARK 921   NORMALIZED FREE ENERGY PREDICTED BY IDOCK:   -5.31 KCAL/MOL
REMARK 922        TOTAL FREE ENERGY PREDICTED BY IDOCK:   -6.37 KCAL/MOL
REMARK 923 INTER-LIGAND FREE ENERGY PREDICTED BY IDOCK:   -5.85 KCAL/MOL
REMARK 924 INTRA-LIGAND FREE ENERGY PREDICTED BY IDOCK:   -0.52 KCAL/MOL
REMARK 927      BINDING AFFINITY PREDICTED BY RF-SCORE:    0.00 PKD
ROOT
HETATM    1  C   UNL     1     -10.771  14.193  68.308  1.00  0.00    -0.249 C  
HETATM    2  N   UNL     1     -11.803  13.149  68.257  1.00  0.00    -0.350 NA 
HETATM    3  C   UNL     1     -11.654  12.381  67.020  1.00  0.00    -0.365 C  
ENDROOT
BRANCH   2   4
HETATM    4  C   UNL     1     -11.692  12.306  69.466  1.00  0.00    -0.332 C  
BRANCH   4   5
HETATM    5  C   UNL     1     -11.679  10.781  69.233  1.00  0.00    -0.303 C  
BRANCH   5   6
HETATM    6  N   UNL     1     -10.617  10.084  70.002  1.00  0.00    -0.276 N  
HETATM    7  C   UNL     1     -10.986   8.805  70.491  1.00  0.00    -0.239 A  
HETATM    8  C   UNL     1     -11.320   8.785  71.862  1.00  0.00    -0.431 A  
HETATM    9  C   UNL     1     -11.668   7.600  72.486  1.00  0.00    -0.352 A  
HETATM   10  C   UNL     1     -11.681   6.436  71.738  1.00  0.00    -0.376 A  
HETATM   11  C   UNL     1     -11.327   6.458  70.375  1.00  0.00    -0.453 A  
HETATM   12  C   UNL     1     -10.954   7.635  69.685  1.00  0.00    -0.137 A  
HETATM   13  N   UNL     1     -10.601   7.642  68.292  1.00  0.00    -0.165 NA 
HETATM   14  C   UNL     1     -10.851   6.409  67.514  1.00  0.00    -0.354 C  
HETATM   15  C   UNL     1      -9.914   8.647  67.515  1.00  0.00    -0.199 A  
HETATM   16  C   UNL     1      -9.883   8.601  66.099  1.00  0.00    -0.269 A  
HETATM   17  C   UNL     1      -9.163   9.523  65.320  1.00  0.00    -0.307 A  
HETATM   18  C   UNL     1      -8.423  10.527  65.925  1.00  0.00    -0.164 A  
HETATM   19  C   UNL     1      -8.448  10.635  67.306  1.00  0.00    -0.126 A  
HETATM   20  C   UNL     1      -9.215   9.737  68.071  1.00  0.00    -0.131 A  
HETATM   21  C   UNL     1      -9.324  10.065  69.494  1.00  0.00    -0.229 C  
HETATM   22  O   UNL     1      -8.321  10.309  70.158  1.00  0.00    -0.048 OA 
ENDBRANCH   5   6
ENDBRANCH   4   5
ENDBRANCH   2   4
TORSDOF 3
ENDMDL
MODEL       38
REMARK 921   NORMALIZED FREE ENERGY PREDICTED BY IDOCK:   -5.30 KCAL/MOL
REMARK 922        TOTAL FREE ENERGY PREDICTED BY IDOCK:   -6.36 KCAL/MOL
REMARK 923 INTER-LIGAND FREE ENERGY PREDICTED BY IDOCK:   -5.93 KCAL/MOL
REMARK 924 INTRA-LIGAND FREE ENERGY PREDICTED BY IDOCK:   -0.43 KCAL/MOL
REMARK 927      BINDING AFFINITY PREDICTED BY RF-SCORE:    0.00 PKD
ROOT
HETATM    1  C   UNL     1     -11.891  15.869  68.851  1.00  0.00    -0.304 C  
HETATM    2  N   UNL     1     -11.491  14.591  69.453  1.00  0.00    -0.269 NA 
HETATM    3  C   UNL     1     -12.026  13.489  68.652  1.00  0.00    -0.343 C  
ENDROOT
BRANCH   2   4
HETATM    4  C   UNL     1     -10.017  14.552  69.559  1.00  0.00     0.137 C  
BRANCH   4   5
HETATM    5  C   UNL     1      -9.256  15.721  68.898  1.00  0.00    -0.227 C  
BRANCH   5   6
HETATM    6  N   UNL     1      -8.391  15.289  67.773  1.00  0.00    -0.147 N  
HETATM    7  C   UNL     1      -8.979  14.327  66.913  1.00  0.00    -0.236 A  
HETATM    8  C   UNL     1      -8.531  13.006  67.130  1.00  0.00    -0.176 A  
HETATM    9  C   UNL     1      -8.993  11.966  66.344  1.00  0.00    -0.180 A  
HETATM   10  C   UNL     1      -9.902  12.248  65.339  1.00  0.00    -0.209 A  
HETATM   11  C   UNL     1     -10.330  13.570  65.112  1.00  0.00    -0.368 A  
HETATM   12  C   UNL     1      -9.886  14.675  65.876  1.00  0.00    -0.330 A  
HETATM   13  N   UNL     1     -10.337  16.018  65.636  1.00  0.00    -0.374 NA 
HETATM   14  C   UNL     1     -11.466  16.206  64.698  1.00  0.00    -0.224 C  
HETATM   15  C   UNL     1      -9.784  17.275  66.082  1.00  0.00    -0.224 A  
HETATM   16  C   UNL     1     -10.506  18.488  65.969  1.00  0.00    -0.433 A  
HETATM   17  C   UNL     1      -9.967  19.736  66.328  1.00  0.00    -0.581 A  
HETATM   18  C   UNL     1      -8.668  19.829  66.802  1.00  0.00    -0.394 A  
HETATM   19  C   UNL     1      -7.931  18.666  66.963  1.00  0.00    -0.254 A  
HETATM   20  C   UNL     1      -8.501  17.419  66.648  1.00  0.00    -0.291 A  
HETATM   21  C   UNL     1      -7.708  16.253  67.042  1.00  0.00    -0.214 C  
HETATM   22  O   UNL     1      -6.522  16.172  66.737  1.00  0.00    -0.285 OA 
ENDBRANCH   5   6
ENDBRANCH   4   5
ENDBRANCH   2   4
TORSDOF 3
ENDMDL
MODEL       39
REMARK 921   NORMALIZED FREE ENERGY PREDICTED BY IDOCK:   -5.27 KCAL/MOL
REMARK 922        TOTAL FREE ENERGY PREDICTED BY IDOCK:   -6.32 KCAL/MOL
REMARK 923 INTER-LIGAND FREE ENERGY PREDICTED BY IDOCK:   -5.75 KCAL/MOL
REMARK 924 INTRA-LIGAND FREE ENERGY PREDICTED BY IDOCK:   -0.58 KCAL/MOL
REMARK 927      BINDING AFFINITY PREDICTED BY RF-SCORE:    0.00 PKD
ROOT
HETATM    1  C   UNL     1     -10.907   5.014  73.569  1.00  0.00    -0.308 C  
HETATM    2  N   UNL     1      -9.769   5.930  73.721  1.00  0.00    -0.157 NA 
HETATM    3  C   UNL     1      -8.805   5.688  72.647  1.00  0.00    -0.123 C  
ENDROOT
BRANCH   2   4
HETATM    4  C   UNL     1     -10.272   7.320  73.730  1.00  0.00    -0.323 C  
BRANCH   4   5
HETATM    5  C   UNL     1     -10.211   8.075  72.385  1.00  0.00    -0.280 C  
BRANCH   5   6
HETATM    6  N   UNL     1     -11.540   8.222  71.741  1.00  0.00    -0.280 N  
HETATM    7  C   UNL     1     -11.817   9.524  71.252  1.00  0.00    -0.373 A  
HETATM    8  C   UNL     1     -12.671  10.283  72.080  1.00  0.00    -0.397 A  
HETATM    9  C   UNL     1     -13.055  11.561  71.714  1.00  0.00    -0.503 A  
HETATM   10  C   UNL     1     -12.586  12.078  70.520  1.00  0.00    -0.192 A  
HETATM   11  C   UNL     1     -11.750  11.309  69.687  1.00  0.00    -0.420 A  
HETATM   12  C   UNL     1     -11.332   9.995  70.002  1.00  0.00    -0.275 A  
HETATM   13  N   UNL     1     -10.474   9.225  69.144  1.00  0.00    -0.215 NA 
HETATM   14  C   UNL     1      -9.840   9.921  68.003  1.00  0.00    -0.147 C  
HETATM   15  C   UNL     1     -10.201   7.807  69.137  1.00  0.00    -0.208 A  
HETATM   16  C   UNL     1      -9.130   7.259  68.390  1.00  0.00    -0.135 A  
HETATM   17  C   UNL     1      -8.884   5.877  68.306  1.00  0.00    -0.110 A  
HETATM   18  C   UNL     1      -9.714   4.976  68.955  1.00  0.00    -0.238 A  
HETATM   19  C   UNL     1     -10.756   5.464  69.727  1.00  0.00    -0.280 A  
HETATM   20  C   UNL     1     -10.959   6.852  69.843  1.00  0.00    -0.318 A  
HETATM   21  C   UNL     1     -11.958   7.255  70.835  1.00  0.00    -0.305 C  
HETATM   22  O   UNL     1     -13.075   6.746  70.840  1.00  0.00    -0.158 OA 
ENDBRANCH   5   6
ENDBRANCH   4   5
ENDBRANCH   2   4
TORSDOF 3
ENDMDL
MODEL       40
REMARK 921   NORMALIZED FREE ENERGY PREDICTED BY IDOCK:   -5.25 KCAL/MOL
REMARK 922        TOTAL FREE ENERGY PREDICTED BY IDOCK:   -6.31 KCAL/MOL
REMARK 923 INTER-LIGAND FREE ENERGY PREDICTED BY IDOCK:   -5.79 KCAL/MOL
REMARK 924 INTRA-LIGAND FREE ENERGY PREDICTED BY IDOCK:   -0.51 KCAL/MOL
REMARK 927      BINDING AFFINITY PREDICTED BY RF-SCORE:    0.00 PKD
ROOT
HETATM    1  C   UNL     1     -11.088  15.710  68.540  1.00  0.00    -0.322 C  
HETATM    2  N   UNL     1     -10.397  14.848  67.573  1.00  0.00    -0.238 NA 
HETATM    3  C   UNL     1      -9.912  15.661  66.458  1.00  0.00    -0.273 C  
ENDROOT
BRANCH   2   4
HETATM    4  C   UNL     1      -9.309  14.127  68.266  1.00  0.00    -0.203 C  
BRANCH   4   5
HETATM    5  C   UNL     1      -9.038  12.684  67.793  1.00  0.00    -0.192 C  
BRANCH   5   6
HETATM    6  N   UNL     1     -10.207  12.062  67.124  1.00  0.00    -0.201 N  
HETATM    7  C   UNL     1      -9.929  11.499  65.852  1.00  0.00    -0.230 A  
HETATM    8  C   UNL     1     -10.341  12.297  64.764  1.00  0.00    -0.320 A  
HETATM    9  C   UNL     1     -10.164  11.861  63.463  1.00  0.00    -0.485 A  
HETATM   10  C   UNL     1      -9.577  10.626  63.252  1.00  0.00    -0.382 A  
HETATM   11  C   UNL     1      -9.186   9.824  64.341  1.00  0.00    -0.301 A  
HETATM   12  C   UNL     1      -9.349  10.211  65.692  1.00  0.00    -0.199 A  
HETATM   13  N   UNL     1      -8.940   9.384  66.793  1.00  0.00    -0.130 NA 
HETATM   14  C   UNL     1      -8.126   8.187  66.488  1.00  0.00    -0.106 C  
HETATM   15  C   UNL     1      -9.294   9.459  68.191  1.00  0.00    -0.133 A  
HETATM   16  C   UNL     1      -8.594   8.724  69.178  1.00  0.00    -0.128 A  
HETATM   17  C   UNL     1      -8.961   8.721  70.535  1.00  0.00    -0.203 A  
HETATM   18  C   UNL     1     -10.063   9.444  70.965  1.00  0.00    -0.353 A  
HETATM   19  C   UNL     1     -10.762  10.207  70.044  1.00  0.00    -0.356 A  
HETATM   20  C   UNL     1     -10.352  10.241  68.699  1.00  0.00    -0.203 A  
HETATM   21  C   UNL     1     -11.038  11.228  67.862  1.00  0.00    -0.267 C  
HETATM   22  O   UNL     1     -12.264  11.290  67.846  1.00  0.00    -0.570 OA 
ENDBRANCH   5   6
ENDBRANCH   4   5
ENDBRANCH   2   4
TORSDOF 3
ENDMDL
MODEL       41
REMARK 921   NORMALIZED FREE ENERGY PREDICTED BY IDOCK:   -5.21 KCAL/MOL
REMARK 922        TOTAL FREE ENERGY PREDICTED BY IDOCK:   -6.26 KCAL/MOL
REMARK 923 INTER-LIGAND FREE ENERGY PREDICTED BY IDOCK:   -6.05 KCAL/MOL
REMARK 924 INTRA-LIGAND FREE ENERGY PREDICTED BY IDOCK:   -0.20 KCAL/MOL
REMARK 927      BINDING AFFINITY PREDICTED BY RF-SCORE:    0.00 PKD
ROOT
HETATM    1  C   UNL     1     -12.285  13.532  70.058  1.00  0.00    -0.312 C  
HETATM    2  N   UNL     1     -12.387  12.573  71.166  1.00  0.00    -0.245 NA 
HETATM    3  C   UNL     1     -13.436  13.007  72.088  1.00  0.00    -0.542 C  
ENDROOT
BRANCH   2   4
HETATM    4  C   UNL     1     -12.639  11.226  70.611  1.00  0.00    -0.288 C  
BRANCH   4   5
HETATM    5  C   UNL     1     -11.603  10.703  69.595  1.00  0.00    -0.296 C  
BRANCH   5   6
HETATM    6  N   UNL     1     -10.483   9.968  70.233  1.00  0.00    -0.285 N  
HETATM    7  C   UNL     1     -10.818   8.670  70.696  1.00  0.00    -0.229 A  
HETATM    8  C   UNL     1     -11.027   8.590  72.090  1.00  0.00    -0.427 A  
HETATM    9  C   UNL     1     -11.328   7.380  72.689  1.00  0.00    -0.360 A  
HETATM   10  C   UNL     1     -11.419   6.251  71.895  1.00  0.00    -0.360 A  
HETATM   11  C   UNL     1     -11.189   6.332  70.508  1.00  0.00    -0.420 A  
HETATM   12  C   UNL     1     -10.868   7.537  69.840  1.00  0.00    -0.240 A  
HETATM   13  N   UNL     1     -10.642   7.605  68.423  1.00  0.00    -0.164 NA 
HETATM   14  C   UNL     1     -10.971   6.409  67.617  1.00  0.00    -0.349 C  
HETATM   15  C   UNL     1     -10.018   8.640  67.632  1.00  0.00    -0.194 A  
HETATM   16  C   UNL     1     -10.115   8.658  66.219  1.00  0.00    -0.215 A  
HETATM   17  C   UNL     1      -9.459   9.610  65.419  1.00  0.00    -0.343 A  
HETATM   18  C   UNL     1      -8.659  10.582  65.999  1.00  0.00    -0.166 A  
HETATM   19  C   UNL     1      -8.559  10.628  67.380  1.00  0.00    -0.122 A  
HETATM   20  C   UNL     1      -9.262   9.700  68.171  1.00  0.00    -0.130 A  
HETATM   21  C   UNL     1      -9.241   9.965  69.610  1.00  0.00    -0.227 C  
HETATM   22  O   UNL     1      -8.180  10.173  70.192  1.00  0.00    -0.135 OA 
ENDBRANCH   5   6
ENDBRANCH   4   5
ENDBRANCH   2   4
TORSDOF 3
ENDMDL
MODEL       42
REMARK 921   NORMALIZED FREE ENERGY PREDICTED BY IDOCK:   -5.17 KCAL/MOL
REMARK 922        TOTAL FREE ENERGY PREDICTED BY IDOCK:   -6.21 KCAL/MOL
REMARK 923 INTER-LIGAND FREE ENERGY PREDICTED BY IDOCK:   -5.82 KCAL/MOL
REMARK 924 INTRA-LIGAND FREE ENERGY PREDICTED BY IDOCK:   -0.39 KCAL/MOL
REMARK 927      BINDING AFFINITY PREDICTED BY RF-SCORE:    0.00 PKD
ROOT
HETATM    1  C   UNL     1      -8.151  16.111  68.979  1.00  0.00    -0.237 C  
HETATM    2  N   UNL     1      -7.145  15.295  68.287  1.00  0.00    -0.109 NA 
HETATM    3  C   UNL     1      -6.349  14.566  69.275  1.00  0.00    -0.117 C  
ENDROOT
BRANCH   2   4
HETATM    4  C   UNL     1      -7.830  14.396  67.335  1.00  0.00    -0.190 C  
BRANCH   4   5
HETATM    5  C   UNL     1      -8.814  13.378  67.948  1.00  0.00    -0.194 C  
BRANCH   5   6
HETATM    6  N   UNL     1      -9.890  12.972  67.009  1.00  0.00    -0.233 N  
HETATM    7  C   UNL     1     -10.100  11.571  66.924  1.00  0.00    -0.212 A  
HETATM    8  C   UNL     1      -9.537  10.971  65.778  1.00  0.00    -0.260 A  
HETATM    9  C   UNL     1      -9.690   9.617  65.544  1.00  0.00    -0.372 A  
HETATM   10  C   UNL     1     -10.407   8.863  66.455  1.00  0.00    -0.267 A  
HETATM   11  C   UNL     1     -10.985   9.470  67.587  1.00  0.00    -0.150 A  
HETATM   12  C   UNL     1     -10.871  10.850  67.875  1.00  0.00    -0.247 A  
HETATM   13  N   UNL     1     -11.462  11.454  69.037  1.00  0.00    -0.270 NA 
HETATM   14  C   UNL     1     -12.019  10.554  70.071  1.00  0.00    -0.288 C  
HETATM   15  C   UNL     1     -11.717  12.844  69.332  1.00  0.00    -0.321 A  
HETATM   16  C   UNL     1     -12.065  13.279  70.634  1.00  0.00    -0.361 A  
HETATM   17  C   UNL     1     -12.389  14.613  70.935  1.00  0.00    -0.406 A  
HETATM   18  C   UNL     1     -12.395  15.576  69.937  1.00  0.00    -0.306 A  
HETATM   19  C   UNL     1     -12.028  15.209  68.653  1.00  0.00    -0.270 A  
HETATM   20  C   UNL     1     -11.657  13.880  68.377  1.00  0.00    -0.368 A  
HETATM   21  C   UNL     1     -11.101  13.652  67.042  1.00  0.00    -0.301 C  
HETATM   22  O   UNL     1     -11.689  14.055  66.042  1.00  0.00    -0.342 OA 
ENDBRANCH   5   6
ENDBRANCH   4   5
ENDBRANCH   2   4
TORSDOF 3
ENDMDL
MODEL       43
REMARK 921   NORMALIZED FREE ENERGY PREDICTED BY IDOCK:   -5.14 KCAL/MOL
REMARK 922        TOTAL FREE ENERGY PREDICTED BY IDOCK:   -6.17 KCAL/MOL
REMARK 923 INTER-LIGAND FREE ENERGY PREDICTED BY IDOCK:   -5.69 KCAL/MOL
REMARK 924 INTRA-LIGAND FREE ENERGY PREDICTED BY IDOCK:   -0.48 KCAL/MOL
REMARK 927      BINDING AFFINITY PREDICTED BY RF-SCORE:    0.00 PKD
ROOT
HETATM    1  C   UNL     1      -7.891  11.458  66.313  1.00  0.00    -0.015 C  
HETATM    2  N   UNL     1      -7.317  11.664  67.649  1.00  0.00    -0.101 NA 
HETATM    3  C   UNL     1      -7.331  13.091  67.968  1.00  0.00    -0.123 C  
ENDROOT
BRANCH   2   4
HETATM    4  C   UNL     1      -8.078  10.856  68.626  1.00  0.00    -0.143 C  
BRANCH   4   5
HETATM    5  C   UNL     1      -9.311  11.535  69.258  1.00  0.00     0.394 C  
BRANCH   5   6
HETATM    6  N   UNL     1     -10.590  10.883  68.882  1.00  0.00    -0.198 N  
HETATM    7  C   UNL     1     -11.377  10.453  69.980  1.00  0.00    -0.313 A  
HETATM    8  C   UNL     1     -11.304   9.067  70.236  1.00  0.00    -0.202 A  
HETATM    9  C   UNL     1     -12.045   8.498  71.256  1.00  0.00    -0.323 A  
HETATM   10  C   UNL     1     -12.859   9.315  72.020  1.00  0.00    -0.495 A  
HETATM   11  C   UNL     1     -12.945  10.694  71.748  1.00  0.00    -0.577 A  
HETATM   12  C   UNL     1     -12.220  11.331  70.713  1.00  0.00    -0.380 A  
HETATM   13  N   UNL     1     -12.314  12.741  70.452  1.00  0.00    -0.292 NA 
HETATM   14  C   UNL     1     -13.027  13.577  71.442  1.00  0.00    -0.339 C  
HETATM   15  C   UNL     1     -11.914  13.497  69.288  1.00  0.00    -0.330 A  
HETATM   16  C   UNL     1     -11.840  14.911  69.308  1.00  0.00    -0.350 A  
HETATM   17  C   UNL     1     -11.524  15.677  68.172  1.00  0.00    -0.325 A  
HETATM   18  C   UNL     1     -11.283  15.059  66.954  1.00  0.00    -0.323 A  
HETATM   19  C   UNL     1     -11.309  13.675  66.890  1.00  0.00    -0.345 A  
HETATM   20  C   UNL     1     -11.576  12.920  68.047  1.00  0.00    -0.385 A  
HETATM   21  C   UNL     1     -11.384  11.475  67.907  1.00  0.00    -0.303 C  
HETATM   22  O   UNL     1     -11.897  10.864  66.975  1.00  0.00    -0.223 OA 
ENDBRANCH   5   6
ENDBRANCH   4   5
ENDBRANCH   2   4
TORSDOF 3
ENDMDL
MODEL       44
REMARK 921   NORMALIZED FREE ENERGY PREDICTED BY IDOCK:   -5.13 KCAL/MOL
REMARK 922        TOTAL FREE ENERGY PREDICTED BY IDOCK:   -6.16 KCAL/MOL
REMARK 923 INTER-LIGAND FREE ENERGY PREDICTED BY IDOCK:   -5.73 KCAL/MOL
REMARK 924 INTRA-LIGAND FREE ENERGY PREDICTED BY IDOCK:   -0.43 KCAL/MOL
REMARK 927      BINDING AFFINITY PREDICTED BY RF-SCORE:    0.00 PKD
ROOT
HETATM    1  C   UNL     1     -10.770  16.564  69.877  1.00  0.00    -0.269 C  
HETATM    2  N   UNL     1     -11.023  15.128  70.051  1.00  0.00    -0.266 NA 
HETATM    3  C   UNL     1     -11.789  14.915  71.279  1.00  0.00    -0.339 C  
ENDROOT
BRANCH   2   4
HETATM    4  C   UNL     1     -11.719  14.616  68.851  1.00  0.00    -0.309 C  
BRANCH   4   5
HETATM    5  C   UNL     1     -10.954  13.569  68.015  1.00  0.00    -0.251 C  
BRANCH   5   6
HETATM    6  N   UNL     1      -9.729  14.115  67.381  1.00  0.00    -0.228 N  
HETATM    7  C   UNL     1      -8.546  13.384  67.660  1.00  0.00    -0.193 A  
HETATM    8  C   UNL     1      -7.719  13.975  68.640  1.00  0.00    -0.135 A  
HETATM    9  C   UNL     1      -6.515  13.392  68.992  1.00  0.00    -0.105 A  
HETATM   10  C   UNL     1      -6.138  12.219  68.363  1.00  0.00    -0.052 A  
HETATM   11  C   UNL     1      -6.956  11.644  67.371  1.00  0.00    -0.117 A  
HETATM   12  C   UNL     1      -8.191  12.198  66.962  1.00  0.00    -0.164 A  
HETATM   13  N   UNL     1      -9.017  11.596  65.952  1.00  0.00    -0.158 NA 
HETATM   14  C   UNL     1      -8.656  10.239  65.489  1.00  0.00    -0.164 C  
HETATM   15  C   UNL     1     -10.117  12.154  65.201  1.00  0.00    -0.261 A  
HETATM   16  C   UNL     1     -10.985  11.338  64.434  1.00  0.00    -0.331 A  
HETATM   17  C   UNL     1     -12.018  11.859  63.636  1.00  0.00    -0.578 A  
HETATM   18  C   UNL     1     -12.220  13.228  63.554  1.00  0.00    -0.513 A  
HETATM   19  C   UNL     1     -11.419  14.068  64.312  1.00  0.00    -0.314 A  
HETATM   20  C   UNL     1     -10.422  13.529  65.146  1.00  0.00    -0.375 A  
HETATM   21  C   UNL     1      -9.774  14.488  66.043  1.00  0.00    -0.303 C  
HETATM   22  O   UNL     1      -9.321  15.543  65.609  1.00  0.00    -0.302 OA 
ENDBRANCH   5   6
ENDBRANCH   4   5
ENDBRANCH   2   4
TORSDOF 3
ENDMDL
MODEL       45
REMARK 921   NORMALIZED FREE ENERGY PREDICTED BY IDOCK:   -5.11 KCAL/MOL
REMARK 922        TOTAL FREE ENERGY PREDICTED BY IDOCK:   -6.14 KCAL/MOL
REMARK 923 INTER-LIGAND FREE ENERGY PREDICTED BY IDOCK:   -5.96 KCAL/MOL
REMARK 924 INTRA-LIGAND FREE ENERGY PREDICTED BY IDOCK:   -0.18 KCAL/MOL
REMARK 927      BINDING AFFINITY PREDICTED BY RF-SCORE:    0.00 PKD
ROOT
HETATM    1  C   UNL     1     -10.520   7.612  67.302  1.00  0.00    -0.326 C  
HETATM    2  N   UNL     1     -11.094   6.279  67.526  1.00  0.00    -0.342 NA 
HETATM    3  C   UNL     1     -10.655   5.378  66.460  1.00  0.00    -0.289 C  
ENDROOT
BRANCH   2   4
HETATM    4  C   UNL     1     -10.698   5.807  68.869  1.00  0.00    -0.263 C  
BRANCH   4   5
HETATM    5  C   UNL     1     -11.431   6.456  70.062  1.00  0.00    -0.428 C  
BRANCH   5   6
HETATM    6  N   UNL     1     -10.563   6.625  71.254  1.00  0.00    -0.220 N  
HETATM    7  C   UNL     1      -9.176   6.695  70.969  1.00  0.00    -0.160 A  
HETATM    8  C   UNL     1      -8.472   5.498  71.226  1.00  0.00    -0.127 A  
HETATM    9  C   UNL     1      -7.106   5.427  71.026  1.00  0.00    -0.068 A  
HETATM   10  C   UNL     1      -6.443   6.552  70.569  1.00  0.00    -0.044 A  
HETATM   11  C   UNL     1      -7.145   7.750  70.334  1.00  0.00    -0.050 A  
HETATM   12  C   UNL     1      -8.540   7.887  70.529  1.00  0.00    -0.131 A  
HETATM   13  N   UNL     1      -9.243   9.114  70.278  1.00  0.00    -0.199 NA 
HETATM   14  C   UNL     1      -8.510  10.197  69.587  1.00  0.00    -0.157 C  
HETATM   15  C   UNL     1     -10.560   9.531  70.701  1.00  0.00    -0.308 A  
HETATM   16  C   UNL     1     -11.196  10.667  70.144  1.00  0.00    -0.378 A  
HETATM   17  C   UNL     1     -12.445  11.138  70.585  1.00  0.00    -0.448 A  
HETATM   18  C   UNL     1     -13.109  10.501  71.622  1.00  0.00    -0.551 A  
HETATM   19  C   UNL     1     -12.544   9.364  72.178  1.00  0.00    -0.423 A  
HETATM   20  C   UNL     1     -11.318   8.874  71.691  1.00  0.00    -0.407 A  
HETATM   21  C   UNL     1     -10.918   7.566  72.213  1.00  0.00    -0.262 C  
HETATM   22  O   UNL     1     -10.915   7.350  73.422  1.00  0.00    -0.378 OA 
ENDBRANCH   5   6
ENDBRANCH   4   5
ENDBRANCH   2   4
TORSDOF 3
ENDMDL
MODEL       46
REMARK 921   NORMALIZED FREE ENERGY PREDICTED BY IDOCK:   -5.10 KCAL/MOL
REMARK 922        TOTAL FREE ENERGY PREDICTED BY IDOCK:   -6.13 KCAL/MOL
REMARK 923 INTER-LIGAND FREE ENERGY PREDICTED BY IDOCK:   -5.80 KCAL/MOL
REMARK 924 INTRA-LIGAND FREE ENERGY PREDICTED BY IDOCK:   -0.33 KCAL/MOL
REMARK 927      BINDING AFFINITY PREDICTED BY RF-SCORE:    0.00 PKD
ROOT
HETATM    1  C   UNL     1      -5.956  12.382  67.216  1.00  0.00    -0.134 C  
HETATM    2  N   UNL     1      -6.258  11.421  68.285  1.00  0.00    -0.045 NA 
HETATM    3  C   UNL     1      -6.298  12.121  69.570  1.00  0.00    -0.122 C  
ENDROOT
BRANCH   2   4
HETATM    4  C   UNL     1      -7.531  10.740  67.970  1.00  0.00    -0.090 C  
BRANCH   4   5
HETATM    5  C   UNL     1      -8.605  10.758  69.078  1.00  0.00    -0.138 C  
BRANCH   5   6
HETATM    6  N   UNL     1      -9.642   9.711  68.900  1.00  0.00    -0.157 N  
HETATM    7  C   UNL     1     -10.264   9.286  70.102  1.00  0.00    -0.215 A  
HETATM    8  C   UNL     1      -9.790   8.051  70.593  1.00  0.00    -0.192 A  
HETATM    9  C   UNL     1     -10.328   7.495  71.739  1.00  0.00    -0.221 A  
HETATM   10  C   UNL     1     -11.340   8.174  72.394  1.00  0.00    -0.456 A  
HETATM   11  C   UNL     1     -11.824   9.396  71.889  1.00  0.00    -0.402 A  
HETATM   12  C   UNL     1     -11.322  10.009  70.717  1.00  0.00    -0.360 A  
HETATM   13  N   UNL     1     -11.822  11.259  70.217  1.00  0.00    -0.341 NA 
HETATM   14  C   UNL     1     -12.743  12.027  71.085  1.00  0.00    -0.266 C  
HETATM   15  C   UNL     1     -11.665  11.868  68.917  1.00  0.00    -0.323 A  
HETATM   16  C   UNL     1     -12.006  13.223  68.682  1.00  0.00    -0.345 A  
HETATM   17  C   UNL     1     -11.932  13.821  67.413  1.00  0.00    -0.423 A  
HETATM   18  C   UNL     1     -11.529  13.083  66.311  1.00  0.00    -0.379 A  
HETATM   19  C   UNL     1     -11.152  11.762  66.494  1.00  0.00    -0.364 A  
HETATM   20  C   UNL     1     -11.182  11.190  67.779  1.00  0.00    -0.359 A  
HETATM   21  C   UNL     1     -10.579   9.861  67.885  1.00  0.00    -0.254 C  
HETATM   22  O   UNL     1     -10.898   8.966  67.107  1.00  0.00    -0.209 OA 
ENDBRANCH   5   6
ENDBRANCH   4   5
ENDBRANCH   2   4
TORSDOF 3
ENDMDL
MODEL       47
REMARK 921   NORMALIZED FREE ENERGY PREDICTED BY IDOCK:   -5.07 KCAL/MOL
REMARK 922        TOTAL FREE ENERGY PREDICTED BY IDOCK:   -6.10 KCAL/MOL
REMARK 923 INTER-LIGAND FREE ENERGY PREDICTED BY IDOCK:   -5.79 KCAL/MOL
REMARK 924 INTRA-LIGAND FREE ENERGY PREDICTED BY IDOCK:   -0.30 KCAL/MOL
REMARK 927      BINDING AFFINITY PREDICTED BY RF-SCORE:    0.00 PKD
ROOT
HETATM    1  C   UNL     1     -12.612  10.479  70.994  1.00  0.00    -0.400 C  
HETATM    2  N   UNL     1     -12.282  11.341  69.851  1.00  0.00    -0.300 NA 
HETATM    3  C   UNL     1     -12.053  12.706  70.324  1.00  0.00    -0.294 C  
ENDROOT
BRANCH   2   4
HETATM    4  C   UNL     1     -11.109  10.778  69.150  1.00  0.00    -0.249 C  
BRANCH   4   5
HETATM    5  C   UNL     1     -10.917  11.216  67.683  1.00  0.00    -0.269 C  
BRANCH   5   6
HETATM    6  N   UNL     1      -9.595  11.840  67.431  1.00  0.00    -0.168 N  
HETATM    7  C   UNL     1      -8.591  10.938  66.996  1.00  0.00    -0.136 A  
HETATM    8  C   UNL     1      -7.679  10.557  68.004  1.00  0.00    -0.092 A  
HETATM    9  C   UNL     1      -6.626   9.707  67.718  1.00  0.00    -0.065 A  
HETATM   10  C   UNL     1      -6.485   9.239  66.424  1.00  0.00    -0.066 A  
HETATM   11  C   UNL     1      -7.385   9.638  65.416  1.00  0.00    -0.108 A  
HETATM   12  C   UNL     1      -8.474  10.511  65.646  1.00  0.00    -0.176 A  
HETATM   13  N   UNL     1      -9.387  10.905  64.608  1.00  0.00    -0.216 NA 
HETATM   14  C   UNL     1      -9.302  10.195  63.313  1.00  0.00    -0.294 C  
HETATM   15  C   UNL     1     -10.335  11.992  64.572  1.00  0.00    -0.296 A  
HETATM   16  C   UNL     1     -11.338  12.074  63.574  1.00  0.00    -0.528 A  
HETATM   17  C   UNL     1     -12.228  13.157  63.471  1.00  0.00    -0.552 A  
HETATM   18  C   UNL     1     -12.144  14.221  64.355  1.00  0.00    -0.490 A  
HETATM   19  C   UNL     1     -11.203  14.174  65.370  1.00  0.00    -0.325 A  
HETATM   20  C   UNL     1     -10.352  13.060  65.493  1.00  0.00    -0.304 A  
HETATM   21  C   UNL     1      -9.539  13.027  66.710  1.00  0.00    -0.248 C  
HETATM   22  O   UNL     1      -8.873  14.002  67.043  1.00  0.00    -0.217 OA 
ENDBRANCH   5   6
ENDBRANCH   4   5
ENDBRANCH   2   4
TORSDOF 3
ENDMDL
MODEL       48
REMARK 921   NORMALIZED FREE ENERGY PREDICTED BY IDOCK:   -5.06 KCAL/MOL
REMARK 922        TOTAL FREE ENERGY PREDICTED BY IDOCK:   -6.08 KCAL/MOL
REMARK 923 INTER-LIGAND FREE ENERGY PREDICTED BY IDOCK:   -5.73 KCAL/MOL
REMARK 924 INTRA-LIGAND FREE ENERGY PREDICTED BY IDOCK:   -0.34 KCAL/MOL
REMARK 927      BINDING AFFINITY PREDICTED BY RF-SCORE:    0.00 PKD
ROOT
HETATM    1  C   UNL     1     -12.740  13.851  65.266  1.00  0.00    -0.449 C  
HETATM    2  N   UNL     1     -12.439  12.430  65.051  1.00  0.00    -0.584 NA 
HETATM    3  C   UNL     1     -12.504  12.132  63.620  1.00  0.00    -0.549 C  
ENDROOT
BRANCH   2   4
HETATM    4  C   UNL     1     -11.116  12.127  65.635  1.00  0.00    -0.316 C  
BRANCH   4   5
HETATM    5  C   UNL     1     -11.095  11.076  66.766  1.00  0.00    -0.172 C  
BRANCH   5   6
HETATM    6  N   UNL     1     -10.559  11.608  68.043  1.00  0.00    -0.194 N  
HETATM    7  C   UNL     1     -11.046  10.955  69.204  1.00  0.00    -0.245 A  
HETATM    8  C   UNL     1     -12.053  11.669  69.889  1.00  0.00    -0.373 A  
HETATM    9  C   UNL     1     -12.600  11.170  71.057  1.00  0.00    -0.503 A  
HETATM   10  C   UNL     1     -12.138   9.959  71.542  1.00  0.00    -0.496 A  
HETATM   11  C   UNL     1     -11.118   9.261  70.866  1.00  0.00    -0.374 A  
HETATM   12  C   UNL     1     -10.515   9.724  69.674  1.00  0.00    -0.242 A  
HETATM   13  N   UNL     1      -9.479   8.997  68.993  1.00  0.00    -0.154 NA 
HETATM   14  C   UNL     1      -9.197   7.617  69.446  1.00  0.00    -0.149 C  
HETATM   15  C   UNL     1      -8.552   9.436  67.977  1.00  0.00    -0.120 A  
HETATM   16  C   UNL     1      -7.773   8.518  67.231  1.00  0.00    -0.097 A  
HETATM   17  C   UNL     1      -6.811   8.919  66.288  1.00  0.00    -0.074 A  
HETATM   18  C   UNL     1      -6.572  10.266  66.059  1.00  0.00    -0.109 A  
HETATM   19  C   UNL     1      -7.332  11.204  66.738  1.00  0.00    -0.146 A  
HETATM   20  C   UNL     1      -8.327  10.787  67.642  1.00  0.00    -0.119 A  
HETATM   21  C   UNL     1      -9.195  11.852  68.149  1.00  0.00    -0.187 C  
HETATM   22  O   UNL     1      -8.715  12.878  68.621  1.00  0.00    -0.081 OA 
ENDBRANCH   5   6
ENDBRANCH   4   5
ENDBRANCH   2   4
TORSDOF 3
ENDMDL
MODEL       49
REMARK 921   NORMALIZED FREE ENERGY PREDICTED BY IDOCK:   -5.05 KCAL/MOL
REMARK 922        TOTAL FREE ENERGY PREDICTED BY IDOCK:   -6.07 KCAL/MOL
REMARK 923 INTER-LIGAND FREE ENERGY PREDICTED BY IDOCK:   -5.84 KCAL/MOL
REMARK 924 INTRA-LIGAND FREE ENERGY PREDICTED BY IDOCK:   -0.23 KCAL/MOL
REMARK 927      BINDING AFFINITY PREDICTED BY RF-SCORE:    0.00 PKD
ROOT
HETATM    1  C   UNL     1      -9.802  19.836  69.123  1.00  0.00    -0.289 C  
HETATM    2  N   UNL     1     -10.628  19.706  67.916  1.00  0.00    -0.409 NA 
HETATM    3  C   UNL     1      -9.889  20.222  66.764  1.00  0.00    -0.447 C  
ENDROOT
BRANCH   2   4
HETATM    4  C   UNL     1     -11.017  18.289  67.753  1.00  0.00    -0.088 C  
BRANCH   4   5
HETATM    5  C   UNL     1     -10.112  17.251  68.450  1.00  0.00    -0.333 C  
BRANCH   5   6
HETATM    6  N   UNL     1      -8.795  17.088  67.786  1.00  0.00    -0.220 N  
HETATM    7  C   UNL     1      -7.821  16.414  68.566  1.00  0.00    -0.197 A  
HETATM    8  C   UNL     1      -6.871  17.267  69.167  1.00  0.00    -0.234 A  
HETATM    9  C   UNL     1      -5.841  16.748  69.930  1.00  0.00    -0.220 A  
HETATM   10  C   UNL     1      -5.761  15.376  70.091  1.00  0.00    -0.144 A  
HETATM   11  C   UNL     1      -6.699  14.527  69.472  1.00  0.00    -0.151 A  
HETATM   12  C   UNL     1      -7.767  14.998  68.673  1.00  0.00    -0.128 A  
HETATM   13  N   UNL     1      -8.720  14.120  68.053  1.00  0.00    -0.168 NA 
HETATM   14  C   UNL     1      -8.700  12.694  68.449  1.00  0.00    -0.118 C  
HETATM   15  C   UNL     1      -9.658  14.375  66.985  1.00  0.00    -0.247 A  
HETATM   16  C   UNL     1     -10.702  13.468  66.677  1.00  0.00    -0.282 A  
HETATM   17  C   UNL     1     -11.584  13.654  65.599  1.00  0.00    -0.342 A  
HETATM   18  C   UNL     1     -11.450  14.753  64.764  1.00  0.00    -0.410 A  
HETATM   19  C   UNL     1     -10.466  15.688  65.043  1.00  0.00    -0.364 A  
HETATM   20  C   UNL     1      -9.623  15.515  66.156  1.00  0.00    -0.362 A  
HETATM   21  C   UNL     1      -8.758  16.655  66.467  1.00  0.00    -0.282 C  
HETATM   22  O   UNL     1      -8.067  17.171  65.593  1.00  0.00    -0.407 OA 
ENDBRANCH   5   6
ENDBRANCH   4   5
ENDBRANCH   2   4
TORSDOF 3
ENDMDL
MODEL       50
REMARK 921   NORMALIZED FREE ENERGY PREDICTED BY IDOCK:   -5.02 KCAL/MOL
REMARK 922        TOTAL FREE ENERGY PREDICTED BY IDOCK:   -6.04 KCAL/MOL
REMARK 923 INTER-LIGAND FREE ENERGY PREDICTED BY IDOCK:   -5.63 KCAL/MOL
REMARK 924 INTRA-LIGAND FREE ENERGY PREDICTED BY IDOCK:   -0.40 KCAL/MOL
REMARK 927      BINDING AFFINITY PREDICTED BY RF-SCORE:    0.00 PKD
ROOT
HETATM    1  C   UNL     1      -8.661   8.539  69.942  1.00  0.00    -0.132 C  
HETATM    2  N   UNL     1      -9.736   8.195  69.002  1.00  0.00    -0.161 NA 
HETATM    3  C   UNL     1     -10.528   7.095  69.552  1.00  0.00    -0.225 C  
ENDROOT
BRANCH   2   4
HETATM    4  C   UNL     1     -10.546   9.403  68.739  1.00  0.00    -0.208 C  
BRANCH   4   5
HETATM    5  C   UNL     1     -10.738   9.785  67.256  1.00  0.00    -0.227 C  
BRANCH   5   6
HETATM    6  N   UNL     1      -9.505  10.322  66.630  1.00  0.00    -0.161 N  
HETATM    7  C   UNL     1      -9.444  10.167  65.221  1.00  0.00    -0.248 A  
HETATM    8  C   UNL     1      -8.619   9.105  64.792  1.00  0.00    -0.209 A  
HETATM    9  C   UNL     1      -8.437   8.854  63.445  1.00  0.00    -0.150 A  
HETATM   10  C   UNL     1      -9.077   9.666  62.526  1.00  0.00    -0.283 A  
HETATM   11  C   UNL     1      -9.882  10.738  62.958  1.00  0.00    -0.344 A  
HETATM   12  C   UNL     1     -10.099  11.049  64.321  1.00  0.00    -0.339 A  
HETATM   13  N   UNL     1     -10.928  12.143  64.747  1.00  0.00    -0.299 NA 
HETATM   14  C   UNL     1     -11.749  12.823  63.720  1.00  0.00    -0.493 C  
HETATM   15  C   UNL     1     -11.018  12.793  66.033  1.00  0.00    -0.278 A  
HETATM   16  C   UNL     1     -12.075  13.681  66.347  1.00  0.00    -0.478 A  
HETATM   17  C   UNL     1     -12.150  14.383  67.563  1.00  0.00    -0.327 A  
HETATM   18  C   UNL     1     -11.155  14.239  68.518  1.00  0.00    -0.276 A  
HETATM   19  C   UNL     1     -10.116  13.356  68.273  1.00  0.00    -0.247 A  
HETATM   20  C   UNL     1     -10.081  12.622  67.073  1.00  0.00    -0.228 A  
HETATM   21  C   UNL     1      -9.054  11.581  67.008  1.00  0.00    -0.175 C  
HETATM   22  O   UNL     1      -7.886  11.837  67.284  1.00  0.00    -0.144 OA 
ENDBRANCH   5   6
ENDBRANCH   4   5
ENDBRANCH   2   4
TORSDOF 3
ENDMDL
MODEL       51
REMARK 921   NORMALIZED FREE ENERGY PREDICTED BY IDOCK:   -5.00 KCAL/MOL
REMARK 922        TOTAL FREE ENERGY PREDICTED BY IDOCK:   -6.01 KCAL/MOL
REMARK 923 INTER-LIGAND FREE ENERGY PREDICTED BY IDOCK:   -5.73 KCAL/MOL
REMARK 924 INTRA-LIGAND FREE ENERGY PREDICTED BY IDOCK:   -0.29 KCAL/MOL
REMARK 927      BINDING AFFINITY PREDICTED BY RF-SCORE:    0.00 PKD
ROOT
HETATM    1  C   UNL     1      -5.228  10.345  71.266  1.00  0.00    -0.088 C  
HETATM    2  N   UNL     1      -6.486  10.873  70.720  1.00  0.00    -0.285 NA 
HETATM    3  C   UNL     1      -6.193  11.982  69.812  1.00  0.00    -0.136 C  
ENDROOT
BRANCH   2   4
HETATM    4  C   UNL     1      -7.218   9.773  70.057  1.00  0.00    -0.130 C  
BRANCH   4   5
HETATM    5  C   UNL     1      -8.738   9.713  70.316  1.00  0.00    -0.208 C  
BRANCH   5   6
HETATM    6  N   UNL     1      -9.499   9.136  69.181  1.00  0.00    -0.154 N  
HETATM    7  C   UNL     1      -9.821   7.762  69.325  1.00  0.00    -0.173 A  
HETATM    8  C   UNL     1      -8.993   6.893  68.582  1.00  0.00    -0.129 A  
HETATM    9  C   UNL     1      -9.209   5.527  68.599  1.00  0.00    -0.140 A  
HETATM   10  C   UNL     1     -10.255   5.031  69.356  1.00  0.00    -0.268 A  
HETATM   11  C   UNL     1     -11.092   5.903  70.079  1.00  0.00    -0.411 A  
HETATM   12  C   UNL     1     -10.926   7.308  70.093  1.00  0.00    -0.260 A  
HETATM   13  N   UNL     1     -11.785   8.184  70.840  1.00  0.00    -0.273 NA 
HETATM   14  C   UNL     1     -12.734   7.568  71.793  1.00  0.00    -0.331 C  
HETATM   15  C   UNL     1     -11.968   9.613  70.737  1.00  0.00    -0.277 A  
HETATM   16  C   UNL     1     -12.662  10.350  71.728  1.00  0.00    -0.525 A  
HETATM   17  C   UNL     1     -12.918  11.727  71.619  1.00  0.00    -0.467 A  
HETATM   18  C   UNL     1     -12.505  12.431  70.498  1.00  0.00    -0.270 A  
HETATM   19  C   UNL     1     -11.792  11.764  69.515  1.00  0.00    -0.402 A  
HETATM   20  C   UNL     1     -11.498  10.395  69.662  1.00  0.00    -0.326 A  
HETATM   21  C   UNL     1     -10.577   9.845  68.666  1.00  0.00    -0.217 C  
HETATM   22  O   UNL     1     -10.772  10.024  67.467  1.00  0.00    -0.256 OA 
ENDBRANCH   5   6
ENDBRANCH   4   5
ENDBRANCH   2   4
TORSDOF 3
ENDMDL
MODEL       52
REMARK 921   NORMALIZED FREE ENERGY PREDICTED BY IDOCK:   -5.00 KCAL/MOL
REMARK 922        TOTAL FREE ENERGY PREDICTED BY IDOCK:   -6.01 KCAL/MOL
REMARK 923 INTER-LIGAND FREE ENERGY PREDICTED BY IDOCK:   -5.63 KCAL/MOL
REMARK 924 INTRA-LIGAND FREE ENERGY PREDICTED BY IDOCK:   -0.38 KCAL/MOL
REMARK 927      BINDING AFFINITY PREDICTED BY RF-SCORE:    0.00 PKD
ROOT
HETATM    1  C   UNL     1      -6.370   8.051  67.980  1.00  0.00    -0.051 C  
HETATM    2  N   UNL     1      -7.080   7.686  69.213  1.00  0.00    -0.074 NA 
HETATM    3  C   UNL     1      -6.300   6.686  69.943  1.00  0.00    -0.039 C  
ENDROOT
BRANCH   2   4
HETATM    4  C   UNL     1      -7.321   8.909  70.006  1.00  0.00    -0.056 C  
BRANCH   4   5
HETATM    5  C   UNL     1      -8.695   9.585  69.815  1.00  0.00    -0.194 C  
BRANCH   5   6
HETATM    6  N   UNL     1      -9.723   8.666  69.268  1.00  0.00    -0.170 N  
HETATM    7  C   UNL     1     -10.504   8.003  70.249  1.00  0.00    -0.222 A  
HETATM    8  C   UNL     1     -10.125   6.663  70.481  1.00  0.00    -0.209 A  
HETATM    9  C   UNL     1     -10.817   5.881  71.387  1.00  0.00    -0.332 A  
HETATM   10  C   UNL     1     -11.890   6.439  72.061  1.00  0.00    -0.382 A  
HETATM   11  C   UNL     1     -12.277   7.770  71.811  1.00  0.00    -0.338 A  
HETATM   12  C   UNL     1     -11.615   8.614  70.890  1.00  0.00    -0.269 A  
HETATM   13  N   UNL     1     -12.019   9.972  70.650  1.00  0.00    -0.300 NA 
HETATM   14  C   UNL     1     -13.026  10.560  71.561  1.00  0.00    -0.460 C  
HETATM   15  C   UNL     1     -11.683  10.861  69.563  1.00  0.00    -0.328 A  
HETATM   16  C   UNL     1     -11.960  12.249  69.622  1.00  0.00    -0.347 A  
HETATM   17  C   UNL     1     -11.711  13.126  68.552  1.00  0.00    -0.387 A  
HETATM   18  C   UNL     1     -11.186  12.648  67.361  1.00  0.00    -0.337 A  
HETATM   19  C   UNL     1     -10.866  11.303  67.264  1.00  0.00    -0.317 A  
HETATM   20  C   UNL     1     -11.073  10.447  68.361  1.00  0.00    -0.322 A  
HETATM   21  C   UNL     1     -10.519   9.100  68.214  1.00  0.00    -0.208 C  
HETATM   22  O   UNL     1     -10.755   8.432  67.212  1.00  0.00    -0.285 OA 
ENDBRANCH   5   6
ENDBRANCH   4   5
ENDBRANCH   2   4
TORSDOF 3
ENDMDL
MODEL       53
REMARK 921   NORMALIZED FREE ENERGY PREDICTED BY IDOCK:   -4.96 KCAL/MOL
REMARK 922        TOTAL FREE ENERGY PREDICTED BY IDOCK:   -5.97 KCAL/MOL
REMARK 923 INTER-LIGAND FREE ENERGY PREDICTED BY IDOCK:   -5.55 KCAL/MOL
REMARK 924 INTRA-LIGAND FREE ENERGY PREDICTED BY IDOCK:   -0.42 KCAL/MOL
REMARK 927      BINDING AFFINITY PREDICTED BY RF-SCORE:    0.00 PKD
ROOT
HETATM    1  C   UNL     1      -6.729   6.072  70.610  1.00  0.00    -0.053 C  
HETATM    2  N   UNL     1      -8.036   6.688  70.875  1.00  0.00    -0.109 NA 
HETATM    3  C   UNL     1      -8.550   6.200  72.155  1.00  0.00    -0.127 C  
ENDROOT
BRANCH   2   4
HETATM    4  C   UNL     1      -7.886   8.158  70.846  1.00  0.00    -0.091 C  
BRANCH   4   5
HETATM    5  C   UNL     1      -8.671   8.900  69.743  1.00  0.00    -0.139 C  
BRANCH   5   6
HETATM    6  N   UNL     1     -10.038   8.359  69.539  1.00  0.00    -0.195 N  
HETATM    7  C   UNL     1     -11.047   9.004  70.298  1.00  0.00    -0.235 A  
HETATM    8  C   UNL     1     -11.457   8.287  71.442  1.00  0.00    -0.314 A  
HETATM    9  C   UNL     1     -12.458   8.778  72.261  1.00  0.00    -0.455 A  
HETATM   10  C   UNL     1     -13.049   9.985  71.935  1.00  0.00    -0.563 A  
HETATM   11  C   UNL     1     -12.651  10.687  70.780  1.00  0.00    -0.479 A  
HETATM   12  C   UNL     1     -11.641  10.232  69.900  1.00  0.00    -0.256 A  
HETATM   13  N   UNL     1     -11.243  10.963  68.729  1.00  0.00    -0.247 NA 
HETATM   14  C   UNL     1     -11.760  12.339  68.569  1.00  0.00    -0.331 C  
HETATM   15  C   UNL     1     -10.484  10.529  67.580  1.00  0.00    -0.239 A  
HETATM   16  C   UNL     1      -9.960  11.452  66.641  1.00  0.00    -0.239 A  
HETATM   17  C   UNL     1      -9.280  11.056  65.476  1.00  0.00    -0.235 A  
HETATM   18  C   UNL     1      -9.109   9.711  65.187  1.00  0.00    -0.279 A  
HETATM   19  C   UNL     1      -9.573   8.769  66.090  1.00  0.00    -0.323 A  
HETATM   20  C   UNL     1     -10.206   9.181  67.277  1.00  0.00    -0.319 A  
HETATM   21  C   UNL     1     -10.475   8.113  68.243  1.00  0.00    -0.160 C  
HETATM   22  O   UNL     1     -11.044   7.083  67.893  1.00  0.00    -0.160 OA 
ENDBRANCH   5   6
ENDBRANCH   4   5
ENDBRANCH   2   4
TORSDOF 3
ENDMDL
MODEL       54
REMARK 921   NORMALIZED FREE ENERGY PREDICTED BY IDOCK:   -4.95 KCAL/MOL
REMARK 922        TOTAL FREE ENERGY PREDICTED BY IDOCK:   -5.95 KCAL/MOL
REMARK 923 INTER-LIGAND FREE ENERGY PREDICTED BY IDOCK:   -5.52 KCAL/MOL
REMARK 924 INTRA-LIGAND FREE ENERGY PREDICTED BY IDOCK:   -0.43 KCAL/MOL
REMARK 927      BINDING AFFINITY PREDICTED BY RF-SCORE:    0.00 PKD
ROOT
HETATM    1  C   UNL     1     -10.289  15.219  68.695  1.00  0.00    -0.232 C  
HETATM    2  N   UNL     1      -9.083  15.422  67.882  1.00  0.00    -0.178 NA 
HETATM    3  C   UNL     1      -7.913  14.951  68.624  1.00  0.00    -0.144 C  
ENDROOT
BRANCH   2   4
HETATM    4  C   UNL     1      -9.254  14.726  66.589  1.00  0.00    -0.275 C  
BRANCH   4   5
HETATM    5  C   UNL     1      -9.193  13.184  66.633  1.00  0.00    -0.215 C  
BRANCH   5   6
HETATM    6  N   UNL     1     -10.273  12.538  65.847  1.00  0.00    -0.256 N  
HETATM    7  C   UNL     1      -9.827  11.542  64.941  1.00  0.00    -0.252 A  
HETATM    8  C   UNL     1      -9.765  11.969  63.597  1.00  0.00    -0.218 A  
HETATM    9  C   UNL     1      -9.379  11.095  62.597  1.00  0.00    -0.336 A  
HETATM   10  C   UNL     1      -9.056   9.795  62.941  1.00  0.00    -0.275 A  
HETATM   11  C   UNL     1      -9.138   9.367  64.280  1.00  0.00    -0.159 A  
HETATM   12  C   UNL     1      -9.535  10.211  65.344  1.00  0.00    -0.239 A  
HETATM   13  N   UNL     1      -9.609   9.761  66.707  1.00  0.00    -0.169 NA 
HETATM   14  C   UNL     1      -9.041   8.433  67.024  1.00  0.00    -0.144 C  
HETATM   15  C   UNL     1     -10.269  10.357  67.845  1.00  0.00    -0.179 A  
HETATM   16  C   UNL     1     -10.019   9.914  69.167  1.00  0.00    -0.205 A  
HETATM   17  C   UNL     1     -10.699  10.425  70.286  1.00  0.00    -0.249 A  
HETATM   18  C   UNL     1     -11.678  11.394  70.131  1.00  0.00    -0.414 A  
HETATM   19  C   UNL     1     -11.936  11.885  68.861  1.00  0.00    -0.313 A  
HETATM   20  C   UNL     1     -11.211  11.401  67.756  1.00  0.00    -0.346 A  
HETATM   21  C   UNL     1     -11.427  12.127  66.503  1.00  0.00    -0.369 C  
HETATM   22  O   UNL     1     -12.564  12.347  66.095  1.00  0.00    -0.358 OA 
ENDBRANCH   5   6
ENDBRANCH   4   5
ENDBRANCH   2   4
TORSDOF 3
ENDMDL
MODEL       55
REMARK 921   NORMALIZED FREE ENERGY PREDICTED BY IDOCK:   -4.94 KCAL/MOL
REMARK 922        TOTAL FREE ENERGY PREDICTED BY IDOCK:   -5.93 KCAL/MOL
REMARK 923 INTER-LIGAND FREE ENERGY PREDICTED BY IDOCK:   -5.57 KCAL/MOL
REMARK 924 INTRA-LIGAND FREE ENERGY PREDICTED BY IDOCK:   -0.36 KCAL/MOL
REMARK 927      BINDING AFFINITY PREDICTED BY RF-SCORE:    0.00 PKD
ROOT
HETATM    1  C   UNL     1     -13.128  10.504  71.769  1.00  0.00    -0.464 C  
HETATM    2  N   UNL     1     -13.348   9.219  72.445  1.00  0.00    -0.464 NA 
HETATM    3  C   UNL     1     -14.343   8.445  71.703  1.00  0.00    -0.448 C  
ENDROOT
BRANCH   2   4
HETATM    4  C   UNL     1     -12.055   8.514  72.566  1.00  0.00    -0.326 C  
BRANCH   4   5
HETATM    5  C   UNL     1     -11.736   7.481  71.465  1.00  0.00    -0.280 C  
BRANCH   5   6
HETATM    6  N   UNL     1     -10.308   7.079  71.440  1.00  0.00    -0.198 N  
HETATM    7  C   UNL     1     -10.072   5.774  70.937  1.00  0.00    -0.199 A  
HETATM    8  C   UNL     1      -9.827   4.806  71.935  1.00  0.00    -0.236 A  
HETATM    9  C   UNL     1      -9.548   3.495  71.592  1.00  0.00    -0.228 A  
HETATM   10  C   UNL     1      -9.512   3.154  70.252  1.00  0.00    -0.224 A  
HETATM   11  C   UNL     1      -9.736   4.128  69.259  1.00  0.00    -0.219 A  
HETATM   12  C   UNL     1     -10.016   5.484  69.548  1.00  0.00    -0.210 A  
HETATM   13  N   UNL     1     -10.248   6.465  68.524  1.00  0.00    -0.160 NA 
HETATM   14  C   UNL     1     -10.411   5.983  67.135  1.00  0.00    -0.264 C  
HETATM   15  C   UNL     1     -10.238   7.907  68.602  1.00  0.00    -0.205 A  
HETATM   16  C   UNL     1     -10.746   8.714  67.554  1.00  0.00    -0.209 A  
HETATM   17  C   UNL     1     -10.684  10.118  67.570  1.00  0.00    -0.347 A  
HETATM   18  C   UNL     1     -10.092  10.782  68.634  1.00  0.00    -0.194 A  
HETATM   19  C   UNL     1      -9.611  10.039  69.700  1.00  0.00    -0.251 A  
HETATM   20  C   UNL     1      -9.726   8.637  69.694  1.00  0.00    -0.179 A  
HETATM   21  C   UNL     1      -9.367   7.976  70.950  1.00  0.00    -0.153 C  
HETATM   22  O   UNL     1      -8.302   8.227  71.506  1.00  0.00    -0.114 OA 
ENDBRANCH   5   6
ENDBRANCH   4   5
ENDBRANCH   2   4
TORSDOF 3
ENDMDL
MODEL       56
REMARK 921   NORMALIZED FREE ENERGY PREDICTED BY IDOCK:   -4.93 KCAL/MOL
REMARK 922        TOTAL FREE ENERGY PREDICTED BY IDOCK:   -5.93 KCAL/MOL
REMARK 923 INTER-LIGAND FREE ENERGY PREDICTED BY IDOCK:   -5.76 KCAL/MOL
REMARK 924 INTRA-LIGAND FREE ENERGY PREDICTED BY IDOCK:   -0.17 KCAL/MOL
REMARK 927      BINDING AFFINITY PREDICTED BY RF-SCORE:    0.00 PKD
ROOT
HETATM    1  C   UNL     1     -11.714  15.551  69.204  1.00  0.00    -0.365 C  
HETATM    2  N   UNL     1     -11.497  14.285  69.916  1.00  0.00    -0.260 NA 
HETATM    3  C   UNL     1     -12.513  14.135  70.959  1.00  0.00    -0.367 C  
ENDROOT
BRANCH   2   4
HETATM    4  C   UNL     1     -11.518  13.176  68.939  1.00  0.00    -0.298 C  
BRANCH   4   5
HETATM    5  C   UNL     1     -10.171  12.469  68.682  1.00  0.00    -0.154 C  
BRANCH   5   6
HETATM    6  N   UNL     1      -9.926  12.189  67.245  1.00  0.00    -0.202 N  
HETATM    7  C   UNL     1     -10.672  12.999  66.351  1.00  0.00    -0.282 A  
HETATM    8  C   UNL     1     -11.795  12.356  65.788  1.00  0.00    -0.467 A  
HETATM    9  C   UNL     1     -12.599  13.011  64.873  1.00  0.00    -0.490 A  
HETATM   10  C   UNL     1     -12.278  14.310  64.521  1.00  0.00    -0.476 A  
HETATM   11  C   UNL     1     -11.145  14.942  65.069  1.00  0.00    -0.422 A  
HETATM   12  C   UNL     1     -10.281  14.320  66.001  1.00  0.00    -0.315 A  
HETATM   13  N   UNL     1      -9.132  14.979  66.557  1.00  0.00    -0.279 NA 
HETATM   14  C   UNL     1      -8.982  16.429  66.303  1.00  0.00    -0.333 C  
HETATM   15  C   UNL     1      -7.993  14.428  67.253  1.00  0.00    -0.180 A  
HETATM   16  C   UNL     1      -7.083  15.250  67.960  1.00  0.00    -0.139 A  
HETATM   17  C   UNL     1      -5.927  14.751  68.586  1.00  0.00    -0.089 A  
HETATM   18  C   UNL     1      -5.620  13.401  68.517  1.00  0.00    -0.086 A  
HETATM   19  C   UNL     1      -6.496  12.548  67.866  1.00  0.00    -0.105 A  
HETATM   20  C   UNL     1      -7.675  13.055  67.288  1.00  0.00    -0.112 A  
HETATM   21  C   UNL     1      -8.617  12.044  66.804  1.00  0.00    -0.177 C  
HETATM   22  O   UNL     1      -8.238  11.139  66.066  1.00  0.00    -0.161 OA 
ENDBRANCH   5   6
ENDBRANCH   4   5
ENDBRANCH   2   4
TORSDOF 3
ENDMDL
MODEL       57
REMARK 921   NORMALIZED FREE ENERGY PREDICTED BY IDOCK:   -4.92 KCAL/MOL
REMARK 922        TOTAL FREE ENERGY PREDICTED BY IDOCK:   -5.92 KCAL/MOL
REMARK 923 INTER-LIGAND FREE ENERGY PREDICTED BY IDOCK:   -5.83 KCAL/MOL
REMARK 924 INTRA-LIGAND FREE ENERGY PREDICTED BY IDOCK:   -0.09 KCAL/MOL
REMARK 927      BINDING AFFINITY PREDICTED BY RF-SCORE:    0.00 PKD
ROOT
HETATM    1  C   UNL     1     -11.420  11.015  70.446  1.00  0.00    -0.223 C  
HETATM    2  N   UNL     1     -11.202  11.664  69.147  1.00  0.00    -0.246 NA 
HETATM    3  C   UNL     1     -11.861  10.883  68.099  1.00  0.00    -0.046 C  
ENDROOT
BRANCH   2   4
HETATM    4  C   UNL     1     -11.699  13.054  69.217  1.00  0.00    -0.320 C  
BRANCH   4   5
HETATM    5  C   UNL     1     -12.093  13.705  67.875  1.00  0.00    -0.283 C  
BRANCH   5   6
HETATM    6  N   UNL     1     -11.076  14.661  67.372  1.00  0.00    -0.315 N  
HETATM    7  C   UNL     1      -9.777  14.479  67.912  1.00  0.00    -0.218 A  
HETATM    8  C   UNL     1      -9.439  15.399  68.927  1.00  0.00    -0.219 A  
HETATM    9  C   UNL     1      -8.192  15.364  69.524  1.00  0.00    -0.207 A  
HETATM   10  C   UNL     1      -7.283  14.409  69.104  1.00  0.00    -0.118 A  
HETATM   11  C   UNL     1      -7.617  13.506  68.076  1.00  0.00    -0.143 A  
HETATM   12  C   UNL     1      -8.872  13.499  67.423  1.00  0.00    -0.221 A  
HETATM   13  N   UNL     1      -9.200  12.568  66.380  1.00  0.00    -0.212 NA 
HETATM   14  C   UNL     1      -8.266  11.445  66.142  1.00  0.00    -0.041 C  
HETATM   15  C   UNL     1     -10.269  12.601  65.409  1.00  0.00    -0.284 A  
HETATM   16  C   UNL     1     -10.599  11.469  64.625  1.00  0.00    -0.369 A  
HETATM   17  C   UNL     1     -11.585  11.493  63.623  1.00  0.00    -0.323 A  
HETATM   18  C   UNL     1     -12.278  12.662  63.348  1.00  0.00    -0.610 A  
HETATM   19  C   UNL     1     -12.017  13.788  64.111  1.00  0.00    -0.473 A  
HETATM   20  C   UNL     1     -11.063  13.735  65.145  1.00  0.00    -0.330 A  
HETATM   21  C   UNL     1     -11.012  14.917  66.007  1.00  0.00    -0.334 C  
HETATM   22  O   UNL     1     -10.927  16.042  65.523  1.00  0.00    -0.295 OA 
ENDBRANCH   5   6
ENDBRANCH   4   5
ENDBRANCH   2   4
TORSDOF 3
ENDMDL
MODEL       58
REMARK 921   NORMALIZED FREE ENERGY PREDICTED BY IDOCK:   -4.90 KCAL/MOL
REMARK 922        TOTAL FREE ENERGY PREDICTED BY IDOCK:   -5.89 KCAL/MOL
REMARK 923 INTER-LIGAND FREE ENERGY PREDICTED BY IDOCK:   -5.55 KCAL/MOL
REMARK 924 INTRA-LIGAND FREE ENERGY PREDICTED BY IDOCK:   -0.34 KCAL/MOL
REMARK 927      BINDING AFFINITY PREDICTED BY RF-SCORE:    0.00 PKD
ROOT
HETATM    1  C   UNL     1     -11.691  13.762  66.126  1.00  0.00    -0.370 C  
HETATM    2  N   UNL     1     -11.837  12.356  65.727  1.00  0.00    -0.478 NA 
HETATM    3  C   UNL     1     -11.852  12.266  64.266  1.00  0.00    -0.403 C  
ENDROOT
BRANCH   2   4
HETATM    4  C   UNL     1     -10.741  11.571  66.333  1.00  0.00    -0.273 C  
BRANCH   4   5
HETATM    5  C   UNL     1     -11.160  10.502  67.365  1.00  0.00    -0.252 C  
BRANCH   5   6
HETATM    6  N   UNL     1     -10.595  10.746  68.715  1.00  0.00    -0.187 N  
HETATM    7  C   UNL     1     -11.474  10.442  69.786  1.00  0.00    -0.280 A  
HETATM    8  C   UNL     1     -12.088  11.573  70.368  1.00  0.00    -0.471 A  
HETATM    9  C   UNL     1     -12.945  11.434  71.444  1.00  0.00    -0.468 A  
HETATM   10  C   UNL     1     -13.189  10.165  71.939  1.00  0.00    -0.557 A  
HETATM   11  C   UNL     1     -12.558   9.042  71.368  1.00  0.00    -0.370 A  
HETATM   12  C   UNL     1     -11.665   9.122  70.274  1.00  0.00    -0.017 A  
HETATM   13  N   UNL     1     -11.034   7.966  69.699  1.00  0.00    -0.171 NA 
HETATM   14  C   UNL     1     -11.511   6.635  70.135  1.00  0.00    -0.385 C  
HETATM   15  C   UNL     1      -9.894   7.874  68.818  1.00  0.00    -0.167 A  
HETATM   16  C   UNL     1      -9.570   6.673  68.141  1.00  0.00    -0.120 A  
HETATM   17  C   UNL     1      -8.427   6.533  67.335  1.00  0.00    -0.119 A  
HETATM   18  C   UNL     1      -7.542   7.589  67.183  1.00  0.00    -0.107 A  
HETATM   19  C   UNL     1      -7.831   8.797  67.797  1.00  0.00    -0.102 A  
HETATM   20  C   UNL     1      -9.006   8.938  68.560  1.00  0.00    -0.134 A  
HETATM   21  C   UNL     1      -9.307  10.303  68.994  1.00  0.00    -0.189 C  
HETATM   22  O   UNL     1      -8.454  10.984  69.555  1.00  0.00     0.069 OA 
ENDBRANCH   5   6
ENDBRANCH   4   5
ENDBRANCH   2   4
TORSDOF 3
ENDMDL
MODEL       59
REMARK 921   NORMALIZED FREE ENERGY PREDICTED BY IDOCK:   -4.89 KCAL/MOL
REMARK 922        TOTAL FREE ENERGY PREDICTED BY IDOCK:   -5.89 KCAL/MOL
REMARK 923 INTER-LIGAND FREE ENERGY PREDICTED BY IDOCK:   -5.84 KCAL/MOL
REMARK 924 INTRA-LIGAND FREE ENERGY PREDICTED BY IDOCK:   -0.04 KCAL/MOL
REMARK 927      BINDING AFFINITY PREDICTED BY RF-SCORE:    0.00 PKD
ROOT
HETATM    1  C   UNL     1      -9.647   4.676  68.670  1.00  0.00    -0.162 C  
HETATM    2  N   UNL     1     -10.046   6.075  68.872  1.00  0.00    -0.162 NA 
HETATM    3  C   UNL     1     -10.878   6.509  67.750  1.00  0.00    -0.314 C  
ENDROOT
BRANCH   2   4
HETATM    4  C   UNL     1     -10.739   6.191  70.172  1.00  0.00    -0.302 C  
BRANCH   4   5
HETATM    5  C   UNL     1     -11.812   7.295  70.275  1.00  0.00    -0.070 C  
BRANCH   5   6
HETATM    6  N   UNL     1     -11.667   8.135  71.490  1.00  0.00    -0.275 N  
HETATM    7  C   UNL     1     -10.497   7.876  72.249  1.00  0.00    -0.262 A  
HETATM    8  C   UNL     1     -10.719   7.095  73.404  1.00  0.00    -0.410 A  
HETATM    9  C   UNL     1      -9.676   6.790  74.259  1.00  0.00    -0.328 A  
HETATM   10  C   UNL     1      -8.412   7.267  73.961  1.00  0.00    -0.214 A  
HETATM   11  C   UNL     1      -8.200   8.064  72.819  1.00  0.00    -0.212 A  
HETATM   12  C   UNL     1      -9.227   8.417  71.913  1.00  0.00    -0.238 A  
HETATM   13  N   UNL     1      -8.993   9.226  70.749  1.00  0.00    -0.240 NA 
HETATM   14  C   UNL     1      -7.589   9.510  70.381  1.00  0.00    -0.159 C  
HETATM   15  C   UNL     1      -9.930   9.931  69.907  1.00  0.00    -0.252 A  
HETATM   16  C   UNL     1      -9.549  10.463  68.651  1.00  0.00    -0.166 A  
HETATM   17  C   UNL     1     -10.419  11.216  67.842  1.00  0.00    -0.220 A  
HETATM   18  C   UNL     1     -11.711  11.486  68.264  1.00  0.00    -0.371 A  
HETATM   19  C   UNL     1     -12.144  10.958  69.470  1.00  0.00    -0.380 A  
HETATM   20  C   UNL     1     -11.279  10.164  70.245  1.00  0.00    -0.387 A  
HETATM   21  C   UNL     1     -11.900   9.501  71.393  1.00  0.00    -0.389 C  
HETATM   22  O   UNL     1     -12.581  10.140  72.190  1.00  0.00    -0.328 OA 
ENDBRANCH   5   6
ENDBRANCH   4   5
ENDBRANCH   2   4
TORSDOF 3
ENDMDL
MODEL       60
REMARK 921   NORMALIZED FREE ENERGY PREDICTED BY IDOCK:   -4.89 KCAL/MOL
REMARK 922        TOTAL FREE ENERGY PREDICTED BY IDOCK:   -5.88 KCAL/MOL
REMARK 923 INTER-LIGAND FREE ENERGY PREDICTED BY IDOCK:   -5.69 KCAL/MOL
REMARK 924 INTRA-LIGAND FREE ENERGY PREDICTED BY IDOCK:   -0.19 KCAL/MOL
REMARK 927      BINDING AFFINITY PREDICTED BY RF-SCORE:    0.00 PKD
ROOT
HETATM    1  C   UNL     1     -12.493  15.098  64.071  1.00  0.00     0.149 C  
HETATM    2  N   UNL     1     -11.578  13.961  64.236  1.00  0.00    -0.380 NA 
HETATM    3  C   UNL     1     -10.301  14.439  64.767  1.00  0.00    -0.320 C  
ENDROOT
BRANCH   2   4
HETATM    4  C   UNL     1     -12.217  12.956  65.111  1.00  0.00    -0.470 C  
BRANCH   4   5
HETATM    5  C   UNL     1     -12.234  13.279  66.620  1.00  0.00    -0.298 C  
BRANCH   5   6
HETATM    6  N   UNL     1     -11.719  12.168  67.458  1.00  0.00    -0.340 N  
HETATM    7  C   UNL     1     -10.470  11.643  67.038  1.00  0.00    -0.224 A  
HETATM    8  C   UNL     1     -10.563  10.425  66.331  1.00  0.00    -0.198 A  
HETATM    9  C   UNL     1      -9.424   9.777  65.888  1.00  0.00    -0.285 A  
HETATM   10  C   UNL     1      -8.192  10.348  66.152  1.00  0.00    -0.144 A  
HETATM   11  C   UNL     1      -8.102  11.554  66.876  1.00  0.00    -0.164 A  
HETATM   12  C   UNL     1      -9.230  12.256  67.362  1.00  0.00    -0.182 A  
HETATM   13  N   UNL     1      -9.123  13.488  68.094  1.00  0.00    -0.195 NA 
HETATM   14  C   UNL     1      -7.798  14.144  68.144  1.00  0.00    -0.142 C  
HETATM   15  C   UNL     1     -10.097  14.166  68.915  1.00  0.00    -0.150 A  
HETATM   16  C   UNL     1      -9.908  15.501  69.348  1.00  0.00    -0.283 A  
HETATM   17  C   UNL     1     -10.803  16.162  70.207  1.00  0.00    -0.300 A  
HETATM   18  C   UNL     1     -11.926  15.508  70.688  1.00  0.00    -0.416 A  
HETATM   19  C   UNL     1     -12.176  14.211  70.267  1.00  0.00    -0.416 A  
HETATM   20  C   UNL     1     -11.297  13.580  69.367  1.00  0.00    -0.293 A  
HETATM   21  C   UNL     1     -11.761  12.295  68.841  1.00  0.00    -0.328 C  
HETATM   22  O   UNL     1     -12.161  11.416  69.599  1.00  0.00    -0.308 OA 
ENDBRANCH   5   6
ENDBRANCH   4   5
ENDBRANCH   2   4
TORSDOF 3
ENDMDL
MODEL       61
REMARK 921   NORMALIZED FREE ENERGY PREDICTED BY IDOCK:   -4.88 KCAL/MOL
REMARK 922        TOTAL FREE ENERGY PREDICTED BY IDOCK:   -5.87 KCAL/MOL
REMARK 923 INTER-LIGAND FREE ENERGY PREDICTED BY IDOCK:   -5.56 KCAL/MOL
REMARK 924 INTRA-LIGAND FREE ENERGY PREDICTED BY IDOCK:   -0.31 KCAL/MOL
REMARK 927      BINDING AFFINITY PREDICTED BY RF-SCORE:    0.00 PKD
ROOT
HETATM    1  C   UNL     1     -12.002   8.521  71.960  1.00  0.00    -0.361 C  
HETATM    2  N   UNL     1     -12.211   9.579  70.964  1.00  0.00    -0.308 NA 
HETATM    3  C   UNL     1     -12.929  10.693  71.583  1.00  0.00    -0.477 C  
ENDROOT
BRANCH   2   4
HETATM    4  C   UNL     1     -10.900   9.984  70.414  1.00  0.00    -0.318 C  
BRANCH   4   5
HETATM    5  C   UNL     1     -10.869  10.328  68.910  1.00  0.00    -0.228 C  
BRANCH   5   6
HETATM    6  N   UNL     1      -9.512  10.676  68.421  1.00  0.00    -0.159 N  
HETATM    7  C   UNL     1      -9.041   9.861  67.360  1.00  0.00    -0.134 A  
HETATM    8  C   UNL     1      -8.117   8.871  67.758  1.00  0.00    -0.106 A  
HETATM    9  C   UNL     1      -7.546   8.023  66.827  1.00  0.00    -0.094 A  
HETATM   10  C   UNL     1      -7.899   8.167  65.496  1.00  0.00    -0.104 A  
HETATM   11  C   UNL     1      -8.805   9.169  65.101  1.00  0.00    -0.241 A  
HETATM   12  C   UNL     1      -9.413  10.071  66.005  1.00  0.00    -0.197 A  
HETATM   13  N   UNL     1     -10.341  11.086  65.587  1.00  0.00    -0.253 NA 
HETATM   14  C   UNL     1     -10.833  11.033  64.193  1.00  0.00    -0.180 C  
HETATM   15  C   UNL     1     -10.808  12.260  66.286  1.00  0.00    -0.278 A  
HETATM   16  C   UNL     1     -11.920  13.007  65.826  1.00  0.00    -0.482 A  
HETATM   17  C   UNL     1     -12.353  14.193  66.443  1.00  0.00    -0.431 A  
HETATM   18  C   UNL     1     -11.679  14.697  67.545  1.00  0.00    -0.403 A  
HETATM   19  C   UNL     1     -10.605  13.985  68.055  1.00  0.00    -0.250 A  
HETATM   20  C   UNL     1     -10.215  12.772  67.457  1.00  0.00    -0.216 A  
HETATM   21  C   UNL     1      -9.203  12.012  68.193  1.00  0.00    -0.195 C  
HETATM   22  O   UNL     1      -8.169  12.552  68.574  1.00  0.00    -0.147 OA 
ENDBRANCH   5   6
ENDBRANCH   4   5
ENDBRANCH   2   4
TORSDOF 3
ENDMDL
MODEL       62
REMARK 921   NORMALIZED FREE ENERGY PREDICTED BY IDOCK:   -4.88 KCAL/MOL
REMARK 922        TOTAL FREE ENERGY PREDICTED BY IDOCK:   -5.87 KCAL/MOL
REMARK 923 INTER-LIGAND FREE ENERGY PREDICTED BY IDOCK:   -5.71 KCAL/MOL
REMARK 924 INTRA-LIGAND FREE ENERGY PREDICTED BY IDOCK:   -0.15 KCAL/MOL
REMARK 927      BINDING AFFINITY PREDICTED BY RF-SCORE:    0.00 PKD
ROOT
HETATM    1  C   UNL     1     -10.108  16.210  69.787  1.00  0.00    -0.162 C  
HETATM    2  N   UNL     1     -11.238  15.273  69.742  1.00  0.00    -0.266 NA 
HETATM    3  C   UNL     1     -12.143  15.551  70.857  1.00  0.00    -0.385 C  
ENDROOT
BRANCH   2   4
HETATM    4  C   UNL     1     -11.903  15.389  68.427  1.00  0.00    -0.244 C  
BRANCH   4   5
HETATM    5  C   UNL     1     -11.705  14.206  67.456  1.00  0.00    -0.386 C  
BRANCH   5   6
HETATM    6  N   UNL     1     -11.045  14.600  66.187  1.00  0.00    -0.329 N  
HETATM    7  C   UNL     1     -10.016  15.565  66.332  1.00  0.00    -0.283 A  
HETATM    8  C   UNL     1     -10.398  16.877  65.978  1.00  0.00    -0.335 A  
HETATM    9  C   UNL     1      -9.489  17.917  66.038  1.00  0.00    -0.070 A  
HETATM   10  C   UNL     1      -8.197  17.645  66.450  1.00  0.00    -0.298 A  
HETATM   11  C   UNL     1      -7.813  16.331  66.782  1.00  0.00    -0.300 A  
HETATM   12  C   UNL     1      -8.695  15.226  66.732  1.00  0.00    -0.270 A  
HETATM   13  N   UNL     1      -8.290  13.892  67.080  1.00  0.00    -0.144 NA 
HETATM   14  C   UNL     1      -6.967  13.720  67.718  1.00  0.00    -0.171 C  
HETATM   15  C   UNL     1      -8.929  12.627  66.802  1.00  0.00    -0.197 A  
HETATM   16  C   UNL     1      -8.527  11.432  67.446  1.00  0.00    -0.143 A  
HETATM   17  C   UNL     1      -9.081  10.175  67.143  1.00  0.00    -0.149 A  
HETATM   18  C   UNL     1     -10.056  10.056  66.165  1.00  0.00    -0.317 A  
HETATM   19  C   UNL     1     -10.508  11.201  65.529  1.00  0.00    -0.317 A  
HETATM   20  C   UNL     1      -9.981  12.458  65.879  1.00  0.00    -0.271 A  
HETATM   21  C   UNL     1     -10.669  13.608  65.290  1.00  0.00    -0.336 C  
HETATM   22  O   UNL     1     -10.888  13.654  64.083  1.00  0.00    -0.340 OA 
ENDBRANCH   5   6
ENDBRANCH   4   5
ENDBRANCH   2   4
TORSDOF 3
ENDMDL
MODEL       63
REMARK 921   NORMALIZED FREE ENERGY PREDICTED BY IDOCK:   -4.88 KCAL/MOL
REMARK 922        TOTAL FREE ENERGY PREDICTED BY IDOCK:   -5.87 KCAL/MOL
REMARK 923 INTER-LIGAND FREE ENERGY PREDICTED BY IDOCK:   -5.75 KCAL/MOL
REMARK 924 INTRA-LIGAND FREE ENERGY PREDICTED BY IDOCK:   -0.12 KCAL/MOL
REMARK 927      BINDING AFFINITY PREDICTED BY RF-SCORE:    0.00 PKD
ROOT
HETATM    1  C   UNL     1      -7.034  15.317  69.201  1.00  0.00    -0.148 C  
HETATM    2  N   UNL     1      -6.396  14.284  68.376  1.00  0.00    -0.092 NA 
HETATM    3  C   UNL     1      -5.781  13.280  69.245  1.00  0.00    -0.083 C  
ENDROOT
BRANCH   2   4
HETATM    4  C   UNL     1      -7.407  13.704  67.467  1.00  0.00    -0.166 C  
BRANCH   4   5
HETATM    5  C   UNL     1      -8.379  12.681  68.092  1.00  0.00    -0.175 C  
BRANCH   5   6
HETATM    6  N   UNL     1      -9.800  13.095  67.995  1.00  0.00    -0.224 N  
HETATM    7  C   UNL     1     -10.072  14.031  66.965  1.00  0.00    -0.255 A  
HETATM    8  C   UNL     1     -10.218  15.361  67.415  1.00  0.00    -0.249 A  
HETATM    9  C   UNL     1     -10.519  16.378  66.527  1.00  0.00    -0.282 A  
HETATM   10  C   UNL     1     -10.675  16.064  65.189  1.00  0.00    -0.429 A  
HETATM   11  C   UNL     1     -10.549  14.733  64.746  1.00  0.00    -0.355 A  
HETATM   12  C   UNL     1     -10.252  13.650  65.608  1.00  0.00    -0.304 A  
HETATM   13  N   UNL     1     -10.122  12.298  65.140  1.00  0.00    -0.272 NA 
HETATM   14  C   UNL     1     -10.083  12.077  63.678  1.00  0.00    -0.415 C  
HETATM   15  C   UNL     1     -10.134  11.057  65.878  1.00  0.00    -0.249 A  
HETATM   16  C   UNL     1      -9.730   9.835  65.288  1.00  0.00    -0.371 A  
HETATM   17  C   UNL     1      -9.800   8.601  65.958  1.00  0.00    -0.183 A  
HETATM   18  C   UNL     1     -10.297   8.531  67.250  1.00  0.00    -0.372 A  
HETATM   19  C   UNL     1     -10.674   9.704  67.885  1.00  0.00    -0.302 A  
HETATM   20  C   UNL     1     -10.550  10.938  67.220  1.00  0.00    -0.296 A  
HETATM   21  C   UNL     1     -10.789  12.120  68.050  1.00  0.00    -0.222 C  
HETATM   22  O   UNL     1     -11.800  12.206  68.741  1.00  0.00    -0.305 OA 
ENDBRANCH   5   6
ENDBRANCH   4   5
ENDBRANCH   2   4
TORSDOF 3
ENDMDL
MODEL       64
REMARK 921   NORMALIZED FREE ENERGY PREDICTED BY IDOCK:   -4.86 KCAL/MOL
REMARK 922        TOTAL FREE ENERGY PREDICTED BY IDOCK:   -5.84 KCAL/MOL
REMARK 923 INTER-LIGAND FREE ENERGY PREDICTED BY IDOCK:   -5.53 KCAL/MOL
REMARK 924 INTRA-LIGAND FREE ENERGY PREDICTED BY IDOCK:   -0.31 KCAL/MOL
REMARK 927      BINDING AFFINITY PREDICTED BY RF-SCORE:    0.00 PKD
ROOT
HETATM    1  C   UNL     1     -12.304  10.173  70.740  1.00  0.00    -0.328 C  
HETATM    2  N   UNL     1     -12.242  11.397  69.932  1.00  0.00    -0.293 NA 
HETATM    3  C   UNL     1     -12.396  12.562  70.804  1.00  0.00    -0.286 C  
ENDROOT
BRANCH   2   4
HETATM    4  C   UNL     1     -10.968  11.412  69.183  1.00  0.00    -0.236 C  
BRANCH   4   5
HETATM    5  C   UNL     1     -10.699  12.665  68.322  1.00  0.00    -0.230 C  
BRANCH   5   6
HETATM    6  N   UNL     1      -9.770  12.406  67.194  1.00  0.00    -0.204 N  
HETATM    7  C   UNL     1     -10.366  12.488  65.910  1.00  0.00    -0.263 A  
HETATM    8  C   UNL     1     -10.656  11.236  65.326  1.00  0.00    -0.323 A  
HETATM    9  C   UNL     1     -11.208  11.158  64.061  1.00  0.00    -0.057 A  
HETATM   10  C   UNL     1     -11.471  12.333  63.379  1.00  0.00    -0.512 A  
HETATM   11  C   UNL     1     -11.161  13.580  63.957  1.00  0.00    -0.259 A  
HETATM   12  C   UNL     1     -10.587  13.722  65.242  1.00  0.00    -0.353 A  
HETATM   13  N   UNL     1     -10.282  15.002  65.820  1.00  0.00    -0.314 NA 
HETATM   14  C   UNL     1     -10.791  16.206  65.129  1.00  0.00    -0.361 C  
HETATM   15  C   UNL     1      -9.437  15.334  66.942  1.00  0.00    -0.234 A  
HETATM   16  C   UNL     1      -9.458  16.619  67.536  1.00  0.00    -0.229 A  
HETATM   17  C   UNL     1      -8.596  16.994  68.582  1.00  0.00    -0.265 A  
HETATM   18  C   UNL     1      -7.657  16.100  69.071  1.00  0.00    -0.213 A  
HETATM   19  C   UNL     1      -7.618  14.818  68.546  1.00  0.00    -0.120 A  
HETATM   20  C   UNL     1      -8.521  14.441  67.535  1.00  0.00    -0.202 A  
HETATM   21  C   UNL     1      -8.522  13.016  67.199  1.00  0.00    -0.174 C  
HETATM   22  O   UNL     1      -7.471  12.432  66.952  1.00  0.00    -0.078 OA 
ENDBRANCH   5   6
ENDBRANCH   4   5
ENDBRANCH   2   4
TORSDOF 3
ENDMDL
MODEL       65
REMARK 921   NORMALIZED FREE ENERGY PREDICTED BY IDOCK:   -4.83 KCAL/MOL
REMARK 922        TOTAL FREE ENERGY PREDICTED BY IDOCK:   -5.81 KCAL/MOL
REMARK 923 INTER-LIGAND FREE ENERGY PREDICTED BY IDOCK:   -5.38 KCAL/MOL
REMARK 924 INTRA-LIGAND FREE ENERGY PREDICTED BY IDOCK:   -0.43 KCAL/MOL
REMARK 927      BINDING AFFINITY PREDICTED BY RF-SCORE:    0.00 PKD
ROOT
HETATM    1  C   UNL     1      -5.304   7.133  69.474  1.00  0.00    -0.015 C  
HETATM    2  N   UNL     1      -6.284   8.211  69.291  1.00  0.00    -0.038 NA 
HETATM    3  C   UNL     1      -6.361   8.562  67.873  1.00  0.00    -0.057 C  
ENDROOT
BRANCH   2   4
HETATM    4  C   UNL     1      -7.585   7.773  69.840  1.00  0.00    -0.090 C  
BRANCH   4   5
HETATM    5  C   UNL     1      -8.706   8.833  69.862  1.00  0.00    -0.135 C  
BRANCH   5   6
HETATM    6  N   UNL     1     -10.060   8.250  69.693  1.00  0.00    -0.194 N  
HETATM    7  C   UNL     1     -11.077   8.895  70.442  1.00  0.00    -0.239 A  
HETATM    8  C   UNL     1     -11.455   8.207  71.615  1.00  0.00    -0.323 A  
HETATM    9  C   UNL     1     -12.459   8.700  72.430  1.00  0.00    -0.428 A  
HETATM   10  C   UNL     1     -13.085   9.879  72.069  1.00  0.00    -0.545 A  
HETATM   11  C   UNL     1     -12.720  10.551  70.887  1.00  0.00    -0.495 A  
HETATM   12  C   UNL     1     -11.709  10.092  70.010  1.00  0.00    -0.223 A  
HETATM   13  N   UNL     1     -11.343  10.793  68.810  1.00  0.00    -0.269 NA 
HETATM   14  C   UNL     1     -11.899  12.149  68.610  1.00  0.00    -0.306 C  
HETATM   15  C   UNL     1     -10.586  10.340  67.667  1.00  0.00    -0.263 A  
HETATM   16  C   UNL     1     -10.097  11.243  66.692  1.00  0.00    -0.251 A  
HETATM   17  C   UNL     1      -9.421  10.825  65.532  1.00  0.00    -0.253 A  
HETATM   18  C   UNL     1      -9.217   9.476  65.286  1.00  0.00    -0.307 A  
HETATM   19  C   UNL     1      -9.646   8.554  66.227  1.00  0.00    -0.306 A  
HETATM   20  C   UNL     1     -10.276   8.989  67.407  1.00  0.00    -0.308 A  
HETATM   21  C   UNL     1     -10.506   7.949  68.412  1.00  0.00    -0.166 C  
HETATM   22  O   UNL     1     -11.051   6.893  68.105  1.00  0.00    -0.175 OA 
ENDBRANCH   5   6
ENDBRANCH   4   5
ENDBRANCH   2   4
TORSDOF 3
ENDMDL
MODEL       66
REMARK 921   NORMALIZED FREE ENERGY PREDICTED BY IDOCK:   -4.83 KCAL/MOL
REMARK 922        TOTAL FREE ENERGY PREDICTED BY IDOCK:   -5.81 KCAL/MOL
REMARK 923 INTER-LIGAND FREE ENERGY PREDICTED BY IDOCK:   -5.67 KCAL/MOL
REMARK 924 INTRA-LIGAND FREE ENERGY PREDICTED BY IDOCK:   -0.14 KCAL/MOL
REMARK 927      BINDING AFFINITY PREDICTED BY RF-SCORE:    0.00 PKD
ROOT
HETATM    1  C   UNL     1     -11.380  16.022  69.004  1.00  0.00    -0.363 C  
HETATM    2  N   UNL     1     -11.572  14.903  69.936  1.00  0.00    -0.272 NA 
HETATM    3  C   UNL     1     -12.442  15.329  71.032  1.00  0.00    -0.384 C  
ENDROOT
BRANCH   2   4
HETATM    4  C   UNL     1     -12.120  13.750  69.191  1.00  0.00    -0.333 C  
BRANCH   4   5
HETATM    5  C   UNL     1     -11.180  12.536  69.030  1.00  0.00    -0.268 C  
BRANCH   5   6
HETATM    6  N   UNL     1     -10.944  12.168  67.612  1.00  0.00    -0.231 N  
HETATM    7  C   UNL     1     -11.005  13.256  66.703  1.00  0.00    -0.283 A  
HETATM    8  C   UNL     1     -12.213  13.335  65.978  1.00  0.00    -0.483 A  
HETATM    9  C   UNL     1     -12.403  14.325  65.030  1.00  0.00    -0.434 A  
HETATM   10  C   UNL     1     -11.384  15.234  64.808  1.00  0.00    -0.396 A  
HETATM   11  C   UNL     1     -10.172  15.138  65.519  1.00  0.00    -0.405 A  
HETATM   12  C   UNL     1      -9.916  14.144  66.492  1.00  0.00    -0.283 A  
HETATM   13  N   UNL     1      -8.676  14.062  67.214  1.00  0.00    -0.208 NA 
HETATM   14  C   UNL     1      -7.730  15.191  67.082  1.00  0.00    -0.188 C  
HETATM   15  C   UNL     1      -8.124  12.976  67.988  1.00  0.00    -0.157 A  
HETATM   16  C   UNL     1      -7.013  13.162  68.846  1.00  0.00    -0.093 A  
HETATM   17  C   UNL     1      -6.409  12.109  69.555  1.00  0.00    -0.122 A  
HETATM   18  C   UNL     1      -6.881  10.812  69.424  1.00  0.00    -0.109 A  
HETATM   19  C   UNL     1      -7.988  10.583  68.622  1.00  0.00    -0.124 A  
HETATM   20  C   UNL     1      -8.613  11.654  67.959  1.00  0.00    -0.152 A  
HETATM   21  C   UNL     1      -9.882  11.327  67.305  1.00  0.00    -0.182 C  
HETATM   22  O   UNL     1      -9.965  10.363  66.549  1.00  0.00    -0.200 OA 
ENDBRANCH   5   6
ENDBRANCH   4   5
ENDBRANCH   2   4
TORSDOF 3
ENDMDL
MODEL       67
REMARK 921   NORMALIZED FREE ENERGY PREDICTED BY IDOCK:   -4.79 KCAL/MOL
REMARK 922        TOTAL FREE ENERGY PREDICTED BY IDOCK:   -5.76 KCAL/MOL
REMARK 923 INTER-LIGAND FREE ENERGY PREDICTED BY IDOCK:   -5.42 KCAL/MOL
REMARK 924 INTRA-LIGAND FREE ENERGY PREDICTED BY IDOCK:   -0.34 KCAL/MOL
REMARK 927      BINDING AFFINITY PREDICTED BY RF-SCORE:    0.00 PKD
ROOT
HETATM    1  C   UNL     1      -7.951   6.132  68.001  1.00  0.00    -0.110 C  
HETATM    2  N   UNL     1      -9.321   6.229  67.481  1.00  0.00    -0.114 NA 
HETATM    3  C   UNL     1     -10.258   5.726  68.487  1.00  0.00    -0.192 C  
ENDROOT
BRANCH   2   4
HETATM    4  C   UNL     1      -9.592   7.632  67.104  1.00  0.00    -0.162 C  
BRANCH   4   5
HETATM    5  C   UNL     1     -10.232   8.519  68.193  1.00  0.00    -0.208 C  
BRANCH   5   6
HETATM    6  N   UNL     1      -9.238   9.315  68.954  1.00  0.00    -0.141 N  
HETATM    7  C   UNL     1      -8.938  10.580  68.387  1.00  0.00    -0.141 A  
HETATM    8  C   UNL     1      -7.715  10.622  67.683  1.00  0.00    -0.097 A  
HETATM    9  C   UNL     1      -7.274  11.798  67.104  1.00  0.00    -0.147 A  
HETATM   10  C   UNL     1      -8.056  12.933  67.231  1.00  0.00    -0.164 A  
HETATM   11  C   UNL     1      -9.266  12.891  67.952  1.00  0.00    -0.208 A  
HETATM   12  C   UNL     1      -9.763  11.721  68.573  1.00  0.00    -0.178 A  
HETATM   13  N   UNL     1     -11.001  11.693  69.301  1.00  0.00    -0.220 NA 
HETATM   14  C   UNL     1     -11.881  12.879  69.204  1.00  0.00    -0.303 C  
HETATM   15  C   UNL     1     -11.505  10.716  70.236  1.00  0.00    -0.337 A  
HETATM   16  C   UNL     1     -12.857  10.716  70.659  1.00  0.00    -0.404 A  
HETATM   17  C   UNL     1     -13.358   9.823  71.622  1.00  0.00    -0.487 A  
HETATM   18  C   UNL     1     -12.520   8.896  72.223  1.00  0.00    -0.440 A  
HETATM   19  C   UNL     1     -11.196   8.833  71.819  1.00  0.00    -0.410 A  
HETATM   20  C   UNL     1     -10.721   9.698  70.817  1.00  0.00    -0.401 A  
HETATM   21  C   UNL     1      -9.369   9.411  70.334  1.00  0.00    -0.268 C  
HETATM   22  O   UNL     1      -8.441   9.263  71.124  1.00  0.00    -0.294 OA 
ENDBRANCH   5   6
ENDBRANCH   4   5
ENDBRANCH   2   4
TORSDOF 3
ENDMDL
MODEL       68
REMARK 921   NORMALIZED FREE ENERGY PREDICTED BY IDOCK:   -4.75 KCAL/MOL
REMARK 922        TOTAL FREE ENERGY PREDICTED BY IDOCK:   -5.72 KCAL/MOL
REMARK 923 INTER-LIGAND FREE ENERGY PREDICTED BY IDOCK:   -5.22 KCAL/MOL
REMARK 924 INTRA-LIGAND FREE ENERGY PREDICTED BY IDOCK:   -0.50 KCAL/MOL
REMARK 927      BINDING AFFINITY PREDICTED BY RF-SCORE:    0.00 PKD
ROOT
HETATM    1  C   UNL     1      -5.136  18.894  66.183  1.00  0.00    -0.140 C  
HETATM    2  N   UNL     1      -6.079  20.013  66.054  1.00  0.00    -0.174 NA 
HETATM    3  C   UNL     1      -5.490  21.047  65.204  1.00  0.00    -0.216 C  
ENDROOT
BRANCH   2   4
HETATM    4  C   UNL     1      -7.359  19.501  65.522  1.00  0.00    -0.129 C  
BRANCH   4   5
HETATM    5  C   UNL     1      -7.707  18.039  65.875  1.00  0.00    -0.095 C  
BRANCH   5   6
HETATM    6  N   UNL     1      -8.966  17.912  66.651  1.00  0.00    -0.262 N  
HETATM    7  C   UNL     1      -9.458  16.586  66.762  1.00  0.00    -0.249 A  
HETATM    8  C   UNL     1     -10.531  16.293  65.894  1.00  0.00    -0.359 A  
HETATM    9  C   UNL     1     -11.135  15.049  65.914  1.00  0.00    -0.334 A  
HETATM   10  C   UNL     1     -10.666  14.099  66.805  1.00  0.00    -0.286 A  
HETATM   11  C   UNL     1      -9.609  14.403  67.684  1.00  0.00    -0.214 A  
HETATM   12  C   UNL     1      -8.959  15.659  67.716  1.00  0.00    -0.176 A  
HETATM   13  N   UNL     1      -7.878  15.952  68.616  1.00  0.00    -0.153 NA 
HETATM   14  C   UNL     1      -7.292  14.826  69.376  1.00  0.00    -0.162 C  
HETATM   15  C   UNL     1      -7.315  17.223  69.006  1.00  0.00    -0.209 A  
HETATM   16  C   UNL     1      -6.084  17.312  69.700  1.00  0.00    -0.244 A  
HETATM   17  C   UNL     1      -5.548  18.529  70.156  1.00  0.00    -0.240 A  
HETATM   18  C   UNL     1      -6.232  19.717  69.952  1.00  0.00    -0.375 A  
HETATM   19  C   UNL     1      -7.425  19.689  69.248  1.00  0.00    -0.250 A  
HETATM   20  C   UNL     1      -7.924  18.470  68.753  1.00  0.00    -0.294 A  
HETATM   21  C   UNL     1      -9.079  18.585  67.861  1.00  0.00    -0.290 C  
HETATM   22  O   UNL     1     -10.060  19.245  68.190  1.00  0.00    -0.367 OA 
ENDBRANCH   5   6
ENDBRANCH   4   5
ENDBRANCH   2   4
TORSDOF 3
ENDMDL
MODEL       69
REMARK 921   NORMALIZED FREE ENERGY PREDICTED BY IDOCK:   -4.73 KCAL/MOL
REMARK 922        TOTAL FREE ENERGY PREDICTED BY IDOCK:   -5.69 KCAL/MOL
REMARK 923 INTER-LIGAND FREE ENERGY PREDICTED BY IDOCK:   -5.43 KCAL/MOL
REMARK 924 INTRA-LIGAND FREE ENERGY PREDICTED BY IDOCK:   -0.26 KCAL/MOL
REMARK 927      BINDING AFFINITY PREDICTED BY RF-SCORE:    0.00 PKD
ROOT
HETATM    1  C   UNL     1     -10.435   5.841  74.037  1.00  0.00    -0.266 C  
HETATM    2  N   UNL     1      -9.153   6.553  73.964  1.00  0.00    -0.149 NA 
HETATM    3  C   UNL     1      -8.178   5.725  73.254  1.00  0.00    -0.117 C  
ENDROOT
BRANCH   2   4
HETATM    4  C   UNL     1      -9.369   7.862  73.313  1.00  0.00    -0.286 C  
BRANCH   4   5
HETATM    5  C   UNL     1      -9.240   7.887  71.775  1.00  0.00    -0.150 C  
BRANCH   5   6
HETATM    6  N   UNL     1     -10.550   7.826  71.081  1.00  0.00    -0.216 N  
HETATM    7  C   UNL     1     -11.292   9.035  71.115  1.00  0.00    -0.307 A  
HETATM    8  C   UNL     1     -12.338   9.045  72.061  1.00  0.00    -0.455 A  
HETATM    9  C   UNL     1     -13.168  10.145  72.184  1.00  0.00    -0.463 A  
HETATM   10  C   UNL     1     -12.951  11.234  71.359  1.00  0.00    -0.482 A  
HETATM   11  C   UNL     1     -11.918  11.211  70.401  1.00  0.00    -0.469 A  
HETATM   12  C   UNL     1     -11.045  10.113  70.223  1.00  0.00    -0.317 A  
HETATM   13  N   UNL     1      -9.992  10.107  69.245  1.00  0.00    -0.207 NA 
HETATM   14  C   UNL     1      -9.685  11.381  68.559  1.00  0.00    -0.197 C  
HETATM   15  C   UNL     1      -9.227   9.004  68.713  1.00  0.00    -0.133 A  
HETATM   16  C   UNL     1      -8.051   9.212  67.951  1.00  0.00    -0.105 A  
HETATM   17  C   UNL     1      -7.327   8.162  67.360  1.00  0.00    -0.089 A  
HETATM   18  C   UNL     1      -7.757   6.851  67.493  1.00  0.00    -0.111 A  
HETATM   19  C   UNL     1      -8.882   6.591  68.258  1.00  0.00    -0.119 A  
HETATM   20  C   UNL     1      -9.569   7.648  68.886  1.00  0.00    -0.150 A  
HETATM   21  C   UNL     1     -10.617   7.240  69.823  1.00  0.00    -0.235 C  
HETATM   22  O   UNL     1     -11.474   6.428  69.488  1.00  0.00    -0.407 OA 
ENDBRANCH   5   6
ENDBRANCH   4   5
ENDBRANCH   2   4
TORSDOF 3
ENDMDL
MODEL       70
REMARK 921   NORMALIZED FREE ENERGY PREDICTED BY IDOCK:   -4.72 KCAL/MOL
REMARK 922        TOTAL FREE ENERGY PREDICTED BY IDOCK:   -5.68 KCAL/MOL
REMARK 923 INTER-LIGAND FREE ENERGY PREDICTED BY IDOCK:   -5.45 KCAL/MOL
REMARK 924 INTRA-LIGAND FREE ENERGY PREDICTED BY IDOCK:   -0.23 KCAL/MOL
REMARK 927      BINDING AFFINITY PREDICTED BY RF-SCORE:    0.00 PKD
ROOT
HETATM    1  C   UNL     1     -10.390  20.285  68.398  1.00  0.00    -0.165 C  
HETATM    2  N   UNL     1     -11.027  19.560  67.292  1.00  0.00    -0.450 NA 
HETATM    3  C   UNL     1     -10.403  19.957  66.029  1.00  0.00    -0.486 C  
ENDROOT
BRANCH   2   4
HETATM    4  C   UNL     1     -10.919  18.108  67.547  1.00  0.00    -0.098 C  
BRANCH   4   5
HETATM    5  C   UNL     1      -9.749  17.660  68.449  1.00  0.00    -0.321 C  
BRANCH   5   6
HETATM    6  N   UNL     1      -8.423  17.819  67.802  1.00  0.00    -0.233 N  
HETATM    7  C   UNL     1      -7.343  17.987  68.707  1.00  0.00    -0.273 A  
HETATM    8  C   UNL     1      -6.902  19.321  68.838  1.00  0.00    -0.366 A  
HETATM    9  C   UNL     1      -5.834  19.633  69.660  1.00  0.00    -0.299 A  
HETATM   10  C   UNL     1      -5.208  18.611  70.350  1.00  0.00    -0.234 A  
HETATM   11  C   UNL     1      -5.639  17.278  70.200  1.00  0.00    -0.242 A  
HETATM   12  C   UNL     1      -6.717  16.897  69.368  1.00  0.00    -0.220 A  
HETATM   13  N   UNL     1      -7.149  15.533  69.230  1.00  0.00    -0.170 NA 
HETATM   14  C   UNL     1      -6.578  14.535  70.160  1.00  0.00    -0.128 C  
HETATM   15  C   UNL     1      -7.991  14.925  68.227  1.00  0.00    -0.130 A  
HETATM   16  C   UNL     1      -8.526  13.623  68.393  1.00  0.00    -0.147 A  
HETATM   17  C   UNL     1      -9.288  12.977  67.405  1.00  0.00    -0.209 A  
HETATM   18  C   UNL     1      -9.538  13.601  66.192  1.00  0.00    -0.226 A  
HETATM   19  C   UNL     1      -9.066  14.888  65.993  1.00  0.00    -0.109 A  
HETATM   20  C   UNL     1      -8.348  15.542  67.011  1.00  0.00    -0.265 A  
HETATM   21  C   UNL     1      -8.072  16.960  66.769  1.00  0.00    -0.241 C  
HETATM   22  O   UNL     1      -7.573  17.327  65.709  1.00  0.00    -0.440 OA 
ENDBRANCH   5   6
ENDBRANCH   4   5
ENDBRANCH   2   4
TORSDOF 3
ENDMDL
MODEL       71
REMARK 921   NORMALIZED FREE ENERGY PREDICTED BY IDOCK:   -4.72 KCAL/MOL
REMARK 922        TOTAL FREE ENERGY PREDICTED BY IDOCK:   -5.68 KCAL/MOL
REMARK 923 INTER-LIGAND FREE ENERGY PREDICTED BY IDOCK:   -5.40 KCAL/MOL
REMARK 924 INTRA-LIGAND FREE ENERGY PREDICTED BY IDOCK:   -0.28 KCAL/MOL
REMARK 927      BINDING AFFINITY PREDICTED BY RF-SCORE:    0.00 PKD
ROOT
HETATM    1  C   UNL     1     -12.581  15.527  70.141  1.00  0.00    -0.267 C  
HETATM    2  N   UNL     1     -11.736  14.370  69.818  1.00  0.00    -0.287 NA 
HETATM    3  C   UNL     1     -12.012  13.935  68.449  1.00  0.00    -0.356 C  
ENDROOT
BRANCH   2   4
HETATM    4  C   UNL     1     -10.320  14.740  70.022  1.00  0.00     0.110 C  
BRANCH   4   5
HETATM    5  C   UNL     1      -9.949  16.208  69.720  1.00  0.00    -0.115 C  
BRANCH   5   6
HETATM    6  N   UNL     1      -9.636  16.445  68.289  1.00  0.00    -0.216 N  
HETATM    7  C   UNL     1      -9.494  17.811  67.935  1.00  0.00    -0.270 A  
HETATM    8  C   UNL     1     -10.618  18.359  67.282  1.00  0.00    -0.435 A  
HETATM    9  C   UNL     1     -10.611  19.673  66.848  1.00  0.00    -0.603 A  
HETATM   10  C   UNL     1      -9.479  20.437  67.067  1.00  0.00    -0.544 A  
HETATM   11  C   UNL     1      -8.351  19.880  67.701  1.00  0.00    -0.362 A  
HETATM   12  C   UNL     1      -8.296  18.542  68.158  1.00  0.00    -0.296 A  
HETATM   13  N   UNL     1      -7.140  17.989  68.808  1.00  0.00    -0.269 NA 
HETATM   14  C   UNL     1      -6.062  18.922  69.202  1.00  0.00    -0.246 C  
HETATM   15  C   UNL     1      -6.785  16.612  69.054  1.00  0.00    -0.202 A  
HETATM   16  C   UNL     1      -5.737  16.259  69.940  1.00  0.00    -0.181 A  
HETATM   17  C   UNL     1      -5.321  14.932  70.143  1.00  0.00    -0.113 A  
HETATM   18  C   UNL     1      -5.927  13.893  69.453  1.00  0.00    -0.099 A  
HETATM   19  C   UNL     1      -6.980  14.182  68.600  1.00  0.00    -0.107 A  
HETATM   20  C   UNL     1      -7.419  15.510  68.445  1.00  0.00    -0.115 A  
HETATM   21  C   UNL     1      -8.656  15.672  67.679  1.00  0.00    -0.167 C  
HETATM   22  O   UNL     1      -8.785  15.140  66.580  1.00  0.00    -0.262 OA 
ENDBRANCH   5   6
ENDBRANCH   4   5
ENDBRANCH   2   4
TORSDOF 3
ENDMDL
MODEL       72
REMARK 921   NORMALIZED FREE ENERGY PREDICTED BY IDOCK:   -4.71 KCAL/MOL
REMARK 922        TOTAL FREE ENERGY PREDICTED BY IDOCK:   -5.67 KCAL/MOL
REMARK 923 INTER-LIGAND FREE ENERGY PREDICTED BY IDOCK:   -5.13 KCAL/MOL
REMARK 924 INTRA-LIGAND FREE ENERGY PREDICTED BY IDOCK:   -0.54 KCAL/MOL
REMARK 927      BINDING AFFINITY PREDICTED BY RF-SCORE:    0.00 PKD
ROOT
HETATM    1  C   UNL     1      -7.958   6.405  73.645  1.00  0.00    -0.098 C  
HETATM    2  N   UNL     1      -8.310   7.708  74.224  1.00  0.00    -0.215 NA 
HETATM    3  C   UNL     1      -7.087   8.462  74.500  1.00  0.00    -0.188 C  
ENDROOT
BRANCH   2   4
HETATM    4  C   UNL     1      -9.216   8.415  73.295  1.00  0.00    -0.100 C  
BRANCH   4   5
HETATM    5  C   UNL     1      -9.160   7.970  71.819  1.00  0.00    -0.158 C  
BRANCH   5   6
HETATM    6  N   UNL     1     -10.482   8.017  71.147  1.00  0.00    -0.197 N  
HETATM    7  C   UNL     1     -10.423   8.038  69.730  1.00  0.00    -0.227 A  
HETATM    8  C   UNL     1     -10.628   9.313  69.161  1.00  0.00    -0.228 A  
HETATM    9  C   UNL     1     -10.631   9.481  67.788  1.00  0.00    -0.318 A  
HETATM   10  C   UNL     1     -10.430   8.374  66.984  1.00  0.00    -0.375 A  
HETATM   11  C   UNL     1     -10.246   7.099  67.555  1.00  0.00    -0.272 A  
HETATM   12  C   UNL     1     -10.242   6.863  68.950  1.00  0.00    -0.177 A  
HETATM   13  N   UNL     1     -10.047   5.558  69.518  1.00  0.00    -0.211 NA 
HETATM   14  C   UNL     1      -9.621   4.471  68.609  1.00  0.00    -0.157 C  
HETATM   15  C   UNL     1     -10.314   5.078  70.853  1.00  0.00    -0.190 A  
HETATM   16  C   UNL     1      -9.817   3.834  71.311  1.00  0.00    -0.219 A  
HETATM   17  C   UNL     1     -10.120   3.308  72.579  1.00  0.00    -0.229 A  
HETATM   18  C   UNL     1     -10.953   4.001  73.445  1.00  0.00    -0.342 A  
HETATM   19  C   UNL     1     -11.438   5.240  73.058  1.00  0.00    -0.340 A  
HETATM   20  C   UNL     1     -11.084   5.776  71.806  1.00  0.00    -0.301 A  
HETATM   21  C   UNL     1     -11.489   7.166  71.586  1.00  0.00    -0.266 C  
HETATM   22  O   UNL     1     -12.646   7.521  71.794  1.00  0.00    -0.317 OA 
ENDBRANCH   5   6
ENDBRANCH   4   5
ENDBRANCH   2   4
TORSDOF 3
ENDMDL
MODEL       73
REMARK 921   NORMALIZED FREE ENERGY PREDICTED BY IDOCK:   -4.71 KCAL/MOL
REMARK 922        TOTAL FREE ENERGY PREDICTED BY IDOCK:   -5.66 KCAL/MOL
REMARK 923 INTER-LIGAND FREE ENERGY PREDICTED BY IDOCK:   -5.54 KCAL/MOL
REMARK 924 INTRA-LIGAND FREE ENERGY PREDICTED BY IDOCK:   -0.13 KCAL/MOL
REMARK 927      BINDING AFFINITY PREDICTED BY RF-SCORE:    0.00 PKD
ROOT
HETATM    1  C   UNL     1     -11.115   8.955  71.848  1.00  0.00    -0.372 C  
HETATM    2  N   UNL     1     -11.796   9.361  70.611  1.00  0.00    -0.244 NA 
HETATM    3  C   UNL     1     -12.611  10.547  70.874  1.00  0.00    -0.398 C  
ENDROOT
BRANCH   2   4
HETATM    4  C   UNL     1     -10.783   9.589  69.560  1.00  0.00    -0.228 C  
BRANCH   4   5
HETATM    5  C   UNL     1     -11.053  10.765  68.598  1.00  0.00    -0.259 C  
BRANCH   5   6
HETATM    6  N   UNL     1      -9.908  11.703  68.490  1.00  0.00    -0.201 N  
HETATM    7  C   UNL     1      -8.688  11.100  68.089  1.00  0.00    -0.144 A  
HETATM    8  C   UNL     1      -7.780  10.875  69.146  1.00  0.00    -0.127 A  
HETATM    9  C   UNL     1      -6.536  10.323  68.901  1.00  0.00    -0.051 A  
HETATM   10  C   UNL     1      -6.199   9.999  67.599  1.00  0.00    -0.058 A  
HETATM   11  C   UNL     1      -7.100  10.245  66.544  1.00  0.00    -0.108 A  
HETATM   12  C   UNL     1      -8.382  10.814  66.731  1.00  0.00    -0.136 A  
HETATM   13  N   UNL     1      -9.292  11.054  65.646  1.00  0.00    -0.207 NA 
HETATM   14  C   UNL     1      -8.952  10.482  64.325  1.00  0.00    -0.216 C  
HETATM   15  C   UNL     1     -10.472  11.884  65.592  1.00  0.00    -0.262 A  
HETATM   16  C   UNL     1     -11.396  11.797  64.522  1.00  0.00    -0.349 A  
HETATM   17  C   UNL     1     -12.514  12.641  64.405  1.00  0.00    -0.509 A  
HETATM   18  C   UNL     1     -12.750  13.627  65.351  1.00  0.00    -0.500 A  
HETATM   19  C   UNL     1     -11.895  13.731  66.436  1.00  0.00    -0.434 A  
HETATM   20  C   UNL     1     -10.809  12.846  66.566  1.00  0.00    -0.290 A  
HETATM   21  C   UNL     1     -10.095  12.918  67.842  1.00  0.00    -0.232 C  
HETATM   22  O   UNL     1      -9.709  13.997  68.282  1.00  0.00    -0.214 OA 
ENDBRANCH   5   6
ENDBRANCH   4   5
ENDBRANCH   2   4
TORSDOF 3
ENDMDL
MODEL       74
REMARK 921   NORMALIZED FREE ENERGY PREDICTED BY IDOCK:   -4.69 KCAL/MOL
REMARK 922        TOTAL FREE ENERGY PREDICTED BY IDOCK:   -5.65 KCAL/MOL
REMARK 923 INTER-LIGAND FREE ENERGY PREDICTED BY IDOCK:   -5.22 KCAL/MOL
REMARK 924 INTRA-LIGAND FREE ENERGY PREDICTED BY IDOCK:   -0.43 KCAL/MOL
REMARK 927      BINDING AFFINITY PREDICTED BY RF-SCORE:    0.00 PKD
ROOT
HETATM    1  C   UNL     1      -7.615  16.348  66.683  1.00  0.00    -0.253 C  
HETATM    2  N   UNL     1      -6.497  15.741  67.418  1.00  0.00    -0.214 NA 
HETATM    3  C   UNL     1      -6.320  16.438  68.692  1.00  0.00    -0.133 C  
ENDROOT
BRANCH   2   4
HETATM    4  C   UNL     1      -6.766  14.298  67.592  1.00  0.00    -0.169 C  
BRANCH   4   5
HETATM    5  C   UNL     1      -8.067  13.767  66.956  1.00  0.00     0.018 C  
BRANCH   5   6
HETATM    6  N   UNL     1      -8.995  13.166  67.945  1.00  0.00    -0.190 N  
HETATM    7  C   UNL     1     -10.029  14.031  68.385  1.00  0.00    -0.236 A  
HETATM    8  C   UNL     1      -9.806  14.597  69.659  1.00  0.00     0.165 A  
HETATM    9  C   UNL     1     -10.745  15.436  70.232  1.00  0.00    -0.320 A  
HETATM   10  C   UNL     1     -11.907  15.707  69.532  1.00  0.00    -0.387 A  
HETATM   11  C   UNL     1     -12.134  15.124  68.270  1.00  0.00    -0.059 A  
HETATM   12  C   UNL     1     -11.217  14.252  67.638  1.00  0.00    -0.304 A  
HETATM   13  N   UNL     1     -11.461  13.669  66.348  1.00  0.00    -0.326 NA 
HETATM   14  C   UNL     1     -12.614  14.177  65.571  1.00  0.00    -0.479 C  
HETATM   15  C   UNL     1     -10.818  12.551  65.699  1.00  0.00    -0.277 A  
HETATM   16  C   UNL     1     -11.008  12.278  64.322  1.00  0.00    -0.392 A  
HETATM   17  C   UNL     1     -10.453  11.158  63.680  1.00  0.00    -0.438 A  
HETATM   18  C   UNL     1      -9.694  10.244  64.395  1.00  0.00    -0.381 A  
HETATM   19  C   UNL     1      -9.450  10.483  65.738  1.00  0.00    -0.249 A  
HETATM   20  C   UNL     1      -9.969  11.637  66.355  1.00  0.00    -0.235 A  
HETATM   21  C   UNL     1      -9.487  11.887  67.715  1.00  0.00    -0.184 C  
HETATM   22  O   UNL     1      -9.522  11.001  68.564  1.00  0.00    -0.174 OA 
ENDBRANCH   5   6
ENDBRANCH   4   5
ENDBRANCH   2   4
TORSDOF 3
ENDMDL
MODEL       75
REMARK 921   NORMALIZED FREE ENERGY PREDICTED BY IDOCK:   -4.69 KCAL/MOL
REMARK 922        TOTAL FREE ENERGY PREDICTED BY IDOCK:   -5.65 KCAL/MOL
REMARK 923 INTER-LIGAND FREE ENERGY PREDICTED BY IDOCK:   -5.37 KCAL/MOL
REMARK 924 INTRA-LIGAND FREE ENERGY PREDICTED BY IDOCK:   -0.28 KCAL/MOL
REMARK 927      BINDING AFFINITY PREDICTED BY RF-SCORE:    0.00 PKD
ROOT
HETATM    1  C   UNL     1     -12.220  14.934  64.441  1.00  0.00    -0.381 C  
HETATM    2  N   UNL     1     -12.749  13.568  64.348  1.00  0.00    -0.658 NA 
HETATM    3  C   UNL     1     -12.279  12.949  63.108  1.00  0.00    -0.229 C  
ENDROOT
BRANCH   2   4
HETATM    4  C   UNL     1     -12.339  12.813  65.551  1.00  0.00    -0.434 C  
BRANCH   4   5
HETATM    5  C   UNL     1     -10.899  12.256  65.546  1.00  0.00    -0.282 C  
BRANCH   5   6
HETATM    6  N   UNL     1     -10.666  11.240  66.603  1.00  0.00    -0.263 N  
HETATM    7  C   UNL     1      -9.504  10.449  66.414  1.00  0.00    -0.169 A  
HETATM    8  C   UNL     1      -9.761   9.158  65.905  1.00  0.00    -0.336 A  
HETATM    9  C   UNL     1      -8.727   8.262  65.700  1.00  0.00    -0.188 A  
HETATM   10  C   UNL     1      -7.437   8.657  66.006  1.00  0.00    -0.085 A  
HETATM   11  C   UNL     1      -7.188   9.940  66.532  1.00  0.00    -0.095 A  
HETATM   12  C   UNL     1      -8.204  10.895  66.772  1.00  0.00    -0.140 A  
HETATM   13  N   UNL     1      -7.933  12.201  67.305  1.00  0.00    -0.169 NA 
HETATM   14  C   UNL     1      -6.518  12.626  67.396  1.00  0.00    -0.149 C  
HETATM   15  C   UNL     1      -8.830  13.167  67.894  1.00  0.00    -0.196 A  
HETATM   16  C   UNL     1      -8.435  14.507  68.126  1.00  0.00    -0.157 A  
HETATM   17  C   UNL     1      -9.262  15.449  68.763  1.00  0.00    -0.206 A  
HETATM   18  C   UNL     1     -10.521  15.086  69.215  1.00  0.00    -0.252 A  
HETATM   19  C   UNL     1     -10.968  13.795  68.981  1.00  0.00    -0.277 A  
HETATM   20  C   UNL     1     -10.150  12.878  68.297  1.00  0.00    -0.242 A  
HETATM   21  C   UNL     1     -10.797  11.615  67.934  1.00  0.00    -0.210 C  
HETATM   22  O   UNL     1     -11.411  10.963  68.774  1.00  0.00    -0.248 OA 
ENDBRANCH   5   6
ENDBRANCH   4   5
ENDBRANCH   2   4
TORSDOF 3
ENDMDL
MODEL       76
REMARK 921   NORMALIZED FREE ENERGY PREDICTED BY IDOCK:   -4.68 KCAL/MOL
REMARK 922        TOTAL FREE ENERGY PREDICTED BY IDOCK:   -5.64 KCAL/MOL
REMARK 923 INTER-LIGAND FREE ENERGY PREDICTED BY IDOCK:   -5.30 KCAL/MOL
REMARK 924 INTRA-LIGAND FREE ENERGY PREDICTED BY IDOCK:   -0.33 KCAL/MOL
REMARK 927      BINDING AFFINITY PREDICTED BY RF-SCORE:    0.00 PKD
ROOT
HETATM    1  C   UNL     1      -8.627  16.979  68.000  1.00  0.00    -0.217 C  
HETATM    2  N   UNL     1      -9.574  15.917  67.639  1.00  0.00    -0.220 NA 
HETATM    3  C   UNL     1      -9.696  15.851  66.182  1.00  0.00    -0.321 C  
ENDROOT
BRANCH   2   4
HETATM    4  C   UNL     1      -9.113  14.643  68.228  1.00  0.00    -0.189 C  
BRANCH   4   5
HETATM    5  C   UNL     1      -8.892  13.477  67.242  1.00  0.00    -0.224 C  
BRANCH   5   6
HETATM    6  N   UNL     1     -10.009  12.500  67.237  1.00  0.00    -0.209 N  
HETATM    7  C   UNL     1     -10.694  12.396  65.999  1.00  0.00    -0.261 A  
HETATM    8  C   UNL     1     -11.929  13.078  65.963  1.00  0.00    -0.498 A  
HETATM    9  C   UNL     1     -12.725  13.038  64.832  1.00  0.00    -0.456 A  
HETATM   10  C   UNL     1     -12.285  12.314  63.738  1.00  0.00    -0.642 A  
HETATM   11  C   UNL     1     -11.062  11.618  63.786  1.00  0.00    -0.499 A  
HETATM   12  C   UNL     1     -10.211  11.614  64.916  1.00  0.00    -0.270 A  
HETATM   13  N   UNL     1      -8.963  10.902  64.947  1.00  0.00    -0.182 NA 
HETATM   14  C   UNL     1      -8.461  10.340  63.675  1.00  0.00    -0.183 C  
HETATM   15  C   UNL     1      -8.136  10.530  66.071  1.00  0.00    -0.148 A  
HETATM   16  C   UNL     1      -6.810  10.062  65.898  1.00  0.00    -0.108 A  
HETATM   17  C   UNL     1      -6.008   9.625  66.966  1.00  0.00    -0.055 A  
HETATM   18  C   UNL     1      -6.504   9.620  68.261  1.00  0.00    -0.056 A  
HETATM   19  C   UNL     1      -7.783  10.101  68.487  1.00  0.00    -0.090 A  
HETATM   20  C   UNL     1      -8.557  10.583  67.415  1.00  0.00    -0.122 A  
HETATM   21  C   UNL     1      -9.806  11.245  67.796  1.00  0.00    -0.173 C  
HETATM   22  O   UNL     1     -10.593  10.701  68.566  1.00  0.00    -0.178 OA 
ENDBRANCH   5   6
ENDBRANCH   4   5
ENDBRANCH   2   4
TORSDOF 3
ENDMDL
MODEL       77
REMARK 921   NORMALIZED FREE ENERGY PREDICTED BY IDOCK:   -4.64 KCAL/MOL
REMARK 922        TOTAL FREE ENERGY PREDICTED BY IDOCK:   -5.58 KCAL/MOL
REMARK 923 INTER-LIGAND FREE ENERGY PREDICTED BY IDOCK:   -5.51 KCAL/MOL
REMARK 924 INTRA-LIGAND FREE ENERGY PREDICTED BY IDOCK:   -0.07 KCAL/MOL
REMARK 927      BINDING AFFINITY PREDICTED BY RF-SCORE:    0.00 PKD
ROOT
HETATM    1  C   UNL     1     -12.013  12.547  65.483  1.00  0.00    -0.442 C  
HETATM    2  N   UNL     1     -11.394  13.808  65.051  1.00  0.00    -0.317 NA 
HETATM    3  C   UNL     1     -12.268  14.469  64.081  1.00  0.00    -0.342 C  
ENDROOT
BRANCH   2   4
HETATM    4  C   UNL     1     -11.131  14.644  66.241  1.00  0.00    -0.336 C  
BRANCH   4   5
HETATM    5  C   UNL     1      -9.647  14.863  66.604  1.00  0.00    -0.266 C  
BRANCH   5   6
HETATM    6  N   UNL     1      -9.406  14.894  68.067  1.00  0.00    -0.190 N  
HETATM    7  C   UNL     1     -10.549  14.616  68.860  1.00  0.00    -0.253 A  
HETATM    8  C   UNL     1     -11.154  15.760  69.423  1.00  0.00    -0.314 A  
HETATM    9  C   UNL     1     -12.259  15.640  70.246  1.00  0.00    -0.416 A  
HETATM   10  C   UNL     1     -12.757  14.376  70.507  1.00  0.00    -0.401 A  
HETATM   11  C   UNL     1     -12.138  13.236  69.959  1.00  0.00    -0.385 A  
HETATM   12  C   UNL     1     -11.001  13.294  69.119  1.00  0.00    -0.161 A  
HETATM   13  N   UNL     1     -10.384  12.122  68.564  1.00  0.00    -0.225 NA 
HETATM   14  C   UNL     1     -11.100  10.836  68.706  1.00  0.00    -0.259 C  
HETATM   15  C   UNL     1      -9.080  11.956  67.964  1.00  0.00    -0.189 A  
HETATM   16  C   UNL     1      -8.739  10.792  67.234  1.00  0.00    -0.130 A  
HETATM   17  C   UNL     1      -7.457  10.571  66.701  1.00  0.00    -0.120 A  
HETATM   18  C   UNL     1      -6.448  11.503  66.892  1.00  0.00    -0.144 A  
HETATM   19  C   UNL     1      -6.740  12.675  67.571  1.00  0.00    -0.156 A  
HETATM   20  C   UNL     1      -8.042  12.905  68.054  1.00  0.00    -0.159 A  
HETATM   21  C   UNL     1      -8.284  14.251  68.576  1.00  0.00    -0.145 C  
HETATM   22  O   UNL     1      -7.522  14.749  69.400  1.00  0.00    -0.163 OA 
ENDBRANCH   5   6
ENDBRANCH   4   5
ENDBRANCH   2   4
TORSDOF 3
ENDMDL
MODEL       78
REMARK 921   NORMALIZED FREE ENERGY PREDICTED BY IDOCK:   -4.63 KCAL/MOL
REMARK 922        TOTAL FREE ENERGY PREDICTED BY IDOCK:   -5.58 KCAL/MOL
REMARK 923 INTER-LIGAND FREE ENERGY PREDICTED BY IDOCK:   -5.29 KCAL/MOL
REMARK 924 INTRA-LIGAND FREE ENERGY PREDICTED BY IDOCK:   -0.28 KCAL/MOL
REMARK 927      BINDING AFFINITY PREDICTED BY RF-SCORE:    0.00 PKD
ROOT
HETATM    1  C   UNL     1     -12.545  14.073  64.843  1.00  0.00    -0.342 C  
HETATM    2  N   UNL     1     -12.046  12.697  64.713  1.00  0.00    -0.411 NA 
HETATM    3  C   UNL     1     -12.624  12.083  63.517  1.00  0.00    -0.507 C  
ENDROOT
BRANCH   2   4
HETATM    4  C   UNL     1     -10.569  12.725  64.680  1.00  0.00    -0.349 C  
BRANCH   4   5
HETATM    5  C   UNL     1      -9.848  11.838  65.717  1.00  0.00    -0.240 C  
BRANCH   5   6
HETATM    6  N   UNL     1     -10.462  11.904  67.066  1.00  0.00    -0.219 N  
HETATM    7  C   UNL     1      -9.984  10.931  67.980  1.00  0.00    -0.171 A  
HETATM    8  C   UNL     1     -10.855   9.836  68.166  1.00  0.00    -0.264 A  
HETATM    9  C   UNL     1     -10.536   8.824  69.054  1.00  0.00    -0.220 A  
HETATM   10  C   UNL     1      -9.347   8.909  69.756  1.00  0.00    -0.169 A  
HETATM   11  C   UNL     1      -8.490  10.014  69.582  1.00  0.00    -0.193 A  
HETATM   12  C   UNL     1      -8.767  11.082  68.697  1.00  0.00    -0.161 A  
HETATM   13  N   UNL     1      -7.880  12.200  68.527  1.00  0.00    -0.136 NA 
HETATM   14  C   UNL     1      -6.537  12.111  69.140  1.00  0.00    -0.106 C  
HETATM   15  C   UNL     1      -8.123  13.493  67.932  1.00  0.00    -0.165 A  
HETATM   16  C   UNL     1      -7.064  14.377  67.613  1.00  0.00    -0.202 A  
HETATM   17  C   UNL     1      -7.273  15.670  67.101  1.00  0.00    -0.230 A  
HETATM   18  C   UNL     1      -8.560  16.145  66.901  1.00  0.00    -0.253 A  
HETATM   19  C   UNL     1      -9.630  15.307  67.166  1.00  0.00    -0.223 A  
HETATM   20  C   UNL     1      -9.404  13.997  67.629  1.00  0.00    -0.203 A  
HETATM   21  C   UNL     1     -10.591  13.142  67.685  1.00  0.00    -0.228 C  
HETATM   22  O   UNL     1     -11.615  13.528  68.242  1.00  0.00    -0.301 OA 
ENDBRANCH   5   6
ENDBRANCH   4   5
ENDBRANCH   2   4
TORSDOF 3
ENDMDL
MODEL       79
REMARK 921   NORMALIZED FREE ENERGY PREDICTED BY IDOCK:   -4.59 KCAL/MOL
REMARK 922        TOTAL FREE ENERGY PREDICTED BY IDOCK:   -5.53 KCAL/MOL
REMARK 923 INTER-LIGAND FREE ENERGY PREDICTED BY IDOCK:   -5.38 KCAL/MOL
REMARK 924 INTRA-LIGAND FREE ENERGY PREDICTED BY IDOCK:   -0.14 KCAL/MOL
REMARK 927      BINDING AFFINITY PREDICTED BY RF-SCORE:    0.00 PKD
ROOT
HETATM    1  C   UNL     1      -6.353   8.039  72.887  1.00  0.00    -0.075 C  
HETATM    2  N   UNL     1      -7.081   9.020  72.072  1.00  0.00    -0.317 NA 
HETATM    3  C   UNL     1      -6.348   9.256  70.828  1.00  0.00    -0.074 C  
ENDROOT
BRANCH   2   4
HETATM    4  C   UNL     1      -8.453   8.524  71.837  1.00  0.00    -0.170 C  
BRANCH   4   5
HETATM    5  C   UNL     1      -8.853   8.298  70.364  1.00  0.00    -0.141 C  
BRANCH   5   6
HETATM    6  N   UNL     1     -10.289   7.966  70.195  1.00  0.00    -0.211 N  
HETATM    7  C   UNL     1     -11.181   9.012  70.549  1.00  0.00    -0.260 A  
HETATM    8  C   UNL     1     -11.789   8.850  71.812  1.00  0.00    -0.429 A  
HETATM    9  C   UNL     1     -12.707   9.775  72.276  1.00  0.00    -0.333 A  
HETATM   10  C   UNL     1     -13.018  10.860  71.476  1.00  0.00    -0.556 A  
HETATM   11  C   UNL     1     -12.425  11.005  70.207  1.00  0.00    -0.365 A  
HETATM   12  C   UNL     1     -11.487  10.089  69.675  1.00  0.00    -0.155 A  
HETATM   13  N   UNL     1     -10.886  10.255  68.380  1.00  0.00    -0.229 NA 
HETATM   14  C   UNL     1     -11.099  11.543  67.684  1.00  0.00    -0.266 C  
HETATM   15  C   UNL     1     -10.176   9.303  67.559  1.00  0.00    -0.242 A  
HETATM   16  C   UNL     1      -9.425   9.708  66.429  1.00  0.00    -0.244 A  
HETATM   17  C   UNL     1      -8.783   8.799  65.571  1.00  0.00    -0.217 A  
HETATM   18  C   UNL     1      -8.878   7.434  65.796  1.00  0.00    -0.106 A  
HETATM   19  C   UNL     1      -9.573   6.987  66.908  1.00  0.00    -0.214 A  
HETATM   20  C   UNL     1     -10.168   7.912  67.787  1.00  0.00    -0.276 A  
HETATM   21  C   UNL     1     -10.701   7.340  69.025  1.00  0.00    -0.166 C  
HETATM   22  O   UNL     1     -11.452   6.370  68.993  1.00  0.00    -0.337 OA 
ENDBRANCH   5   6
ENDBRANCH   4   5
ENDBRANCH   2   4
TORSDOF 3
ENDMDL
MODEL       80
REMARK 921   NORMALIZED FREE ENERGY PREDICTED BY IDOCK:   -4.59 KCAL/MOL
REMARK 922        TOTAL FREE ENERGY PREDICTED BY IDOCK:   -5.53 KCAL/MOL
REMARK 923 INTER-LIGAND FREE ENERGY PREDICTED BY IDOCK:   -5.20 KCAL/MOL
REMARK 924 INTRA-LIGAND FREE ENERGY PREDICTED BY IDOCK:   -0.33 KCAL/MOL
REMARK 927      BINDING AFFINITY PREDICTED BY RF-SCORE:    0.00 PKD
ROOT
HETATM    1  C   UNL     1     -10.487   9.607  70.885  1.00  0.00    -0.289 C  
HETATM    2  N   UNL     1     -11.566  10.033  69.984  1.00  0.00    -0.239 NA 
HETATM    3  C   UNL     1     -12.193  11.243  70.517  1.00  0.00    -0.383 C  
ENDROOT
BRANCH   2   4
HETATM    4  C   UNL     1     -11.007  10.232  68.630  1.00  0.00    -0.244 C  
BRANCH   4   5
HETATM    5  C   UNL     1     -10.940  11.690  68.129  1.00  0.00    -0.226 C  
BRANCH   5   6
HETATM    6  N   UNL     1     -10.457  11.802  66.730  1.00  0.00    -0.219 N  
HETATM    7  C   UNL     1     -10.951  12.929  66.024  1.00  0.00    -0.276 A  
HETATM    8  C   UNL     1     -12.001  12.635  65.128  1.00  0.00    -0.474 A  
HETATM    9  C   UNL     1     -12.561  13.630  64.347  1.00  0.00    -0.220 A  
HETATM   10  C   UNL     1     -12.069  14.918  64.461  1.00  0.00    -0.420 A  
HETATM   11  C   UNL     1     -11.007  15.202  65.341  1.00  0.00    -0.381 A  
HETATM   12  C   UNL     1     -10.389  14.227  66.158  1.00  0.00    -0.299 A  
HETATM   13  N   UNL     1      -9.310  14.534  67.055  1.00  0.00    -0.228 NA 
HETATM   14  C   UNL     1      -8.990  15.960  67.283  1.00  0.00    -0.195 C  
HETATM   15  C   UNL     1      -8.372  13.654  67.714  1.00  0.00    -0.181 A  
HETATM   16  C   UNL     1      -7.541  14.106  68.768  1.00  0.00    -0.125 A  
HETATM   17  C   UNL     1      -6.570  13.294  69.379  1.00  0.00    -0.069 A  
HETATM   18  C   UNL     1      -6.373  11.991  68.948  1.00  0.00    -0.081 A  
HETATM   19  C   UNL     1      -7.184  11.490  67.942  1.00  0.00    -0.085 A  
HETATM   20  C   UNL     1      -8.187  12.299  67.375  1.00  0.00    -0.178 A  
HETATM   21  C   UNL     1      -9.106  11.609  66.468  1.00  0.00    -0.197 C  
HETATM   22  O   UNL     1      -8.677  10.909  65.556  1.00  0.00    -0.187 OA 
ENDBRANCH   5   6
ENDBRANCH   4   5
ENDBRANCH   2   4
TORSDOF 3
ENDMDL
MODEL       81
REMARK 921   NORMALIZED FREE ENERGY PREDICTED BY IDOCK:   -4.59 KCAL/MOL
REMARK 922        TOTAL FREE ENERGY PREDICTED BY IDOCK:   -5.53 KCAL/MOL
REMARK 923 INTER-LIGAND FREE ENERGY PREDICTED BY IDOCK:   -5.36 KCAL/MOL
REMARK 924 INTRA-LIGAND FREE ENERGY PREDICTED BY IDOCK:   -0.16 KCAL/MOL
REMARK 927      BINDING AFFINITY PREDICTED BY RF-SCORE:    0.00 PKD
ROOT
HETATM    1  C   UNL     1      -5.802  13.100  67.995  1.00  0.00    -0.116 C  
HETATM    2  N   UNL     1      -7.044  12.996  68.771  1.00  0.00    -0.103 NA 
HETATM    3  C   UNL     1      -8.050  13.890  68.198  1.00  0.00    -0.150 C  
ENDROOT
BRANCH   2   4
HETATM    4  C   UNL     1      -7.481  11.584  68.786  1.00  0.00    -0.119 C  
BRANCH   4   5
HETATM    5  C   UNL     1      -7.866  10.976  67.421  1.00  0.00    -0.118 C  
BRANCH   5   6
HETATM    6  N   UNL     1      -8.971   9.989  67.515  1.00  0.00    -0.134 N  
HETATM    7  C   UNL     1      -9.739  10.076  68.704  1.00  0.00    -0.159 A  
HETATM    8  C   UNL     1      -9.425   9.093  69.668  1.00  0.00    -0.178 A  
HETATM    9  C   UNL     1     -10.116   9.034  70.865  1.00  0.00    -0.329 A  
HETATM   10  C   UNL     1     -11.121   9.956  71.097  1.00  0.00    -0.359 A  
HETATM   11  C   UNL     1     -11.445  10.921  70.124  1.00  0.00    -0.405 A  
HETATM   12  C   UNL     1     -10.781  11.026  68.879  1.00  0.00    -0.211 A  
HETATM   13  N   UNL     1     -11.119  12.020  67.898  1.00  0.00    -0.221 NA 
HETATM   14  C   UNL     1     -12.045  13.099  68.305  1.00  0.00    -0.179 C  
HETATM   15  C   UNL     1     -10.786  12.089  66.495  1.00  0.00    -0.277 A  
HETATM   16  C   UNL     1     -10.981  13.271  65.740  1.00  0.00    -0.284 A  
HETATM   17  C   UNL     1     -10.735  13.346  64.358  1.00  0.00    -0.423 A  
HETATM   18  C   UNL     1     -10.296  12.230  63.662  1.00  0.00    -0.463 A  
HETATM   19  C   UNL     1     -10.058  11.058  64.361  1.00  0.00    -0.393 A  
HETATM   20  C   UNL     1     -10.260  11.012  65.752  1.00  0.00    -0.316 A  
HETATM   21  C   UNL     1      -9.790   9.792  66.411  1.00  0.00    -0.235 C  
HETATM   22  O   UNL     1     -10.113   8.687  65.983  1.00  0.00    -0.189 OA 
ENDBRANCH   5   6
ENDBRANCH   4   5
ENDBRANCH   2   4
TORSDOF 3
ENDMDL
MODEL       82
REMARK 921   NORMALIZED FREE ENERGY PREDICTED BY IDOCK:   -4.57 KCAL/MOL
REMARK 922        TOTAL FREE ENERGY PREDICTED BY IDOCK:   -5.51 KCAL/MOL
REMARK 923 INTER-LIGAND FREE ENERGY PREDICTED BY IDOCK:   -5.34 KCAL/MOL
REMARK 924 INTRA-LIGAND FREE ENERGY PREDICTED BY IDOCK:   -0.17 KCAL/MOL
REMARK 927      BINDING AFFINITY PREDICTED BY RF-SCORE:    0.00 PKD
ROOT
HETATM    1  C   UNL     1      -6.685   7.411  70.192  1.00  0.00    -0.050 C  
HETATM    2  N   UNL     1      -6.787   8.871  70.319  1.00  0.00    -0.041 NA 
HETATM    3  C   UNL     1      -6.344   9.498  69.073  1.00  0.00    -0.042 C  
ENDROOT
BRANCH   2   4
HETATM    4  C   UNL     1      -8.178   9.225  70.670  1.00  0.00    -0.190 C  
BRANCH   4   5
HETATM    5  C   UNL     1      -8.900  10.188  69.704  1.00  0.00    -0.164 C  
BRANCH   5   6
HETATM    6  N   UNL     1     -10.219   9.679  69.254  1.00  0.00    -0.194 N  
HETATM    7  C   UNL     1     -11.203   9.608  70.273  1.00  0.00    -0.271 A  
HETATM    8  C   UNL     1     -11.416   8.309  70.782  1.00  0.00    -0.268 A  
HETATM    9  C   UNL     1     -12.370   8.081  71.757  1.00  0.00    -0.352 A  
HETATM   10  C   UNL     1     -13.111   9.153  72.223  1.00  0.00    -0.509 A  
HETATM   11  C   UNL     1     -12.909  10.444  71.698  1.00  0.00    -0.579 A  
HETATM   12  C   UNL     1     -11.957  10.737  70.694  1.00  0.00    -0.367 A  
HETATM   13  N   UNL     1     -11.759  12.061  70.172  1.00  0.00    -0.282 NA 
HETATM   14  C   UNL     1     -12.426  13.181  70.870  1.00  0.00    -0.323 C  
HETATM   15  C   UNL     1     -11.085  12.492  68.970  1.00  0.00    -0.234 A  
HETATM   16  C   UNL     1     -10.758  13.852  68.746  1.00  0.00    -0.278 A  
HETATM   17  C   UNL     1     -10.168  14.312  67.556  1.00  0.00    -0.240 A  
HETATM   18  C   UNL     1      -9.893  13.429  66.523  1.00  0.00    -0.286 A  
HETATM   19  C   UNL     1     -10.162  12.082  66.705  1.00  0.00    -0.225 A  
HETATM   20  C   UNL     1     -10.706  11.629  67.922  1.00  0.00    -0.241 A  
HETATM   21  C   UNL     1     -10.763  10.175  68.076  1.00  0.00    -0.260 C  
HETATM   22  O   UNL     1     -11.259   9.472  67.199  1.00  0.00     0.060 OA 
ENDBRANCH   5   6
ENDBRANCH   4   5
ENDBRANCH   2   4
TORSDOF 3
ENDMDL
MODEL       83
REMARK 921   NORMALIZED FREE ENERGY PREDICTED BY IDOCK:   -4.52 KCAL/MOL
REMARK 922        TOTAL FREE ENERGY PREDICTED BY IDOCK:   -5.45 KCAL/MOL
REMARK 923 INTER-LIGAND FREE ENERGY PREDICTED BY IDOCK:   -5.09 KCAL/MOL
REMARK 924 INTRA-LIGAND FREE ENERGY PREDICTED BY IDOCK:   -0.36 KCAL/MOL
REMARK 927      BINDING AFFINITY PREDICTED BY RF-SCORE:    0.00 PKD
ROOT
HETATM    1  C   UNL     1      -6.622  10.922  68.977  1.00  0.00    -0.061 C  
HETATM    2  N   UNL     1      -6.019  11.994  68.174  1.00  0.00    -0.051 NA 
HETATM    3  C   UNL     1      -6.064  11.624  66.759  1.00  0.00    -0.134 C  
ENDROOT
BRANCH   2   4
HETATM    4  C   UNL     1      -6.732  13.259  68.453  1.00  0.00    -0.096 C  
BRANCH   4   5
HETATM    5  C   UNL     1      -7.870  13.629  67.478  1.00  0.00    -0.177 C  
BRANCH   5   6
HETATM    6  N   UNL     1      -9.163  13.876  68.162  1.00  0.00    -0.196 N  
HETATM    7  C   UNL     1      -9.603  15.224  68.121  1.00  0.00    -0.204 A  
HETATM    8  C   UNL     1      -9.385  15.939  69.319  1.00  0.00    -0.259 A  
HETATM    9  C   UNL     1      -9.793  17.256  69.438  1.00  0.00     0.024 A  
HETATM   10  C   UNL     1     -10.420  17.856  68.360  1.00  0.00    -0.338 A  
HETATM   11  C   UNL     1     -10.653  17.132  67.175  1.00  0.00    -0.244 A  
HETATM   12  C   UNL     1     -10.268  15.782  66.997  1.00  0.00    -0.280 A  
HETATM   13  N   UNL     1     -10.509  15.059  65.779  1.00  0.00    -0.315 NA 
HETATM   14  C   UNL     1     -10.979  15.827  64.605  1.00  0.00    -0.314 C  
HETATM   15  C   UNL     1     -10.477  13.638  65.523  1.00  0.00    -0.306 A  
HETATM   16  C   UNL     1     -10.482  13.118  64.206  1.00  0.00    -0.410 A  
HETATM   17  C   UNL     1     -10.524  11.741  63.926  1.00  0.00    -0.437 A  
HETATM   18  C   UNL     1     -10.582  10.817  64.959  1.00  0.00    -0.243 A  
HETATM   19  C   UNL     1     -10.545  11.274  66.266  1.00  0.00    -0.315 A  
HETATM   20  C   UNL     1     -10.451  12.653  66.531  1.00  0.00    -0.264 A  
HETATM   21  C   UNL     1     -10.221  13.004  67.933  1.00  0.00    -0.234 C  
HETATM   22  O   UNL     1     -10.928  12.536  68.820  1.00  0.00    -0.240 OA 
ENDBRANCH   5   6
ENDBRANCH   4   5
ENDBRANCH   2   4
TORSDOF 3
ENDMDL
MODEL       84
REMARK 921   NORMALIZED FREE ENERGY PREDICTED BY IDOCK:   -4.50 KCAL/MOL
REMARK 922        TOTAL FREE ENERGY PREDICTED BY IDOCK:   -5.43 KCAL/MOL
REMARK 923 INTER-LIGAND FREE ENERGY PREDICTED BY IDOCK:   -5.19 KCAL/MOL
REMARK 924 INTRA-LIGAND FREE ENERGY PREDICTED BY IDOCK:   -0.24 KCAL/MOL
REMARK 927      BINDING AFFINITY PREDICTED BY RF-SCORE:    0.00 PKD
ROOT
HETATM    1  C   UNL     1      -9.341   4.267  65.728  1.00  0.00    -0.164 C  
HETATM    2  N   UNL     1     -10.024   4.495  67.008  1.00  0.00    -0.200 NA 
HETATM    3  C   UNL     1      -9.089   4.254  68.106  1.00  0.00    -0.131 C  
ENDROOT
BRANCH   2   4
HETATM    4  C   UNL     1     -10.573   5.867  67.019  1.00  0.00    -0.305 C  
BRANCH   4   5
HETATM    5  C   UNL     1     -10.354   6.677  68.314  1.00  0.00    -0.190 C  
BRANCH   5   6
HETATM    6  N   UNL     1      -9.417   7.814  68.138  1.00  0.00    -0.145 N  
HETATM    7  C   UNL     1      -9.983   8.952  67.508  1.00  0.00    -0.203 A  
HETATM    8  C   UNL     1      -9.642   9.087  66.145  1.00  0.00    -0.341 A  
HETATM    9  C   UNL     1     -10.094  10.167  65.409  1.00  0.00    -0.342 A  
HETATM   10  C   UNL     1     -10.886  11.112  66.036  1.00  0.00    -0.230 A  
HETATM   11  C   UNL     1     -11.206  10.984  67.402  1.00  0.00    -0.355 A  
HETATM   12  C   UNL     1     -10.766   9.908  68.208  1.00  0.00    -0.234 A  
HETATM   13  N   UNL     1     -11.107   9.788  69.599  1.00  0.00    -0.235 NA 
HETATM   14  C   UNL     1     -12.130  10.711  70.138  1.00  0.00    -0.333 C  
HETATM   15  C   UNL     1     -10.519   8.965  70.629  1.00  0.00    -0.221 A  
HETATM   16  C   UNL     1     -11.149   8.779  71.884  1.00  0.00    -0.434 A  
HETATM   17  C   UNL     1     -10.568   8.043  72.931  1.00  0.00    -0.399 A  
HETATM   18  C   UNL     1      -9.315   7.472  72.775  1.00  0.00    -0.217 A  
HETATM   19  C   UNL     1      -8.671   7.596  71.554  1.00  0.00    -0.131 A  
HETATM   20  C   UNL     1      -9.288   8.292  70.498  1.00  0.00    -0.169 A  
HETATM   21  C   UNL     1      -8.610   8.190  69.205  1.00  0.00    -0.136 C  
HETATM   22  O   UNL     1      -7.408   8.421  69.109  1.00  0.00    -0.076 OA 
ENDBRANCH   5   6
ENDBRANCH   4   5
ENDBRANCH   2   4
TORSDOF 3
ENDMDL
MODEL       85
REMARK 921   NORMALIZED FREE ENERGY PREDICTED BY IDOCK:   -4.50 KCAL/MOL
REMARK 922        TOTAL FREE ENERGY PREDICTED BY IDOCK:   -5.42 KCAL/MOL
REMARK 923 INTER-LIGAND FREE ENERGY PREDICTED BY IDOCK:   -5.20 KCAL/MOL
REMARK 924 INTRA-LIGAND FREE ENERGY PREDICTED BY IDOCK:   -0.22 KCAL/MOL
REMARK 927      BINDING AFFINITY PREDICTED BY RF-SCORE:    0.00 PKD
ROOT
HETATM    1  C   UNL     1     -10.272  19.866  68.481  1.00  0.00    -0.409 C  
HETATM    2  N   UNL     1     -10.725  19.088  67.321  1.00  0.00    -0.472 NA 
HETATM    3  C   UNL     1     -10.308  19.762  66.091  1.00  0.00    -0.524 C  
ENDROOT
BRANCH   2   4
HETATM    4  C   UNL     1     -10.188  17.715  67.426  1.00  0.00    -0.345 C  
BRANCH   4   5
HETATM    5  C   UNL     1      -8.929  17.542  68.302  1.00  0.00    -0.267 C  
BRANCH   5   6
HETATM    6  N   UNL     1      -7.672  17.858  67.580  1.00  0.00    -0.209 N  
HETATM    7  C   UNL     1      -6.889  18.878  68.178  1.00  0.00    -0.241 A  
HETATM    8  C   UNL     1      -6.999  20.136  67.548  1.00  0.00    -0.301 A  
HETATM    9  C   UNL     1      -6.267  21.219  68.002  1.00  0.00    -0.281 A  
HETATM   10  C   UNL     1      -5.425  21.042  69.085  1.00  0.00    -0.375 A  
HETATM   11  C   UNL     1      -5.302  19.780  69.698  1.00  0.00    -0.232 A  
HETATM   12  C   UNL     1      -6.016  18.635  69.273  1.00  0.00    -0.241 A  
HETATM   13  N   UNL     1      -5.885  17.355  69.913  1.00  0.00    -0.248 NA 
HETATM   14  C   UNL     1      -5.141  17.299  71.190  1.00  0.00    -0.134 C  
HETATM   15  C   UNL     1      -6.272  16.043  69.450  1.00  0.00    -0.159 A  
HETATM   16  C   UNL     1      -6.306  14.926  70.320  1.00  0.00    -0.138 A  
HETATM   17  C   UNL     1      -6.608  13.625  69.883  1.00  0.00     0.032 A  
HETATM   18  C   UNL     1      -6.876  13.378  68.545  1.00  0.00    -0.099 A  
HETATM   19  C   UNL     1      -6.889  14.443  67.659  1.00  0.00    -0.202 A  
HETATM   20  C   UNL     1      -6.634  15.748  68.120  1.00  0.00    -0.136 A  
HETATM   21  C   UNL     1      -6.869  16.812  67.141  1.00  0.00    -0.196 C  
HETATM   22  O   UNL     1      -6.379  16.746  66.017  1.00  0.00    -0.022 OA 
ENDBRANCH   5   6
ENDBRANCH   4   5
ENDBRANCH   2   4
TORSDOF 3
ENDMDL
MODEL       86
REMARK 921   NORMALIZED FREE ENERGY PREDICTED BY IDOCK:   -4.48 KCAL/MOL
REMARK 922        TOTAL FREE ENERGY PREDICTED BY IDOCK:   -5.40 KCAL/MOL
REMARK 923 INTER-LIGAND FREE ENERGY PREDICTED BY IDOCK:   -5.18 KCAL/MOL
REMARK 924 INTRA-LIGAND FREE ENERGY PREDICTED BY IDOCK:   -0.22 KCAL/MOL
REMARK 927      BINDING AFFINITY PREDICTED BY RF-SCORE:    0.00 PKD
ROOT
HETATM    1  C   UNL     1     -13.209   6.927  71.228  1.00  0.00    -0.158 C  
HETATM    2  N   UNL     1     -13.217   8.378  71.456  1.00  0.00    -0.316 NA 
HETATM    3  C   UNL     1     -14.380   8.734  72.270  1.00  0.00    -0.380 C  
ENDROOT
BRANCH   2   4
HETATM    4  C   UNL     1     -11.940   8.770  72.088  1.00  0.00    -0.366 C  
BRANCH   4   5
HETATM    5  C   UNL     1     -10.979   9.608  71.219  1.00  0.00    -0.329 C  
BRANCH   5   6
HETATM    6  N   UNL     1      -9.648   8.975  71.047  1.00  0.00    -0.255 N  
HETATM    7  C   UNL     1      -9.685   7.570  70.856  1.00  0.00    -0.173 A  
HETATM    8  C   UNL     1      -9.356   6.821  72.006  1.00  0.00    -0.144 A  
HETATM    9  C   UNL     1      -9.317   5.439  71.961  1.00  0.00    -0.163 A  
HETATM   10  C   UNL     1      -9.606   4.807  70.765  1.00  0.00    -0.249 A  
HETATM   11  C   UNL     1      -9.914   5.558  69.614  1.00  0.00    -0.282 A  
HETATM   12  C   UNL     1      -9.959   6.972  69.596  1.00  0.00    -0.173 A  
HETATM   13  N   UNL     1     -10.280   7.725  68.415  1.00  0.00    -0.196 NA 
HETATM   14  C   UNL     1     -10.789   6.980  67.243  1.00  0.00    -0.333 C  
HETATM   15  C   UNL     1     -10.077   9.125  68.125  1.00  0.00    -0.189 A  
HETATM   16  C   UNL     1     -10.691   9.752  67.013  1.00  0.00    -0.236 A  
HETATM   17  C   UNL     1     -10.455  11.093  66.664  1.00  0.00    -0.298 A  
HETATM   18  C   UNL     1      -9.576  11.867  67.405  1.00  0.00    -0.176 A  
HETATM   19  C   UNL     1      -8.976  11.310  68.523  1.00  0.00    -0.166 A  
HETATM   20  C   UNL     1      -9.261   9.982  68.890  1.00  0.00    -0.169 A  
HETATM   21  C   UNL     1      -8.729   9.566  70.189  1.00  0.00    -0.230 C  
HETATM   22  O   UNL     1      -7.548   9.751  70.470  1.00  0.00    -0.194 OA 
ENDBRANCH   5   6
ENDBRANCH   4   5
ENDBRANCH   2   4
TORSDOF 3
ENDMDL
MODEL       87
REMARK 921   NORMALIZED FREE ENERGY PREDICTED BY IDOCK:   -4.47 KCAL/MOL
REMARK 922        TOTAL FREE ENERGY PREDICTED BY IDOCK:   -5.38 KCAL/MOL
REMARK 923 INTER-LIGAND FREE ENERGY PREDICTED BY IDOCK:   -4.80 KCAL/MOL
REMARK 924 INTRA-LIGAND FREE ENERGY PREDICTED BY IDOCK:   -0.58 KCAL/MOL
REMARK 927      BINDING AFFINITY PREDICTED BY RF-SCORE:    0.00 PKD
ROOT
HETATM    1  C   UNL     1      -8.901   9.229  64.893  1.00  0.00    -0.193 C  
HETATM    2  N   UNL     1      -9.334  10.578  64.508  1.00  0.00    -0.230 NA 
HETATM    3  C   UNL     1      -9.781  10.565  63.115  1.00  0.00    -0.305 C  
ENDROOT
BRANCH   2   4
HETATM    4  C   UNL     1     -10.392  11.025  65.440  1.00  0.00    -0.268 C  
BRANCH   4   5
HETATM    5  C   UNL     1     -10.487  10.262  66.778  1.00  0.00    -0.214 C  
BRANCH   5   6
HETATM    6  N   UNL     1     -10.325  11.142  67.961  1.00  0.00    -0.179 N  
HETATM    7  C   UNL     1     -10.763  10.572  69.184  1.00  0.00    -0.231 A  
HETATM    8  C   UNL     1     -12.025  11.031  69.618  1.00  0.00    -0.424 A  
HETATM    9  C   UNL     1     -12.565  10.588  70.811  1.00  0.00    -0.474 A  
HETATM   10  C   UNL     1     -11.843   9.685  71.571  1.00  0.00    -0.483 A  
HETATM   11  C   UNL     1     -10.574   9.245  71.145  1.00  0.00    -0.402 A  
HETATM   12  C   UNL     1      -9.966   9.671  69.940  1.00  0.00    -0.241 A  
HETATM   13  N   UNL     1      -8.674   9.208  69.516  1.00  0.00    -0.134 NA 
HETATM   14  C   UNL     1      -8.066   8.086  70.265  1.00  0.00    -0.113 C  
HETATM   15  C   UNL     1      -7.779   9.744  68.517  1.00  0.00    -0.081 A  
HETATM   16  C   UNL     1      -6.663   9.010  68.046  1.00  0.00    -0.068 A  
HETATM   17  C   UNL     1      -5.735   9.533  67.128  1.00  0.00    -0.047 A  
HETATM   18  C   UNL     1      -5.874  10.827  66.651  1.00  0.00    -0.084 A  
HETATM   19  C   UNL     1      -6.969  11.575  67.055  1.00  0.00    -0.145 A  
HETATM   20  C   UNL     1      -7.917  11.020  67.934  1.00  0.00    -0.112 A  
HETATM   21  C   UNL     1      -9.126  11.821  68.134  1.00  0.00    -0.185 C  
HETATM   22  O   UNL     1      -9.046  13.011  68.426  1.00  0.00    -0.191 OA 
ENDBRANCH   5   6
ENDBRANCH   4   5
ENDBRANCH   2   4
TORSDOF 3
ENDMDL
MODEL       88
REMARK 921   NORMALIZED FREE ENERGY PREDICTED BY IDOCK:   -4.45 KCAL/MOL
REMARK 922        TOTAL FREE ENERGY PREDICTED BY IDOCK:   -5.36 KCAL/MOL
REMARK 923 INTER-LIGAND FREE ENERGY PREDICTED BY IDOCK:   -5.04 KCAL/MOL
REMARK 924 INTRA-LIGAND FREE ENERGY PREDICTED BY IDOCK:   -0.32 KCAL/MOL
REMARK 927      BINDING AFFINITY PREDICTED BY RF-SCORE:    0.00 PKD
ROOT
HETATM    1  C   UNL     1      -5.552  12.392  67.520  1.00  0.00    -0.130 C  
HETATM    2  N   UNL     1      -6.532  13.172  68.287  1.00  0.00    -0.085 NA 
HETATM    3  C   UNL     1      -6.133  14.579  68.293  1.00  0.00    -0.118 C  
ENDROOT
BRANCH   2   4
HETATM    4  C   UNL     1      -7.873  12.964  67.702  1.00  0.00    -0.168 C  
BRANCH   4   5
HETATM    5  C   UNL     1      -8.621  11.690  68.148  1.00  0.00    -0.158 C  
BRANCH   5   6
HETATM    6  N   UNL     1      -9.609  11.216  67.148  1.00  0.00    -0.172 N  
HETATM    7  C   UNL     1      -9.258  10.003  66.501  1.00  0.00    -0.150 A  
HETATM    8  C   UNL     1      -8.743  10.171  65.198  1.00  0.00    -0.189 A  
HETATM    9  C   UNL     1      -8.388   9.075  64.433  1.00  0.00    -0.183 A  
HETATM   10  C   UNL     1      -8.551   7.811  64.971  1.00  0.00     0.015 A  
HETATM   11  C   UNL     1      -9.085   7.647  66.264  1.00  0.00    -0.204 A  
HETATM   12  C   UNL     1      -9.474   8.728  67.089  1.00  0.00    -0.162 A  
HETATM   13  N   UNL     1     -10.012   8.544  68.408  1.00  0.00    -0.181 NA 
HETATM   14  C   UNL     1      -9.949   7.187  68.994  1.00  0.00    -0.174 C  
HETATM   15  C   UNL     1     -10.734   9.468  69.252  1.00  0.00    -0.222 A  
HETATM   16  C   UNL     1     -10.961   9.203  70.624  1.00  0.00    -0.319 A  
HETATM   17  C   UNL     1     -11.721  10.047  71.452  1.00  0.00    -0.414 A  
HETATM   18  C   UNL     1     -12.307  11.193  70.936  1.00  0.00    -0.500 A  
HETATM   19  C   UNL     1     -12.087  11.515  69.607  1.00  0.00    -0.363 A  
HETATM   20  C   UNL     1     -11.281  10.687  68.803  1.00  0.00    -0.337 A  
HETATM   21  C   UNL     1     -10.958  11.225  67.481  1.00  0.00    -0.265 C  
HETATM   22  O   UNL     1     -11.844  11.655  66.747  1.00  0.00    -0.557 OA 
ENDBRANCH   5   6
ENDBRANCH   4   5
ENDBRANCH   2   4
TORSDOF 3
ENDMDL
MODEL       89
REMARK 921   NORMALIZED FREE ENERGY PREDICTED BY IDOCK:   -4.43 KCAL/MOL
REMARK 922        TOTAL FREE ENERGY PREDICTED BY IDOCK:   -5.34 KCAL/MOL
REMARK 923 INTER-LIGAND FREE ENERGY PREDICTED BY IDOCK:   -4.91 KCAL/MOL
REMARK 924 INTRA-LIGAND FREE ENERGY PREDICTED BY IDOCK:   -0.43 KCAL/MOL
REMARK 927      BINDING AFFINITY PREDICTED BY RF-SCORE:    0.00 PKD
ROOT
HETATM    1  C   UNL     1      -6.337   8.942  65.620  1.00  0.00    -0.060 C  
HETATM    2  N   UNL     1      -6.916   9.939  64.711  1.00  0.00    -0.127 NA 
HETATM    3  C   UNL     1      -6.209   9.896  63.431  1.00  0.00    -0.121 C  
ENDROOT
BRANCH   2   4
HETATM    4  C   UNL     1      -8.363   9.675  64.569  1.00  0.00    -0.169 C  
BRANCH   4   5
HETATM    5  C   UNL     1      -9.262  10.173  65.721  1.00  0.00    -0.178 C  
BRANCH   5   6
HETATM    6  N   UNL     1      -9.016  11.592  66.078  1.00  0.00    -0.202 N  
HETATM    7  C   UNL     1     -10.172  12.413  66.062  1.00  0.00    -0.245 A  
HETATM    8  C   UNL     1     -10.289  13.225  64.914  1.00  0.00    -0.368 A  
HETATM    9  C   UNL     1     -11.349  14.103  64.775  1.00  0.00    -0.371 A  
HETATM   10  C   UNL     1     -12.292  14.168  65.786  1.00  0.00    -0.481 A  
HETATM   11  C   UNL     1     -12.160  13.371  66.939  1.00  0.00    -0.406 A  
HETATM   12  C   UNL     1     -11.094  12.463  67.142  1.00  0.00    -0.280 A  
HETATM   13  N   UNL     1     -10.977  11.652  68.322  1.00  0.00    -0.211 NA 
HETATM   14  C   UNL     1     -12.130  11.616  69.248  1.00  0.00    -0.259 C  
HETATM   15  C   UNL     1      -9.841  10.926  68.838  1.00  0.00    -0.192 A  
HETATM   16  C   UNL     1      -9.977   9.968  69.873  1.00  0.00    -0.280 A  
HETATM   17  C   UNL     1      -8.881   9.298  70.445  1.00  0.00    -0.271 A  
HETATM   18  C   UNL     1      -7.591   9.571  70.017  1.00  0.00    -0.134 A  
HETATM   19  C   UNL     1      -7.407  10.475  68.983  1.00  0.00    -0.103 A  
HETATM   20  C   UNL     1      -8.518  11.100  68.386  1.00  0.00    -0.151 A  
HETATM   21  C   UNL     1      -8.222  11.878  67.181  1.00  0.00    -0.171 C  
HETATM   22  O   UNL     1      -7.321  12.713  67.182  1.00  0.00    -0.127 OA 
ENDBRANCH   5   6
ENDBRANCH   4   5
ENDBRANCH   2   4
TORSDOF 3
ENDMDL
MODEL       90
REMARK 921   NORMALIZED FREE ENERGY PREDICTED BY IDOCK:   -4.42 KCAL/MOL
REMARK 922        TOTAL FREE ENERGY PREDICTED BY IDOCK:   -5.33 KCAL/MOL
REMARK 923 INTER-LIGAND FREE ENERGY PREDICTED BY IDOCK:   -5.30 KCAL/MOL
REMARK 924 INTRA-LIGAND FREE ENERGY PREDICTED BY IDOCK:   -0.02 KCAL/MOL
REMARK 927      BINDING AFFINITY PREDICTED BY RF-SCORE:    0.00 PKD
ROOT
HETATM    1  C   UNL     1     -10.311   5.343  67.200  1.00  0.00    -0.236 C  
HETATM    2  N   UNL     1     -10.986   6.588  67.592  1.00  0.00    -0.331 NA 
HETATM    3  C   UNL     1     -10.990   6.699  69.051  1.00  0.00    -0.279 C  
ENDROOT
BRANCH   2   4
HETATM    4  C   UNL     1     -10.307   7.726  66.938  1.00  0.00    -0.326 C  
BRANCH   4   5
HETATM    5  C   UNL     1     -10.843   9.131  67.287  1.00  0.00    -0.051 C  
BRANCH   5   6
HETATM    6  N   UNL     1      -9.765  10.118  67.542  1.00  0.00    -0.159 N  
HETATM    7  C   UNL     1      -8.478   9.709  67.110  1.00  0.00    -0.131 A  
HETATM    8  C   UNL     1      -7.639   9.248  68.147  1.00  0.00    -0.084 A  
HETATM    9  C   UNL     1      -6.342   8.847  67.880  1.00  0.00    -0.056 A  
HETATM   10  C   UNL     1      -5.885   8.910  66.576  1.00  0.00    -0.055 A  
HETATM   11  C   UNL     1      -6.718   9.391  65.547  1.00  0.00    -0.075 A  
HETATM   12  C   UNL     1      -8.048   9.823  65.760  1.00  0.00    -0.119 A  
HETATM   13  N   UNL     1      -8.888  10.306  64.699  1.00  0.00    -0.185 NA 
HETATM   14  C   UNL     1      -8.407  10.136  63.311  1.00  0.00    -0.170 C  
HETATM   15  C   UNL     1     -10.119  11.059  64.761  1.00  0.00    -0.308 A  
HETATM   16  C   UNL     1     -10.949  11.224  63.626  1.00  0.00    -0.369 A  
HETATM   17  C   UNL     1     -12.114  12.011  63.637  1.00  0.00    -0.627 A  
HETATM   18  C   UNL     1     -12.493  12.686  64.787  1.00  0.00    -0.555 A  
HETATM   19  C   UNL     1     -11.733  12.530  65.935  1.00  0.00    -0.480 A  
HETATM   20  C   UNL     1     -10.598  11.698  65.922  1.00  0.00    -0.318 A  
HETATM   21  C   UNL     1      -9.990  11.453  67.232  1.00  0.00    -0.194 C  
HETATM   22  O   UNL     1      -9.720  12.387  67.980  1.00  0.00    -0.198 OA 
ENDBRANCH   5   6
ENDBRANCH   4   5
ENDBRANCH   2   4
TORSDOF 3
ENDMDL
MODEL       91
REMARK 921   NORMALIZED FREE ENERGY PREDICTED BY IDOCK:   -4.41 KCAL/MOL
REMARK 922        TOTAL FREE ENERGY PREDICTED BY IDOCK:   -5.32 KCAL/MOL
REMARK 923 INTER-LIGAND FREE ENERGY PREDICTED BY IDOCK:   -4.91 KCAL/MOL
REMARK 924 INTRA-LIGAND FREE ENERGY PREDICTED BY IDOCK:   -0.41 KCAL/MOL
REMARK 927      BINDING AFFINITY PREDICTED BY RF-SCORE:    0.00 PKD
ROOT
HETATM    1  C   UNL     1     -12.684  11.024  70.654  1.00  0.00    -0.288 C  
HETATM    2  N   UNL     1     -11.783  10.453  69.644  1.00  0.00    -0.237 NA 
HETATM    3  C   UNL     1     -11.584  11.423  68.567  1.00  0.00    -0.318 C  
ENDROOT
BRANCH   2   4
HETATM    4  C   UNL     1     -10.517  10.062  70.299  1.00  0.00    -0.272 C  
BRANCH   4   5
HETATM    5  C   UNL     1      -9.823   8.802  69.741  1.00  0.00    -0.186 C  
BRANCH   5   6
HETATM    6  N   UNL     1     -10.733   7.634  69.639  1.00  0.00    -0.243 N  
HETATM    7  C   UNL     1     -10.301   6.627  68.738  1.00  0.00    -0.194 A  
HETATM    8  C   UNL     1     -10.965   6.643  67.492  1.00  0.00    -0.416 A  
HETATM    9  C   UNL     1     -10.671   5.699  66.525  1.00  0.00    -0.296 A  
HETATM   10  C   UNL     1      -9.715   4.739  66.804  1.00  0.00    -0.203 A  
HETATM   11  C   UNL     1      -9.071   4.714  68.056  1.00  0.00    -0.144 A  
HETATM   12  C   UNL     1      -9.335   5.646  69.087  1.00  0.00    -0.124 A  
HETATM   13  N   UNL     1      -8.665   5.612  70.357  1.00  0.00    -0.131 NA 
HETATM   14  C   UNL     1      -7.508   4.700  70.499  1.00  0.00    -0.053 C  
HETATM   15  C   UNL     1      -9.007   6.255  71.604  1.00  0.00    -0.144 A  
HETATM   16  C   UNL     1      -8.092   6.323  72.683  1.00  0.00    -0.106 A  
HETATM   17  C   UNL     1      -8.421   6.878  73.932  1.00  0.00    -0.161 A  
HETATM   18  C   UNL     1      -9.694   7.377  74.165  1.00  0.00    -0.113 A  
HETATM   19  C   UNL     1     -10.615   7.365  73.130  1.00  0.00    -0.424 A  
HETATM   20  C   UNL     1     -10.255   6.853  71.870  1.00  0.00    -0.206 A  
HETATM   21  C   UNL     1     -11.236   7.071  70.805  1.00  0.00    -0.285 C  
HETATM   22  O   UNL     1     -12.415   6.771  70.970  1.00  0.00    -0.367 OA 
ENDBRANCH   5   6
ENDBRANCH   4   5
ENDBRANCH   2   4
TORSDOF 3
ENDMDL
MODEL       92
REMARK 921   NORMALIZED FREE ENERGY PREDICTED BY IDOCK:   -4.40 KCAL/MOL
REMARK 922        TOTAL FREE ENERGY PREDICTED BY IDOCK:   -5.30 KCAL/MOL
REMARK 923 INTER-LIGAND FREE ENERGY PREDICTED BY IDOCK:   -4.88 KCAL/MOL
REMARK 924 INTRA-LIGAND FREE ENERGY PREDICTED BY IDOCK:   -0.43 KCAL/MOL
REMARK 927      BINDING AFFINITY PREDICTED BY RF-SCORE:    0.00 PKD
ROOT
HETATM    1  C   UNL     1      -8.724   5.012  65.557  1.00  0.00    -0.143 C  
HETATM    2  N   UNL     1      -9.790   5.515  66.433  1.00  0.00    -0.163 NA 
HETATM    3  C   UNL     1      -9.867   4.679  67.631  1.00  0.00    -0.141 C  
ENDROOT
BRANCH   2   4
HETATM    4  C   UNL     1      -9.520   6.934  66.747  1.00  0.00    -0.165 C  
BRANCH   4   5
HETATM    5  C   UNL     1     -10.399   7.567  67.847  1.00  0.00    -0.210 C  
BRANCH   5   6
HETATM    6  N   UNL     1      -9.675   8.574  68.661  1.00  0.00    -0.160 N  
HETATM    7  C   UNL     1     -10.493   9.608  69.184  1.00  0.00    -0.214 A  
HETATM    8  C   UNL     1     -10.407  10.826  68.477  1.00  0.00    -0.202 A  
HETATM    9  C   UNL     1     -11.124  11.935  68.891  1.00  0.00    -0.299 A  
HETATM   10  C   UNL     1     -11.926  11.824  70.013  1.00  0.00    -0.421 A  
HETATM   11  C   UNL     1     -11.993  10.612  70.728  1.00  0.00    -0.477 A  
HETATM   12  C   UNL     1     -11.276   9.449  70.359  1.00  0.00    -0.262 A  
HETATM   13  N   UNL     1     -11.359   8.218  71.095  1.00  0.00    -0.257 NA 
HETATM   14  C   UNL     1     -12.398   8.114  72.143  1.00  0.00    -0.338 C  
HETATM   15  C   UNL     1     -10.497   7.060  71.065  1.00  0.00    -0.212 A  
HETATM   16  C   UNL     1     -10.876   5.834  71.663  1.00  0.00    -0.316 A  
HETATM   17  C   UNL     1     -10.030   4.712  71.713  1.00  0.00    -0.260 A  
HETATM   18  C   UNL     1      -8.752   4.774  71.179  1.00  0.00    -0.138 A  
HETATM   19  C   UNL     1      -8.345   5.941  70.552  1.00  0.00    -0.123 A  
HETATM   20  C   UNL     1      -9.222   7.038  70.464  1.00  0.00    -0.159 A  
HETATM   21  C   UNL     1      -8.763   8.137  69.614  1.00  0.00    -0.142 C  
HETATM   22  O   UNL     1      -7.639   8.610  69.756  1.00  0.00    -0.075 OA 
ENDBRANCH   5   6
ENDBRANCH   4   5
ENDBRANCH   2   4
TORSDOF 3
ENDMDL
MODEL       93
REMARK 921   NORMALIZED FREE ENERGY PREDICTED BY IDOCK:   -4.39 KCAL/MOL
REMARK 922        TOTAL FREE ENERGY PREDICTED BY IDOCK:   -5.30 KCAL/MOL
REMARK 923 INTER-LIGAND FREE ENERGY PREDICTED BY IDOCK:   -5.06 KCAL/MOL
REMARK 924 INTRA-LIGAND FREE ENERGY PREDICTED BY IDOCK:   -0.24 KCAL/MOL
REMARK 927      BINDING AFFINITY PREDICTED BY RF-SCORE:    0.00 PKD
ROOT
HETATM    1  C   UNL     1     -12.668  12.138  63.513  1.00  0.00    -0.431 C  
HETATM    2  N   UNL     1     -11.443  12.940  63.388  1.00  0.00    -0.434 NA 
HETATM    3  C   UNL     1     -11.460  14.009  64.386  1.00  0.00    -0.344 C  
ENDROOT
BRANCH   2   4
HETATM    4  C   UNL     1     -10.272  12.049  63.528  1.00  0.00    -0.450 C  
BRANCH   4   5
HETATM    5  C   UNL     1     -10.339  11.011  64.668  1.00  0.00    -0.345 C  
BRANCH   5   6
HETATM    6  N   UNL     1      -9.734  11.496  65.932  1.00  0.00    -0.225 N  
HETATM    7  C   UNL     1     -10.588  11.422  67.062  1.00  0.00    -0.248 A  
HETATM    8  C   UNL     1     -11.167  12.656  67.430  1.00  0.00    -0.337 A  
HETATM    9  C   UNL     1     -11.998  12.744  68.533  1.00  0.00    -0.265 A  
HETATM   10  C   UNL     1     -12.247  11.599  69.268  1.00  0.00    -0.228 A  
HETATM   11  C   UNL     1     -11.651  10.374  68.909  1.00  0.00    -0.208 A  
HETATM   12  C   UNL     1     -10.787  10.224  67.799  1.00  0.00    -0.292 A  
HETATM   13  N   UNL     1     -10.191   8.967  67.442  1.00  0.00    -0.229 NA 
HETATM   14  C   UNL     1     -10.676   7.754  68.137  1.00  0.00    -0.051 C  
HETATM   15  C   UNL     1      -9.076   8.684  66.568  1.00  0.00    -0.165 A  
HETATM   16  C   UNL     1      -8.790   7.369  66.127  1.00  0.00    -0.185 A  
HETATM   17  C   UNL     1      -7.672   7.053  65.336  1.00  0.00    -0.111 A  
HETATM   18  C   UNL     1      -6.775   8.041  64.963  1.00  0.00    -0.051 A  
HETATM   19  C   UNL     1      -7.028   9.350  65.341  1.00  0.00    -0.090 A  
HETATM   20  C   UNL     1      -8.179   9.659  66.089  1.00  0.00    -0.115 A  
HETATM   21  C   UNL     1      -8.446  11.089  66.260  1.00  0.00    -0.165 C  
HETATM   22  O   UNL     1      -7.567  11.846  66.659  1.00  0.00    -0.085 OA 
ENDBRANCH   5   6
ENDBRANCH   4   5
ENDBRANCH   2   4
TORSDOF 3
ENDMDL
MODEL       94
REMARK 921   NORMALIZED FREE ENERGY PREDICTED BY IDOCK:   -4.39 KCAL/MOL
REMARK 922        TOTAL FREE ENERGY PREDICTED BY IDOCK:   -5.30 KCAL/MOL
REMARK 923 INTER-LIGAND FREE ENERGY PREDICTED BY IDOCK:   -5.03 KCAL/MOL
REMARK 924 INTRA-LIGAND FREE ENERGY PREDICTED BY IDOCK:   -0.27 KCAL/MOL
REMARK 927      BINDING AFFINITY PREDICTED BY RF-SCORE:    0.00 PKD
ROOT
HETATM    1  C   UNL     1      -6.230   9.882  69.280  1.00  0.00    -0.040 C  
HETATM    2  N   UNL     1      -6.592  11.121  68.579  1.00  0.00    -0.058 NA 
HETATM    3  C   UNL     1      -5.684  11.321  67.449  1.00  0.00    -0.057 C  
ENDROOT
BRANCH   2   4
HETATM    4  C   UNL     1      -8.007  11.040  68.163  1.00  0.00    -0.119 C  
BRANCH   4   5
HETATM    5  C   UNL     1      -8.778  12.376  68.104  1.00  0.00    -0.190 C  
BRANCH   5   6
HETATM    6  N   UNL     1     -10.228  12.223  68.379  1.00  0.00    -0.216 N  
HETATM    7  C   UNL     1     -10.898  13.431  68.700  1.00  0.00    -0.263 A  
HETATM    8  C   UNL     1     -11.147  13.605  70.078  1.00  0.00     0.179 A  
HETATM    9  C   UNL     1     -11.823  14.721  70.538  1.00  0.00    -0.362 A  
HETATM   10  C   UNL     1     -12.249  15.663  69.618  1.00  0.00    -0.264 A  
HETATM   11  C   UNL     1     -12.016  15.475  68.242  1.00  0.00    -0.059 A  
HETATM   12  C   UNL     1     -11.340  14.351  67.712  1.00  0.00    -0.312 A  
HETATM   13  N   UNL     1     -11.105  14.177  66.305  1.00  0.00    -0.314 NA 
HETATM   14  C   UNL     1     -11.391  15.323  65.414  1.00  0.00    -0.253 C  
HETATM   15  C   UNL     1     -10.729  12.994  65.568  1.00  0.00    -0.281 A  
HETATM   16  C   UNL     1     -10.284  13.063  64.225  1.00  0.00    -0.316 A  
HETATM   17  C   UNL     1      -9.981  11.924  63.459  1.00  0.00    -0.422 A  
HETATM   18  C   UNL     1     -10.125  10.656  64.001  1.00  0.00    -0.378 A  
HETATM   19  C   UNL     1     -10.524  10.535  65.322  1.00  0.00    -0.232 A  
HETATM   20  C   UNL     1     -10.775  11.686  66.092  1.00  0.00    -0.325 A  
HETATM   21  C   UNL     1     -10.995  11.446  67.519  1.00  0.00    -0.260 C  
HETATM   22  O   UNL     1     -11.805  10.603  67.894  1.00  0.00    -0.485 OA 
ENDBRANCH   5   6
ENDBRANCH   4   5
ENDBRANCH   2   4
TORSDOF 3
ENDMDL
MODEL       95
REMARK 921   NORMALIZED FREE ENERGY PREDICTED BY IDOCK:   -4.39 KCAL/MOL
REMARK 922        TOTAL FREE ENERGY PREDICTED BY IDOCK:   -5.29 KCAL/MOL
REMARK 923 INTER-LIGAND FREE ENERGY PREDICTED BY IDOCK:   -5.05 KCAL/MOL
REMARK 924 INTRA-LIGAND FREE ENERGY PREDICTED BY IDOCK:   -0.25 KCAL/MOL
REMARK 927      BINDING AFFINITY PREDICTED BY RF-SCORE:    0.00 PKD
ROOT
HETATM    1  C   UNL     1      -5.762  16.206  67.492  1.00  0.00    -0.146 C  
HETATM    2  N   UNL     1      -6.756  15.776  68.485  1.00  0.00    -0.116 NA 
HETATM    3  C   UNL     1      -7.412  16.953  69.055  1.00  0.00    -0.220 C  
ENDROOT
BRANCH   2   4
HETATM    4  C   UNL     1      -7.710  14.852  67.837  1.00  0.00    -0.141 C  
BRANCH   4   5
HETATM    5  C   UNL     1      -9.087  14.706  68.519  1.00  0.00    -0.188 C  
BRANCH   5   6
HETATM    6  N   UNL     1     -10.222  14.843  67.573  1.00  0.00    -0.233 N  
HETATM    7  C   UNL     1     -10.523  13.667  66.840  1.00  0.00    -0.272 A  
HETATM    8  C   UNL     1     -10.044  13.675  65.512  1.00  0.00    -0.293 A  
HETATM    9  C   UNL     1     -10.292  12.608  64.667  1.00  0.00    -0.354 A  
HETATM   10  C   UNL     1     -11.019  11.535  65.150  1.00  0.00    -0.298 A  
HETATM   11  C   UNL     1     -11.512  11.540  66.469  1.00  0.00    -0.178 A  
HETATM   12  C   UNL     1     -11.300  12.605  67.376  1.00  0.00    -0.313 A  
HETATM   13  N   UNL     1     -11.805  12.593  68.721  1.00  0.00    -0.311 NA 
HETATM   14  C   UNL     1     -12.377  11.327  69.229  1.00  0.00    -0.104 C  
HETATM   15  C   UNL     1     -11.960  13.677  69.663  1.00  0.00    -0.343 A  
HETATM   16  C   UNL     1     -12.229  13.440  71.033  1.00  0.00    -0.312 A  
HETATM   17  C   UNL     1     -12.455  14.474  71.958  1.00  0.00    -0.391 A  
HETATM   18  C   UNL     1     -12.440  15.798  71.548  1.00  0.00    -0.515 A  
HETATM   19  C   UNL     1     -12.148  16.084  70.224  1.00  0.00    -0.180 A  
HETATM   20  C   UNL     1     -11.872  15.041  69.321  1.00  0.00    -0.344 A  
HETATM   21  C   UNL     1     -11.385  15.466  68.007  1.00  0.00    -0.341 C  
HETATM   22  O   UNL     1     -11.985  16.324  67.365  1.00  0.00     0.549 OA 
ENDBRANCH   5   6
ENDBRANCH   4   5
ENDBRANCH   2   4
TORSDOF 3
ENDMDL
MODEL       96
REMARK 921   NORMALIZED FREE ENERGY PREDICTED BY IDOCK:   -4.37 KCAL/MOL
REMARK 922        TOTAL FREE ENERGY PREDICTED BY IDOCK:   -5.27 KCAL/MOL
REMARK 923 INTER-LIGAND FREE ENERGY PREDICTED BY IDOCK:   -5.27 KCAL/MOL
REMARK 924 INTRA-LIGAND FREE ENERGY PREDICTED BY IDOCK:    0.00 KCAL/MOL
REMARK 927      BINDING AFFINITY PREDICTED BY RF-SCORE:    0.00 PKD
ROOT
HETATM    1  C   UNL     1     -10.409  12.303  63.838  1.00  0.00    -0.429 C  
HETATM    2  N   UNL     1     -10.813  13.680  64.149  1.00  0.00    -0.266 NA 
HETATM    3  C   UNL     1     -12.274  13.771  64.137  1.00  0.00    -0.396 C  
ENDROOT
BRANCH   2   4
HETATM    4  C   UNL     1     -10.231  14.067  65.451  1.00  0.00    -0.347 C  
BRANCH   4   5
HETATM    5  C   UNL     1      -9.775  15.536  65.584  1.00  0.00    -0.320 C  
BRANCH   5   6
HETATM    6  N   UNL     1      -8.553  15.693  66.410  1.00  0.00    -0.301 N  
HETATM    7  C   UNL     1      -8.098  17.030  66.541  1.00  0.00    -0.285 A  
HETATM    8  C   UNL     1      -6.998  17.350  65.717  1.00  0.00     0.029 A  
HETATM    9  C   UNL     1      -6.425  18.608  65.761  1.00  0.00    -0.296 A  
HETATM   10  C   UNL     1      -6.952  19.546  66.631  1.00  0.00    -0.216 A  
HETATM   11  C   UNL     1      -8.037  19.216  67.467  1.00  0.00    -0.301 A  
HETATM   12  C   UNL     1      -8.658  17.945  67.473  1.00  0.00    -0.239 A  
HETATM   13  N   UNL     1      -9.767  17.625  68.328  1.00  0.00    -0.300 NA 
HETATM   14  C   UNL     1     -10.411  18.736  69.063  1.00  0.00     0.022 C  
HETATM   15  C   UNL     1     -10.315  16.340  68.696  1.00  0.00    -0.263 A  
HETATM   16  C   UNL     1     -11.571  16.222  69.338  1.00  0.00    -0.178 A  
HETATM   17  C   UNL     1     -12.096  14.992  69.773  1.00  0.00    -0.354 A  
HETATM   18  C   UNL     1     -11.376  13.821  69.597  1.00  0.00    -0.241 A  
HETATM   19  C   UNL     1     -10.156  13.878  68.943  1.00  0.00    -0.106 A  
HETATM   20  C   UNL     1      -9.667  15.109  68.468  1.00  0.00    -0.214 A  
HETATM   21  C   UNL     1      -8.473  15.023  67.624  1.00  0.00    -0.160 C  
HETATM   22  O   UNL     1      -7.491  14.385  67.994  1.00  0.00    -0.113 OA 
ENDBRANCH   5   6
ENDBRANCH   4   5
ENDBRANCH   2   4
TORSDOF 3
ENDMDL
MODEL       97
REMARK 921   NORMALIZED FREE ENERGY PREDICTED BY IDOCK:   -4.37 KCAL/MOL
REMARK 922        TOTAL FREE ENERGY PREDICTED BY IDOCK:   -5.27 KCAL/MOL
REMARK 923 INTER-LIGAND FREE ENERGY PREDICTED BY IDOCK:   -4.85 KCAL/MOL
REMARK 924 INTRA-LIGAND FREE ENERGY PREDICTED BY IDOCK:   -0.42 KCAL/MOL
REMARK 927      BINDING AFFINITY PREDICTED BY RF-SCORE:    0.00 PKD
ROOT
HETATM    1  C   UNL     1     -11.471   8.437  72.346  1.00  0.00    -0.380 C  
HETATM    2  N   UNL     1     -12.384   9.152  71.445  1.00  0.00    -0.320 NA 
HETATM    3  C   UNL     1     -13.631   9.445  72.151  1.00  0.00    -0.457 C  
ENDROOT
BRANCH   2   4
HETATM    4  C   UNL     1     -11.710  10.372  70.951  1.00  0.00    -0.360 C  
BRANCH   4   5
HETATM    5  C   UNL     1     -11.216  10.332  69.489  1.00  0.00    -0.261 C  
BRANCH   5   6
HETATM    6  N   UNL     1      -9.853   9.761  69.352  1.00  0.00    -0.192 N  
HETATM    7  C   UNL     1      -9.760   8.669  68.452  1.00  0.00    -0.162 A  
HETATM    8  C   UNL     1      -9.701   7.406  69.080  1.00  0.00    -0.160 A  
HETATM    9  C   UNL     1      -9.575   6.251  68.330  1.00  0.00    -0.119 A  
HETATM   10  C   UNL     1      -9.506   6.359  66.952  1.00  0.00    -0.166 A  
HETATM   11  C   UNL     1      -9.543   7.623  66.331  1.00  0.00    -0.223 A  
HETATM   12  C   UNL     1      -9.661   8.838  67.045  1.00  0.00    -0.198 A  
HETATM   13  N   UNL     1      -9.704  10.120  66.396  1.00  0.00    -0.194 NA 
HETATM   14  C   UNL     1      -9.847  10.140  64.924  1.00  0.00    -0.319 C  
HETATM   15  C   UNL     1      -9.511  11.442  66.943  1.00  0.00    -0.179 A  
HETATM   16  C   UNL     1      -9.848  12.607  66.211  1.00  0.00    -0.266 A  
HETATM   17  C   UNL     1      -9.604  13.907  66.688  1.00  0.00    -0.297 A  
HETATM   18  C   UNL     1      -8.995  14.101  67.918  1.00  0.00    -0.185 A  
HETATM   19  C   UNL     1      -8.677  12.994  68.688  1.00  0.00     0.055 A  
HETATM   20  C   UNL     1      -8.973  11.700  68.220  1.00  0.00    -0.185 A  
HETATM   21  C   UNL     1      -8.776  10.625  69.194  1.00  0.00    -0.126 C  
HETATM   22  O   UNL     1      -7.722  10.529  69.816  1.00  0.00    -0.149 OA 
ENDBRANCH   5   6
ENDBRANCH   4   5
ENDBRANCH   2   4
TORSDOF 3
ENDMDL
MODEL       98
REMARK 921   NORMALIZED FREE ENERGY PREDICTED BY IDOCK:   -4.34 KCAL/MOL
REMARK 922        TOTAL FREE ENERGY PREDICTED BY IDOCK:   -5.23 KCAL/MOL
REMARK 923 INTER-LIGAND FREE ENERGY PREDICTED BY IDOCK:   -4.90 KCAL/MOL
REMARK 924 INTRA-LIGAND FREE ENERGY PREDICTED BY IDOCK:   -0.33 KCAL/MOL
REMARK 927      BINDING AFFINITY PREDICTED BY RF-SCORE:    0.00 PKD
ROOT
HETATM    1  C   UNL     1      -7.205  15.856  67.101  1.00  0.00    -0.219 C  
HETATM    2  N   UNL     1      -7.381  14.686  67.970  1.00  0.00    -0.121 NA 
HETATM    3  C   UNL     1      -7.845  15.124  69.286  1.00  0.00    -0.206 C  
ENDROOT
BRANCH   2   4
HETATM    4  C   UNL     1      -8.318  13.745  67.321  1.00  0.00    -0.174 C  
BRANCH   4   5
HETATM    5  C   UNL     1      -8.919  12.649  68.226  1.00  0.00    -0.176 C  
BRANCH   5   6
HETATM    6  N   UNL     1      -9.963  11.842  67.548  1.00  0.00    -0.186 N  
HETATM    7  C   UNL     1     -10.050  10.498  67.991  1.00  0.00    -0.165 A  
HETATM    8  C   UNL     1      -9.447   9.563  67.122  1.00  0.00    -0.187 A  
HETATM    9  C   UNL     1      -9.482   8.210  67.408  1.00  0.00    -0.191 A  
HETATM   10  C   UNL     1     -10.122   7.792  68.562  1.00  0.00    -0.216 A  
HETATM   11  C   UNL     1     -10.740   8.727  69.415  1.00  0.00    -0.180 A  
HETATM   12  C   UNL     1     -10.746  10.120  69.171  1.00  0.00    -0.226 A  
HETATM   13  N   UNL     1     -11.376  11.062  70.054  1.00  0.00    -0.290 NA 
HETATM   14  C   UNL     1     -11.842  10.566  71.368  1.00  0.00    -0.145 C  
HETATM   15  C   UNL     1     -11.749  12.439  69.828  1.00  0.00    -0.291 A  
HETATM   16  C   UNL     1     -12.123  13.294  70.894  1.00  0.00    -0.242 A  
HETATM   17  C   UNL     1     -12.560  14.615  70.697  1.00  0.00    -0.419 A  
HETATM   18  C   UNL     1     -12.660  15.138  69.417  1.00  0.00     0.040 A  
HETATM   19  C   UNL     1     -12.274  14.353  68.343  1.00  0.00    -0.178 A  
HETATM   20  C   UNL     1     -11.790  13.049  68.559  1.00  0.00    -0.360 A  
HETATM   21  C   UNL     1     -11.229  12.389  67.378  1.00  0.00    -0.297 C  
HETATM   22  O   UNL     1     -11.860  12.348  66.326  1.00  0.00    -0.473 OA 
ENDBRANCH   5   6
ENDBRANCH   4   5
ENDBRANCH   2   4
TORSDOF 3
ENDMDL
MODEL       99
REMARK 921   NORMALIZED FREE ENERGY PREDICTED BY IDOCK:   -4.32 KCAL/MOL
REMARK 922        TOTAL FREE ENERGY PREDICTED BY IDOCK:   -5.21 KCAL/MOL
REMARK 923 INTER-LIGAND FREE ENERGY PREDICTED BY IDOCK:   -4.79 KCAL/MOL
REMARK 924 INTRA-LIGAND FREE ENERGY PREDICTED BY IDOCK:   -0.42 KCAL/MOL
REMARK 927      BINDING AFFINITY PREDICTED BY RF-SCORE:    0.00 PKD
ROOT
HETATM    1  C   UNL     1     -12.392  12.445  64.401  1.00  0.00    -0.447 C  
HETATM    2  N   UNL     1     -11.578  12.915  65.530  1.00  0.00    -0.340 NA 
HETATM    3  C   UNL     1     -11.948  14.293  65.853  1.00  0.00    -0.391 C  
ENDROOT
BRANCH   2   4
HETATM    4  C   UNL     1     -11.764  11.993  66.670  1.00  0.00    -0.256 C  
BRANCH   4   5
HETATM    5  C   UNL     1     -10.497  11.274  67.178  1.00  0.00    -0.222 C  
BRANCH   5   6
HETATM    6  N   UNL     1     -10.236   9.992  66.478  1.00  0.00    -0.233 N  
HETATM    7  C   UNL     1      -9.143  10.025  65.575  1.00  0.00    -0.186 A  
HETATM    8  C   UNL     1      -9.516  10.134  64.218  1.00  0.00    -0.366 A  
HETATM    9  C   UNL     1      -8.558  10.144  63.221  1.00  0.00    -0.198 A  
HETATM   10  C   UNL     1      -7.226  10.045  63.582  1.00  0.00    -0.128 A  
HETATM   11  C   UNL     1      -6.858   9.917  64.935  1.00  0.00    -0.127 A  
HETATM   12  C   UNL     1      -7.793   9.890  65.997  1.00  0.00    -0.111 A  
HETATM   13  N   UNL     1      -7.402   9.764  67.374  1.00  0.00    -0.090 NA 
HETATM   14  C   UNL     1      -5.963   9.886  67.693  1.00  0.00    -0.050 C  
HETATM   15  C   UNL     1      -8.189   9.413  68.533  1.00  0.00    -0.113 A  
HETATM   16  C   UNL     1      -7.698   9.592  69.849  1.00  0.00    -0.146 A  
HETATM   17  C   UNL     1      -8.411   9.194  70.993  1.00  0.00    -0.221 A  
HETATM   18  C   UNL     1      -9.648   8.579  70.870  1.00  0.00    -0.228 A  
HETATM   19  C   UNL     1     -10.188   8.412  69.605  1.00  0.00    -0.209 A  
HETATM   20  C   UNL     1      -9.485   8.862  68.472  1.00  0.00    -0.152 A  
HETATM   21  C   UNL     1     -10.233   8.814  67.214  1.00  0.00    -0.263 C  
HETATM   22  O   UNL     1     -10.812   7.787  66.870  1.00  0.00    -0.311 OA 
ENDBRANCH   5   6
ENDBRANCH   4   5
ENDBRANCH   2   4
TORSDOF 3
ENDMDL
MODEL      100
REMARK 921   NORMALIZED FREE ENERGY PREDICTED BY IDOCK:   -4.30 KCAL/MOL
REMARK 922        TOTAL FREE ENERGY PREDICTED BY IDOCK:   -5.18 KCAL/MOL
REMARK 923 INTER-LIGAND FREE ENERGY PREDICTED BY IDOCK:   -4.96 KCAL/MOL
REMARK 924 INTRA-LIGAND FREE ENERGY PREDICTED BY IDOCK:   -0.22 KCAL/MOL
REMARK 927      BINDING AFFINITY PREDICTED BY RF-SCORE:    0.00 PKD
ROOT
HETATM    1  C   UNL     1      -9.958   8.847  66.235  1.00  0.00    -0.266 C  
HETATM    2  N   UNL     1      -8.525   8.857  66.556  1.00  0.00    -0.117 NA 
HETATM    3  C   UNL     1      -7.890   7.674  65.973  1.00  0.00    -0.101 C  
ENDROOT
BRANCH   2   4
HETATM    4  C   UNL     1      -7.933  10.119  66.064  1.00  0.00    -0.124 C  
BRANCH   4   5
HETATM    5  C   UNL     1      -8.854  11.357  66.089  1.00  0.00    -0.184 C  
BRANCH   5   6
HETATM    6  N   UNL     1      -9.119  11.858  67.460  1.00  0.00    -0.173 N  
HETATM    7  C   UNL     1      -8.116  12.717  67.978  1.00  0.00    -0.162 A  
HETATM    8  C   UNL     1      -7.240  12.096  68.894  1.00  0.00    -0.079 A  
HETATM    9  C   UNL     1      -6.231  12.819  69.506  1.00  0.00    -0.120 A  
HETATM   10  C   UNL     1      -6.101  14.162  69.202  1.00  0.00    -0.097 A  
HETATM   11  C   UNL     1      -6.990  14.783  68.304  1.00  0.00    -0.119 A  
HETATM   12  C   UNL     1      -8.045  14.099  67.655  1.00  0.00    -0.180 A  
HETATM   13  N   UNL     1      -8.941  14.744  66.736  1.00  0.00    -0.259 NA 
HETATM   14  C   UNL     1      -8.604  16.116  66.297  1.00  0.00    -0.338 C  
HETATM   15  C   UNL     1     -10.224  14.311  66.233  1.00  0.00    -0.301 A  
HETATM   16  C   UNL     1     -10.847  14.950  65.133  1.00  0.00    -0.428 A  
HETATM   17  C   UNL     1     -12.126  14.599  64.668  1.00  0.00    -0.466 A  
HETATM   18  C   UNL     1     -12.850  13.597  65.296  1.00  0.00    -0.421 A  
HETATM   19  C   UNL     1     -12.270  12.918  66.355  1.00  0.00    -0.301 A  
HETATM   20  C   UNL     1     -10.969  13.246  66.777  1.00  0.00    -0.302 A  
HETATM   21  C   UNL     1     -10.386  12.338  67.767  1.00  0.00    -0.207 C  
HETATM   22  O   UNL     1     -11.008  12.037  68.782  1.00  0.00    -0.219 OA 
ENDBRANCH   5   6
ENDBRANCH   4   5
ENDBRANCH   2   4
TORSDOF 3
ENDMDL
MODEL      101
REMARK 921   NORMALIZED FREE ENERGY PREDICTED BY IDOCK:   -4.27 KCAL/MOL
REMARK 922        TOTAL FREE ENERGY PREDICTED BY IDOCK:   -5.15 KCAL/MOL
REMARK 923 INTER-LIGAND FREE ENERGY PREDICTED BY IDOCK:   -5.08 KCAL/MOL
REMARK 924 INTRA-LIGAND FREE ENERGY PREDICTED BY IDOCK:   -0.07 KCAL/MOL
REMARK 927      BINDING AFFINITY PREDICTED BY RF-SCORE:    0.00 PKD
ROOT
HETATM    1  C   UNL     1     -11.785  12.647  69.119  1.00  0.00    -0.321 C  
HETATM    2  N   UNL     1     -11.889  12.090  67.764  1.00  0.00    -0.545 NA 
HETATM    3  C   UNL     1     -11.868  13.181  66.789  1.00  0.00    -0.385 C  
ENDROOT
BRANCH   2   4
HETATM    4  C   UNL     1     -10.790  11.123  67.559  1.00  0.00    -0.254 C  
BRANCH   4   5
HETATM    5  C   UNL     1     -11.025   9.700  68.106  1.00  0.00    -0.132 C  
BRANCH   5   6
HETATM    6  N   UNL     1     -10.561   8.637  67.180  1.00  0.00    -0.282 N  
HETATM    7  C   UNL     1      -9.282   8.869  66.611  1.00  0.00    -0.170 A  
HETATM    8  C   UNL     1      -9.319   9.340  65.281  1.00  0.00    -0.269 A  
HETATM    9  C   UNL     1      -8.148   9.579  64.585  1.00  0.00    -0.136 A  
HETATM   10  C   UNL     1      -6.941   9.346  65.219  1.00  0.00    -0.091 A  
HETATM   11  C   UNL     1      -6.909   8.856  66.539  1.00  0.00    -0.079 A  
HETATM   12  C   UNL     1      -8.072   8.584  67.297  1.00  0.00    -0.105 A  
HETATM   13  N   UNL     1      -8.023   8.089  68.645  1.00  0.00    -0.121 NA 
HETATM   14  C   UNL     1      -6.709   8.075  69.325  1.00  0.00    -0.040 C  
HETATM   15  C   UNL     1      -9.056   7.474  69.445  1.00  0.00    -0.142 A  
HETATM   16  C   UNL     1      -8.905   7.287  70.841  1.00  0.00    -0.149 A  
HETATM   17  C   UNL     1      -9.861   6.627  71.632  1.00  0.00    -0.177 A  
HETATM   18  C   UNL     1     -11.010   6.107  71.057  1.00  0.00    -0.354 A  
HETATM   19  C   UNL     1     -11.222   6.294  69.700  1.00  0.00    -0.506 A  
HETATM   20  C   UNL     1     -10.280   7.001  68.930  1.00  0.00    -0.183 A  
HETATM   21  C   UNL     1     -10.698   7.308  67.561  1.00  0.00    -0.256 C  
HETATM   22  O   UNL     1     -11.142   6.427  66.830  1.00  0.00    -0.384 OA 
ENDBRANCH   5   6
ENDBRANCH   4   5
ENDBRANCH   2   4
TORSDOF 3
ENDMDL
MODEL      102
REMARK 921   NORMALIZED FREE ENERGY PREDICTED BY IDOCK:   -4.27 KCAL/MOL
REMARK 922        TOTAL FREE ENERGY PREDICTED BY IDOCK:   -5.15 KCAL/MOL
REMARK 923 INTER-LIGAND FREE ENERGY PREDICTED BY IDOCK:   -4.97 KCAL/MOL
REMARK 924 INTRA-LIGAND FREE ENERGY PREDICTED BY IDOCK:   -0.18 KCAL/MOL
REMARK 927      BINDING AFFINITY PREDICTED BY RF-SCORE:    0.00 PKD
ROOT
HETATM    1  C   UNL     1      -7.298   9.166  67.382  1.00  0.00    -0.084 C  
HETATM    2  N   UNL     1      -8.401   8.943  66.438  1.00  0.00    -0.113 NA 
HETATM    3  C   UNL     1      -8.227   7.645  65.786  1.00  0.00    -0.133 C  
ENDROOT
BRANCH   2   4
HETATM    4  C   UNL     1      -9.683   9.045  67.168  1.00  0.00    -0.181 C  
BRANCH   4   5
HETATM    5  C   UNL     1      -9.809   8.189  68.446  1.00  0.00    -0.171 C  
BRANCH   5   6
HETATM    6  N   UNL     1      -9.608   8.970  69.691  1.00  0.00    -0.167 N  
HETATM    7  C   UNL     1     -10.797   9.508  70.247  1.00  0.00    -0.269 A  
HETATM    8  C   UNL     1     -10.985  10.883  69.988  1.00  0.00    -0.221 A  
HETATM    9  C   UNL     1     -12.084  11.552  70.495  1.00  0.00    -0.472 A  
HETATM   10  C   UNL     1     -12.994  10.847  71.262  1.00  0.00    -0.492 A  
HETATM   11  C   UNL     1     -12.791   9.480  71.536  1.00  0.00    -0.464 A  
HETATM   12  C   UNL     1     -11.683   8.745  71.053  1.00  0.00    -0.282 A  
HETATM   13  N   UNL     1     -11.493   7.349  71.336  1.00  0.00    -0.256 NA 
HETATM   14  C   UNL     1     -12.612   6.619  71.971  1.00  0.00    -0.206 C  
HETATM   15  C   UNL     1     -10.312   6.529  71.205  1.00  0.00    -0.204 A  
HETATM   16  C   UNL     1     -10.374   5.116  71.280  1.00  0.00    -0.276 A  
HETATM   17  C   UNL     1      -9.233   4.296  71.229  1.00  0.00    -0.197 A  
HETATM   18  C   UNL     1      -7.970   4.857  71.117  1.00  0.00    -0.092 A  
HETATM   19  C   UNL     1      -7.858   6.234  71.005  1.00  0.00    -0.111 A  
HETATM   20  C   UNL     1      -9.013   7.039  71.007  1.00  0.00    -0.151 A  
HETATM   21  C   UNL     1      -8.790   8.450  70.686  1.00  0.00    -0.147 C  
HETATM   22  O   UNL     1      -7.924   9.095  71.271  1.00  0.00    -0.280 OA 
ENDBRANCH   5   6
ENDBRANCH   4   5
ENDBRANCH   2   4
TORSDOF 3
ENDMDL
MODEL      103
REMARK 921   NORMALIZED FREE ENERGY PREDICTED BY IDOCK:   -4.26 KCAL/MOL
REMARK 922        TOTAL FREE ENERGY PREDICTED BY IDOCK:   -5.14 KCAL/MOL
REMARK 923 INTER-LIGAND FREE ENERGY PREDICTED BY IDOCK:   -4.78 KCAL/MOL
REMARK 924 INTRA-LIGAND FREE ENERGY PREDICTED BY IDOCK:   -0.36 KCAL/MOL
REMARK 927      BINDING AFFINITY PREDICTED BY RF-SCORE:    0.00 PKD
ROOT
HETATM    1  C   UNL     1     -10.343   4.816  66.472  1.00  0.00    -0.244 C  
HETATM    2  N   UNL     1      -9.918   5.987  67.250  1.00  0.00    -0.136 NA 
HETATM    3  C   UNL     1     -10.610   7.177  66.753  1.00  0.00    -0.221 C  
ENDROOT
BRANCH   2   4
HETATM    4  C   UNL     1     -10.183   5.732  68.681  1.00  0.00    -0.197 C  
BRANCH   4   5
HETATM    5  C   UNL     1     -10.732   6.923  69.495  1.00  0.00    -0.246 C  
BRANCH   5   6
HETATM    6  N   UNL     1      -9.708   7.553  70.365  1.00  0.00    -0.179 N  
HETATM    7  C   UNL     1      -8.852   8.468  69.701  1.00  0.00    -0.137 A  
HETATM    8  C   UNL     1      -7.576   7.949  69.396  1.00  0.00    -0.103 A  
HETATM    9  C   UNL     1      -6.622   8.737  68.778  1.00  0.00    -0.054 A  
HETATM   10  C   UNL     1      -6.945  10.046  68.466  1.00  0.00    -0.066 A  
HETATM   11  C   UNL     1      -8.213  10.566  68.790  1.00  0.00    -0.134 A  
HETATM   12  C   UNL     1      -9.225   9.812  69.430  1.00  0.00    -0.205 A  
HETATM   13  N   UNL     1     -10.516  10.356  69.750  1.00  0.00    -0.254 NA 
HETATM   14  C   UNL     1     -10.860  11.682  69.190  1.00  0.00    -0.184 C  
HETATM   15  C   UNL     1     -11.532   9.864  70.650  1.00  0.00    -0.334 A  
HETATM   16  C   UNL     1     -12.849  10.386  70.644  1.00  0.00    -0.393 A  
HETATM   17  C   UNL     1     -13.838   9.978  71.556  1.00  0.00    -0.048 A  
HETATM   18  C   UNL     1     -13.548   9.036  72.531  1.00  0.00    -0.492 A  
HETATM   19  C   UNL     1     -12.284   8.469  72.557  1.00  0.00    -0.383 A  
HETATM   20  C   UNL     1     -11.319   8.850  71.606  1.00  0.00    -0.407 A  
HETATM   21  C   UNL     1     -10.094   8.049  71.605  1.00  0.00    -0.184 C  
HETATM   22  O   UNL     1      -9.481   7.843  72.648  1.00  0.00    -0.177 OA 
ENDBRANCH   5   6
ENDBRANCH   4   5
ENDBRANCH   2   4
TORSDOF 3
ENDMDL
MODEL      104
REMARK 921   NORMALIZED FREE ENERGY PREDICTED BY IDOCK:   -4.19 KCAL/MOL
REMARK 922        TOTAL FREE ENERGY PREDICTED BY IDOCK:   -5.06 KCAL/MOL
REMARK 923 INTER-LIGAND FREE ENERGY PREDICTED BY IDOCK:   -4.64 KCAL/MOL
REMARK 924 INTRA-LIGAND FREE ENERGY PREDICTED BY IDOCK:   -0.42 KCAL/MOL
REMARK 927      BINDING AFFINITY PREDICTED BY RF-SCORE:    0.00 PKD
ROOT
HETATM    1  C   UNL     1     -10.524  13.796  64.955  1.00  0.00    -0.418 C  
HETATM    2  N   UNL     1     -11.430  13.205  65.949  1.00  0.00    -0.322 NA 
HETATM    3  C   UNL     1     -12.772  13.760  65.773  1.00  0.00    -0.446 C  
ENDROOT
BRANCH   2   4
HETATM    4  C   UNL     1     -11.400  11.734  65.808  1.00  0.00    -0.250 C  
BRANCH   4   5
HETATM    5  C   UNL     1     -10.681  10.957  66.931  1.00  0.00    -0.264 C  
BRANCH   5   6
HETATM    6  N   UNL     1      -9.260  10.664  66.617  1.00  0.00    -0.162 N  
HETATM    7  C   UNL     1      -8.327  11.245  67.514  1.00  0.00    -0.131 A  
HETATM    8  C   UNL     1      -7.695  12.406  67.018  1.00  0.00    -0.065 A  
HETATM    9  C   UNL     1      -6.736  13.062  67.769  1.00  0.00    -0.143 A  
HETATM   10  C   UNL     1      -6.410  12.557  69.014  1.00  0.00    -0.092 A  
HETATM   11  C   UNL     1      -7.028  11.387  69.496  1.00  0.00    -0.063 A  
HETATM   12  C   UNL     1      -8.007  10.667  68.771  1.00  0.00    -0.135 A  
HETATM   13  N   UNL     1      -8.632   9.478  69.279  1.00  0.00    -0.139 NA 
HETATM   14  C   UNL     1      -8.395   9.128  70.697  1.00  0.00    -0.205 C  
HETATM   15  C   UNL     1      -9.393   8.463  68.588  1.00  0.00    -0.143 A  
HETATM   16  C   UNL     1     -10.157   7.498  69.289  1.00  0.00    -0.188 A  
HETATM   17  C   UNL     1     -10.848   6.456  68.647  1.00  0.00    -0.379 A  
HETATM   18  C   UNL     1     -10.792   6.321  67.269  1.00  0.00    -0.457 A  
HETATM   19  C   UNL     1     -10.085   7.260  66.534  1.00  0.00    -0.163 A  
HETATM   20  C   UNL     1      -9.441   8.328  67.186  1.00  0.00    -0.206 A  
HETATM   21  C   UNL     1      -8.897   9.361  66.303  1.00  0.00    -0.147 C  
HETATM   22  O   UNL     1      -8.179   9.057  65.354  1.00  0.00    -0.116 OA 
ENDBRANCH   5   6
ENDBRANCH   4   5
ENDBRANCH   2   4
TORSDOF 3
ENDMDL
MODEL      105
REMARK 921   NORMALIZED FREE ENERGY PREDICTED BY IDOCK:   -4.17 KCAL/MOL
REMARK 922        TOTAL FREE ENERGY PREDICTED BY IDOCK:   -5.03 KCAL/MOL
REMARK 923 INTER-LIGAND FREE ENERGY PREDICTED BY IDOCK:   -4.87 KCAL/MOL
REMARK 924 INTRA-LIGAND FREE ENERGY PREDICTED BY IDOCK:   -0.16 KCAL/MOL
REMARK 927      BINDING AFFINITY PREDICTED BY RF-SCORE:    0.00 PKD
ROOT
HETATM    1  C   UNL     1      -9.429  10.006  69.607  1.00  0.00    -0.223 C  
HETATM    2  N   UNL     1     -10.895   9.944  69.557  1.00  0.00    -0.236 NA 
HETATM    3  C   UNL     1     -11.451  10.670  70.699  1.00  0.00    -0.281 C  
ENDROOT
BRANCH   2   4
HETATM    4  C   UNL     1     -11.353  10.487  68.261  1.00  0.00    -0.264 C  
BRANCH   4   5
HETATM    5  C   UNL     1     -10.629   9.956  67.006  1.00  0.00    -0.203 C  
BRANCH   5   6
HETATM    6  N   UNL     1     -10.511  10.971  65.930  1.00  0.00    -0.254 N  
HETATM    7  C   UNL     1     -10.639  12.313  66.369  1.00  0.00    -0.242 A  
HETATM    8  C   UNL     1     -11.901  12.889  66.110  1.00  0.00    -0.487 A  
HETATM    9  C   UNL     1     -12.161  14.203  66.452  1.00  0.00    -0.473 A  
HETATM   10  C   UNL     1     -11.158  14.942  67.053  1.00  0.00    -0.338 A  
HETATM   11  C   UNL     1      -9.893  14.371  67.291  1.00  0.00    -0.247 A  
HETATM   12  C   UNL     1      -9.565  13.036  66.954  1.00  0.00    -0.243 A  
HETATM   13  N   UNL     1      -8.271  12.465  67.209  1.00  0.00    -0.177 NA 
HETATM   14  C   UNL     1      -7.331  13.241  68.047  1.00  0.00    -0.127 C  
HETATM   15  C   UNL     1      -7.664  11.269  66.674  1.00  0.00    -0.148 A  
HETATM   16  C   UNL     1      -6.486  10.717  67.234  1.00  0.00    -0.070 A  
HETATM   17  C   UNL     1      -5.833   9.597  66.691  1.00  0.00    -0.055 A  
HETATM   18  C   UNL     1      -6.323   8.985  65.548  1.00  0.00    -0.067 A  
HETATM   19  C   UNL     1      -7.492   9.465  64.982  1.00  0.00    -0.106 A  
HETATM   20  C   UNL     1      -8.163  10.556  65.565  1.00  0.00    -0.162 A  
HETATM   21  C   UNL     1      -9.483  10.850  65.003  1.00  0.00    -0.233 C  
HETATM   22  O   UNL     1      -9.634  10.967  63.790  1.00  0.00    -0.239 OA 
ENDBRANCH   5   6
ENDBRANCH   4   5
ENDBRANCH   2   4
TORSDOF 3
ENDMDL
MODEL      106
REMARK 921   NORMALIZED FREE ENERGY PREDICTED BY IDOCK:   -4.16 KCAL/MOL
REMARK 922        TOTAL FREE ENERGY PREDICTED BY IDOCK:   -5.02 KCAL/MOL
REMARK 923 INTER-LIGAND FREE ENERGY PREDICTED BY IDOCK:   -4.95 KCAL/MOL
REMARK 924 INTRA-LIGAND FREE ENERGY PREDICTED BY IDOCK:   -0.07 KCAL/MOL
REMARK 927      BINDING AFFINITY PREDICTED BY RF-SCORE:    0.00 PKD
ROOT
HETATM    1  C   UNL     1     -11.195  12.582  67.974  1.00  0.00    -0.270 C  
HETATM    2  N   UNL     1     -10.550  11.263  67.968  1.00  0.00    -0.186 NA 
HETATM    3  C   UNL     1      -9.138  11.415  67.616  1.00  0.00    -0.155 C  
ENDROOT
BRANCH   2   4
HETATM    4  C   UNL     1     -10.740  10.632  69.291  1.00  0.00    -0.238 C  
BRANCH   4   5
HETATM    5  C   UNL     1      -9.503   9.938  69.899  1.00  0.00    -0.220 C  
BRANCH   5   6
HETATM    6  N   UNL     1      -9.775   9.317  71.219  1.00  0.00    -0.268 N  
HETATM    7  C   UNL     1     -11.000   8.606  71.295  1.00  0.00    -0.267 A  
HETATM    8  C   UNL     1     -12.034   9.307  71.952  1.00  0.00    -0.433 A  
HETATM    9  C   UNL     1     -13.277   8.725  72.131  1.00  0.00    -0.456 A  
HETATM   10  C   UNL     1     -13.484   7.444  71.653  1.00  0.00    -0.437 A  
HETATM   11  C   UNL     1     -12.443   6.741  71.016  1.00  0.00    -0.318 A  
HETATM   12  C   UNL     1     -11.150   7.278  70.813  1.00  0.00    -0.266 A  
HETATM   13  N   UNL     1     -10.099   6.550  70.157  1.00  0.00    -0.173 NA 
HETATM   14  C   UNL     1     -10.459   5.283  69.483  1.00  0.00    -0.234 C  
HETATM   15  C   UNL     1      -8.676   6.794  70.135  1.00  0.00    -0.141 A  
HETATM   16  C   UNL     1      -7.820   6.129  69.223  1.00  0.00    -0.104 A  
HETATM   17  C   UNL     1      -6.424   6.291  69.227  1.00  0.00    -0.043 A  
HETATM   18  C   UNL     1      -5.816   7.118  70.159  1.00  0.00    -0.024 A  
HETATM   19  C   UNL     1      -6.612   7.818  71.051  1.00  0.00    -0.038 A  
HETATM   20  C   UNL     1      -8.012   7.685  71.002  1.00  0.00    -0.094 A  
HETATM   21  C   UNL     1      -8.757   8.615  71.853  1.00  0.00    -0.185 C  
HETATM   22  O   UNL     1      -8.468   8.746  73.039  1.00  0.00    -0.402 OA 
ENDBRANCH   5   6
ENDBRANCH   4   5
ENDBRANCH   2   4
TORSDOF 3
ENDMDL
MODEL      107
REMARK 921   NORMALIZED FREE ENERGY PREDICTED BY IDOCK:   -4.15 KCAL/MOL
REMARK 922        TOTAL FREE ENERGY PREDICTED BY IDOCK:   -5.02 KCAL/MOL
REMARK 923 INTER-LIGAND FREE ENERGY PREDICTED BY IDOCK:   -4.81 KCAL/MOL
REMARK 924 INTRA-LIGAND FREE ENERGY PREDICTED BY IDOCK:   -0.21 KCAL/MOL
REMARK 927      BINDING AFFINITY PREDICTED BY RF-SCORE:    0.00 PKD
ROOT
HETATM    1  C   UNL     1     -11.696  15.750  69.416  1.00  0.00    -0.370 C  
HETATM    2  N   UNL     1     -11.733  14.479  70.150  1.00  0.00    -0.283 NA 
HETATM    3  C   UNL     1     -12.627  14.609  71.301  1.00  0.00    -0.333 C  
ENDROOT
BRANCH   2   4
HETATM    4  C   UNL     1     -12.150  13.404  69.225  1.00  0.00    -0.264 C  
BRANCH   4   5
HETATM    5  C   UNL     1     -11.081  12.344  68.887  1.00  0.00    -0.258 C  
BRANCH   5   6
HETATM    6  N   UNL     1     -10.510  12.507  67.527  1.00  0.00    -0.218 N  
HETATM    7  C   UNL     1      -9.415  13.405  67.451  1.00  0.00    -0.222 A  
HETATM    8  C   UNL     1      -9.746  14.679  66.940  1.00  0.00    -0.249 A  
HETATM    9  C   UNL     1      -8.773  15.648  66.777  1.00  0.00    -0.306 A  
HETATM   10  C   UNL     1      -7.469  15.343  67.125  1.00  0.00    -0.224 A  
HETATM   11  C   UNL     1      -7.140  14.064  67.614  1.00  0.00    -0.193 A  
HETATM   12  C   UNL     1      -8.088  13.030  67.793  1.00  0.00    -0.168 A  
HETATM   13  N   UNL     1      -7.737  11.732  68.300  1.00  0.00    -0.122 NA 
HETATM   14  C   UNL     1      -6.377  11.555  68.852  1.00  0.00    -0.059 C  
HETATM   15  C   UNL     1      -8.474  10.491  68.259  1.00  0.00    -0.123 A  
HETATM   16  C   UNL     1      -8.092   9.371  69.037  1.00  0.00    -0.106 A  
HETATM   17  C   UNL     1      -8.745   8.129  68.964  1.00  0.00    -0.144 A  
HETATM   18  C   UNL     1      -9.806   7.945  68.091  1.00  0.00    -0.193 A  
HETATM   19  C   UNL     1     -10.241   9.019  67.332  1.00  0.00    -0.308 A  
HETATM   20  C   UNL     1      -9.610  10.271  67.454  1.00  0.00    -0.183 A  
HETATM   21  C   UNL     1     -10.275  11.374  66.758  1.00  0.00    -0.223 C  
HETATM   22  O   UNL     1     -10.594  11.267  65.577  1.00  0.00    -0.262 OA 
ENDBRANCH   5   6
ENDBRANCH   4   5
ENDBRANCH   2   4
TORSDOF 3
ENDMDL
MODEL      108
REMARK 921   NORMALIZED FREE ENERGY PREDICTED BY IDOCK:   -4.13 KCAL/MOL
REMARK 922        TOTAL FREE ENERGY PREDICTED BY IDOCK:   -4.98 KCAL/MOL
REMARK 923 INTER-LIGAND FREE ENERGY PREDICTED BY IDOCK:   -4.63 KCAL/MOL
REMARK 924 INTRA-LIGAND FREE ENERGY PREDICTED BY IDOCK:   -0.36 KCAL/MOL
REMARK 927      BINDING AFFINITY PREDICTED BY RF-SCORE:    0.00 PKD
ROOT
HETATM    1  C   UNL     1      -9.003   9.875  66.799  1.00  0.00    -0.138 C  
HETATM    2  N   UNL     1      -8.525   9.783  68.185  1.00  0.00    -0.114 NA 
HETATM    3  C   UNL     1      -7.840  11.024  68.545  1.00  0.00    -0.129 C  
ENDROOT
BRANCH   2   4
HETATM    4  C   UNL     1      -9.673   9.490  69.068  1.00  0.00    -0.170 C  
BRANCH   4   5
HETATM    5  C   UNL     1      -9.553   8.224  69.943  1.00  0.00    -0.171 C  
BRANCH   5   6
HETATM    6  N   UNL     1     -10.636   7.240  69.692  1.00  0.00    -0.231 N  
HETATM    7  C   UNL     1     -10.300   6.215  68.771  1.00  0.00    -0.209 A  
HETATM    8  C   UNL     1     -10.831   6.404  67.478  1.00  0.00    -0.438 A  
HETATM    9  C   UNL     1     -10.614   5.467  66.483  1.00  0.00    -0.343 A  
HETATM   10  C   UNL     1      -9.867   4.343  66.783  1.00  0.00    -0.241 A  
HETATM   11  C   UNL     1      -9.356   4.148  68.081  1.00  0.00    -0.212 A  
HETATM   12  C   UNL     1      -9.552   5.065  69.141  1.00  0.00    -0.154 A  
HETATM   13  N   UNL     1      -9.020   4.855  70.459  1.00  0.00    -0.117 NA 
HETATM   14  C   UNL     1      -8.054   3.750  70.641  1.00  0.00    -0.054 C  
HETATM   15  C   UNL     1      -9.362   5.491  71.709  1.00  0.00    -0.142 A  
HETATM   16  C   UNL     1      -8.555   5.348  72.864  1.00  0.00    -0.119 A  
HETATM   17  C   UNL     1      -8.900   5.895  74.112  1.00  0.00    -0.123 A  
HETATM   18  C   UNL     1     -10.085   6.599  74.266  1.00  0.00    -0.378 A  
HETATM   19  C   UNL     1     -10.894   6.796  73.158  1.00  0.00    -0.315 A  
HETATM   20  C   UNL     1     -10.510   6.286  71.904  1.00  0.00    -0.244 A  
HETATM   21  C   UNL     1     -11.335   6.721  70.775  1.00  0.00    -0.325 C  
HETATM   22  O   UNL     1     -12.558   6.626  70.822  1.00  0.00    -0.261 OA 
ENDBRANCH   5   6
ENDBRANCH   4   5
ENDBRANCH   2   4
TORSDOF 3
ENDMDL
MODEL      109
REMARK 921   NORMALIZED FREE ENERGY PREDICTED BY IDOCK:   -4.12 KCAL/MOL
REMARK 922        TOTAL FREE ENERGY PREDICTED BY IDOCK:   -4.98 KCAL/MOL
REMARK 923 INTER-LIGAND FREE ENERGY PREDICTED BY IDOCK:   -4.54 KCAL/MOL
REMARK 924 INTRA-LIGAND FREE ENERGY PREDICTED BY IDOCK:   -0.44 KCAL/MOL
REMARK 927      BINDING AFFINITY PREDICTED BY RF-SCORE:    0.00 PKD
ROOT
HETATM    1  C   UNL     1     -11.661  12.989  67.912  1.00  0.00    -0.357 C  
HETATM    2  N   UNL     1     -10.854  11.764  67.976  1.00  0.00    -0.203 NA 
HETATM    3  C   UNL     1      -9.469  12.112  68.297  1.00  0.00    -0.204 C  
ENDROOT
BRANCH   2   4
HETATM    4  C   UNL     1     -11.453  10.847  68.968  1.00  0.00    -0.302 C  
BRANCH   4   5
HETATM    5  C   UNL     1     -10.491   9.841  69.634  1.00  0.00    -0.242 C  
BRANCH   5   6
HETATM    6  N   UNL     1     -10.485   8.515  68.968  1.00  0.00    -0.218 N  
HETATM    7  C   UNL     1      -9.386   8.298  68.097  1.00  0.00    -0.133 A  
HETATM    8  C   UNL     1      -9.696   8.446  66.728  1.00  0.00    -0.309 A  
HETATM    9  C   UNL     1      -8.732   8.233  65.760  1.00  0.00    -0.196 A  
HETATM   10  C   UNL     1      -7.458   7.871  66.161  1.00  0.00    -0.079 A  
HETATM   11  C   UNL     1      -7.159   7.704  67.527  1.00  0.00    -0.086 A  
HETATM   12  C   UNL     1      -8.104   7.898  68.561  1.00  0.00    -0.123 A  
HETATM   13  N   UNL     1      -7.782   7.730  69.951  1.00  0.00    -0.094 NA 
HETATM   14  C   UNL     1      -6.357   7.560  70.310  1.00  0.00    -0.034 C  
HETATM   15  C   UNL     1      -8.653   7.580  71.093  1.00  0.00    -0.121 A  
HETATM   16  C   UNL     1      -8.168   7.687  72.420  1.00  0.00    -0.140 A  
HETATM   17  C   UNL     1      -8.976   7.475  73.550  1.00  0.00    -0.271 A  
HETATM   18  C   UNL     1     -10.309   7.125  73.403  1.00  0.00    -0.391 A  
HETATM   19  C   UNL     1     -10.841   7.040  72.126  1.00  0.00    -0.255 A  
HETATM   20  C   UNL     1     -10.033   7.306  71.006  1.00  0.00    -0.188 A  
HETATM   21  C   UNL     1     -10.743   7.381  69.728  1.00  0.00    -0.241 C  
HETATM   22  O   UNL     1     -11.514   6.487  69.388  1.00  0.00    -0.355 OA 
ENDBRANCH   5   6
ENDBRANCH   4   5
ENDBRANCH   2   4
TORSDOF 3
ENDMDL
MODEL      110
REMARK 921   NORMALIZED FREE ENERGY PREDICTED BY IDOCK:   -4.10 KCAL/MOL
REMARK 922        TOTAL FREE ENERGY PREDICTED BY IDOCK:   -4.95 KCAL/MOL
REMARK 923 INTER-LIGAND FREE ENERGY PREDICTED BY IDOCK:   -4.81 KCAL/MOL
REMARK 924 INTRA-LIGAND FREE ENERGY PREDICTED BY IDOCK:   -0.14 KCAL/MOL
REMARK 927      BINDING AFFINITY PREDICTED BY RF-SCORE:    0.00 PKD
ROOT
HETATM    1  C   UNL     1     -11.650  12.813  69.139  1.00  0.00    -0.319 C  
HETATM    2  N   UNL     1     -11.864  12.142  67.850  1.00  0.00    -0.490 NA 
HETATM    3  C   UNL     1     -11.874  13.140  66.781  1.00  0.00    -0.385 C  
ENDROOT
BRANCH   2   4
HETATM    4  C   UNL     1     -10.813  11.119  67.663  1.00  0.00    -0.247 C  
BRANCH   4   5
HETATM    5  C   UNL     1     -10.887   9.890  68.593  1.00  0.00    -0.209 C  
BRANCH   5   6
HETATM    6  N   UNL     1     -10.302   8.668  67.988  1.00  0.00    -0.223 N  
HETATM    7  C   UNL     1      -8.895   8.713  67.812  1.00  0.00    -0.136 A  
HETATM    8  C   UNL     1      -8.487   8.981  66.487  1.00  0.00    -0.124 A  
HETATM    9  C   UNL     1      -7.144   9.022  66.158  1.00  0.00    -0.086 A  
HETATM   10  C   UNL     1      -6.210   8.796  67.153  1.00  0.00    -0.059 A  
HETATM   11  C   UNL     1      -6.622   8.509  68.469  1.00  0.00    -0.059 A  
HETATM   12  C   UNL     1      -7.979   8.443  68.864  1.00  0.00    -0.115 A  
HETATM   13  N   UNL     1      -8.383   8.155  70.212  1.00  0.00    -0.122 NA 
HETATM   14  C   UNL     1      -7.335   8.144  71.256  1.00  0.00    -0.072 C  
HETATM   15  C   UNL     1      -9.669   7.748  70.727  1.00  0.00    -0.173 A  
HETATM   16  C   UNL     1      -9.955   7.762  72.114  1.00  0.00    -0.249 A  
HETATM   17  C   UNL     1     -11.171   7.304  72.650  1.00  0.00    -0.355 A  
HETATM   18  C   UNL     1     -12.155   6.792  71.819  1.00  0.00    -0.393 A  
HETATM   19  C   UNL     1     -11.939   6.788  70.450  1.00  0.00    -0.343 A  
HETATM   20  C   UNL     1     -10.737   7.298  69.924  1.00  0.00    -0.257 A  
HETATM   21  C   UNL     1     -10.699   7.426  68.466  1.00  0.00    -0.098 C  
HETATM   22  O   UNL     1     -11.012   6.481  67.747  1.00  0.00    -0.296 OA 
ENDBRANCH   5   6
ENDBRANCH   4   5
ENDBRANCH   2   4
TORSDOF 3
ENDMDL
MODEL      111
REMARK 921   NORMALIZED FREE ENERGY PREDICTED BY IDOCK:   -4.10 KCAL/MOL
REMARK 922        TOTAL FREE ENERGY PREDICTED BY IDOCK:   -4.95 KCAL/MOL
REMARK 923 INTER-LIGAND FREE ENERGY PREDICTED BY IDOCK:   -4.87 KCAL/MOL
REMARK 924 INTRA-LIGAND FREE ENERGY PREDICTED BY IDOCK:   -0.08 KCAL/MOL
REMARK 927      BINDING AFFINITY PREDICTED BY RF-SCORE:    0.00 PKD
ROOT
HETATM    1  C   UNL     1     -13.389   6.851  71.694  1.00  0.00    -0.219 C  
HETATM    2  N   UNL     1     -13.198   8.308  71.707  1.00  0.00    -0.341 NA 
HETATM    3  C   UNL     1     -14.319   8.937  72.405  1.00  0.00    -0.300 C  
ENDROOT
BRANCH   2   4
HETATM    4  C   UNL     1     -11.895   8.614  72.333  1.00  0.00    -0.331 C  
BRANCH   4   5
HETATM    5  C   UNL     1     -10.891   9.402  71.466  1.00  0.00    -0.328 C  
BRANCH   5   6
HETATM    6  N   UNL     1      -9.482   8.996  71.693  1.00  0.00    -0.271 N  
HETATM    7  C   UNL     1      -9.322   7.681  72.198  1.00  0.00    -0.145 A  
HETATM    8  C   UNL     1      -9.055   7.622  73.583  1.00  0.00    -0.327 A  
HETATM    9  C   UNL     1      -8.843   6.408  74.210  1.00  0.00    -0.158 A  
HETATM   10  C   UNL     1      -8.897   5.252  73.451  1.00  0.00    -0.113 A  
HETATM   11  C   UNL     1      -9.142   5.316  72.066  1.00  0.00    -0.151 A  
HETATM   12  C   UNL     1      -9.357   6.528  71.368  1.00  0.00    -0.151 A  
HETATM   13  N   UNL     1      -9.612   6.577  69.955  1.00  0.00    -0.159 NA 
HETATM   14  C   UNL     1      -9.872   5.298  69.259  1.00  0.00    -0.186 C  
HETATM   15  C   UNL     1      -9.546   7.692  69.039  1.00  0.00    -0.151 A  
HETATM   16  C   UNL     1     -10.084   7.614  67.731  1.00  0.00    -0.237 A  
HETATM   17  C   UNL     1      -9.971   8.656  66.794  1.00  0.00    -0.343 A  
HETATM   18  C   UNL     1      -9.295   9.822  67.120  1.00  0.00    -0.169 A  
HETATM   19  C   UNL     1      -8.781   9.961  68.398  1.00  0.00    -0.120 A  
HETATM   20  C   UNL     1      -8.946   8.931  69.342  1.00  0.00    -0.145 A  
HETATM   21  C   UNL     1      -8.539   9.265  70.708  1.00  0.00    -0.203 C  
HETATM   22  O   UNL     1      -7.436   9.756  70.930  1.00  0.00    -0.320 OA 
ENDBRANCH   5   6
ENDBRANCH   4   5
ENDBRANCH   2   4
TORSDOF 3
ENDMDL
MODEL      112
REMARK 921   NORMALIZED FREE ENERGY PREDICTED BY IDOCK:   -4.09 KCAL/MOL
REMARK 922        TOTAL FREE ENERGY PREDICTED BY IDOCK:   -4.94 KCAL/MOL
REMARK 923 INTER-LIGAND FREE ENERGY PREDICTED BY IDOCK:   -4.48 KCAL/MOL
REMARK 924 INTRA-LIGAND FREE ENERGY PREDICTED BY IDOCK:   -0.45 KCAL/MOL
REMARK 927      BINDING AFFINITY PREDICTED BY RF-SCORE:    0.00 PKD
ROOT
HETATM    1  C   UNL     1     -11.705   8.078  72.740  1.00  0.00    -0.290 C  
HETATM    2  N   UNL     1     -12.238   8.906  71.650  1.00  0.00    -0.322 NA 
HETATM    3  C   UNL     1     -13.274   9.794  72.178  1.00  0.00    -0.436 C  
ENDROOT
BRANCH   2   4
HETATM    4  C   UNL     1     -11.123   9.645  71.021  1.00  0.00    -0.368 C  
BRANCH   4   5
HETATM    5  C   UNL     1      -9.955   8.789  70.488  1.00  0.00    -0.189 C  
BRANCH   5   6
HETATM    6  N   UNL     1     -10.290   8.062  69.238  1.00  0.00    -0.218 N  
HETATM    7  C   UNL     1      -9.502   8.424  68.116  1.00  0.00    -0.138 A  
HETATM    8  C   UNL     1     -10.148   9.294  67.212  1.00  0.00    -0.291 A  
HETATM    9  C   UNL     1      -9.514   9.706  66.054  1.00  0.00    -0.284 A  
HETATM   10  C   UNL     1      -8.233   9.247  65.800  1.00  0.00    -0.117 A  
HETATM   11  C   UNL     1      -7.600   8.363  66.695  1.00  0.00    -0.089 A  
HETATM   12  C   UNL     1      -8.201   7.899  67.889  1.00  0.00    -0.129 A  
HETATM   13  N   UNL     1      -7.540   7.001  68.794  1.00  0.00    -0.102 NA 
HETATM   14  C   UNL     1      -6.102   6.733  68.568  1.00  0.00    -0.026 C  
HETATM   15  C   UNL     1      -8.082   6.196  69.863  1.00  0.00    -0.119 A  
HETATM   16  C   UNL     1      -7.249   5.570  70.822  1.00  0.00    -0.074 A  
HETATM   17  C   UNL     1      -7.743   4.723  71.829  1.00  0.00    -0.097 A  
HETATM   18  C   UNL     1      -9.099   4.447  71.911  1.00  0.00    -0.163 A  
HETATM   19  C   UNL     1      -9.961   5.062  71.017  1.00  0.00    -0.281 A  
HETATM   20  C   UNL     1      -9.458   5.948  70.047  1.00  0.00    -0.189 A  
HETATM   21  C   UNL     1     -10.472   6.686  69.291  1.00  0.00    -0.214 C  
HETATM   22  O   UNL     1     -11.408   6.096  68.760  1.00  0.00    -0.344 OA 
ENDBRANCH   5   6
ENDBRANCH   4   5
ENDBRANCH   2   4
TORSDOF 3
ENDMDL
MODEL      113
REMARK 921   NORMALIZED FREE ENERGY PREDICTED BY IDOCK:   -4.08 KCAL/MOL
REMARK 922        TOTAL FREE ENERGY PREDICTED BY IDOCK:   -4.92 KCAL/MOL
REMARK 923 INTER-LIGAND FREE ENERGY PREDICTED BY IDOCK:   -4.58 KCAL/MOL
REMARK 924 INTRA-LIGAND FREE ENERGY PREDICTED BY IDOCK:   -0.34 KCAL/MOL
REMARK 927      BINDING AFFINITY PREDICTED BY RF-SCORE:    0.00 PKD
ROOT
HETATM    1  C   UNL     1     -11.423   8.822  72.213  1.00  0.00    -0.306 C  
HETATM    2  N   UNL     1     -12.159   9.206  71.001  1.00  0.00    -0.285 NA 
HETATM    3  C   UNL     1     -13.591   9.253  71.299  1.00  0.00    -0.225 C  
ENDROOT
BRANCH   2   4
HETATM    4  C   UNL     1     -11.637  10.499  70.513  1.00  0.00    -0.350 C  
BRANCH   4   5
HETATM    5  C   UNL     1     -10.949  10.479  69.132  1.00  0.00    -0.240 C  
BRANCH   5   6
HETATM    6  N   UNL     1      -9.481  10.681  69.210  1.00  0.00    -0.175 N  
HETATM    7  C   UNL     1      -8.727   9.485  69.321  1.00  0.00    -0.151 A  
HETATM    8  C   UNL     1      -8.272   9.208  70.628  1.00  0.00    -0.220 A  
HETATM    9  C   UNL     1      -7.496   8.092  70.882  1.00  0.00    -0.069 A  
HETATM   10  C   UNL     1      -7.173   7.254  69.830  1.00  0.00    -0.082 A  
HETATM   11  C   UNL     1      -7.612   7.546  68.523  1.00  0.00    -0.114 A  
HETATM   12  C   UNL     1      -8.400   8.676  68.200  1.00  0.00    -0.127 A  
HETATM   13  N   UNL     1      -8.844   8.957  66.863  1.00  0.00    -0.125 NA 
HETATM   14  C   UNL     1      -8.648   7.907  65.839  1.00  0.00    -0.153 C  
HETATM   15  C   UNL     1      -9.369  10.177  66.298  1.00  0.00    -0.172 A  
HETATM   16  C   UNL     1     -10.001  10.201  65.031  1.00  0.00    -0.375 A  
HETATM   17  C   UNL     1     -10.456  11.384  64.424  1.00  0.00    -0.388 A  
HETATM   18  C   UNL     1     -10.282  12.607  65.053  1.00  0.00    -0.294 A  
HETATM   19  C   UNL     1      -9.699  12.635  66.310  1.00  0.00    -0.260 A  
HETATM   20  C   UNL     1      -9.295  11.437  66.927  1.00  0.00    -0.191 A  
HETATM   21  C   UNL     1      -8.878  11.565  68.325  1.00  0.00    -0.166 C  
HETATM   22  O   UNL     1      -8.054  12.414  68.656  1.00  0.00    -0.114 OA 
ENDBRANCH   5   6
ENDBRANCH   4   5
ENDBRANCH   2   4
TORSDOF 3
ENDMDL
MODEL      114
REMARK 921   NORMALIZED FREE ENERGY PREDICTED BY IDOCK:   -4.00 KCAL/MOL
REMARK 922        TOTAL FREE ENERGY PREDICTED BY IDOCK:   -4.83 KCAL/MOL
REMARK 923 INTER-LIGAND FREE ENERGY PREDICTED BY IDOCK:   -4.43 KCAL/MOL
REMARK 924 INTRA-LIGAND FREE ENERGY PREDICTED BY IDOCK:   -0.40 KCAL/MOL
REMARK 927      BINDING AFFINITY PREDICTED BY RF-SCORE:    0.00 PKD
ROOT
HETATM    1  C   UNL     1     -11.436   6.378  70.285  1.00  0.00    -0.402 C  
HETATM    2  N   UNL     1     -11.355   7.811  70.599  1.00  0.00    -0.274 NA 
HETATM    3  C   UNL     1     -12.045   8.070  71.863  1.00  0.00    -0.317 C  
ENDROOT
BRANCH   2   4
HETATM    4  C   UNL     1      -9.933   8.212  70.635  1.00  0.00    -0.189 C  
BRANCH   4   5
HETATM    5  C   UNL     1      -9.618   9.648  70.163  1.00  0.00    -0.254 C  
BRANCH   5   6
HETATM    6  N   UNL     1     -10.241   9.979  68.858  1.00  0.00    -0.183 N  
HETATM    7  C   UNL     1     -10.345  11.369  68.591  1.00  0.00    -0.203 A  
HETATM    8  C   UNL     1     -11.637  11.901  68.795  1.00  0.00    -0.366 A  
HETATM    9  C   UNL     1     -11.897  13.235  68.543  1.00  0.00    -0.384 A  
HETATM   10  C   UNL     1     -10.867  14.037  68.085  1.00  0.00    -0.260 A  
HETATM   11  C   UNL     1      -9.585  13.497  67.863  1.00  0.00    -0.218 A  
HETATM   12  C   UNL     1      -9.261  12.140  68.094  1.00  0.00    -0.197 A  
HETATM   13  N   UNL     1      -7.946  11.605  67.867  1.00  0.00    -0.125 NA 
HETATM   14  C   UNL     1      -6.853  12.563  67.593  1.00  0.00    -0.136 C  
HETATM   15  C   UNL     1      -7.512  10.233  67.746  1.00  0.00    -0.088 A  
HETATM   16  C   UNL     1      -6.141   9.880  67.786  1.00  0.00    -0.054 A  
HETATM   17  C   UNL     1      -5.684   8.564  67.599  1.00  0.00    -0.039 A  
HETATM   18  C   UNL     1      -6.583   7.539  67.344  1.00  0.00    -0.062 A  
HETATM   19  C   UNL     1      -7.938   7.827  67.328  1.00  0.00    -0.118 A  
HETATM   20  C   UNL     1      -8.383   9.140  67.569  1.00  0.00    -0.116 A  
HETATM   21  C   UNL     1      -9.832   9.288  67.724  1.00  0.00    -0.171 C  
HETATM   22  O   UNL     1     -10.602   8.814  66.894  1.00  0.00    -0.276 OA 
ENDBRANCH   5   6
ENDBRANCH   4   5
ENDBRANCH   2   4
TORSDOF 3
ENDMDL
MODEL      115
REMARK 921   NORMALIZED FREE ENERGY PREDICTED BY IDOCK:   -4.00 KCAL/MOL
REMARK 922        TOTAL FREE ENERGY PREDICTED BY IDOCK:   -4.83 KCAL/MOL
REMARK 923 INTER-LIGAND FREE ENERGY PREDICTED BY IDOCK:   -4.35 KCAL/MOL
REMARK 924 INTRA-LIGAND FREE ENERGY PREDICTED BY IDOCK:   -0.48 KCAL/MOL
REMARK 927      BINDING AFFINITY PREDICTED BY RF-SCORE:    0.00 PKD
ROOT
HETATM    1  C   UNL     1     -11.967   6.745  71.426  1.00  0.00    -0.355 C  
HETATM    2  N   UNL     1     -11.847   8.144  70.995  1.00  0.00    -0.284 NA 
HETATM    3  C   UNL     1     -12.820   8.960  71.721  1.00  0.00    -0.365 C  
ENDROOT
BRANCH   2   4
HETATM    4  C   UNL     1     -10.456   8.594  71.210  1.00  0.00    -0.242 C  
BRANCH   4   5
HETATM    5  C   UNL     1      -9.590   8.758  69.943  1.00  0.00    -0.177 C  
BRANCH   5   6
HETATM    6  N   UNL     1     -10.383   8.735  68.690  1.00  0.00    -0.207 N  
HETATM    7  C   UNL     1     -10.327   9.935  67.935  1.00  0.00    -0.212 A  
HETATM    8  C   UNL     1     -11.466  10.757  68.071  1.00  0.00    -0.333 A  
HETATM    9  C   UNL     1     -11.567  11.944  67.368  1.00  0.00    -0.367 A  
HETATM   10  C   UNL     1     -10.529  12.307  66.528  1.00  0.00    -0.254 A  
HETATM   11  C   UNL     1      -9.404  11.473  66.379  1.00  0.00    -0.222 A  
HETATM   12  C   UNL     1      -9.249  10.245  67.063  1.00  0.00    -0.150 A  
HETATM   13  N   UNL     1      -8.092   9.408  66.905  1.00  0.00    -0.108 NA 
HETATM   14  C   UNL     1      -6.937   9.964  66.167  1.00  0.00    -0.102 C  
HETATM   15  C   UNL     1      -7.895   8.021  67.258  1.00  0.00    -0.109 A  
HETATM   16  C   UNL     1      -6.608   7.431  67.271  1.00  0.00    -0.061 A  
HETATM   17  C   UNL     1      -6.394   6.068  67.540  1.00  0.00    -0.041 A  
HETATM   18  C   UNL     1      -7.466   5.226  67.793  1.00  0.00    -0.076 A  
HETATM   19  C   UNL     1      -8.743   5.762  67.827  1.00  0.00    -0.107 A  
HETATM   20  C   UNL     1      -8.937   7.138  67.606  1.00  0.00    -0.125 A  
HETATM   21  C   UNL     1     -10.295   7.625  67.860  1.00  0.00    -0.212 C  
HETATM   22  O   UNL     1     -11.264   7.060  67.362  1.00  0.00    -0.241 OA 
ENDBRANCH   5   6
ENDBRANCH   4   5
ENDBRANCH   2   4
TORSDOF 3
ENDMDL
MODEL      116
REMARK 921   NORMALIZED FREE ENERGY PREDICTED BY IDOCK:   -3.96 KCAL/MOL
REMARK 922        TOTAL FREE ENERGY PREDICTED BY IDOCK:   -4.79 KCAL/MOL
REMARK 923 INTER-LIGAND FREE ENERGY PREDICTED BY IDOCK:   -4.48 KCAL/MOL
REMARK 924 INTRA-LIGAND FREE ENERGY PREDICTED BY IDOCK:   -0.31 KCAL/MOL
REMARK 927      BINDING AFFINITY PREDICTED BY RF-SCORE:    0.00 PKD
ROOT
HETATM    1  C   UNL     1      -5.631   9.423  71.303  1.00  0.00    -0.064 C  
HETATM    2  N   UNL     1      -6.499  10.463  70.735  1.00  0.00    -0.335 NA 
HETATM    3  C   UNL     1      -5.695  11.372  69.918  1.00  0.00    -0.100 C  
ENDROOT
BRANCH   2   4
HETATM    4  C   UNL     1      -7.582   9.814  69.965  1.00  0.00    -0.163 C  
BRANCH   4   5
HETATM    5  C   UNL     1      -8.228  10.664  68.850  1.00  0.00    -0.145 C  
BRANCH   5   6
HETATM    6  N   UNL     1      -9.694  10.464  68.744  1.00  0.00    -0.174 N  
HETATM    7  C   UNL     1     -10.386  11.518  68.093  1.00  0.00    -0.195 A  
HETATM    8  C   UNL     1     -11.056  12.397  68.970  1.00  0.00    -0.288 A  
HETATM    9  C   UNL     1     -11.801  13.453  68.476  1.00  0.00    -0.401 A  
HETATM   10  C   UNL     1     -11.876  13.628  67.106  1.00  0.00    -0.435 A  
HETATM   11  C   UNL     1     -11.223  12.736  66.234  1.00  0.00    -0.339 A  
HETATM   12  C   UNL     1     -10.456  11.633  66.678  1.00  0.00    -0.233 A  
HETATM   13  N   UNL     1      -9.790  10.735  65.776  1.00  0.00    -0.227 NA 
HETATM   14  C   UNL     1      -9.734  11.113  64.347  1.00  0.00    -0.268 C  
HETATM   15  C   UNL     1      -9.242   9.420  66.014  1.00  0.00    -0.200 A  
HETATM   16  C   UNL     1      -8.390   8.787  65.076  1.00  0.00    -0.180 A  
HETATM   17  C   UNL     1      -7.900   7.481  65.246  1.00  0.00    -0.120 A  
HETATM   18  C   UNL     1      -8.257   6.738  66.361  1.00  0.00    -0.117 A  
HETATM   19  C   UNL     1      -9.061   7.324  67.325  1.00  0.00    -0.133 A  
HETATM   20  C   UNL     1      -9.502   8.651  67.166  1.00  0.00    -0.207 A  
HETATM   21  C   UNL     1     -10.175   9.228  68.331  1.00  0.00    -0.202 C  
HETATM   22  O   UNL     1     -11.093   8.628  68.884  1.00  0.00     0.044 OA 
ENDBRANCH   5   6
ENDBRANCH   4   5
ENDBRANCH   2   4
TORSDOF 3
ENDMDL
MODEL      117
REMARK 921   NORMALIZED FREE ENERGY PREDICTED BY IDOCK:   -3.96 KCAL/MOL
REMARK 922        TOTAL FREE ENERGY PREDICTED BY IDOCK:   -4.78 KCAL/MOL
REMARK 923 INTER-LIGAND FREE ENERGY PREDICTED BY IDOCK:   -4.57 KCAL/MOL
REMARK 924 INTRA-LIGAND FREE ENERGY PREDICTED BY IDOCK:   -0.22 KCAL/MOL
REMARK 927      BINDING AFFINITY PREDICTED BY RF-SCORE:    0.00 PKD
ROOT
HETATM    1  C   UNL     1     -10.341  10.473  65.046  1.00  0.00    -0.240 C  
HETATM    2  N   UNL     1     -10.035  11.859  64.668  1.00  0.00    -0.250 NA 
HETATM    3  C   UNL     1     -10.221  12.020  63.226  1.00  0.00    -0.361 C  
ENDROOT
BRANCH   2   4
HETATM    4  C   UNL     1     -10.890  12.770  65.457  1.00  0.00    -0.274 C  
BRANCH   4   5
HETATM    5  C   UNL     1     -10.159  13.877  66.247  1.00  0.00    -0.300 C  
BRANCH   5   6
HETATM    6  N   UNL     1     -10.468  13.856  67.698  1.00  0.00    -0.244 N  
HETATM    7  C   UNL     1     -10.542  12.558  68.266  1.00  0.00    -0.231 A  
HETATM    8  C   UNL     1     -11.858  12.091  68.471  1.00  0.00    -0.369 A  
HETATM    9  C   UNL     1     -12.085  10.855  69.049  1.00  0.00    -0.240 A  
HETATM   10  C   UNL     1     -10.997  10.087  69.423  1.00  0.00    -0.280 A  
HETATM   11  C   UNL     1      -9.685  10.567  69.236  1.00  0.00    -0.215 A  
HETATM   12  C   UNL     1      -9.390  11.825  68.660  1.00  0.00    -0.090 A  
HETATM   13  N   UNL     1      -8.047  12.298  68.470  1.00  0.00    -0.133 NA 
HETATM   14  C   UNL     1      -6.943  11.337  68.689  1.00  0.00    -0.084 C  
HETATM   15  C   UNL     1      -7.563  13.631  68.202  1.00  0.00    -0.137 A  
HETATM   16  C   UNL     1      -6.231  13.870  67.784  1.00  0.00    -0.155 A  
HETATM   17  C   UNL     1      -5.711  15.161  67.585  1.00  0.00    -0.055 A  
HETATM   18  C   UNL     1      -6.500  16.278  67.813  1.00  0.00    -0.161 A  
HETATM   19  C   UNL     1      -7.821  16.097  68.190  1.00  0.00    -0.147 A  
HETATM   20  C   UNL     1      -8.342  14.798  68.336  1.00  0.00    -0.154 A  
HETATM   21  C   UNL     1      -9.790  14.727  68.541  1.00  0.00    -0.218 C  
HETATM   22  O   UNL     1     -10.333  15.410  69.404  1.00  0.00    -0.227 OA 
ENDBRANCH   5   6
ENDBRANCH   4   5
ENDBRANCH   2   4
TORSDOF 3
ENDMDL
MODEL      118
REMARK 921   NORMALIZED FREE ENERGY PREDICTED BY IDOCK:   -3.94 KCAL/MOL
REMARK 922        TOTAL FREE ENERGY PREDICTED BY IDOCK:   -4.76 KCAL/MOL
REMARK 923 INTER-LIGAND FREE ENERGY PREDICTED BY IDOCK:   -4.30 KCAL/MOL
REMARK 924 INTRA-LIGAND FREE ENERGY PREDICTED BY IDOCK:   -0.46 KCAL/MOL
REMARK 927      BINDING AFFINITY PREDICTED BY RF-SCORE:    0.00 PKD
ROOT
HETATM    1  C   UNL     1      -6.286  18.076  67.052  1.00  0.00    -0.161 C  
HETATM    2  N   UNL     1      -7.331  19.068  66.768  1.00  0.00    -0.208 NA 
HETATM    3  C   UNL     1      -6.767  20.148  65.958  1.00  0.00    -0.247 C  
ENDROOT
BRANCH   2   4
HETATM    4  C   UNL     1      -8.464  18.391  66.102  1.00  0.00    -0.119 C  
BRANCH   4   5
HETATM    5  C   UNL     1      -8.450  16.848  66.135  1.00  0.00    -0.246 C  
BRANCH   5   6
HETATM    6  N   UNL     1      -9.683  16.268  66.723  1.00  0.00    -0.232 N  
HETATM    7  C   UNL     1     -10.273  15.233  65.954  1.00  0.00    -0.332 A  
HETATM    8  C   UNL     1     -11.400  15.639  65.207  1.00  0.00    -0.139 A  
HETATM    9  C   UNL     1     -12.099  14.729  64.434  1.00  0.00    -0.457 A  
HETATM   10  C   UNL     1     -11.671  13.414  64.410  1.00  0.00    -0.435 A  
HETATM   11  C   UNL     1     -10.559  13.009  65.173  1.00  0.00    -0.327 A  
HETATM   12  C   UNL     1      -9.811  13.890  65.988  1.00  0.00    -0.289 A  
HETATM   13  N   UNL     1      -8.674  13.463  66.757  1.00  0.00    -0.139 NA 
HETATM   14  C   UNL     1      -8.149  12.103  66.509  1.00  0.00     0.107 C  
HETATM   15  C   UNL     1      -7.998  14.116  67.853  1.00  0.00    -0.156 A  
HETATM   16  C   UNL     1      -6.737  13.673  68.320  1.00  0.00    -0.108 A  
HETATM   17  C   UNL     1      -6.088  14.242  69.430  1.00  0.00    -0.108 A  
HETATM   18  C   UNL     1      -6.684  15.275  70.137  1.00  0.00    -0.037 A  
HETATM   19  C   UNL     1      -7.903  15.768  69.700  1.00  0.00    -0.044 A  
HETATM   20  C   UNL     1      -8.516  15.222  68.557  1.00  0.00    -0.162 A  
HETATM   21  C   UNL     1      -9.694  15.946  68.075  1.00  0.00    -0.216 C  
HETATM   22  O   UNL     1     -10.606  16.239  68.843  1.00  0.00    -0.246 OA 
ENDBRANCH   5   6
ENDBRANCH   4   5
ENDBRANCH   2   4
TORSDOF 3
ENDMDL
MODEL      119
REMARK 921   NORMALIZED FREE ENERGY PREDICTED BY IDOCK:   -3.92 KCAL/MOL
REMARK 922        TOTAL FREE ENERGY PREDICTED BY IDOCK:   -4.75 KCAL/MOL
REMARK 923 INTER-LIGAND FREE ENERGY PREDICTED BY IDOCK:   -4.28 KCAL/MOL
REMARK 924 INTRA-LIGAND FREE ENERGY PREDICTED BY IDOCK:   -0.46 KCAL/MOL
REMARK 927      BINDING AFFINITY PREDICTED BY RF-SCORE:    0.00 PKD
ROOT
HETATM    1  C   UNL     1     -11.144   9.100  71.365  1.00  0.00    -0.345 C  
HETATM    2  N   UNL     1     -10.971   9.520  69.968  1.00  0.00    -0.242 NA 
HETATM    3  C   UNL     1     -11.766  10.724  69.723  1.00  0.00    -0.324 C  
ENDROOT
BRANCH   2   4
HETATM    4  C   UNL     1      -9.531   9.727  69.706  1.00  0.00    -0.228 C  
BRANCH   4   5
HETATM    5  C   UNL     1      -8.914   8.869  68.582  1.00  0.00    -0.137 C  
BRANCH   5   6
HETATM    6  N   UNL     1      -9.878   8.545  67.501  1.00  0.00    -0.165 N  
HETATM    7  C   UNL     1      -9.632   9.211  66.273  1.00  0.00    -0.255 A  
HETATM    8  C   UNL     1     -10.477  10.316  66.035  1.00  0.00    -0.181 A  
HETATM    9  C   UNL     1     -10.375  11.042  64.863  1.00  0.00    -0.378 A  
HETATM   10  C   UNL     1      -9.429  10.662  63.927  1.00  0.00    -0.325 A  
HETATM   11  C   UNL     1      -8.602   9.545  64.160  1.00  0.00    -0.217 A  
HETATM   12  C   UNL     1      -8.666   8.759  65.334  1.00  0.00    -0.183 A  
HETATM   13  N   UNL     1      -7.811   7.627  65.559  1.00  0.00    -0.105 NA 
HETATM   14  C   UNL     1      -6.686   7.418  64.621  1.00  0.00    -0.046 C  
HETATM   15  C   UNL     1      -7.931   6.550  66.513  1.00  0.00    -0.109 A  
HETATM   16  C   UNL     1      -6.860   5.660  66.771  1.00  0.00    -0.063 A  
HETATM   17  C   UNL     1      -6.971   4.560  67.640  1.00  0.00    -0.060 A  
HETATM   18  C   UNL     1      -8.170   4.290  68.280  1.00  0.00    -0.090 A  
HETATM   19  C   UNL     1      -9.239   5.150  68.088  1.00  0.00    -0.136 A  
HETATM   20  C   UNL     1      -9.098   6.276  67.256  1.00  0.00    -0.116 A  
HETATM   21  C   UNL     1     -10.220   7.216  67.283  1.00  0.00    -0.245 C  
HETATM   22  O   UNL     1     -11.372   6.820  67.128  1.00  0.00    -0.330 OA 
ENDBRANCH   5   6
ENDBRANCH   4   5
ENDBRANCH   2   4
TORSDOF 3
ENDMDL
MODEL      120
REMARK 921   NORMALIZED FREE ENERGY PREDICTED BY IDOCK:   -3.91 KCAL/MOL
REMARK 922        TOTAL FREE ENERGY PREDICTED BY IDOCK:   -4.73 KCAL/MOL
REMARK 923 INTER-LIGAND FREE ENERGY PREDICTED BY IDOCK:   -4.58 KCAL/MOL
REMARK 924 INTRA-LIGAND FREE ENERGY PREDICTED BY IDOCK:   -0.15 KCAL/MOL
REMARK 927      BINDING AFFINITY PREDICTED BY RF-SCORE:    0.00 PKD
ROOT
HETATM    1  C   UNL     1     -12.996  11.839  71.845  1.00  0.00    -0.330 C  
HETATM    2  N   UNL     1     -12.741  12.575  70.600  1.00  0.00    -0.123 NA 
HETATM    3  C   UNL     1     -12.483  13.981  70.911  1.00  0.00    -0.369 C  
ENDROOT
BRANCH   2   4
HETATM    4  C   UNL     1     -11.615  11.934  69.888  1.00  0.00    -0.256 C  
BRANCH   4   5
HETATM    5  C   UNL     1     -11.395  10.434  70.173  1.00  0.00    -0.323 C  
BRANCH   5   6
HETATM    6  N   UNL     1     -10.497   9.781  69.189  1.00  0.00    -0.206 N  
HETATM    7  C   UNL     1      -9.150  10.226  69.233  1.00  0.00    -0.194 A  
HETATM    8  C   UNL     1      -8.810  11.140  68.213  1.00  0.00    -0.155 A  
HETATM    9  C   UNL     1      -7.522  11.634  68.111  1.00  0.00    -0.103 A  
HETATM   10  C   UNL     1      -6.575  11.214  69.028  1.00  0.00    -0.075 A  
HETATM   11  C   UNL     1      -6.915  10.286  70.031  1.00  0.00    -0.152 A  
HETATM   12  C   UNL     1      -8.210   9.738  70.180  1.00  0.00    -0.179 A  
HETATM   13  N   UNL     1      -8.542   8.796  71.213  1.00  0.00    -0.188 NA 
HETATM   14  C   UNL     1      -7.544   8.567  72.280  1.00  0.00    -0.058 C  
HETATM   15  C   UNL     1      -9.681   7.916  71.334  1.00  0.00    -0.164 A  
HETATM   16  C   UNL     1      -9.979   7.246  72.546  1.00  0.00    -0.213 A  
HETATM   17  C   UNL     1     -11.037   6.329  72.673  1.00  0.00    -0.298 A  
HETATM   18  C   UNL     1     -11.838   6.026  71.583  1.00  0.00    -0.142 A  
HETATM   19  C   UNL     1     -11.609   6.680  70.383  1.00  0.00    -0.457 A  
HETATM   20  C   UNL     1     -10.579   7.634  70.285  1.00  0.00    -0.233 A  
HETATM   21  C   UNL     1     -10.556   8.401  69.038  1.00  0.00    -0.154 C  
HETATM   22  O   UNL     1     -10.596   7.830  67.952  1.00  0.00    -0.209 OA 
ENDBRANCH   5   6
ENDBRANCH   4   5
ENDBRANCH   2   4
TORSDOF 3
ENDMDL
MODEL      121
REMARK 921   NORMALIZED FREE ENERGY PREDICTED BY IDOCK:   -3.89 KCAL/MOL
REMARK 922        TOTAL FREE ENERGY PREDICTED BY IDOCK:   -4.70 KCAL/MOL
REMARK 923 INTER-LIGAND FREE ENERGY PREDICTED BY IDOCK:   -4.53 KCAL/MOL
REMARK 924 INTRA-LIGAND FREE ENERGY PREDICTED BY IDOCK:   -0.18 KCAL/MOL
REMARK 927      BINDING AFFINITY PREDICTED BY RF-SCORE:    0.00 PKD
ROOT
HETATM    1  C   UNL     1      -5.536  12.482  68.646  1.00  0.00    -0.054 C  
HETATM    2  N   UNL     1      -6.246  12.755  67.390  1.00  0.00    -0.211 NA 
HETATM    3  C   UNL     1      -6.444  11.501  66.663  1.00  0.00    -0.090 C  
ENDROOT
BRANCH   2   4
HETATM    4  C   UNL     1      -7.519  13.440  67.700  1.00  0.00    -0.178 C  
BRANCH   4   5
HETATM    5  C   UNL     1      -8.421  12.758  68.750  1.00  0.00     0.163 C  
BRANCH   5   6
HETATM    6  N   UNL     1      -9.868  12.927  68.471  1.00  0.00    -0.188 N  
HETATM    7  C   UNL     1     -10.181  13.177  67.110  1.00  0.00    -0.244 A  
HETATM    8  C   UNL     1     -10.460  14.530  66.821  1.00  0.00    -0.270 A  
HETATM    9  C   UNL     1     -10.814  14.920  65.542  1.00  0.00    -0.365 A  
HETATM   10  C   UNL     1     -10.889  13.956  64.552  1.00  0.00    -0.381 A  
HETATM   11  C   UNL     1     -10.629  12.604  64.850  1.00  0.00    -0.332 A  
HETATM   12  C   UNL     1     -10.273  12.144  66.140  1.00  0.00    -0.227 A  
HETATM   13  N   UNL     1     -10.006  10.762  66.426  1.00  0.00    -0.209 NA 
HETATM   14  C   UNL     1      -9.890   9.833  65.281  1.00  0.00    -0.265 C  
HETATM   15  C   UNL     1      -9.939  10.074  67.694  1.00  0.00    -0.176 A  
HETATM   16  C   UNL     1      -9.406   8.766  67.805  1.00  0.00    -0.157 A  
HETATM   17  C   UNL     1      -9.394   8.045  69.012  1.00  0.00    -0.147 A  
HETATM   18  C   UNL     1      -9.933   8.595  70.164  1.00  0.00    -0.193 A  
HETATM   19  C   UNL     1     -10.436   9.886  70.116  1.00  0.00    -0.339 A  
HETATM   20  C   UNL     1     -10.395  10.615  68.913  1.00  0.00    -0.225 A  
HETATM   21  C   UNL     1     -10.769  12.026  69.027  1.00  0.00    -0.136 C  
HETATM   22  O   UNL     1     -11.810  12.354  69.588  1.00  0.00    -0.305 OA 
ENDBRANCH   5   6
ENDBRANCH   4   5
ENDBRANCH   2   4
TORSDOF 3
ENDMDL
MODEL      122
REMARK 921   NORMALIZED FREE ENERGY PREDICTED BY IDOCK:   -3.88 KCAL/MOL
REMARK 922        TOTAL FREE ENERGY PREDICTED BY IDOCK:   -4.69 KCAL/MOL
REMARK 923 INTER-LIGAND FREE ENERGY PREDICTED BY IDOCK:   -4.76 KCAL/MOL
REMARK 924 INTRA-LIGAND FREE ENERGY PREDICTED BY IDOCK:    0.07 KCAL/MOL
REMARK 927      BINDING AFFINITY PREDICTED BY RF-SCORE:    0.00 PKD
ROOT
HETATM    1  C   UNL     1      -6.796  11.095  66.600  1.00  0.00    -0.137 C  
HETATM    2  N   UNL     1      -6.809  10.180  67.749  1.00  0.00    -0.075 NA 
HETATM    3  C   UNL     1      -5.506  10.215  68.411  1.00  0.00    -0.038 C  
ENDROOT
BRANCH   2   4
HETATM    4  C   UNL     1      -7.916  10.561  68.651  1.00  0.00    -0.124 C  
BRANCH   4   5
HETATM    5  C   UNL     1      -8.875  11.652  68.130  1.00  0.00    -0.164 C  
BRANCH   5   6
HETATM    6  N   UNL     1     -10.024  11.101  67.371  1.00  0.00    -0.177 N  
HETATM    7  C   UNL     1     -10.297   9.732  67.624  1.00  0.00    -0.230 A  
HETATM    8  C   UNL     1      -9.834   8.855  66.620  1.00  0.00    -0.332 A  
HETATM    9  C   UNL     1     -10.057   7.493  66.716  1.00  0.00    -0.313 A  
HETATM   10  C   UNL     1     -10.744   7.010  67.815  1.00  0.00    -0.300 A  
HETATM   11  C   UNL     1     -11.222   7.891  68.804  1.00  0.00     0.427 A  
HETATM   12  C   UNL     1     -11.033   9.292  68.757  1.00  0.00    -0.007 A  
HETATM   13  N   UNL     1     -11.523  10.177  69.777  1.00  0.00    -0.246 NA 
HETATM   14  C   UNL     1     -12.049   9.570  71.019  1.00  0.00    -0.318 C  
HETATM   15  C   UNL     1     -11.701  11.610  69.753  1.00  0.00    -0.352 A  
HETATM   16  C   UNL     1     -11.947  12.350  70.936  1.00  0.00     0.054 A  
HETATM   17  C   UNL     1     -12.196  13.733  70.936  1.00  0.00    -0.427 A  
HETATM   18  C   UNL     1     -12.227  14.440  69.743  1.00  0.00    -0.370 A  
HETATM   19  C   UNL     1     -11.959  13.769  68.561  1.00  0.00    -0.402 A  
HETATM   20  C   UNL     1     -11.661  12.394  68.582  1.00  0.00    -0.365 A  
HETATM   21  C   UNL     1     -11.202  11.835  67.309  1.00  0.00    -0.305 C  
HETATM   22  O   UNL     1     -11.837  12.031  66.276  1.00  0.00    -0.563 OA 
ENDBRANCH   5   6
ENDBRANCH   4   5
ENDBRANCH   2   4
TORSDOF 3
ENDMDL
MODEL      123
REMARK 921   NORMALIZED FREE ENERGY PREDICTED BY IDOCK:   -3.87 KCAL/MOL
REMARK 922        TOTAL FREE ENERGY PREDICTED BY IDOCK:   -4.68 KCAL/MOL
REMARK 923 INTER-LIGAND FREE ENERGY PREDICTED BY IDOCK:   -4.29 KCAL/MOL
REMARK 924 INTRA-LIGAND FREE ENERGY PREDICTED BY IDOCK:   -0.39 KCAL/MOL
REMARK 927      BINDING AFFINITY PREDICTED BY RF-SCORE:    0.00 PKD
ROOT
HETATM    1  C   UNL     1      -9.383  19.567  68.734  1.00  0.00    -0.363 C  
HETATM    2  N   UNL     1     -10.741  19.204  68.308  1.00  0.00    -0.161 NA 
HETATM    3  C   UNL     1     -11.003  19.777  66.987  1.00  0.00    -0.226 C  
ENDROOT
BRANCH   2   4
HETATM    4  C   UNL     1     -10.870  17.732  68.325  1.00  0.00    -0.145 C  
BRANCH   4   5
HETATM    5  C   UNL     1      -9.557  16.932  68.195  1.00  0.00    -0.255 C  
BRANCH   5   6
HETATM    6  N   UNL     1      -9.130  16.740  66.786  1.00  0.00    -0.229 N  
HETATM    7  C   UNL     1      -7.773  17.064  66.533  1.00  0.00    -0.292 A  
HETATM    8  C   UNL     1      -7.584  18.318  65.913  1.00  0.00    -0.164 A  
HETATM    9  C   UNL     1      -6.315  18.753  65.575  1.00  0.00    -0.313 A  
HETATM   10  C   UNL     1      -5.236  17.934  65.855  1.00  0.00    -0.235 A  
HETATM   11  C   UNL     1      -5.431  16.675  66.455  1.00  0.00     0.227 A  
HETATM   12  C   UNL     1      -6.704  16.172  66.815  1.00  0.00     0.057 A  
HETATM   13  N   UNL     1      -6.886  14.887  67.432  1.00  0.00    -0.248 NA 
HETATM   14  C   UNL     1      -5.678  14.171  67.898  1.00  0.00    -0.112 C  
HETATM   15  C   UNL     1      -8.082  14.091  67.580  1.00  0.00    -0.174 A  
HETATM   16  C   UNL     1      -8.129  12.970  68.445  1.00  0.00    -0.131 A  
HETATM   17  C   UNL     1      -9.254  12.135  68.555  1.00  0.00    -0.100 A  
HETATM   18  C   UNL     1     -10.383  12.375  67.789  1.00  0.00    -0.222 A  
HETATM   19  C   UNL     1     -10.401  13.479  66.952  1.00  0.00    -0.265 A  
HETATM   20  C   UNL     1      -9.286  14.336  66.890  1.00  0.00    -0.268 A  
HETATM   21  C   UNL     1      -9.490  15.570  66.129  1.00  0.00    -0.341 C  
HETATM   22  O   UNL     1      -9.956  15.536  64.994  1.00  0.00    -0.331 OA 
ENDBRANCH   5   6
ENDBRANCH   4   5
ENDBRANCH   2   4
TORSDOF 3
ENDMDL
MODEL      124
REMARK 921   NORMALIZED FREE ENERGY PREDICTED BY IDOCK:   -3.85 KCAL/MOL
REMARK 922        TOTAL FREE ENERGY PREDICTED BY IDOCK:   -4.66 KCAL/MOL
REMARK 923 INTER-LIGAND FREE ENERGY PREDICTED BY IDOCK:   -4.58 KCAL/MOL
REMARK 924 INTRA-LIGAND FREE ENERGY PREDICTED BY IDOCK:   -0.08 KCAL/MOL
REMARK 927      BINDING AFFINITY PREDICTED BY RF-SCORE:    0.00 PKD
ROOT
HETATM    1  C   UNL     1      -9.502   4.314  68.279  1.00  0.00    -0.154 C  
HETATM    2  N   UNL     1      -9.828   5.430  67.381  1.00  0.00    -0.143 NA 
HETATM    3  C   UNL     1     -10.438   4.906  66.159  1.00  0.00    -0.302 C  
ENDROOT
BRANCH   2   4
HETATM    4  C   UNL     1     -10.711   6.375  68.096  1.00  0.00    -0.291 C  
BRANCH   4   5
HETATM    5  C   UNL     1     -10.526   7.869  67.755  1.00  0.00    -0.212 C  
BRANCH   5   6
HETATM    6  N   UNL     1     -11.138   8.774  68.760  1.00  0.00     0.149 N  
HETATM    7  C   UNL     1     -10.815   8.466  70.106  1.00  0.00    -0.236 A  
HETATM    8  C   UNL     1     -11.837   7.788  70.805  1.00  0.00    -0.205 A  
HETATM    9  C   UNL     1     -11.676   7.452  72.137  1.00  0.00    -0.328 A  
HETATM   10  C   UNL     1     -10.494   7.794  72.769  1.00  0.00    -0.390 A  
HETATM   11  C   UNL     1      -9.486   8.489  72.074  1.00  0.00    -0.364 A  
HETATM   12  C   UNL     1      -9.596   8.868  70.715  1.00  0.00    -0.229 A  
HETATM   13  N   UNL     1      -8.556   9.571  70.017  1.00  0.00    -0.197 NA 
HETATM   14  C   UNL     1      -7.245   9.705  70.691  1.00  0.00    -0.103 C  
HETATM   15  C   UNL     1      -8.603  10.297  68.770  1.00  0.00    -0.139 A  
HETATM   16  C   UNL     1      -7.423  10.706  68.101  1.00  0.00    -0.090 A  
HETATM   17  C   UNL     1      -7.438  11.475  66.924  1.00  0.00    -0.145 A  
HETATM   18  C   UNL     1      -8.641  11.886  66.370  1.00  0.00    -0.077 A  
HETATM   19  C   UNL     1      -9.824  11.483  66.968  1.00  0.00    -0.212 A  
HETATM   20  C   UNL     1      -9.794  10.671  68.116  1.00  0.00    -0.170 A  
HETATM   21  C   UNL     1     -11.093  10.146  68.543  1.00  0.00    -0.214 C  
HETATM   22  O   UNL     1     -12.055  10.895  68.681  1.00  0.00    -0.527 OA 
ENDBRANCH   5   6
ENDBRANCH   4   5
ENDBRANCH   2   4
TORSDOF 3
ENDMDL
MODEL      125
REMARK 921   NORMALIZED FREE ENERGY PREDICTED BY IDOCK:   -3.83 KCAL/MOL
REMARK 922        TOTAL FREE ENERGY PREDICTED BY IDOCK:   -4.64 KCAL/MOL
REMARK 923 INTER-LIGAND FREE ENERGY PREDICTED BY IDOCK:   -4.59 KCAL/MOL
REMARK 924 INTRA-LIGAND FREE ENERGY PREDICTED BY IDOCK:   -0.05 KCAL/MOL
REMARK 927      BINDING AFFINITY PREDICTED BY RF-SCORE:    0.00 PKD
ROOT
HETATM    1  C   UNL     1      -9.420   3.707  66.711  1.00  0.00    -0.179 C  
HETATM    2  N   UNL     1      -9.517   4.996  67.407  1.00  0.00    -0.130 NA 
HETATM    3  C   UNL     1     -10.763   5.662  67.024  1.00  0.00    -0.250 C  
ENDROOT
BRANCH   2   4
HETATM    4  C   UNL     1      -9.424   4.762  68.863  1.00  0.00    -0.146 C  
BRANCH   4   5
HETATM    5  C   UNL     1     -10.534   5.394  69.728  1.00  0.00    -0.307 C  
BRANCH   5   6
HETATM    6  N   UNL     1     -10.400   5.075  71.171  1.00  0.00    -0.210 N  
HETATM    7  C   UNL     1      -9.062   4.990  71.634  1.00  0.00    -0.140 A  
HETATM    8  C   UNL     1      -8.588   3.670  71.793  1.00  0.00    -0.112 A  
HETATM    9  C   UNL     1      -7.312   3.431  72.269  1.00  0.00    -0.055 A  
HETATM   10  C   UNL     1      -6.510   4.513  72.587  1.00  0.00    -0.040 A  
HETATM   11  C   UNL     1      -6.994   5.828  72.447  1.00  0.00    -0.083 A  
HETATM   12  C   UNL     1      -8.292   6.134  71.975  1.00  0.00    -0.114 A  
HETATM   13  N   UNL     1      -8.769   7.482  71.832  1.00  0.00    -0.113 NA 
HETATM   14  C   UNL     1      -7.787   8.578  71.980  1.00  0.00    -0.099 C  
HETATM   15  C   UNL     1     -10.117   7.976  71.673  1.00  0.00    -0.184 A  
HETATM   16  C   UNL     1     -10.380   9.312  71.284  1.00  0.00    -0.397 A  
HETATM   17  C   UNL     1     -11.679   9.841  71.192  1.00  0.00    -0.465 A  
HETATM   18  C   UNL     1     -12.779   9.058  71.503  1.00  0.00    -0.399 A  
HETATM   19  C   UNL     1     -12.578   7.733  71.856  1.00  0.00    -0.339 A  
HETATM   20  C   UNL     1     -11.275   7.203  71.895  1.00  0.00    -0.282 A  
HETATM   21  C   UNL     1     -11.197   5.753  72.085  1.00  0.00    -0.269 C  
HETATM   22  O   UNL     1     -11.813   5.208  72.996  1.00  0.00    -0.273 OA 
ENDBRANCH   5   6
ENDBRANCH   4   5
ENDBRANCH   2   4
TORSDOF 3
ENDMDL
MODEL      126
REMARK 921   NORMALIZED FREE ENERGY PREDICTED BY IDOCK:   -3.81 KCAL/MOL
REMARK 922        TOTAL FREE ENERGY PREDICTED BY IDOCK:   -4.62 KCAL/MOL
REMARK 923 INTER-LIGAND FREE ENERGY PREDICTED BY IDOCK:   -4.44 KCAL/MOL
REMARK 924 INTRA-LIGAND FREE ENERGY PREDICTED BY IDOCK:   -0.18 KCAL/MOL
REMARK 927      BINDING AFFINITY PREDICTED BY RF-SCORE:    0.00 PKD
ROOT
HETATM    1  C   UNL     1     -10.654  14.671  65.061  1.00  0.00    -0.439 C  
HETATM    2  N   UNL     1     -11.378  14.042  66.174  1.00  0.00    -0.315 NA 
HETATM    3  C   UNL     1     -12.287  13.024  65.647  1.00  0.00    -0.446 C  
ENDROOT
BRANCH   2   4
HETATM    4  C   UNL     1     -10.396  13.487  67.130  1.00  0.00    -0.250 C  
BRANCH   4   5
HETATM    5  C   UNL     1      -9.295  12.588  66.530  1.00  0.00    -0.233 C  
BRANCH   5   6
HETATM    6  N   UNL     1      -9.812  11.289  66.032  1.00  0.00    -0.219 N  
HETATM    7  C   UNL     1      -9.202  10.831  64.836  1.00  0.00    -0.212 A  
HETATM    8  C   UNL     1      -9.979  11.036  63.676  1.00  0.00    -0.415 A  
HETATM    9  C   UNL     1      -9.527  10.610  62.440  1.00  0.00    -0.240 A  
HETATM   10  C   UNL     1      -8.298   9.979  62.365  1.00  0.00    -0.168 A  
HETATM   11  C   UNL     1      -7.535   9.758  63.529  1.00  0.00    -0.126 A  
HETATM   12  C   UNL     1      -7.949  10.162  64.820  1.00  0.00    -0.146 A  
HETATM   13  N   UNL     1      -7.157   9.934  65.997  1.00  0.00    -0.100 NA 
HETATM   14  C   UNL     1      -5.769   9.457  65.809  1.00  0.00    -0.053 C  
HETATM   15  C   UNL     1      -7.531   9.986  67.390  1.00  0.00    -0.091 A  
HETATM   16  C   UNL     1      -6.562   9.991  68.423  1.00  0.00    -0.054 A  
HETATM   17  C   UNL     1      -6.897   9.968  69.788  1.00  0.00    -0.094 A  
HETATM   18  C   UNL     1      -8.225   9.920  70.184  1.00  0.00    -0.162 A  
HETATM   19  C   UNL     1      -9.213   9.947  69.212  1.00  0.00    -0.207 A  
HETATM   20  C   UNL     1      -8.863  10.023  67.851  1.00  0.00    -0.125 A  
HETATM   21  C   UNL     1      -9.981  10.244  66.932  1.00  0.00    -0.208 C  
HETATM   22  O   UNL     1     -10.985   9.541  66.987  1.00  0.00    -0.138 OA 
ENDBRANCH   5   6
ENDBRANCH   4   5
ENDBRANCH   2   4
TORSDOF 3
ENDMDL
MODEL      127
REMARK 921   NORMALIZED FREE ENERGY PREDICTED BY IDOCK:   -3.80 KCAL/MOL
REMARK 922        TOTAL FREE ENERGY PREDICTED BY IDOCK:   -4.60 KCAL/MOL
REMARK 923 INTER-LIGAND FREE ENERGY PREDICTED BY IDOCK:   -4.66 KCAL/MOL
REMARK 924 INTRA-LIGAND FREE ENERGY PREDICTED BY IDOCK:    0.06 KCAL/MOL
REMARK 927      BINDING AFFINITY PREDICTED BY RF-SCORE:    0.00 PKD
ROOT
HETATM    1  C   UNL     1     -11.016   6.825  67.191  1.00  0.00    -0.388 C  
HETATM    2  N   UNL     1      -9.654   6.910  67.735  1.00  0.00    -0.122 NA 
HETATM    3  C   UNL     1      -9.011   8.128  67.244  1.00  0.00    -0.137 C  
ENDROOT
BRANCH   2   4
HETATM    4  C   UNL     1      -9.726   6.859  69.211  1.00  0.00    -0.156 C  
BRANCH   4   5
HETATM    5  C   UNL     1      -8.467   7.330  69.970  1.00  0.00    -0.139 C  
BRANCH   5   6
HETATM    6  N   UNL     1      -8.777   8.232  71.107  1.00  0.00    -0.136 N  
HETATM    7  C   UNL     1     -10.161   8.459  71.318  1.00  0.00    -0.212 A  
HETATM    8  C   UNL     1     -10.624   9.702  70.834  1.00  0.00    -0.386 A  
HETATM    9  C   UNL     1     -11.945  10.076  70.999  1.00  0.00    -0.469 A  
HETATM   10  C   UNL     1     -12.803   9.207  71.649  1.00  0.00    -0.431 A  
HETATM   11  C   UNL     1     -12.333   7.977  72.149  1.00  0.00    -0.358 A  
HETATM   12  C   UNL     1     -10.992   7.544  72.019  1.00  0.00    -0.242 A  
HETATM   13  N   UNL     1     -10.529   6.284  72.529  1.00  0.00    -0.197 NA 
HETATM   14  C   UNL     1     -11.545   5.322  73.011  1.00  0.00    -0.217 C  
HETATM   15  C   UNL     1      -9.183   5.818  72.767  1.00  0.00    -0.136 A  
HETATM   16  C   UNL     1      -8.900   4.455  73.025  1.00  0.00    -0.116 A  
HETATM   17  C   UNL     1      -7.612   3.984  73.331  1.00  0.00    -0.076 A  
HETATM   18  C   UNL     1      -6.544   4.865  73.410  1.00  0.00    -0.066 A  
HETATM   19  C   UNL     1      -6.761   6.205  73.132  1.00  0.00    -0.074 A  
HETATM   20  C   UNL     1      -8.047   6.653  72.777  1.00  0.00    -0.107 A  
HETATM   21  C   UNL     1      -8.118   8.040  72.315  1.00  0.00    -0.138 C  
HETATM   22  O   UNL     1      -7.611   8.945  72.972  1.00  0.00    -0.359 OA 
ENDBRANCH   5   6
ENDBRANCH   4   5
ENDBRANCH   2   4
TORSDOF 3
ENDMDL
MODEL      128
REMARK 921   NORMALIZED FREE ENERGY PREDICTED BY IDOCK:   -3.77 KCAL/MOL
REMARK 922        TOTAL FREE ENERGY PREDICTED BY IDOCK:   -4.57 KCAL/MOL
REMARK 923 INTER-LIGAND FREE ENERGY PREDICTED BY IDOCK:   -4.28 KCAL/MOL
REMARK 924 INTRA-LIGAND FREE ENERGY PREDICTED BY IDOCK:   -0.29 KCAL/MOL
REMARK 927      BINDING AFFINITY PREDICTED BY RF-SCORE:    0.00 PKD
ROOT
HETATM    1  C   UNL     1      -8.562   7.172  72.719  1.00  0.00    -0.114 C  
HETATM    2  N   UNL     1      -7.430   6.844  71.842  1.00  0.00    -0.087 NA 
HETATM    3  C   UNL     1      -7.726   5.613  71.108  1.00  0.00    -0.104 C  
ENDROOT
BRANCH   2   4
HETATM    4  C   UNL     1      -7.173   7.991  70.946  1.00  0.00    -0.053 C  
BRANCH   4   5
HETATM    5  C   UNL     1      -8.195   9.146  71.006  1.00  0.00    -0.137 C  
BRANCH   5   6
HETATM    6  N   UNL     1      -8.742   9.508  69.675  1.00  0.00    -0.165 N  
HETATM    7  C   UNL     1      -8.559   8.520  68.674  1.00  0.00    -0.135 A  
HETATM    8  C   UNL     1      -7.503   8.794  67.778  1.00  0.00    -0.093 A  
HETATM    9  C   UNL     1      -7.227   7.936  66.729  1.00  0.00    -0.088 A  
HETATM   10  C   UNL     1      -8.008   6.804  66.576  1.00  0.00    -0.105 A  
HETATM   11  C   UNL     1      -9.074   6.545  67.460  1.00  0.00    -0.115 A  
HETATM   12  C   UNL     1      -9.410   7.390  68.544  1.00  0.00    -0.141 A  
HETATM   13  N   UNL     1     -10.497   7.109  69.440  1.00  0.00    -0.216 NA 
HETATM   14  C   UNL     1     -11.139   5.780  69.346  1.00  0.00    -0.189 C  
HETATM   15  C   UNL     1     -11.171   7.974  70.379  1.00  0.00    -0.229 A  
HETATM   16  C   UNL     1     -12.046   7.462  71.369  1.00  0.00    -0.357 A  
HETATM   17  C   UNL     1     -12.771   8.284  72.248  1.00  0.00    -0.338 A  
HETATM   18  C   UNL     1     -12.667   9.664  72.166  1.00  0.00    -0.427 A  
HETATM   19  C   UNL     1     -11.798  10.214  71.237  1.00  0.00    -0.448 A  
HETATM   20  C   UNL     1     -11.039   9.378  70.398  1.00  0.00    -0.311 A  
HETATM   21  C   UNL     1     -10.017  10.056  69.600  1.00  0.00    -0.236 C  
HETATM   22  O   UNL     1     -10.301  11.044  68.929  1.00  0.00    -0.192 OA 
ENDBRANCH   5   6
ENDBRANCH   4   5
ENDBRANCH   2   4
TORSDOF 3
ENDMDL
MODEL      129
REMARK 921   NORMALIZED FREE ENERGY PREDICTED BY IDOCK:   -3.75 KCAL/MOL
REMARK 922        TOTAL FREE ENERGY PREDICTED BY IDOCK:   -4.54 KCAL/MOL
REMARK 923 INTER-LIGAND FREE ENERGY PREDICTED BY IDOCK:   -4.22 KCAL/MOL
REMARK 924 INTRA-LIGAND FREE ENERGY PREDICTED BY IDOCK:   -0.32 KCAL/MOL
REMARK 927      BINDING AFFINITY PREDICTED BY RF-SCORE:    0.00 PKD
ROOT
HETATM    1  C   UNL     1     -12.339  12.791  64.881  1.00  0.00    -0.490 C  
HETATM    2  N   UNL     1     -11.080  12.843  65.635  1.00  0.00    -0.275 NA 
HETATM    3  C   UNL     1     -10.947  14.157  66.265  1.00  0.00    -0.303 C  
ENDROOT
BRANCH   2   4
HETATM    4  C   UNL     1     -11.063  11.738  66.616  1.00  0.00    -0.310 C  
BRANCH   4   5
HETATM    5  C   UNL     1     -10.195  10.515  66.249  1.00  0.00    -0.235 C  
BRANCH   5   6
HETATM    6  N   UNL     1      -9.999   9.580  67.384  1.00  0.00    -0.177 N  
HETATM    7  C   UNL     1      -9.770   8.233  67.005  1.00  0.00    -0.211 A  
HETATM    8  C   UNL     1     -10.898   7.395  67.139  1.00  0.00    -0.340 A  
HETATM    9  C   UNL     1     -10.815   6.047  66.838  1.00  0.00    -0.396 A  
HETATM   10  C   UNL     1      -9.604   5.538  66.405  1.00  0.00    -0.174 A  
HETATM   11  C   UNL     1      -8.476   6.374  66.292  1.00  0.00    -0.131 A  
HETATM   12  C   UNL     1      -8.496   7.755  66.595  1.00  0.00    -0.129 A  
HETATM   13  N   UNL     1      -7.338   8.596  66.470  1.00  0.00    -0.080 NA 
HETATM   14  C   UNL     1      -6.149   8.031  65.795  1.00  0.00    -0.038 C  
HETATM   15  C   UNL     1      -7.084   9.911  67.009  1.00  0.00    -0.089 A  
HETATM   16  C   UNL     1      -5.993  10.700  66.569  1.00  0.00    -0.086 A  
HETATM   17  C   UNL     1      -5.679  11.951  67.127  1.00  0.00    -0.139 A  
HETATM   18  C   UNL     1      -6.437  12.466  68.167  1.00  0.00    -0.072 A  
HETATM   19  C   UNL     1      -7.536  11.749  68.612  1.00  0.00    -0.125 A  
HETATM   20  C   UNL     1      -7.869  10.521  68.010  1.00  0.00    -0.105 A  
HETATM   21  C   UNL     1      -9.153   9.952  68.422  1.00  0.00    -0.123 C  
HETATM   22  O   UNL     1      -9.432   9.835  69.611  1.00  0.00    -0.191 OA 
ENDBRANCH   5   6
ENDBRANCH   4   5
ENDBRANCH   2   4
TORSDOF 3
ENDMDL
MODEL      130
REMARK 921   NORMALIZED FREE ENERGY PREDICTED BY IDOCK:   -3.75 KCAL/MOL
REMARK 922        TOTAL FREE ENERGY PREDICTED BY IDOCK:   -4.54 KCAL/MOL
REMARK 923 INTER-LIGAND FREE ENERGY PREDICTED BY IDOCK:   -4.15 KCAL/MOL
REMARK 924 INTRA-LIGAND FREE ENERGY PREDICTED BY IDOCK:   -0.39 KCAL/MOL
REMARK 927      BINDING AFFINITY PREDICTED BY RF-SCORE:    0.00 PKD
ROOT
HETATM    1  C   UNL     1     -11.219  14.792  68.941  1.00  0.00    -0.266 C  
HETATM    2  N   UNL     1     -11.218  13.535  69.700  1.00  0.00    -0.129 NA 
HETATM    3  C   UNL     1     -12.186  13.628  70.793  1.00  0.00    -0.347 C  
ENDROOT
BRANCH   2   4
HETATM    4  C   UNL     1     -11.510  12.419  68.776  1.00  0.00    -0.304 C  
BRANCH   4   5
HETATM    5  C   UNL     1     -10.736  11.107  69.028  1.00  0.00    -0.225 C  
BRANCH   5   6
HETATM    6  N   UNL     1      -9.506  10.992  68.207  1.00  0.00    -0.165 N  
HETATM    7  C   UNL     1      -8.302  11.260  68.908  1.00  0.00    -0.071 A  
HETATM    8  C   UNL     1      -7.764  12.542  68.664  1.00  0.00    -0.063 A  
HETATM    9  C   UNL     1      -6.575  12.932  69.254  1.00  0.00    -0.085 A  
HETATM   10  C   UNL     1      -5.924  12.039  70.086  1.00  0.00    -0.159 A  
HETATM   11  C   UNL     1      -6.453  10.753  70.309  1.00  0.00    -0.128 A  
HETATM   12  C   UNL     1      -7.659  10.294  69.728  1.00  0.00    -0.162 A  
HETATM   13  N   UNL     1      -8.189   8.981  69.970  1.00  0.00    -0.115 NA 
HETATM   14  C   UNL     1      -7.558   8.171  71.035  1.00  0.00    -0.083 C  
HETATM   15  C   UNL     1      -9.199   8.242  69.250  1.00  0.00    -0.151 A  
HETATM   16  C   UNL     1      -9.785   7.068  69.783  1.00  0.00    -0.168 A  
HETATM   17  C   UNL     1     -10.716   6.288  69.076  1.00  0.00    -0.362 A  
HETATM   18  C   UNL     1     -11.093   6.641  67.789  1.00  0.00    -0.332 A  
HETATM   19  C   UNL     1     -10.575   7.800  67.235  1.00  0.00    -0.376 A  
HETATM   20  C   UNL     1      -9.682   8.598  67.975  1.00  0.00    -0.184 A  
HETATM   21  C   UNL     1      -9.356   9.892  67.372  1.00  0.00    -0.137 C  
HETATM   22  O   UNL     1      -8.987   9.961  66.203  1.00  0.00    -0.144 OA 
ENDBRANCH   5   6
ENDBRANCH   4   5
ENDBRANCH   2   4
TORSDOF 3
ENDMDL
MODEL      131
REMARK 921   NORMALIZED FREE ENERGY PREDICTED BY IDOCK:   -3.74 KCAL/MOL
REMARK 922        TOTAL FREE ENERGY PREDICTED BY IDOCK:   -4.52 KCAL/MOL
REMARK 923 INTER-LIGAND FREE ENERGY PREDICTED BY IDOCK:   -4.46 KCAL/MOL
REMARK 924 INTRA-LIGAND FREE ENERGY PREDICTED BY IDOCK:   -0.07 KCAL/MOL
REMARK 927      BINDING AFFINITY PREDICTED BY RF-SCORE:    0.00 PKD
ROOT
HETATM    1  C   UNL     1     -12.884  10.865  70.243  1.00  0.00    -0.142 C  
HETATM    2  N   UNL     1     -12.103  10.988  69.006  1.00  0.00    -0.474 NA 
HETATM    3  C   UNL     1     -11.430  12.287  68.984  1.00  0.00    -0.297 C  
ENDROOT
BRANCH   2   4
HETATM    4  C   UNL     1     -11.156   9.856  68.923  1.00  0.00    -0.140 C  
BRANCH   4   5
HETATM    5  C   UNL     1      -9.670  10.191  69.173  1.00  0.00    -0.215 C  
BRANCH   5   6
HETATM    6  N   UNL     1      -9.109   9.494  70.356  1.00  0.00    -0.253 N  
HETATM    7  C   UNL     1      -9.904   8.425  70.842  1.00  0.00    -0.184 A  
HETATM    8  C   UNL     1     -10.659   8.742  71.992  1.00  0.00    -0.414 A  
HETATM    9  C   UNL     1     -11.457   7.788  72.598  1.00  0.00    -0.430 A  
HETATM   10  C   UNL     1     -11.498   6.517  72.055  1.00  0.00    -0.342 A  
HETATM   11  C   UNL     1     -10.727   6.198  70.920  1.00  0.00    -0.316 A  
HETATM   12  C   UNL     1      -9.886   7.127  70.263  1.00  0.00    -0.176 A  
HETATM   13  N   UNL     1      -9.110   6.789  69.103  1.00  0.00    -0.139 NA 
HETATM   14  C   UNL     1      -9.374   5.485  68.456  1.00  0.00    -0.121 C  
HETATM   15  C   UNL     1      -7.993   7.479  68.500  1.00  0.00    -0.123 A  
HETATM   16  C   UNL     1      -7.517   7.141  67.210  1.00  0.00    -0.099 A  
HETATM   17  C   UNL     1      -6.389   7.745  66.628  1.00  0.00    -0.050 A  
HETATM   18  C   UNL     1      -5.672   8.708  67.322  1.00  0.00    -0.039 A  
HETATM   19  C   UNL     1      -6.117   9.098  68.575  1.00  0.00    -0.045 A  
HETATM   20  C   UNL     1      -7.278   8.522  69.123  1.00  0.00    -0.068 A  
HETATM   21  C   UNL     1      -7.763   9.147  70.355  1.00  0.00    -0.127 C  
HETATM   22  O   UNL     1      -7.002   9.344  71.298  1.00  0.00    -0.261 OA 
ENDBRANCH   5   6
ENDBRANCH   4   5
ENDBRANCH   2   4
TORSDOF 3
ENDMDL
MODEL      132
REMARK 921   NORMALIZED FREE ENERGY PREDICTED BY IDOCK:   -3.66 KCAL/MOL
REMARK 922        TOTAL FREE ENERGY PREDICTED BY IDOCK:   -4.43 KCAL/MOL
REMARK 923 INTER-LIGAND FREE ENERGY PREDICTED BY IDOCK:   -3.96 KCAL/MOL
REMARK 924 INTRA-LIGAND FREE ENERGY PREDICTED BY IDOCK:   -0.47 KCAL/MOL
REMARK 927      BINDING AFFINITY PREDICTED BY RF-SCORE:    0.00 PKD
ROOT
HETATM    1  C   UNL     1      -7.990   8.187  66.498  1.00  0.00    -0.101 C  
HETATM    2  N   UNL     1      -9.068   9.160  66.276  1.00  0.00    -0.166 NA 
HETATM    3  C   UNL     1      -9.255   9.355  64.838  1.00  0.00    -0.183 C  
ENDROOT
BRANCH   2   4
HETATM    4  C   UNL     1     -10.293   8.680  66.949  1.00  0.00    -0.285 C  
BRANCH   4   5
HETATM    5  C   UNL     1     -10.083   7.847  68.231  1.00  0.00    -0.194 C  
BRANCH   5   6
HETATM    6  N   UNL     1     -10.608   8.513  69.449  1.00  0.00    -0.217 N  
HETATM    7  C   UNL     1     -10.687   7.675  70.591  1.00  0.00    -0.231 A  
HETATM    8  C   UNL     1     -11.987   7.204  70.874  1.00  0.00    -0.375 A  
HETATM    9  C   UNL     1     -12.222   6.404  71.977  1.00  0.00    -0.320 A  
HETATM   10  C   UNL     1     -11.158   6.076  72.797  1.00  0.00    -0.305 A  
HETATM   11  C   UNL     1      -9.866   6.565  72.523  1.00  0.00    -0.176 A  
HETATM   12  C   UNL     1      -9.565   7.394  71.417  1.00  0.00    -0.159 A  
HETATM   13  N   UNL     1      -8.241   7.881  71.147  1.00  0.00    -0.103 NA 
HETATM   14  C   UNL     1      -7.126   7.312  71.935  1.00  0.00    -0.063 C  
HETATM   15  C   UNL     1      -7.805   8.953  70.283  1.00  0.00    -0.104 A  
HETATM   16  C   UNL     1      -6.442   9.124  69.937  1.00  0.00    -0.042 A  
HETATM   17  C   UNL     1      -5.980  10.199  69.158  1.00  0.00    -0.037 A  
HETATM   18  C   UNL     1      -6.862  11.166  68.702  1.00  0.00    -0.070 A  
HETATM   19  C   UNL     1      -8.211  11.026  68.984  1.00  0.00    -0.101 A  
HETATM   20  C   UNL     1      -8.667   9.917  69.722  1.00  0.00    -0.229 A  
HETATM   21  C   UNL     1     -10.122   9.769  69.790  1.00  0.00    -0.239 C  
HETATM   22  O   UNL     1     -10.832  10.714  70.121  1.00  0.00    -0.261 OA 
ENDBRANCH   5   6
ENDBRANCH   4   5
ENDBRANCH   2   4
TORSDOF 3
ENDMDL
MODEL      133
REMARK 921   NORMALIZED FREE ENERGY PREDICTED BY IDOCK:   -3.64 KCAL/MOL
REMARK 922        TOTAL FREE ENERGY PREDICTED BY IDOCK:   -4.41 KCAL/MOL
REMARK 923 INTER-LIGAND FREE ENERGY PREDICTED BY IDOCK:   -4.29 KCAL/MOL
REMARK 924 INTRA-LIGAND FREE ENERGY PREDICTED BY IDOCK:   -0.12 KCAL/MOL
REMARK 927      BINDING AFFINITY PREDICTED BY RF-SCORE:    0.00 PKD
ROOT
HETATM    1  C   UNL     1     -12.034   4.517  73.108  1.00  0.00     0.156 C  
HETATM    2  N   UNL     1     -10.567   4.476  73.152  1.00  0.00    -0.199 NA 
HETATM    3  C   UNL     1     -10.102   3.191  72.630  1.00  0.00    -0.157 C  
ENDROOT
BRANCH   2   4
HETATM    4  C   UNL     1     -10.034   5.625  72.390  1.00  0.00    -0.170 C  
BRANCH   4   5
HETATM    5  C   UNL     1      -9.787   5.388  70.885  1.00  0.00    -0.188 C  
BRANCH   5   6
HETATM    6  N   UNL     1     -10.708   6.162  70.016  1.00  0.00    -0.273 N  
HETATM    7  C   UNL     1     -11.100   7.419  70.544  1.00  0.00    -0.261 A  
HETATM    8  C   UNL     1     -12.395   7.431  71.106  1.00  0.00    -0.349 A  
HETATM    9  C   UNL     1     -12.926   8.595  71.630  1.00  0.00    -0.377 A  
HETATM   10  C   UNL     1     -12.161   9.748  71.592  1.00  0.00    -0.488 A  
HETATM   11  C   UNL     1     -10.878   9.736  71.012  1.00  0.00    -0.378 A  
HETATM   12  C   UNL     1     -10.287   8.579  70.451  1.00  0.00    -0.202 A  
HETATM   13  N   UNL     1      -8.974   8.582  69.868  1.00  0.00    -0.143 NA 
HETATM   14  C   UNL     1      -8.138   9.788  70.062  1.00  0.00    -0.189 C  
HETATM   15  C   UNL     1      -8.345   7.618  68.996  1.00  0.00    -0.128 A  
HETATM   16  C   UNL     1      -6.954   7.651  68.729  1.00  0.00    -0.071 A  
HETATM   17  C   UNL     1      -6.327   6.772  67.829  1.00  0.00    -0.048 A  
HETATM   18  C   UNL     1      -7.070   5.827  67.138  1.00  0.00    -0.070 A  
HETATM   19  C   UNL     1      -8.429   5.731  67.390  1.00  0.00    -0.103 A  
HETATM   20  C   UNL     1      -9.034   6.584  68.332  1.00  0.00    -0.125 A  
HETATM   21  C   UNL     1     -10.425   6.263  68.660  1.00  0.00    -0.231 C  
HETATM   22  O   UNL     1     -11.254   6.095  67.770  1.00  0.00    -0.294 OA 
ENDBRANCH   5   6
ENDBRANCH   4   5
ENDBRANCH   2   4
TORSDOF 3
ENDMDL
MODEL      134
REMARK 921   NORMALIZED FREE ENERGY PREDICTED BY IDOCK:   -3.61 KCAL/MOL
REMARK 922        TOTAL FREE ENERGY PREDICTED BY IDOCK:   -4.38 KCAL/MOL
REMARK 923 INTER-LIGAND FREE ENERGY PREDICTED BY IDOCK:   -4.05 KCAL/MOL
REMARK 924 INTRA-LIGAND FREE ENERGY PREDICTED BY IDOCK:   -0.33 KCAL/MOL
REMARK 927      BINDING AFFINITY PREDICTED BY RF-SCORE:    0.00 PKD
ROOT
HETATM    1  C   UNL     1      -6.635   5.256  66.467  1.00  0.00    -0.052 C  
HETATM    2  N   UNL     1      -6.827   6.709  66.555  1.00  0.00    -0.060 NA 
HETATM    3  C   UNL     1      -7.780   7.135  65.530  1.00  0.00    -0.108 C  
ENDROOT
BRANCH   2   4
HETATM    4  C   UNL     1      -7.272   7.051  67.922  1.00  0.00    -0.091 C  
BRANCH   4   5
HETATM    5  C   UNL     1      -8.575   7.870  68.030  1.00  0.00    -0.126 C  
BRANCH   5   6
HETATM    6  N   UNL     1      -8.345   9.335  68.015  1.00  0.00    -0.119 N  
HETATM    7  C   UNL     1      -9.407  10.094  67.461  1.00  0.00    -0.151 A  
HETATM    8  C   UNL     1      -9.177  10.531  66.139  1.00  0.00    -0.197 A  
HETATM    9  C   UNL     1     -10.112  11.310  65.481  1.00  0.00    -0.306 A  
HETATM   10  C   UNL     1     -11.276  11.651  66.146  1.00  0.00    -0.314 A  
HETATM   11  C   UNL     1     -11.493  11.230  67.472  1.00  0.00    -0.324 A  
HETATM   12  C   UNL     1     -10.570  10.441  68.199  1.00  0.00    -0.211 A  
HETATM   13  N   UNL     1     -10.808  10.014  69.550  1.00  0.00    -0.239 NA 
HETATM   14  C   UNL     1     -12.160  10.230  70.111  1.00  0.00    -0.202 C  
HETATM   15  C   UNL     1      -9.888   9.492  70.533  1.00  0.00    -0.269 A  
HETATM   16  C   UNL     1     -10.341   8.877  71.726  1.00  0.00    -0.426 A  
HETATM   17  C   UNL     1      -9.470   8.425  72.733  1.00  0.00    -0.312 A  
HETATM   18  C   UNL     1      -8.100   8.585  72.599  1.00  0.00    -0.113 A  
HETATM   19  C   UNL     1      -7.604   9.149  71.435  1.00  0.00    -0.012 A  
HETATM   20  C   UNL     1      -8.485   9.551  70.413  1.00  0.00    -0.238 A  
HETATM   21  C   UNL     1      -7.844   9.947  69.158  1.00  0.00    -0.105 C  
HETATM   22  O   UNL     1      -6.926  10.762  69.154  1.00  0.00    -0.071 OA 
ENDBRANCH   5   6
ENDBRANCH   4   5
ENDBRANCH   2   4
TORSDOF 3
ENDMDL
MODEL      135
REMARK 921   NORMALIZED FREE ENERGY PREDICTED BY IDOCK:   -3.58 KCAL/MOL
REMARK 922        TOTAL FREE ENERGY PREDICTED BY IDOCK:   -4.34 KCAL/MOL
REMARK 923 INTER-LIGAND FREE ENERGY PREDICTED BY IDOCK:   -3.94 KCAL/MOL
REMARK 924 INTRA-LIGAND FREE ENERGY PREDICTED BY IDOCK:   -0.40 KCAL/MOL
REMARK 927      BINDING AFFINITY PREDICTED BY RF-SCORE:    0.00 PKD
ROOT
HETATM    1  C   UNL     1      -6.556  14.417  67.792  1.00  0.00    -0.173 C  
HETATM    2  N   UNL     1      -7.649  14.920  68.635  1.00  0.00    -0.116 NA 
HETATM    3  C   UNL     1      -7.647  16.383  68.607  1.00  0.00    -0.197 C  
ENDROOT
BRANCH   2   4
HETATM    4  C   UNL     1      -8.924  14.344  68.159  1.00  0.00    -0.185 C  
BRANCH   4   5
HETATM    5  C   UNL     1      -9.249  12.916  68.644  1.00  0.00     0.041 C  
BRANCH   5   6
HETATM    6  N   UNL     1      -9.621  11.998  67.539  1.00  0.00    -0.175 N  
HETATM    7  C   UNL     1      -8.605  11.082  67.165  1.00  0.00    -0.136 A  
HETATM    8  C   UNL     1      -7.910  11.438  65.990  1.00  0.00     0.127 A  
HETATM    9  C   UNL     1      -6.913  10.622  65.485  1.00  0.00    -0.050 A  
HETATM   10  C   UNL     1      -6.612   9.450  66.157  1.00  0.00    -0.070 A  
HETATM   11  C   UNL     1      -7.323   9.089  67.318  1.00  0.00    -0.084 A  
HETATM   12  C   UNL     1      -8.357   9.876  67.876  1.00  0.00    -0.114 A  
HETATM   13  N   UNL     1      -9.069   9.497  69.065  1.00  0.00    -0.140 NA 
HETATM   14  C   UNL     1      -8.545   8.353  69.843  1.00  0.00    -0.131 C  
HETATM   15  C   UNL     1     -10.320   9.988  69.592  1.00  0.00    -0.247 A  
HETATM   16  C   UNL     1     -10.742   9.687  70.911  1.00  0.00    -0.402 A  
HETATM   17  C   UNL     1     -11.986  10.089  71.427  1.00  0.00    -0.470 A  
HETATM   18  C   UNL     1     -12.877  10.800  70.637  1.00  0.00    -0.377 A  
HETATM   19  C   UNL     1     -12.498  11.149  69.351  1.00  0.00    -0.085 A  
HETATM   20  C   UNL     1     -11.228  10.783  68.865  1.00  0.00    -0.328 A  
HETATM   21  C   UNL     1     -10.861  11.372  67.576  1.00  0.00    -0.244 C  
HETATM   22  O   UNL     1     -11.625  11.304  66.617  1.00  0.00    -0.385 OA 
ENDBRANCH   5   6
ENDBRANCH   4   5
ENDBRANCH   2   4
TORSDOF 3
ENDMDL
MODEL      136
REMARK 921   NORMALIZED FREE ENERGY PREDICTED BY IDOCK:   -3.57 KCAL/MOL
REMARK 922        TOTAL FREE ENERGY PREDICTED BY IDOCK:   -4.33 KCAL/MOL
REMARK 923 INTER-LIGAND FREE ENERGY PREDICTED BY IDOCK:   -3.98 KCAL/MOL
REMARK 924 INTRA-LIGAND FREE ENERGY PREDICTED BY IDOCK:   -0.35 KCAL/MOL
REMARK 927      BINDING AFFINITY PREDICTED BY RF-SCORE:    0.00 PKD
ROOT
HETATM    1  C   UNL     1     -11.392  14.739  68.655  1.00  0.00    -0.285 C  
HETATM    2  N   UNL     1     -11.814  13.869  69.760  1.00  0.00    -0.309 NA 
HETATM    3  C   UNL     1     -12.935  14.490  70.465  1.00  0.00    -0.249 C  
ENDROOT
BRANCH   2   4
HETATM    4  C   UNL     1     -12.152  12.537  69.217  1.00  0.00    -0.161 C  
BRANCH   4   5
HETATM    5  C   UNL     1     -11.347  11.347  69.781  1.00  0.00    -0.255 C  
BRANCH   5   6
HETATM    6  N   UNL     1     -10.633  10.579  68.732  1.00  0.00    -0.193 N  
HETATM    7  C   UNL     1      -9.323  11.044  68.450  1.00  0.00    -0.179 A  
HETATM    8  C   UNL     1      -9.224  11.816  67.272  1.00  0.00    -0.173 A  
HETATM    9  C   UNL     1      -8.002  12.309  66.853  1.00  0.00    -0.068 A  
HETATM   10  C   UNL     1      -6.879  12.030  67.610  1.00  0.00    -0.115 A  
HETATM   11  C   UNL     1      -6.978  11.242  68.774  1.00  0.00    -0.091 A  
HETATM   12  C   UNL     1      -8.197  10.702  69.247  1.00  0.00    -0.115 A  
HETATM   13  N   UNL     1      -8.283   9.905  70.439  1.00  0.00    -0.183 NA 
HETATM   14  C   UNL     1      -7.088   9.836  71.308  1.00  0.00     0.409 C  
HETATM   15  C   UNL     1      -9.340   9.034  70.897  1.00  0.00    -0.264 A  
HETATM   16  C   UNL     1      -9.370   8.530  72.221  1.00  0.00    -0.363 A  
HETATM   17  C   UNL     1     -10.344   7.624  72.674  1.00  0.00    -0.332 A  
HETATM   18  C   UNL     1     -11.330   7.166  71.813  1.00  0.00    -0.285 A  
HETATM   19  C   UNL     1     -11.365   7.655  70.517  1.00  0.00    -0.266 A  
HETATM   20  C   UNL     1     -10.413   8.600  70.093  1.00  0.00    -0.228 A  
HETATM   21  C   UNL     1     -10.665   9.191  68.777  1.00  0.00    -0.131 C  
HETATM   22  O   UNL     1     -10.893   8.477  67.804  1.00  0.00    -0.148 OA 
ENDBRANCH   5   6
ENDBRANCH   4   5
ENDBRANCH   2   4
TORSDOF 3
ENDMDL
MODEL      137
REMARK 921   NORMALIZED FREE ENERGY PREDICTED BY IDOCK:   -3.53 KCAL/MOL
REMARK 922        TOTAL FREE ENERGY PREDICTED BY IDOCK:   -4.28 KCAL/MOL
REMARK 923 INTER-LIGAND FREE ENERGY PREDICTED BY IDOCK:   -4.09 KCAL/MOL
REMARK 924 INTRA-LIGAND FREE ENERGY PREDICTED BY IDOCK:   -0.20 KCAL/MOL
REMARK 927      BINDING AFFINITY PREDICTED BY RF-SCORE:    0.00 PKD
ROOT
HETATM    1  C   UNL     1      -5.989   5.588  73.977  1.00  0.00    -0.056 C  
HETATM    2  N   UNL     1      -6.633   6.856  74.340  1.00  0.00    -0.083 NA 
HETATM    3  C   UNL     1      -5.610   7.890  74.505  1.00  0.00    -0.077 C  
ENDROOT
BRANCH   2   4
HETATM    4  C   UNL     1      -7.628   7.202  73.303  1.00  0.00    -0.081 C  
BRANCH   4   5
HETATM    5  C   UNL     1      -8.331   6.015  72.612  1.00  0.00    -0.118 C  
BRANCH   5   6
HETATM    6  N   UNL     1      -9.809   6.064  72.734  1.00  0.00    -0.163 N  
HETATM    7  C   UNL     1     -10.438   7.023  71.900  1.00  0.00    -0.200 A  
HETATM    8  C   UNL     1     -10.827   8.204  72.568  1.00  0.00    -0.431 A  
HETATM    9  C   UNL     1     -11.482   9.216  71.888  1.00  0.00    -0.423 A  
HETATM   10  C   UNL     1     -11.749   9.045  70.542  1.00  0.00    -0.160 A  
HETATM   11  C   UNL     1     -11.378   7.856  69.884  1.00  0.00     0.034 A  
HETATM   12  C   UNL     1     -10.715   6.784  70.527  1.00  0.00    -0.238 A  
HETATM   13  N   UNL     1     -10.338   5.580  69.841  1.00  0.00    -0.272 NA 
HETATM   14  C   UNL     1     -10.458   5.563  68.366  1.00  0.00    -0.157 C  
HETATM   15  C   UNL     1      -9.953   4.293  70.370  1.00  0.00    -0.142 A  
HETATM   16  C   UNL     1      -9.361   3.298  69.554  1.00  0.00    -0.235 A  
HETATM   17  C   UNL     1      -9.043   2.012  70.025  1.00  0.00    -0.165 A  
HETATM   18  C   UNL     1      -9.320   1.656  71.335  1.00  0.00    -0.174 A  
HETATM   19  C   UNL     1      -9.867   2.604  72.184  1.00  0.00    -0.235 A  
HETATM   20  C   UNL     1     -10.133   3.903  71.713  1.00  0.00    -0.186 A  
HETATM   21  C   UNL     1     -10.522   4.872  72.740  1.00  0.00    -0.205 C  
HETATM   22  O   UNL     1     -11.416   4.610  73.540  1.00  0.00    -0.314 OA 
ENDBRANCH   5   6
ENDBRANCH   4   5
ENDBRANCH   2   4
TORSDOF 3
ENDMDL
MODEL      138
REMARK 921   NORMALIZED FREE ENERGY PREDICTED BY IDOCK:   -3.53 KCAL/MOL
REMARK 922        TOTAL FREE ENERGY PREDICTED BY IDOCK:   -4.28 KCAL/MOL
REMARK 923 INTER-LIGAND FREE ENERGY PREDICTED BY IDOCK:   -3.72 KCAL/MOL
REMARK 924 INTRA-LIGAND FREE ENERGY PREDICTED BY IDOCK:   -0.56 KCAL/MOL
REMARK 927      BINDING AFFINITY PREDICTED BY RF-SCORE:    0.00 PKD
ROOT
HETATM    1  C   UNL     1      -6.563   6.861  71.865  1.00  0.00    -0.053 C  
HETATM    2  N   UNL     1      -6.493   8.145  71.155  1.00  0.00    -0.037 NA 
HETATM    3  C   UNL     1      -5.962   7.926  69.809  1.00  0.00    -0.023 C  
ENDROOT
BRANCH   2   4
HETATM    4  C   UNL     1      -7.838   8.759  71.142  1.00  0.00    -0.134 C  
BRANCH   4   5
HETATM    5  C   UNL     1      -8.233   9.505  69.851  1.00  0.00    -0.161 C  
BRANCH   5   6
HETATM    6  N   UNL     1      -9.660   9.322  69.488  1.00  0.00    -0.166 N  
HETATM    7  C   UNL     1     -10.153  10.259  68.544  1.00  0.00    -0.165 A  
HETATM    8  C   UNL     1     -10.930  11.293  69.108  1.00  0.00    -0.292 A  
HETATM    9  C   UNL     1     -11.505  12.262  68.306  1.00  0.00    -0.367 A  
HETATM   10  C   UNL     1     -11.304  12.195  66.939  1.00  0.00    -0.402 A  
HETATM   11  C   UNL     1     -10.545  11.149  66.378  1.00  0.00    -0.315 A  
HETATM   12  C   UNL     1      -9.941  10.126  67.145  1.00  0.00    -0.196 A  
HETATM   13  N   UNL     1      -9.165   9.069  66.559  1.00  0.00    -0.166 NA 
HETATM   14  C   UNL     1      -8.812   9.189  65.127  1.00  0.00    -0.200 C  
HETATM   15  C   UNL     1      -8.747   7.805  67.118  1.00  0.00    -0.125 A  
HETATM   16  C   UNL     1      -7.766   6.999  66.490  1.00  0.00    -0.104 A  
HETATM   17  C   UNL     1      -7.392   5.733  66.972  1.00  0.00    -0.080 A  
HETATM   18  C   UNL     1      -7.999   5.205  68.101  1.00  0.00    -0.087 A  
HETATM   19  C   UNL     1      -8.941   5.968  68.772  1.00  0.00    -0.118 A  
HETATM   20  C   UNL     1      -9.268   7.255  68.308  1.00  0.00    -0.133 A  
HETATM   21  C   UNL     1     -10.120   8.043  69.200  1.00  0.00    -0.201 C  
HETATM   22  O   UNL     1     -11.160   7.569  69.651  1.00  0.00    -0.198 OA 
ENDBRANCH   5   6
ENDBRANCH   4   5
ENDBRANCH   2   4
TORSDOF 3
ENDMDL
MODEL      139
REMARK 921   NORMALIZED FREE ENERGY PREDICTED BY IDOCK:   -3.50 KCAL/MOL
REMARK 922        TOTAL FREE ENERGY PREDICTED BY IDOCK:   -4.25 KCAL/MOL
REMARK 923 INTER-LIGAND FREE ENERGY PREDICTED BY IDOCK:   -3.89 KCAL/MOL
REMARK 924 INTRA-LIGAND FREE ENERGY PREDICTED BY IDOCK:   -0.36 KCAL/MOL
REMARK 927      BINDING AFFINITY PREDICTED BY RF-SCORE:    0.00 PKD
ROOT
HETATM    1  C   UNL     1      -6.358  11.951  67.290  1.00  0.00    -0.143 C  
HETATM    2  N   UNL     1      -7.008  11.879  68.605  1.00  0.00    -0.088 NA 
HETATM    3  C   UNL     1      -6.620  13.043  69.402  1.00  0.00    -0.063 C  
ENDROOT
BRANCH   2   4
HETATM    4  C   UNL     1      -8.470  11.785  68.411  1.00  0.00    -0.155 C  
BRANCH   4   5
HETATM    5  C   UNL     1      -9.091  10.382  68.583  1.00  0.00    -0.157 C  
BRANCH   5   6
HETATM    6  N   UNL     1      -9.016   9.880  69.977  1.00  0.00    -0.210 N  
HETATM    7  C   UNL     1     -10.143   9.125  70.392  1.00  0.00    -0.218 A  
HETATM    8  C   UNL     1     -11.047   9.837  71.209  1.00  0.00    -0.375 A  
HETATM    9  C   UNL     1     -12.176   9.220  71.717  1.00  0.00    -0.457 A  
HETATM   10  C   UNL     1     -12.399   7.890  71.409  1.00  0.00    -0.334 A  
HETATM   11  C   UNL     1     -11.484   7.177  70.611  1.00  0.00    -0.346 A  
HETATM   12  C   UNL     1     -10.309   7.751  70.071  1.00  0.00    -0.221 A  
HETATM   13  N   UNL     1      -9.387   7.011  69.254  1.00  0.00    -0.146 NA 
HETATM   14  C   UNL     1      -9.804   5.670  68.790  1.00  0.00    -0.146 C  
HETATM   15  C   UNL     1      -8.025   7.317  68.884  1.00  0.00    -0.123 A  
HETATM   16  C   UNL     1      -7.354   6.606  67.859  1.00  0.00    -0.096 A  
HETATM   17  C   UNL     1      -6.007   6.832  67.527  1.00  0.00    -0.024 A  
HETATM   18  C   UNL     1      -5.261   7.771  68.221  1.00  0.00    -0.027 A  
HETATM   19  C   UNL     1      -5.880   8.517  69.211  1.00  0.00    -0.038 A  
HETATM   20  C   UNL     1      -7.243   8.316  69.497  1.00  0.00    -0.061 A  
HETATM   21  C   UNL     1      -7.837   9.290  70.416  1.00  0.00    -0.148 C  
HETATM   22  O   UNL     1      -7.298   9.547  71.488  1.00  0.00    -0.314 OA 
ENDBRANCH   5   6
ENDBRANCH   4   5
ENDBRANCH   2   4
TORSDOF 3
ENDMDL
MODEL      140
REMARK 921   NORMALIZED FREE ENERGY PREDICTED BY IDOCK:   -3.45 KCAL/MOL
REMARK 922        TOTAL FREE ENERGY PREDICTED BY IDOCK:   -4.19 KCAL/MOL
REMARK 923 INTER-LIGAND FREE ENERGY PREDICTED BY IDOCK:   -3.59 KCAL/MOL
REMARK 924 INTRA-LIGAND FREE ENERGY PREDICTED BY IDOCK:   -0.60 KCAL/MOL
REMARK 927      BINDING AFFINITY PREDICTED BY RF-SCORE:    0.00 PKD
ROOT
HETATM    1  C   UNL     1      -9.345  10.172  69.055  1.00  0.00    -0.188 C  
HETATM    2  N   UNL     1     -10.623   9.491  68.814  1.00  0.00    -0.219 NA 
HETATM    3  C   UNL     1     -10.602   8.875  67.487  1.00  0.00    -0.237 C  
ENDROOT
BRANCH   2   4
HETATM    4  C   UNL     1     -10.853   8.508  69.893  1.00  0.00    -0.205 C  
BRANCH   4   5
HETATM    5  C   UNL     1     -10.583   7.031  69.537  1.00  0.00    -0.234 C  
BRANCH   5   6
HETATM    6  N   UNL     1      -9.414   6.465  70.255  1.00  0.00    -0.161 N  
HETATM    7  C   UNL     1      -9.590   5.133  70.711  1.00  0.00    -0.179 A  
HETATM    8  C   UNL     1      -9.876   5.028  72.090  1.00  0.00    -0.220 A  
HETATM    9  C   UNL     1     -10.041   3.790  72.683  1.00  0.00    -0.228 A  
HETATM   10  C   UNL     1      -9.918   2.657  71.899  1.00  0.00    -0.212 A  
HETATM   11  C   UNL     1      -9.612   2.766  70.528  1.00  0.00    -0.158 A  
HETATM   12  C   UNL     1      -9.423   4.003  69.868  1.00  0.00    -0.194 A  
HETATM   13  N   UNL     1      -9.117   4.097  68.467  1.00  0.00    -0.122 NA 
HETATM   14  C   UNL     1      -9.220   2.864  67.656  1.00  0.00    -0.201 C  
HETATM   15  C   UNL     1      -8.597   5.208  67.705  1.00  0.00    -0.104 A  
HETATM   16  C   UNL     1      -8.603   5.208  66.289  1.00  0.00    -0.114 A  
HETATM   17  C   UNL     1      -8.039   6.241  65.521  1.00  0.00    -0.129 A  
HETATM   18  C   UNL     1      -7.424   7.319  66.139  1.00  0.00    -0.083 A  
HETATM   19  C   UNL     1      -7.422   7.384  67.523  1.00  0.00    -0.100 A  
HETATM   20  C   UNL     1      -8.036   6.367  68.278  1.00  0.00    -0.106 A  
HETATM   21  C   UNL     1      -8.146   6.637  69.713  1.00  0.00    -0.126 C  
HETATM   22  O   UNL     1      -7.166   6.996  70.359  1.00  0.00    -0.071 OA 
ENDBRANCH   5   6
ENDBRANCH   4   5
ENDBRANCH   2   4
TORSDOF 3
ENDMDL
MODEL      141
REMARK 921   NORMALIZED FREE ENERGY PREDICTED BY IDOCK:   -3.44 KCAL/MOL
REMARK 922        TOTAL FREE ENERGY PREDICTED BY IDOCK:   -4.17 KCAL/MOL
REMARK 923 INTER-LIGAND FREE ENERGY PREDICTED BY IDOCK:   -3.78 KCAL/MOL
REMARK 924 INTRA-LIGAND FREE ENERGY PREDICTED BY IDOCK:   -0.39 KCAL/MOL
REMARK 927      BINDING AFFINITY PREDICTED BY RF-SCORE:    0.00 PKD
ROOT
HETATM    1  C   UNL     1      -8.656  10.800  68.568  1.00  0.00    -0.148 C  
HETATM    2  N   UNL     1      -9.511   9.642  68.860  1.00  0.00    -0.153 NA 
HETATM    3  C   UNL     1     -10.687   9.677  67.992  1.00  0.00    -0.232 C  
ENDROOT
BRANCH   2   4
HETATM    4  C   UNL     1      -8.717   8.407  68.691  1.00  0.00    -0.133 C  
BRANCH   4   5
HETATM    5  C   UNL     1      -8.165   7.770  69.984  1.00  0.00    -0.121 C  
BRANCH   5   6
HETATM    6  N   UNL     1      -8.348   6.298  70.031  1.00  0.00    -0.127 N  
HETATM    7  C   UNL     1      -7.505   5.629  70.955  1.00  0.00    -0.090 A  
HETATM    8  C   UNL     1      -6.395   4.988  70.366  1.00  0.00    -0.026 A  
HETATM    9  C   UNL     1      -5.504   4.267  71.140  1.00  0.00    -0.008 A  
HETATM   10  C   UNL     1      -5.724   4.187  72.504  1.00  0.00    -0.007 A  
HETATM   11  C   UNL     1      -6.845   4.811  73.085  1.00  0.00    -0.068 A  
HETATM   12  C   UNL     1      -7.795   5.552  72.344  1.00  0.00    -0.103 A  
HETATM   13  N   UNL     1      -8.931   6.188  72.952  1.00  0.00    -0.126 NA 
HETATM   14  C   UNL     1      -8.978   6.244  74.430  1.00  0.00    -0.150 C  
HETATM   15  C   UNL     1     -10.138   6.704  72.350  1.00  0.00    -0.167 A  
HETATM   16  C   UNL     1     -11.034   7.533  73.068  1.00  0.00    -0.443 A  
HETATM   17  C   UNL     1     -12.251   7.990  72.532  1.00  0.00    -0.294 A  
HETATM   18  C   UNL     1     -12.636   7.622  71.252  1.00  0.00    -0.316 A  
HETATM   19  C   UNL     1     -11.778   6.840  70.495  1.00  0.00    -0.430 A  
HETATM   20  C   UNL     1     -10.540   6.432  71.026  1.00  0.00    -0.282 A  
HETATM   21  C   UNL     1      -9.637   5.782  70.075  1.00  0.00    -0.164 C  
HETATM   22  O   UNL     1     -10.030   4.854  69.374  1.00  0.00    -0.195 OA 
ENDBRANCH   5   6
ENDBRANCH   4   5
ENDBRANCH   2   4
TORSDOF 3
ENDMDL
MODEL      142
REMARK 921   NORMALIZED FREE ENERGY PREDICTED BY IDOCK:   -3.43 KCAL/MOL
REMARK 922        TOTAL FREE ENERGY PREDICTED BY IDOCK:   -4.16 KCAL/MOL
REMARK 923 INTER-LIGAND FREE ENERGY PREDICTED BY IDOCK:   -4.25 KCAL/MOL
REMARK 924 INTRA-LIGAND FREE ENERGY PREDICTED BY IDOCK:    0.09 KCAL/MOL
REMARK 927      BINDING AFFINITY PREDICTED BY RF-SCORE:    0.00 PKD
ROOT
HETATM    1  C   UNL     1      -7.266   7.358  66.186  1.00  0.00    -0.077 C  
HETATM    2  N   UNL     1      -8.636   7.803  65.902  1.00  0.00    -0.148 NA 
HETATM    3  C   UNL     1      -9.581   6.776  66.341  1.00  0.00    -0.095 C  
ENDROOT
BRANCH   2   4
HETATM    4  C   UNL     1      -8.863   9.105  66.564  1.00  0.00    -0.134 C  
BRANCH   4   5
HETATM    5  C   UNL     1     -10.309   9.393  67.021  1.00  0.00    -0.252 C  
BRANCH   5   6
HETATM    6  N   UNL     1     -10.413   9.681  68.473  1.00  0.00    -0.205 N  
HETATM    7  C   UNL     1      -9.195   9.549  69.189  1.00  0.00    -0.163 A  
HETATM    8  C   UNL     1      -9.086   8.350  69.926  1.00  0.00    -0.146 A  
HETATM    9  C   UNL     1      -7.968   8.098  70.700  1.00  0.00    -0.096 A  
HETATM   10  C   UNL     1      -6.960   9.044  70.737  1.00  0.00    -0.087 A  
HETATM   11  C   UNL     1      -7.082  10.248  70.016  1.00  0.00    -0.161 A  
HETATM   12  C   UNL     1      -8.205  10.567  69.216  1.00  0.00    -0.145 A  
HETATM   13  N   UNL     1      -8.312  11.797  68.482  1.00  0.00    -0.152 NA 
HETATM   14  C   UNL     1      -7.109  12.653  68.396  1.00  0.00    -0.101 C  
HETATM   15  C   UNL     1      -9.469  12.422  67.885  1.00  0.00    -0.198 A  
HETATM   16  C   UNL     1      -9.347  13.500  66.975  1.00  0.00    -0.247 A  
HETATM   17  C   UNL     1     -10.455  14.175  66.434  1.00  0.00    -0.283 A  
HETATM   18  C   UNL     1     -11.743  13.810  66.794  1.00  0.00    -0.420 A  
HETATM   19  C   UNL     1     -11.918  12.738  67.655  1.00  0.00    -0.331 A  
HETATM   20  C   UNL     1     -10.800  12.040  68.149  1.00  0.00    -0.257 A  
HETATM   21  C   UNL     1     -11.107  10.812  68.885  1.00  0.00    -0.253 C  
HETATM   22  O   UNL     1     -11.933  10.818  69.793  1.00  0.00    -0.294 OA 
ENDBRANCH   5   6
ENDBRANCH   4   5
ENDBRANCH   2   4
TORSDOF 3
ENDMDL
MODEL      143
REMARK 921   NORMALIZED FREE ENERGY PREDICTED BY IDOCK:   -3.38 KCAL/MOL
REMARK 922        TOTAL FREE ENERGY PREDICTED BY IDOCK:   -4.11 KCAL/MOL
REMARK 923 INTER-LIGAND FREE ENERGY PREDICTED BY IDOCK:   -3.64 KCAL/MOL
REMARK 924 INTRA-LIGAND FREE ENERGY PREDICTED BY IDOCK:   -0.47 KCAL/MOL
REMARK 927      BINDING AFFINITY PREDICTED BY RF-SCORE:    0.00 PKD
ROOT
HETATM    1  C   UNL     1     -11.454   7.026  70.441  1.00  0.00    -0.310 C  
HETATM    2  N   UNL     1     -11.511   8.382  71.001  1.00  0.00    -0.267 NA 
HETATM    3  C   UNL     1     -11.964   8.314  72.391  1.00  0.00    -0.384 C  
ENDROOT
BRANCH   2   4
HETATM    4  C   UNL     1     -10.180   9.011  70.868  1.00  0.00    -0.257 C  
BRANCH   4   5
HETATM    5  C   UNL     1     -10.165  10.480  70.395  1.00  0.00     0.416 C  
BRANCH   5   6
HETATM    6  N   UNL     1     -11.484  10.944  69.899  1.00  0.00    -0.296 N  
HETATM    7  C   UNL     1     -12.046  12.018  70.636  1.00  0.00    -0.274 A  
HETATM    8  C   UNL     1     -13.062  11.632  71.537  1.00  0.00    -0.405 A  
HETATM    9  C   UNL     1     -13.724  12.576  72.299  1.00  0.00    -0.356 A  
HETATM   10  C   UNL     1     -13.371  13.907  72.160  1.00  0.00    -0.555 A  
HETATM   11  C   UNL     1     -12.372  14.290  71.245  1.00  0.00    -0.439 A  
HETATM   12  C   UNL     1     -11.667  13.372  70.432  1.00  0.00    -0.108 A  
HETATM   13  N   UNL     1     -10.645  13.778  69.507  1.00  0.00     0.086 NA 
HETATM   14  C   UNL     1     -10.174  15.179  69.575  1.00  0.00    -0.233 C  
HETATM   15  C   UNL     1     -10.054  13.058  68.404  1.00  0.00    -0.225 A  
HETATM   16  C   UNL     1      -8.876  13.513  67.762  1.00  0.00    -0.198 A  
HETATM   17  C   UNL     1      -8.319  12.874  66.641  1.00  0.00     0.130 A  
HETATM   18  C   UNL     1      -8.928  11.753  66.098  1.00  0.00    -0.145 A  
HETATM   19  C   UNL     1     -10.064  11.247  66.710  1.00  0.00    -0.254 A  
HETATM   20  C   UNL     1     -10.581  11.868  67.862  1.00  0.00    -0.229 A  
HETATM   21  C   UNL     1     -11.658  11.138  68.534  1.00  0.00    -0.314 C  
HETATM   22  O   UNL     1     -12.628  10.732  67.901  1.00  0.00     0.978 OA 
ENDBRANCH   5   6
ENDBRANCH   4   5
ENDBRANCH   2   4
TORSDOF 3
ENDMDL
MODEL      144
REMARK 921   NORMALIZED FREE ENERGY PREDICTED BY IDOCK:   -3.37 KCAL/MOL
REMARK 922        TOTAL FREE ENERGY PREDICTED BY IDOCK:   -4.10 KCAL/MOL
REMARK 923 INTER-LIGAND FREE ENERGY PREDICTED BY IDOCK:   -3.68 KCAL/MOL
REMARK 924 INTRA-LIGAND FREE ENERGY PREDICTED BY IDOCK:   -0.41 KCAL/MOL
REMARK 927      BINDING AFFINITY PREDICTED BY RF-SCORE:    0.00 PKD
ROOT
HETATM    1  C   UNL     1      -6.079  10.494  67.630  1.00  0.00    -0.052 C  
HETATM    2  N   UNL     1      -6.395   9.888  68.931  1.00  0.00    -0.041 NA 
HETATM    3  C   UNL     1      -7.639  10.462  69.443  1.00  0.00    -0.140 C  
ENDROOT
BRANCH   2   4
HETATM    4  C   UNL     1      -6.470   8.421  68.769  1.00  0.00    -0.053 C  
BRANCH   4   5
HETATM    5  C   UNL     1      -7.649   7.718  69.474  1.00  0.00    -0.100 C  
BRANCH   5   6
HETATM    6  N   UNL     1      -8.620   7.119  68.524  1.00  0.00    -0.124 N  
HETATM    7  C   UNL     1      -8.685   5.703  68.563  1.00  0.00    -0.110 A  
HETATM    8  C   UNL     1      -7.996   5.064  67.510  1.00  0.00    -0.095 A  
HETATM    9  C   UNL     1      -8.000   3.685  67.399  1.00  0.00    -0.082 A  
HETATM   10  C   UNL     1      -8.694   2.946  68.340  1.00  0.00    -0.140 A  
HETATM   11  C   UNL     1      -9.397   3.589  69.378  1.00  0.00    -0.243 A  
HETATM   12  C   UNL     1      -9.438   4.994  69.537  1.00  0.00    -0.143 A  
HETATM   13  N   UNL     1     -10.155   5.635  70.605  1.00  0.00    -0.198 NA 
HETATM   14  C   UNL     1     -10.683   4.778  71.689  1.00  0.00     0.061 C  
HETATM   15  C   UNL     1     -10.563   7.012  70.751  1.00  0.00    -0.219 A  
HETATM   16  C   UNL     1     -11.032   7.523  71.986  1.00  0.00    -0.282 A  
HETATM   17  C   UNL     1     -11.504   8.838  72.141  1.00  0.00    -0.421 A  
HETATM   18  C   UNL     1     -11.544   9.701  71.057  1.00  0.00    -0.436 A  
HETATM   19  C   UNL     1     -11.065   9.260  69.834  1.00  0.00    -0.200 A  
HETATM   20  C   UNL     1     -10.548   7.958  69.706  1.00  0.00    -0.242 A  
HETATM   21  C   UNL     1      -9.892   7.669  68.429  1.00  0.00    -0.166 C  
HETATM   22  O   UNL     1     -10.455   7.918  67.367  1.00  0.00    -0.255 OA 
ENDBRANCH   5   6
ENDBRANCH   4   5
ENDBRANCH   2   4
TORSDOF 3
ENDMDL
MODEL      145
REMARK 921   NORMALIZED FREE ENERGY PREDICTED BY IDOCK:   -3.36 KCAL/MOL
REMARK 922        TOTAL FREE ENERGY PREDICTED BY IDOCK:   -4.08 KCAL/MOL
REMARK 923 INTER-LIGAND FREE ENERGY PREDICTED BY IDOCK:   -4.03 KCAL/MOL
REMARK 924 INTRA-LIGAND FREE ENERGY PREDICTED BY IDOCK:   -0.05 KCAL/MOL
REMARK 927      BINDING AFFINITY PREDICTED BY RF-SCORE:    0.00 PKD
ROOT
HETATM    1  C   UNL     1     -11.462   9.259  71.259  1.00  0.00    -0.347 C  
HETATM    2  N   UNL     1     -11.989  10.319  70.390  1.00  0.00    -0.293 NA 
HETATM    3  C   UNL     1     -12.548  11.390  71.217  1.00  0.00    -0.374 C  
ENDROOT
BRANCH   2   4
HETATM    4  C   UNL     1     -10.905  10.793  69.504  1.00  0.00    -0.242 C  
BRANCH   4   5
HETATM    5  C   UNL     1     -10.514   9.852  68.345  1.00  0.00    -0.208 C  
BRANCH   5   6
HETATM    6  N   UNL     1     -10.083  10.580  67.126  1.00  0.00    -0.200 N  
HETATM    7  C   UNL     1      -9.282  11.724  67.374  1.00  0.00    -0.174 A  
HETATM    8  C   UNL     1      -9.977  12.949  67.274  1.00  0.00    -0.224 A  
HETATM    9  C   UNL     1      -9.318  14.151  67.458  1.00  0.00    -0.204 A  
HETATM   10  C   UNL     1      -7.964  14.128  67.742  1.00  0.00    -0.175 A  
HETATM   11  C   UNL     1      -7.270  12.904  67.820  1.00  0.00    -0.134 A  
HETATM   12  C   UNL     1      -7.887  11.645  67.632  1.00  0.00    -0.135 A  
HETATM   13  N   UNL     1      -7.167  10.405  67.721  1.00  0.00    -0.085 NA 
HETATM   14  C   UNL     1      -5.783  10.451  68.241  1.00  0.00    -0.040 C  
HETATM   15  C   UNL     1      -7.535   9.085  67.268  1.00  0.00    -0.084 A  
HETATM   16  C   UNL     1      -6.819   7.932  67.671  1.00  0.00    -0.070 A  
HETATM   17  C   UNL     1      -7.108   6.643  67.190  1.00  0.00    -0.076 A  
HETATM   18  C   UNL     1      -8.122   6.451  66.264  1.00  0.00    -0.114 A  
HETATM   19  C   UNL     1      -8.876   7.543  65.863  1.00  0.00    -0.157 A  
HETATM   20  C   UNL     1      -8.607   8.819  66.392  1.00  0.00    -0.138 A  
HETATM   21  C   UNL     1      -9.585   9.854  66.051  1.00  0.00    -0.225 C  
HETATM   22  O   UNL     1      -9.925  10.033  64.885  1.00  0.00    -0.325 OA 
ENDBRANCH   5   6
ENDBRANCH   4   5
ENDBRANCH   2   4
TORSDOF 3
ENDMDL
MODEL      146
REMARK 921   NORMALIZED FREE ENERGY PREDICTED BY IDOCK:   -3.33 KCAL/MOL
REMARK 922        TOTAL FREE ENERGY PREDICTED BY IDOCK:   -4.04 KCAL/MOL
REMARK 923 INTER-LIGAND FREE ENERGY PREDICTED BY IDOCK:   -3.75 KCAL/MOL
REMARK 924 INTRA-LIGAND FREE ENERGY PREDICTED BY IDOCK:   -0.29 KCAL/MOL
REMARK 927      BINDING AFFINITY PREDICTED BY RF-SCORE:    0.00 PKD
ROOT
HETATM    1  C   UNL     1     -12.846  11.151  71.539  1.00  0.00    -0.437 C  
HETATM    2  N   UNL     1     -12.163  11.197  70.240  1.00  0.00    -0.337 NA 
HETATM    3  C   UNL     1     -11.918  12.591  69.869  1.00  0.00    -0.301 C  
ENDROOT
BRANCH   2   4
HETATM    4  C   UNL     1     -10.917  10.405  70.327  1.00  0.00    -0.284 C  
BRANCH   4   5
HETATM    5  C   UNL     1     -10.472   9.692  69.032  1.00  0.00    -0.213 C  
BRANCH   5   6
HETATM    6  N   UNL     1      -9.761   8.415  69.287  1.00  0.00    -0.174 N  
HETATM    7  C   UNL     1      -9.720   7.532  68.178  1.00  0.00    -0.154 A  
HETATM    8  C   UNL     1     -10.648   6.471  68.249  1.00  0.00    -0.302 A  
HETATM    9  C   UNL     1     -10.700   5.512  67.254  1.00  0.00    -0.243 A  
HETATM   10  C   UNL     1      -9.823   5.613  66.189  1.00  0.00    -0.114 A  
HETATM   11  C   UNL     1      -8.885   6.662  66.132  1.00  0.00    -0.160 A  
HETATM   12  C   UNL     1      -8.778   7.666  67.123  1.00  0.00    -0.125 A  
HETATM   13  N   UNL     1      -7.818   8.733  67.049  1.00  0.00    -0.095 NA 
HETATM   14  C   UNL     1      -7.073   8.899  65.782  1.00  0.00    -0.084 C  
HETATM   15  C   UNL     1      -7.357   9.639  68.074  1.00  0.00    -0.082 A  
HETATM   16  C   UNL     1      -6.604  10.797  67.763  1.00  0.00    -0.064 A  
HETATM   17  C   UNL     1      -6.080  11.657  68.743  1.00  0.00    -0.050 A  
HETATM   18  C   UNL     1      -6.273  11.386  70.089  1.00  0.00    -0.138 A  
HETATM   19  C   UNL     1      -7.033  10.283  70.447  1.00  0.00    -0.081 A  
HETATM   20  C   UNL     1      -7.594   9.460  69.453  1.00  0.00    -0.083 A  
HETATM   21  C   UNL     1      -8.534   8.448  69.938  1.00  0.00    -0.126 C  
HETATM   22  O   UNL     1      -8.227   7.703  70.864  1.00  0.00    -0.105 OA 
ENDBRANCH   5   6
ENDBRANCH   4   5
ENDBRANCH   2   4
TORSDOF 3
ENDMDL
MODEL      147
REMARK 921   NORMALIZED FREE ENERGY PREDICTED BY IDOCK:   -3.31 KCAL/MOL
REMARK 922        TOTAL FREE ENERGY PREDICTED BY IDOCK:   -4.02 KCAL/MOL
REMARK 923 INTER-LIGAND FREE ENERGY PREDICTED BY IDOCK:   -3.71 KCAL/MOL
REMARK 924 INTRA-LIGAND FREE ENERGY PREDICTED BY IDOCK:   -0.32 KCAL/MOL
REMARK 927      BINDING AFFINITY PREDICTED BY RF-SCORE:    0.00 PKD
ROOT
HETATM    1  C   UNL     1      -8.452   5.279  66.452  1.00  0.00    -0.113 C  
HETATM    2  N   UNL     1      -7.690   4.998  67.676  1.00  0.00    -0.087 NA 
HETATM    3  C   UNL     1      -6.478   4.254  67.332  1.00  0.00    -0.042 C  
ENDROOT
BRANCH   2   4
HETATM    4  C   UNL     1      -7.398   6.274  68.362  1.00  0.00    -0.086 C  
BRANCH   4   5
HETATM    5  C   UNL     1      -8.553   6.886  69.182  1.00  0.00    -0.128 C  
BRANCH   5   6
HETATM    6  N   UNL     1      -8.332   8.314  69.521  1.00  0.00    -0.119 N  
HETATM    7  C   UNL     1      -9.193   9.219  68.848  1.00  0.00    -0.143 A  
HETATM    8  C   UNL     1      -8.593   9.885  67.757  1.00  0.00    -0.121 A  
HETATM    9  C   UNL     1      -9.302  10.822  67.027  1.00  0.00    -0.174 A  
HETATM   10  C   UNL     1     -10.609  11.093  67.389  1.00  0.00    -0.272 A  
HETATM   11  C   UNL     1     -11.197  10.442  68.491  1.00  0.00    -0.308 A  
HETATM   12  C   UNL     1     -10.520   9.483  69.281  1.00  0.00    -0.212 A  
HETATM   13  N   UNL     1     -11.135   8.822  70.398  1.00  0.00    -0.242 NA 
HETATM   14  C   UNL     1     -12.592   9.000  70.585  1.00  0.00     0.216 C  
HETATM   15  C   UNL     1     -10.535   8.076  71.479  1.00  0.00    -0.217 A  
HETATM   16  C   UNL     1     -11.310   7.273  72.351  1.00  0.00    -0.324 A  
HETATM   17  C   UNL     1     -10.765   6.593  73.454  1.00  0.00    -0.315 A  
HETATM   18  C   UNL     1      -9.414   6.702  73.747  1.00  0.00    -0.198 A  
HETATM   19  C   UNL     1      -8.606   7.449  72.905  1.00  0.00    -0.160 A  
HETATM   20  C   UNL     1      -9.157   8.081  71.775  1.00  0.00    -0.207 A  
HETATM   21  C   UNL     1      -8.184   8.673  70.855  1.00  0.00    -0.143 C  
HETATM   22  O   UNL     1      -7.306   9.423  71.271  1.00  0.00    -0.310 OA 
ENDBRANCH   5   6
ENDBRANCH   4   5
ENDBRANCH   2   4
TORSDOF 3
ENDMDL
MODEL      148
REMARK 921   NORMALIZED FREE ENERGY PREDICTED BY IDOCK:   -3.24 KCAL/MOL
REMARK 922        TOTAL FREE ENERGY PREDICTED BY IDOCK:   -3.95 KCAL/MOL
REMARK 923 INTER-LIGAND FREE ENERGY PREDICTED BY IDOCK:   -3.60 KCAL/MOL
REMARK 924 INTRA-LIGAND FREE ENERGY PREDICTED BY IDOCK:   -0.35 KCAL/MOL
REMARK 927      BINDING AFFINITY PREDICTED BY RF-SCORE:    0.00 PKD
ROOT
HETATM    1  C   UNL     1     -11.655  11.803  64.437  1.00  0.00    -0.245 C  
HETATM    2  N   UNL     1     -10.829  11.925  65.646  1.00  0.00    -0.278 NA 
HETATM    3  C   UNL     1     -11.384  12.969  66.508  1.00  0.00    -0.320 C  
ENDROOT
BRANCH   2   4
HETATM    4  C   UNL     1     -10.765  10.609  66.316  1.00  0.00    -0.102 C  
BRANCH   4   5
HETATM    5  C   UNL     1      -9.951  10.551  67.626  1.00  0.00    -0.173 C  
BRANCH   5   6
HETATM    6  N   UNL     1      -8.548  10.113  67.419  1.00  0.00    -0.122 N  
HETATM    7  C   UNL     1      -7.635  10.579  68.399  1.00  0.00    -0.097 A  
HETATM    8  C   UNL     1      -6.846  11.672  67.981  1.00  0.00    -0.072 A  
HETATM    9  C   UNL     1      -5.887  12.211  68.819  1.00  0.00    -0.055 A  
HETATM   10  C   UNL     1      -5.717  11.657  70.075  1.00  0.00    -0.128 A  
HETATM   11  C   UNL     1      -6.492  10.553  70.481  1.00  0.00    -0.071 A  
HETATM   12  C   UNL     1      -7.480   9.953  69.665  1.00  0.00    -0.122 A  
HETATM   13  N   UNL     1      -8.267   8.830  70.095  1.00  0.00    -0.109 NA 
HETATM   14  C   UNL     1      -8.183   8.438  71.519  1.00  0.00    -0.144 C  
HETATM   15  C   UNL     1      -9.072   7.912  69.324  1.00  0.00    -0.148 A  
HETATM   16  C   UNL     1      -9.988   7.025  69.941  1.00  0.00    -0.183 A  
HETATM   17  C   UNL     1     -10.731   6.072  69.224  1.00  0.00    -0.401 A  
HETATM   18  C   UNL     1     -10.577   5.950  67.851  1.00  0.00    -0.322 A  
HETATM   19  C   UNL     1      -9.719   6.818  67.195  1.00  0.00    -0.191 A  
HETATM   20  C   UNL     1      -9.020   7.801  67.920  1.00  0.00    -0.125 A  
HETATM   21  C   UNL     1      -8.300   8.782  67.105  1.00  0.00    -0.103 C  
HETATM   22  O   UNL     1      -7.544   8.417  66.210  1.00  0.00    -0.084 OA 
ENDBRANCH   5   6
ENDBRANCH   4   5
ENDBRANCH   2   4
TORSDOF 3
ENDMDL
MODEL      149
REMARK 921   NORMALIZED FREE ENERGY PREDICTED BY IDOCK:   -3.24 KCAL/MOL
REMARK 922        TOTAL FREE ENERGY PREDICTED BY IDOCK:   -3.95 KCAL/MOL
REMARK 923 INTER-LIGAND FREE ENERGY PREDICTED BY IDOCK:   -3.78 KCAL/MOL
REMARK 924 INTRA-LIGAND FREE ENERGY PREDICTED BY IDOCK:   -0.16 KCAL/MOL
REMARK 927      BINDING AFFINITY PREDICTED BY RF-SCORE:    0.00 PKD
ROOT
HETATM    1  C   UNL     1      -5.337   9.118  67.908  1.00  0.00    -0.034 C  
HETATM    2  N   UNL     1      -6.161   8.067  68.519  1.00  0.00    -0.043 NA 
HETATM    3  C   UNL     1      -5.639   7.753  69.849  1.00  0.00    -0.023 C  
ENDROOT
BRANCH   2   4
HETATM    4  C   UNL     1      -7.567   8.522  68.554  1.00  0.00    -0.095 C  
BRANCH   4   5
HETATM    5  C   UNL     1      -7.979   9.545  67.474  1.00  0.00    -0.106 C  
BRANCH   5   6
HETATM    6  N   UNL     1      -9.311   9.262  66.883  1.00  0.00    -0.145 N  
HETATM    7  C   UNL     1      -9.733  10.199  65.906  1.00  0.00    -0.232 A  
HETATM    8  C   UNL     1     -10.677  11.138  66.376  1.00  0.00    -0.303 A  
HETATM    9  C   UNL     1     -11.205  12.092  65.526  1.00  0.00    -0.381 A  
HETATM   10  C   UNL     1     -10.790  12.107  64.206  1.00  0.00    -0.388 A  
HETATM   11  C   UNL     1      -9.864  11.156  63.737  1.00  0.00    -0.374 A  
HETATM   12  C   UNL     1      -9.297  10.150  64.555  1.00  0.00    -0.289 A  
HETATM   13  N   UNL     1      -8.349   9.190  64.063  1.00  0.00    -0.172 NA 
HETATM   14  C   UNL     1      -7.791   9.406  62.709  1.00  0.00    -0.120 C  
HETATM   15  C   UNL     1      -7.912   7.939  64.638  1.00  0.00    -0.143 A  
HETATM   16  C   UNL     1      -6.778   7.248  64.145  1.00  0.00    -0.047 A  
HETATM   17  C   UNL     1      -6.372   5.995  64.636  1.00  0.00    -0.033 A  
HETATM   18  C   UNL     1      -7.097   5.366  65.637  1.00  0.00    -0.067 A  
HETATM   19  C   UNL     1      -8.195   6.016  66.177  1.00  0.00    -0.121 A  
HETATM   20  C   UNL     1      -8.559   7.293  65.711  1.00  0.00    -0.143 A  
HETATM   21  C   UNL     1      -9.606   7.964  66.483  1.00  0.00    -0.212 C  
HETATM   22  O   UNL     1     -10.656   7.386  66.748  1.00  0.00    -0.310 OA 
ENDBRANCH   5   6
ENDBRANCH   4   5
ENDBRANCH   2   4
TORSDOF 3
ENDMDL
MODEL      150
REMARK 921   NORMALIZED FREE ENERGY PREDICTED BY IDOCK:   -3.22 KCAL/MOL
REMARK 922        TOTAL FREE ENERGY PREDICTED BY IDOCK:   -3.91 KCAL/MOL
REMARK 923 INTER-LIGAND FREE ENERGY PREDICTED BY IDOCK:   -3.47 KCAL/MOL
REMARK 924 INTRA-LIGAND FREE ENERGY PREDICTED BY IDOCK:   -0.45 KCAL/MOL
REMARK 927      BINDING AFFINITY PREDICTED BY RF-SCORE:    0.00 PKD
ROOT
HETATM    1  C   UNL     1      -9.071   4.979  65.880  1.00  0.00    -0.150 C  
HETATM    2  N   UNL     1      -9.387   5.570  67.187  1.00  0.00    -0.114 NA 
HETATM    3  C   UNL     1      -9.384   4.521  68.207  1.00  0.00    -0.141 C  
ENDROOT
BRANCH   2   4
HETATM    4  C   UNL     1      -8.413   6.644  67.474  1.00  0.00    -0.121 C  
BRANCH   4   5
HETATM    5  C   UNL     1      -8.244   7.031  68.958  1.00  0.00    -0.125 C  
BRANCH   5   6
HETATM    6  N   UNL     1      -9.300   7.954  69.443  1.00  0.00    -0.152 N  
HETATM    7  C   UNL     1      -9.919   7.556  70.656  1.00  0.00    -0.183 A  
HETATM    8  C   UNL     1     -11.189   6.964  70.489  1.00  0.00    -0.353 A  
HETATM    9  C   UNL     1     -11.927   6.556  71.586  1.00  0.00    -0.387 A  
HETATM   10  C   UNL     1     -11.394   6.742  72.849  1.00  0.00    -0.182 A  
HETATM   11  C   UNL     1     -10.135   7.353  73.012  1.00  0.00    -0.323 A  
HETATM   12  C   UNL     1      -9.340   7.798  71.930  1.00  0.00    -0.153 A  
HETATM   13  N   UNL     1      -8.055   8.414  72.113  1.00  0.00    -0.185 NA 
HETATM   14  C   UNL     1      -7.461   8.377  73.467  1.00  0.00    -0.069 C  
HETATM   15  C   UNL     1      -7.260   9.192  71.191  1.00  0.00    -0.073 A  
HETATM   16  C   UNL     1      -5.903   9.500  71.453  1.00  0.00    -0.067 A  
HETATM   17  C   UNL     1      -5.126  10.314  70.611  1.00  0.00    -0.052 A  
HETATM   18  C   UNL     1      -5.681  10.876  69.471  1.00  0.00    -0.042 A  
HETATM   19  C   UNL     1      -6.996  10.578  69.152  1.00  0.00    -0.080 A  
HETATM   20  C   UNL     1      -7.746   9.719  69.977  1.00  0.00    -0.179 A  
HETATM   21  C   UNL     1      -9.049   9.320  69.442  1.00  0.00    -0.152 C  
HETATM   22  O   UNL     1      -9.837  10.163  69.021  1.00  0.00    -0.184 OA 
ENDBRANCH   5   6
ENDBRANCH   4   5
ENDBRANCH   2   4
TORSDOF 3
ENDMDL
MODEL      151
REMARK 921   NORMALIZED FREE ENERGY PREDICTED BY IDOCK:   -3.21 KCAL/MOL
REMARK 922        TOTAL FREE ENERGY PREDICTED BY IDOCK:   -3.91 KCAL/MOL
REMARK 923 INTER-LIGAND FREE ENERGY PREDICTED BY IDOCK:   -3.36 KCAL/MOL
REMARK 924 INTRA-LIGAND FREE ENERGY PREDICTED BY IDOCK:   -0.55 KCAL/MOL
REMARK 927      BINDING AFFINITY PREDICTED BY RF-SCORE:    0.00 PKD
ROOT
HETATM    1  C   UNL     1      -5.868   7.781  70.199  1.00  0.00    -0.023 C  
HETATM    2  N   UNL     1      -5.846   9.243  70.338  1.00  0.00    -0.035 NA 
HETATM    3  C   UNL     1      -5.541   9.849  69.041  1.00  0.00    -0.035 C  
ENDROOT
BRANCH   2   4
HETATM    4  C   UNL     1      -7.145   9.691  70.883  1.00  0.00    -0.010 C  
BRANCH   4   5
HETATM    5  C   UNL     1      -8.271   8.636  70.913  1.00  0.00    -0.143 C  
BRANCH   5   6
HETATM    6  N   UNL     1      -9.049   8.653  72.176  1.00  0.00    -0.252 N  
HETATM    7  C   UNL     1     -10.404   8.257  72.039  1.00  0.00    -0.279 A  
HETATM    8  C   UNL     1     -11.322   9.329  72.024  1.00  0.00    -0.235 A  
HETATM    9  C   UNL     1     -12.681   9.094  71.929  1.00  0.00    -0.464 A  
HETATM   10  C   UNL     1     -13.123   7.785  71.850  1.00  0.00    -0.300 A  
HETATM   11  C   UNL     1     -12.206   6.717  71.885  1.00  0.00    -0.381 A  
HETATM   12  C   UNL     1     -10.806   6.895  71.991  1.00  0.00    -0.225 A  
HETATM   13  N   UNL     1      -9.883   5.795  72.021  1.00  0.00    -0.154 NA 
HETATM   14  C   UNL     1     -10.409   4.447  71.711  1.00  0.00    -0.071 C  
HETATM   15  C   UNL     1      -8.497   5.758  72.426  1.00  0.00    -0.118 A  
HETATM   16  C   UNL     1      -7.667   4.646  72.143  1.00  0.00    -0.091 A  
HETATM   17  C   UNL     1      -6.337   4.551  72.587  1.00  0.00    -0.025 A  
HETATM   18  C   UNL     1      -5.779   5.562  73.354  1.00  0.00    -0.028 A  
HETATM   19  C   UNL     1      -6.539   6.688  73.630  1.00  0.00    -0.072 A  
HETATM   20  C   UNL     1      -7.853   6.792  73.135  1.00  0.00    -0.099 A  
HETATM   21  C   UNL     1      -8.487   8.098  73.319  1.00  0.00    -0.230 C  
HETATM   22  O   UNL     1      -8.494   8.641  74.421  1.00  0.00    -0.093 OA 
ENDBRANCH   5   6
ENDBRANCH   4   5
ENDBRANCH   2   4
TORSDOF 3
ENDMDL
MODEL      152
REMARK 921   NORMALIZED FREE ENERGY PREDICTED BY IDOCK:   -3.20 KCAL/MOL
REMARK 922        TOTAL FREE ENERGY PREDICTED BY IDOCK:   -3.90 KCAL/MOL
REMARK 923 INTER-LIGAND FREE ENERGY PREDICTED BY IDOCK:   -3.56 KCAL/MOL
REMARK 924 INTRA-LIGAND FREE ENERGY PREDICTED BY IDOCK:   -0.33 KCAL/MOL
REMARK 927      BINDING AFFINITY PREDICTED BY RF-SCORE:    0.00 PKD
ROOT
HETATM    1  C   UNL     1      -8.432   5.899  73.976  1.00  0.00    -0.116 C  
HETATM    2  N   UNL     1      -8.960   7.218  73.605  1.00  0.00    -0.174 NA 
HETATM    3  C   UNL     1      -7.883   8.206  73.663  1.00  0.00    -0.185 C  
ENDROOT
BRANCH   2   4
HETATM    4  C   UNL     1      -9.575   7.126  72.264  1.00  0.00    -0.142 C  
BRANCH   4   5
HETATM    5  C   UNL     1      -9.154   8.208  71.246  1.00  0.00    -0.150 C  
BRANCH   5   6
HETATM    6  N   UNL     1     -10.038   8.261  70.055  1.00  0.00    -0.193 N  
HETATM    7  C   UNL     1     -10.233   9.562  69.524  1.00  0.00    -0.213 A  
HETATM    8  C   UNL     1     -11.471  10.146  69.869  1.00  0.00    -0.317 A  
HETATM    9  C   UNL     1     -11.815  11.400  69.396  1.00  0.00    -0.419 A  
HETATM   10  C   UNL     1     -10.922  12.067  68.577  1.00  0.00    -0.280 A  
HETATM   11  C   UNL     1      -9.697  11.471  68.218  1.00  0.00    -0.198 A  
HETATM   12  C   UNL     1      -9.294  10.190  68.663  1.00  0.00    -0.161 A  
HETATM   13  N   UNL     1      -8.039   9.597  68.293  1.00  0.00    -0.104 NA 
HETATM   14  C   UNL     1      -7.051  10.455  67.602  1.00  0.00    -0.085 C  
HETATM   15  C   UNL     1      -7.599   8.225  68.382  1.00  0.00    -0.101 A  
HETATM   16  C   UNL     1      -6.239   7.865  68.216  1.00  0.00    -0.045 A  
HETATM   17  C   UNL     1      -5.793   6.532  68.225  1.00  0.00    -0.020 A  
HETATM   18  C   UNL     1      -6.695   5.492  68.384  1.00  0.00    -0.054 A  
HETATM   19  C   UNL     1      -8.033   5.792  68.585  1.00  0.00    -0.101 A  
HETATM   20  C   UNL     1      -8.458   7.133  68.624  1.00  0.00    -0.125 A  
HETATM   21  C   UNL     1      -9.848   7.335  69.037  1.00  0.00    -0.165 C  
HETATM   22  O   UNL     1     -10.756   6.706  68.502  1.00  0.00    -0.216 OA 
ENDBRANCH   5   6
ENDBRANCH   4   5
ENDBRANCH   2   4
TORSDOF 3
ENDMDL
MODEL      153
REMARK 921   NORMALIZED FREE ENERGY PREDICTED BY IDOCK:   -3.19 KCAL/MOL
REMARK 922        TOTAL FREE ENERGY PREDICTED BY IDOCK:   -3.89 KCAL/MOL
REMARK 923 INTER-LIGAND FREE ENERGY PREDICTED BY IDOCK:   -3.50 KCAL/MOL
REMARK 924 INTRA-LIGAND FREE ENERGY PREDICTED BY IDOCK:   -0.39 KCAL/MOL
REMARK 927      BINDING AFFINITY PREDICTED BY RF-SCORE:    0.00 PKD
ROOT
HETATM    1  C   UNL     1      -6.240   4.367  66.337  1.00  0.00    -0.032 C  
HETATM    2  N   UNL     1      -6.617   5.269  67.433  1.00  0.00    -0.052 NA 
HETATM    3  C   UNL     1      -6.920   6.593  66.890  1.00  0.00    -0.067 C  
ENDROOT
BRANCH   2   4
HETATM    4  C   UNL     1      -7.757   4.680  68.166  1.00  0.00    -0.081 C  
BRANCH   4   5
HETATM    5  C   UNL     1      -8.049   5.273  69.561  1.00  0.00    -0.094 C  
BRANCH   5   6
HETATM    6  N   UNL     1      -9.484   5.203  69.933  1.00  0.00    -0.148 N  
HETATM    7  C   UNL     1      -9.726   4.852  71.286  1.00  0.00    -0.177 A  
HETATM    8  C   UNL     1     -10.109   3.507  71.474  1.00  0.00    -0.081 A  
HETATM    9  C   UNL     1     -10.410   3.029  72.737  1.00  0.00    -0.230 A  
HETATM   10  C   UNL     1     -10.328   3.897  73.811  1.00  0.00    -0.242 A  
HETATM   11  C   UNL     1      -9.965   5.244  73.616  1.00  0.00    -0.194 A  
HETATM   12  C   UNL     1      -9.655   5.792  72.349  1.00  0.00    -0.149 A  
HETATM   13  N   UNL     1      -9.281   7.167  72.167  1.00  0.00    -0.130 NA 
HETATM   14  C   UNL     1      -9.002   7.970  73.378  1.00  0.00    -0.274 C  
HETATM   15  C   UNL     1      -9.236   7.964  70.964  1.00  0.00    -0.151 A  
HETATM   16  C   UNL     1      -8.593   9.226  70.929  1.00  0.00    -0.220 A  
HETATM   17  C   UNL     1      -8.596  10.055  69.794  1.00  0.00    -0.192 A  
HETATM   18  C   UNL     1      -9.261   9.666  68.642  1.00  0.00    -0.136 A  
HETATM   19  C   UNL     1      -9.877   8.425  68.613  1.00  0.00    -0.180 A  
HETATM   20  C   UNL     1      -9.822   7.583  69.739  1.00  0.00    -0.180 A  
HETATM   21  C   UNL     1     -10.332   6.227  69.530  1.00  0.00    -0.212 C  
HETATM   22  O   UNL     1     -11.435   6.045  69.022  1.00  0.00    -0.275 OA 
ENDBRANCH   5   6
ENDBRANCH   4   5
ENDBRANCH   2   4
TORSDOF 3
ENDMDL
MODEL      154
REMARK 921   NORMALIZED FREE ENERGY PREDICTED BY IDOCK:   -3.16 KCAL/MOL
REMARK 922        TOTAL FREE ENERGY PREDICTED BY IDOCK:   -3.85 KCAL/MOL
REMARK 923 INTER-LIGAND FREE ENERGY PREDICTED BY IDOCK:   -3.79 KCAL/MOL
REMARK 924 INTRA-LIGAND FREE ENERGY PREDICTED BY IDOCK:   -0.06 KCAL/MOL
REMARK 927      BINDING AFFINITY PREDICTED BY RF-SCORE:    0.00 PKD
ROOT
HETATM    1  C   UNL     1      -7.209   7.336  66.179  1.00  0.00    -0.074 C  
HETATM    2  N   UNL     1      -8.678   7.364  66.164  1.00  0.00    -0.151 NA 
HETATM    3  C   UNL     1      -9.192   6.243  66.952  1.00  0.00    -0.130 C  
ENDROOT
BRANCH   2   4
HETATM    4  C   UNL     1      -9.137   8.674  66.672  1.00  0.00    -0.165 C  
BRANCH   4   5
HETATM    5  C   UNL     1     -10.108   8.637  67.871  1.00  0.00    -0.203 C  
BRANCH   5   6
HETATM    6  N   UNL     1     -10.084   9.882  68.677  1.00  0.00    -0.168 N  
HETATM    7  C   UNL     1     -10.956   9.877  69.795  1.00  0.00    -0.268 A  
HETATM    8  C   UNL     1     -12.152  10.601  69.599  1.00  0.00    -0.312 A  
HETATM    9  C   UNL     1     -13.084  10.712  70.614  1.00  0.00    -0.242 A  
HETATM   10  C   UNL     1     -12.820  10.100  71.827  1.00  0.00    -0.554 A  
HETATM   11  C   UNL     1     -11.617   9.396  72.025  1.00  0.00    -0.214 A  
HETATM   12  C   UNL     1     -10.622   9.256  71.029  1.00  0.00    -0.316 A  
HETATM   13  N   UNL     1      -9.401   8.530  71.245  1.00  0.00    -0.183 NA 
HETATM   14  C   UNL     1      -9.291   7.724  72.481  1.00  0.00    -0.178 C  
HETATM   15  C   UNL     1      -8.171   8.539  70.490  1.00  0.00    -0.115 A  
HETATM   16  C   UNL     1      -7.163   7.565  70.694  1.00  0.00    -0.067 A  
HETATM   17  C   UNL     1      -5.926   7.591  70.026  1.00  0.00    -0.024 A  
HETATM   18  C   UNL     1      -5.634   8.608  69.131  1.00  0.00    -0.036 A  
HETATM   19  C   UNL     1      -6.600   9.567  68.870  1.00  0.00    -0.047 A  
HETATM   20  C   UNL     1      -7.852   9.499  69.508  1.00  0.00    -0.103 A  
HETATM   21  C   UNL     1      -8.857  10.441  69.011  1.00  0.00    -0.172 C  
HETATM   22  O   UNL     1      -8.594  11.636  68.902  1.00  0.00    -0.067 OA 
ENDBRANCH   5   6
ENDBRANCH   4   5
ENDBRANCH   2   4
TORSDOF 3
ENDMDL
MODEL      155
REMARK 921   NORMALIZED FREE ENERGY PREDICTED BY IDOCK:   -3.16 KCAL/MOL
REMARK 922        TOTAL FREE ENERGY PREDICTED BY IDOCK:   -3.84 KCAL/MOL
REMARK 923 INTER-LIGAND FREE ENERGY PREDICTED BY IDOCK:   -3.32 KCAL/MOL
REMARK 924 INTRA-LIGAND FREE ENERGY PREDICTED BY IDOCK:   -0.53 KCAL/MOL
REMARK 927      BINDING AFFINITY PREDICTED BY RF-SCORE:    0.00 PKD
ROOT
HETATM    1  C   UNL     1      -7.794   9.110  71.348  1.00  0.00     0.051 C  
HETATM    2  N   UNL     1      -9.181   8.756  71.676  1.00  0.00    -0.253 NA 
HETATM    3  C   UNL     1     -10.073   9.286  70.644  1.00  0.00    -0.276 C  
ENDROOT
BRANCH   2   4
HETATM    4  C   UNL     1      -9.280   7.288  71.813  1.00  0.00    -0.142 C  
BRANCH   4   5
HETATM    5  C   UNL     1      -9.622   6.505  70.528  1.00  0.00    -0.169 C  
BRANCH   5   6
HETATM    6  N   UNL     1      -8.462   5.762  69.975  1.00  0.00    -0.122 N  
HETATM    7  C   UNL     1      -8.764   4.454  69.518  1.00  0.00    -0.082 A  
HETATM    8  C   UNL     1      -8.380   3.428  70.409  1.00  0.00    -0.084 A  
HETATM    9  C   UNL     1      -8.582   2.099  70.083  1.00  0.00    -0.098 A  
HETATM   10  C   UNL     1      -9.165   1.796  68.866  1.00  0.00    -0.202 A  
HETATM   11  C   UNL     1      -9.528   2.822  67.971  1.00  0.00    -0.212 A  
HETATM   12  C   UNL     1      -9.338   4.197  68.245  1.00  0.00    -0.158 A  
HETATM   13  N   UNL     1      -9.719   5.232  67.324  1.00  0.00    -0.140 NA 
HETATM   14  C   UNL     1     -10.531   4.843  66.150  1.00  0.00    -0.302 C  
HETATM   15  C   UNL     1      -9.335   6.624  67.283  1.00  0.00    -0.132 A  
HETATM   16  C   UNL     1     -10.011   7.559  66.462  1.00  0.00    -0.209 A  
HETATM   17  C   UNL     1      -9.615   8.903  66.347  1.00  0.00    -0.304 A  
HETATM   18  C   UNL     1      -8.509   9.371  67.040  1.00  0.00    -0.127 A  
HETATM   19  C   UNL     1      -7.834   8.503  67.884  1.00  0.00    -0.103 A  
HETATM   20  C   UNL     1      -8.273   7.174  68.028  1.00  0.00    -0.120 A  
HETATM   21  C   UNL     1      -7.611   6.410  69.088  1.00  0.00    -0.100 C  
HETATM   22  O   UNL     1      -6.386   6.375  69.162  1.00  0.00    -0.032 OA 
ENDBRANCH   5   6
ENDBRANCH   4   5
ENDBRANCH   2   4
TORSDOF 3
ENDMDL
MODEL      156
REMARK 921   NORMALIZED FREE ENERGY PREDICTED BY IDOCK:   -3.15 KCAL/MOL
REMARK 922        TOTAL FREE ENERGY PREDICTED BY IDOCK:   -3.84 KCAL/MOL
REMARK 923 INTER-LIGAND FREE ENERGY PREDICTED BY IDOCK:   -3.44 KCAL/MOL
REMARK 924 INTRA-LIGAND FREE ENERGY PREDICTED BY IDOCK:   -0.40 KCAL/MOL
REMARK 927      BINDING AFFINITY PREDICTED BY RF-SCORE:    0.00 PKD
ROOT
HETATM    1  C   UNL     1      -8.499   8.075  72.067  1.00  0.00    -0.144 C  
HETATM    2  N   UNL     1      -7.325   7.483  71.412  1.00  0.00    -0.077 NA 
HETATM    3  C   UNL     1      -7.367   6.028  71.563  1.00  0.00    -0.088 C  
ENDROOT
BRANCH   2   4
HETATM    4  C   UNL     1      -7.303   7.907  69.996  1.00  0.00    -0.070 C  
BRANCH   4   5
HETATM    5  C   UNL     1      -7.752   9.356  69.712  1.00  0.00    -0.110 C  
BRANCH   5   6
HETATM    6  N   UNL     1      -8.905   9.435  68.781  1.00  0.00    -0.131 N  
HETATM    7  C   UNL     1      -9.767  10.539  69.004  1.00  0.00    -0.210 A  
HETATM    8  C   UNL     1     -10.959  10.212  69.686  1.00  0.00    -0.305 A  
HETATM    9  C   UNL     1     -11.912  11.181  69.945  1.00  0.00    -0.439 A  
HETATM   10  C   UNL     1     -11.672  12.476  69.520  1.00  0.00    -0.375 A  
HETATM   11  C   UNL     1     -10.491  12.793  68.822  1.00  0.00    -0.179 A  
HETATM   12  C   UNL     1      -9.486  11.844  68.520  1.00  0.00    -0.148 A  
HETATM   13  N   UNL     1      -8.283  12.184  67.811  1.00  0.00    -0.143 NA 
HETATM   14  C   UNL     1      -8.000  13.619  67.587  1.00  0.00    -0.177 C  
HETATM   15  C   UNL     1      -7.321  11.331  67.156  1.00  0.00    -0.130 A  
HETATM   16  C   UNL     1      -6.059  11.817  66.733  1.00  0.00    -0.102 A  
HETATM   17  C   UNL     1      -5.132  11.029  66.029  1.00  0.00    -0.131 A  
HETATM   18  C   UNL     1      -5.434   9.717  65.698  1.00  0.00    -0.046 A  
HETATM   19  C   UNL     1      -6.642   9.183  66.118  1.00  0.00    -0.069 A  
HETATM   20  C   UNL     1      -7.538   9.968  66.867  1.00  0.00    -0.096 A  
HETATM   21  C   UNL     1      -8.685   9.247  67.423  1.00  0.00    -0.118 C  
HETATM   22  O   UNL     1      -9.377   8.527  66.708  1.00  0.00    -0.158 OA 
ENDBRANCH   5   6
ENDBRANCH   4   5
ENDBRANCH   2   4
TORSDOF 3
ENDMDL
MODEL      157
REMARK 921   NORMALIZED FREE ENERGY PREDICTED BY IDOCK:   -3.10 KCAL/MOL
REMARK 922        TOTAL FREE ENERGY PREDICTED BY IDOCK:   -3.78 KCAL/MOL
REMARK 923 INTER-LIGAND FREE ENERGY PREDICTED BY IDOCK:   -3.45 KCAL/MOL
REMARK 924 INTRA-LIGAND FREE ENERGY PREDICTED BY IDOCK:   -0.33 KCAL/MOL
REMARK 927      BINDING AFFINITY PREDICTED BY RF-SCORE:    0.00 PKD
ROOT
HETATM    1  C   UNL     1     -12.131   6.788  71.336  1.00  0.00    -0.366 C  
HETATM    2  N   UNL     1     -11.266   6.510  72.490  1.00  0.00    -0.257 NA 
HETATM    3  C   UNL     1     -11.518   5.151  72.969  1.00  0.00    -0.274 C  
ENDROOT
BRANCH   2   4
HETATM    4  C   UNL     1      -9.858   6.721  72.093  1.00  0.00    -0.148 C  
BRANCH   4   5
HETATM    5  C   UNL     1      -9.582   6.798  70.577  1.00  0.00    -0.169 C  
BRANCH   5   6
HETATM    6  N   UNL     1      -8.202   7.241  70.259  1.00  0.00    -0.131 N  
HETATM    7  C   UNL     1      -7.514   6.413  69.335  1.00  0.00    -0.094 A  
HETATM    8  C   UNL     1      -6.579   5.537  69.928  1.00  0.00    -0.046 A  
HETATM    9  C   UNL     1      -5.810   4.693  69.148  1.00  0.00    -0.017 A  
HETATM   10  C   UNL     1      -5.976   4.725  67.775  1.00  0.00    -0.023 A  
HETATM   11  C   UNL     1      -6.896   5.614  67.186  1.00  0.00    -0.064 A  
HETATM   12  C   UNL     1      -7.702   6.507  67.930  1.00  0.00    -0.104 A  
HETATM   13  N   UNL     1      -8.640   7.405  67.315  1.00  0.00    -0.117 NA 
HETATM   14  C   UNL     1      -8.917   7.226  65.873  1.00  0.00    -0.068 C  
HETATM   15  C   UNL     1      -9.300   8.570  67.856  1.00  0.00    -0.135 A  
HETATM   16  C   UNL     1     -10.391   9.183  67.193  1.00  0.00    -0.337 A  
HETATM   17  C   UNL     1     -11.007  10.358  67.658  1.00  0.00    -0.374 A  
HETATM   18  C   UNL     1     -10.545  10.986  68.805  1.00  0.00    -0.232 A  
HETATM   19  C   UNL     1      -9.501  10.407  69.509  1.00  0.00    -0.164 A  
HETATM   20  C   UNL     1      -8.928   9.203  69.060  1.00  0.00    -0.143 A  
HETATM   21  C   UNL     1      -7.975   8.583  69.982  1.00  0.00    -0.109 C  
HETATM   22  O   UNL     1      -7.056   9.239  70.464  1.00  0.00    -0.074 OA 
ENDBRANCH   5   6
ENDBRANCH   4   5
ENDBRANCH   2   4
TORSDOF 3
ENDMDL
MODEL      158
REMARK 921   NORMALIZED FREE ENERGY PREDICTED BY IDOCK:   -3.09 KCAL/MOL
REMARK 922        TOTAL FREE ENERGY PREDICTED BY IDOCK:   -3.76 KCAL/MOL
REMARK 923 INTER-LIGAND FREE ENERGY PREDICTED BY IDOCK:   -3.39 KCAL/MOL
REMARK 924 INTRA-LIGAND FREE ENERGY PREDICTED BY IDOCK:   -0.37 KCAL/MOL
REMARK 927      BINDING AFFINITY PREDICTED BY RF-SCORE:    0.00 PKD
ROOT
HETATM    1  C   UNL     1     -12.443  12.460  64.408  1.00  0.00    -0.433 C  
HETATM    2  N   UNL     1     -11.761  13.002  65.590  1.00  0.00    -0.354 NA 
HETATM    3  C   UNL     1     -12.367  14.282  65.955  1.00  0.00    -0.395 C  
ENDROOT
BRANCH   2   4
HETATM    4  C   UNL     1     -11.832  12.007  66.681  1.00  0.00    -0.159 C  
BRANCH   4   5
HETATM    5  C   UNL     1     -10.484  11.554  67.279  1.00  0.00    -0.212 C  
BRANCH   5   6
HETATM    6  N   UNL     1      -9.320  11.926  66.436  1.00  0.00    -0.222 N  
HETATM    7  C   UNL     1      -8.499  12.945  66.982  1.00  0.00    -0.142 A  
HETATM    8  C   UNL     1      -8.705  14.220  66.413  1.00  0.00     0.116 A  
HETATM    9  C   UNL     1      -7.951  15.305  66.823  1.00  0.00    -0.104 A  
HETATM   10  C   UNL     1      -6.992  15.115  67.801  1.00  0.00    -0.190 A  
HETATM   11  C   UNL     1      -6.775  13.836  68.351  1.00  0.00    -0.100 A  
HETATM   12  C   UNL     1      -7.506  12.688  67.966  1.00  0.00    -0.120 A  
HETATM   13  N   UNL     1      -7.278  11.391  68.541  1.00  0.00    -0.086 NA 
HETATM   14  C   UNL     1      -6.397  11.312  69.727  1.00  0.00    -0.137 C  
HETATM   15  C   UNL     1      -7.685  10.086  68.076  1.00  0.00    -0.089 A  
HETATM   16  C   UNL     1      -7.599   8.940  68.904  1.00  0.00    -0.087 A  
HETATM   17  C   UNL     1      -7.919   7.647  68.456  1.00  0.00    -0.123 A  
HETATM   18  C   UNL     1      -8.326   7.438  67.147  1.00  0.00    -0.118 A  
HETATM   19  C   UNL     1      -8.459   8.532  66.307  1.00  0.00    -0.130 A  
HETATM   20  C   UNL     1      -8.184   9.827  66.784  1.00  0.00    -0.120 A  
HETATM   21  C   UNL     1      -8.547  10.916  65.876  1.00  0.00    -0.176 C  
HETATM   22  O   UNL     1      -8.183  10.900  64.703  1.00  0.00    -0.007 OA 
ENDBRANCH   5   6
ENDBRANCH   4   5
ENDBRANCH   2   4
TORSDOF 3
ENDMDL
MODEL      159
REMARK 921   NORMALIZED FREE ENERGY PREDICTED BY IDOCK:   -3.02 KCAL/MOL
REMARK 922        TOTAL FREE ENERGY PREDICTED BY IDOCK:   -3.69 KCAL/MOL
REMARK 923 INTER-LIGAND FREE ENERGY PREDICTED BY IDOCK:   -3.59 KCAL/MOL
REMARK 924 INTRA-LIGAND FREE ENERGY PREDICTED BY IDOCK:   -0.09 KCAL/MOL
REMARK 927      BINDING AFFINITY PREDICTED BY RF-SCORE:    0.00 PKD
ROOT
HETATM    1  C   UNL     1     -11.717   6.853  70.566  1.00  0.00    -0.350 C  
HETATM    2  N   UNL     1     -11.068   8.124  70.912  1.00  0.00    -0.254 NA 
HETATM    3  C   UNL     1     -10.777   8.145  72.346  1.00  0.00    -0.334 C  
ENDROOT
BRANCH   2   4
HETATM    4  C   UNL     1      -9.854   8.282  70.084  1.00  0.00    -0.184 C  
BRANCH   4   5
HETATM    5  C   UNL     1      -9.597   9.693  69.514  1.00  0.00    -0.198 C  
BRANCH   5   6
HETATM    6  N   UNL     1      -8.157   9.983  69.307  1.00  0.00    -0.127 N  
HETATM    7  C   UNL     1      -7.462   9.008  68.547  1.00  0.00    -0.085 A  
HETATM    8  C   UNL     1      -6.678   8.125  69.320  1.00  0.00    -0.040 A  
HETATM    9  C   UNL     1      -5.918   7.141  68.712  1.00  0.00    -0.023 A  
HETATM   10  C   UNL     1      -5.942   7.043  67.333  1.00  0.00    -0.028 A  
HETATM   11  C   UNL     1      -6.710   7.940  66.564  1.00  0.00    -0.058 A  
HETATM   12  C   UNL     1      -7.498   8.970  67.127  1.00  0.00    -0.087 A  
HETATM   13  N   UNL     1      -8.281   9.874  66.331  1.00  0.00    -0.117 NA 
HETATM   14  C   UNL     1      -8.429   9.568  64.891  1.00  0.00    -0.158 C  
HETATM   15  C   UNL     1      -8.880  11.140  66.683  1.00  0.00    -0.166 A  
HETATM   16  C   UNL     1      -9.836  11.770  65.850  1.00  0.00    -0.265 A  
HETATM   17  C   UNL     1     -10.382  13.034  66.130  1.00  0.00    -0.285 A  
HETATM   18  C   UNL     1      -9.979  13.738  67.255  1.00  0.00    -0.239 A  
HETATM   19  C   UNL     1      -9.071  13.151  68.121  1.00  0.00    -0.200 A  
HETATM   20  C   UNL     1      -8.572  11.862  67.853  1.00  0.00    -0.162 A  
HETATM   21  C   UNL     1      -7.778  11.266  68.929  1.00  0.00    -0.125 C  
HETATM   22  O   UNL     1      -6.854  11.889  69.444  1.00  0.00    -0.106 OA 
ENDBRANCH   5   6
ENDBRANCH   4   5
ENDBRANCH   2   4
TORSDOF 3
ENDMDL
MODEL      160
REMARK 921   NORMALIZED FREE ENERGY PREDICTED BY IDOCK:   -3.01 KCAL/MOL
REMARK 922        TOTAL FREE ENERGY PREDICTED BY IDOCK:   -3.68 KCAL/MOL
REMARK 923 INTER-LIGAND FREE ENERGY PREDICTED BY IDOCK:   -3.40 KCAL/MOL
REMARK 924 INTRA-LIGAND FREE ENERGY PREDICTED BY IDOCK:   -0.28 KCAL/MOL
REMARK 927      BINDING AFFINITY PREDICTED BY RF-SCORE:    0.00 PKD
ROOT
HETATM    1  C   UNL     1     -11.236   6.601  67.396  1.00  0.00    -0.213 C  
HETATM    2  N   UNL     1     -10.239   5.692  67.977  1.00  0.00    -0.173 NA 
HETATM    3  C   UNL     1      -8.897   6.151  67.620  1.00  0.00    -0.103 C  
ENDROOT
BRANCH   2   4
HETATM    4  C   UNL     1     -10.447   5.627  69.439  1.00  0.00    -0.297 C  
BRANCH   4   5
HETATM    5  C   UNL     1      -9.217   5.943  70.316  1.00  0.00    -0.154 C  
BRANCH   5   6
HETATM    6  N   UNL     1      -9.569   6.618  71.590  1.00  0.00    -0.163 N  
HETATM    7  C   UNL     1      -8.482   6.799  72.482  1.00  0.00    -0.118 A  
HETATM    8  C   UNL     1      -8.445   5.871  73.544  1.00  0.00    -0.120 A  
HETATM    9  C   UNL     1      -7.459   5.945  74.512  1.00  0.00    -0.094 A  
HETATM   10  C   UNL     1      -6.511   6.948  74.417  1.00  0.00    -0.083 A  
HETATM   11  C   UNL     1      -6.564   7.885  73.366  1.00  0.00    -0.100 A  
HETATM   12  C   UNL     1      -7.552   7.866  72.354  1.00  0.00    -0.101 A  
HETATM   13  N   UNL     1      -7.589   8.826  71.286  1.00  0.00    -0.107 NA 
HETATM   14  C   UNL     1      -6.425   9.724  71.128  1.00  0.00     0.045 C  
HETATM   15  C   UNL     1      -8.657   9.154  70.371  1.00  0.00    -0.209 A  
HETATM   16  C   UNL     1      -8.433   9.939  69.214  1.00  0.00    -0.158 A  
HETATM   17  C   UNL     1      -9.464  10.334  68.345  1.00  0.00    -0.149 A  
HETATM   18  C   UNL     1     -10.777   9.974  68.605  1.00  0.00    -0.256 A  
HETATM   19  C   UNL     1     -11.046   9.177  69.706  1.00  0.00    -0.140 A  
HETATM   20  C   UNL     1      -9.996   8.746  70.539  1.00  0.00    -0.227 A  
HETATM   21  C   UNL     1     -10.369   7.754  71.549  1.00  0.00    -0.193 C  
HETATM   22  O   UNL     1     -11.332   7.943  72.286  1.00  0.00    -0.287 OA 
ENDBRANCH   5   6
ENDBRANCH   4   5
ENDBRANCH   2   4
TORSDOF 3
ENDMDL
MODEL      161
REMARK 921   NORMALIZED FREE ENERGY PREDICTED BY IDOCK:   -3.00 KCAL/MOL
REMARK 922        TOTAL FREE ENERGY PREDICTED BY IDOCK:   -3.66 KCAL/MOL
REMARK 923 INTER-LIGAND FREE ENERGY PREDICTED BY IDOCK:   -3.66 KCAL/MOL
REMARK 924 INTRA-LIGAND FREE ENERGY PREDICTED BY IDOCK:    0.00 KCAL/MOL
REMARK 927      BINDING AFFINITY PREDICTED BY RF-SCORE:    0.00 PKD
ROOT
HETATM    1  C   UNL     1     -12.709  10.936  70.413  1.00  0.00    -0.248 C  
HETATM    2  N   UNL     1     -12.067  10.990  69.093  1.00  0.00    -0.434 NA 
HETATM    3  C   UNL     1     -11.700  12.373  68.790  1.00  0.00    -0.332 C  
ENDROOT
BRANCH   2   4
HETATM    4  C   UNL     1     -10.904  10.079  69.090  1.00  0.00    -0.222 C  
BRANCH   4   5
HETATM    5  C   UNL     1     -10.673   9.274  67.794  1.00  0.00    -0.207 C  
BRANCH   5   6
HETATM    6  N   UNL     1      -9.262   9.299  67.337  1.00  0.00    -0.126 N  
HETATM    7  C   UNL     1      -8.360   9.914  68.242  1.00  0.00    -0.110 A  
HETATM    8  C   UNL     1      -7.992  11.230  67.888  1.00  0.00    -0.118 A  
HETATM    9  C   UNL     1      -7.093  11.943  68.660  1.00  0.00    -0.102 A  
HETATM   10  C   UNL     1      -6.561  11.339  69.786  1.00  0.00    -0.130 A  
HETATM   11  C   UNL     1      -6.915  10.018  70.124  1.00  0.00    -0.148 A  
HETATM   12  C   UNL     1      -7.820   9.237  69.369  1.00  0.00    -0.083 A  
HETATM   13  N   UNL     1      -8.176   7.892  69.730  1.00  0.00    -0.120 NA 
HETATM   14  C   UNL     1      -7.741   7.399  71.055  1.00  0.00    -0.091 C  
HETATM   15  C   UNL     1      -8.813   6.859  68.947  1.00  0.00    -0.129 A  
HETATM   16  C   UNL     1      -9.324   5.681  69.543  1.00  0.00    -0.165 A  
HETATM   17  C   UNL     1      -9.883   4.627  68.799  1.00  0.00    -0.201 A  
HETATM   18  C   UNL     1      -9.941   4.699  67.416  1.00  0.00    -0.190 A  
HETATM   19  C   UNL     1      -9.486   5.846  66.786  1.00  0.00    -0.154 A  
HETATM   20  C   UNL     1      -8.975   6.914  67.548  1.00  0.00    -0.116 A  
HETATM   21  C   UNL     1      -8.710   8.143  66.798  1.00  0.00    -0.135 C  
HETATM   22  O   UNL     1      -8.048   8.115  65.765  1.00  0.00    -0.102 OA 
ENDBRANCH   5   6
ENDBRANCH   4   5
ENDBRANCH   2   4
TORSDOF 3
ENDMDL
MODEL      162
REMARK 921   NORMALIZED FREE ENERGY PREDICTED BY IDOCK:   -2.98 KCAL/MOL
REMARK 922        TOTAL FREE ENERGY PREDICTED BY IDOCK:   -3.64 KCAL/MOL
REMARK 923 INTER-LIGAND FREE ENERGY PREDICTED BY IDOCK:   -3.30 KCAL/MOL
REMARK 924 INTRA-LIGAND FREE ENERGY PREDICTED BY IDOCK:   -0.34 KCAL/MOL
REMARK 927      BINDING AFFINITY PREDICTED BY RF-SCORE:    0.00 PKD
ROOT
HETATM    1  C   UNL     1      -6.012   7.704  70.011  1.00  0.00    -0.023 C  
HETATM    2  N   UNL     1      -6.590   8.844  69.288  1.00  0.00    -0.049 NA 
HETATM    3  C   UNL     1      -5.516   9.626  68.677  1.00  0.00    -0.036 C  
ENDROOT
BRANCH   2   4
HETATM    4  C   UNL     1      -7.561   8.338  68.295  1.00  0.00    -0.101 C  
BRANCH   4   5
HETATM    5  C   UNL     1      -7.625   6.806  68.125  1.00  0.00    -0.107 C  
BRANCH   5   6
HETATM    6  N   UNL     1      -8.709   6.368  67.211  1.00  0.00    -0.107 N  
HETATM    7  C   UNL     1      -8.373   5.265  66.384  1.00  0.00    -0.109 A  
HETATM    8  C   UNL     1      -8.054   5.617  65.055  1.00  0.00    -0.122 A  
HETATM    9  C   UNL     1      -7.738   4.643  64.124  1.00  0.00    -0.078 A  
HETATM   10  C   UNL     1      -7.743   3.318  64.524  1.00  0.00    -0.077 A  
HETATM   11  C   UNL     1      -8.083   2.971  65.846  1.00  0.00    -0.086 A  
HETATM   12  C   UNL     1      -8.424   3.920  66.838  1.00  0.00    -0.104 A  
HETATM   13  N   UNL     1      -8.762   3.550  68.184  1.00  0.00    -0.099 NA 
HETATM   14  C   UNL     1      -8.532   2.146  68.589  1.00  0.00    -0.060 C  
HETATM   15  C   UNL     1      -9.419   4.314  69.218  1.00  0.00    -0.184 A  
HETATM   16  C   UNL     1      -9.438   3.882  70.567  1.00  0.00    -0.251 A  
HETATM   17  C   UNL     1     -10.130   4.567  71.581  1.00  0.00    -0.249 A  
HETATM   18  C   UNL     1     -10.853   5.712  71.286  1.00  0.00    -0.289 A  
HETATM   19  C   UNL     1     -10.840   6.196  69.987  1.00  0.00    -0.408 A  
HETATM   20  C   UNL     1     -10.100   5.528  68.993  1.00  0.00    -0.275 A  
HETATM   21  C   UNL     1      -9.997   6.233  67.714  1.00  0.00    -0.127 C  
HETATM   22  O   UNL     1     -11.001   6.668  67.157  1.00  0.00    -0.363 OA 
ENDBRANCH   5   6
ENDBRANCH   4   5
ENDBRANCH   2   4
TORSDOF 3
ENDMDL
MODEL      163
REMARK 921   NORMALIZED FREE ENERGY PREDICTED BY IDOCK:   -2.96 KCAL/MOL
REMARK 922        TOTAL FREE ENERGY PREDICTED BY IDOCK:   -3.62 KCAL/MOL
REMARK 923 INTER-LIGAND FREE ENERGY PREDICTED BY IDOCK:   -3.34 KCAL/MOL
REMARK 924 INTRA-LIGAND FREE ENERGY PREDICTED BY IDOCK:   -0.28 KCAL/MOL
REMARK 927      BINDING AFFINITY PREDICTED BY RF-SCORE:    0.00 PKD
ROOT
HETATM    1  C   UNL     1      -6.883   9.853  67.270  1.00  0.00    -0.083 C  
HETATM    2  N   UNL     1      -6.693   9.953  68.723  1.00  0.00    -0.050 NA 
HETATM    3  C   UNL     1      -5.517  10.777  69.002  1.00  0.00    -0.040 C  
ENDROOT
BRANCH   2   4
HETATM    4  C   UNL     1      -7.926  10.498  69.330  1.00  0.00    -0.154 C  
BRANCH   4   5
HETATM    5  C   UNL     1      -8.823   9.487  70.073  1.00  0.00    -0.223 C  
BRANCH   5   6
HETATM    6  N   UNL     1      -8.078   8.305  70.571  1.00  0.00    -0.101 N  
HETATM    7  C   UNL     1      -8.488   7.845  71.849  1.00  0.00    -0.122 A  
HETATM    8  C   UNL     1      -7.630   8.226  72.903  1.00  0.00    -0.161 A  
HETATM    9  C   UNL     1      -7.886   7.821  74.201  1.00  0.00    -0.233 A  
HETATM   10  C   UNL     1      -8.998   7.035  74.444  1.00  0.00    -0.242 A  
HETATM   11  C   UNL     1      -9.839   6.640  73.386  1.00  0.00    -0.215 A  
HETATM   12  C   UNL     1      -9.624   7.013  72.038  1.00  0.00    -0.138 A  
HETATM   13  N   UNL     1     -10.495   6.607  70.970  1.00  0.00    -0.211 NA 
HETATM   14  C   UNL     1     -11.774   5.958  71.336  1.00  0.00     0.060 C  
HETATM   15  C   UNL     1     -10.280   6.620  69.542  1.00  0.00    -0.183 A  
HETATM   16  C   UNL     1     -11.344   6.429  68.627  1.00  0.00    -0.214 A  
HETATM   17  C   UNL     1     -11.154   6.366  67.235  1.00  0.00    -0.416 A  
HETATM   18  C   UNL     1      -9.882   6.473  66.695  1.00  0.00    -0.203 A  
HETATM   19  C   UNL     1      -8.811   6.696  67.547  1.00  0.00    -0.116 A  
HETATM   20  C   UNL     1      -9.023   6.808  68.933  1.00  0.00    -0.131 A  
HETATM   21  C   UNL     1      -7.858   7.237  69.709  1.00  0.00    -0.117 C  
HETATM   22  O   UNL     1      -6.775   6.674  69.575  1.00  0.00    -0.046 OA 
ENDBRANCH   5   6
ENDBRANCH   4   5
ENDBRANCH   2   4
TORSDOF 3
ENDMDL
MODEL      164
REMARK 921   NORMALIZED FREE ENERGY PREDICTED BY IDOCK:   -2.93 KCAL/MOL
REMARK 922        TOTAL FREE ENERGY PREDICTED BY IDOCK:   -3.58 KCAL/MOL
REMARK 923 INTER-LIGAND FREE ENERGY PREDICTED BY IDOCK:   -3.25 KCAL/MOL
REMARK 924 INTRA-LIGAND FREE ENERGY PREDICTED BY IDOCK:   -0.34 KCAL/MOL
REMARK 927      BINDING AFFINITY PREDICTED BY RF-SCORE:    0.00 PKD
ROOT
HETATM    1  C   UNL     1      -5.648   9.481  71.406  1.00  0.00    -0.073 C  
HETATM    2  N   UNL     1      -6.593  10.587  71.206  1.00  0.00     0.049 NA 
HETATM    3  C   UNL     1      -5.909  11.694  70.537  1.00  0.00    -0.128 C  
ENDROOT
BRANCH   2   4
HETATM    4  C   UNL     1      -7.756  10.091  70.440  1.00  0.00     0.033 C  
BRANCH   4   5
HETATM    5  C   UNL     1      -7.720   8.602  70.038  1.00  0.00    -0.080 C  
BRANCH   5   6
HETATM    6  N   UNL     1      -8.440   8.325  68.770  1.00  0.00    -0.125 N  
HETATM    7  C   UNL     1      -8.053   7.124  68.123  1.00  0.00    -0.124 A  
HETATM    8  C   UNL     1      -7.184   7.312  67.026  1.00  0.00    -0.092 A  
HETATM    9  C   UNL     1      -6.750   6.233  66.278  1.00  0.00    -0.056 A  
HETATM   10  C   UNL     1      -7.185   4.967  66.626  1.00  0.00    -0.080 A  
HETATM   11  C   UNL     1      -8.068   4.786  67.708  1.00  0.00    -0.093 A  
HETATM   12  C   UNL     1      -8.554   5.850  68.503  1.00  0.00    -0.110 A  
HETATM   13  N   UNL     1      -9.450   5.649  69.608  1.00  0.00    -0.136 NA 
HETATM   14  C   UNL     1      -9.692   4.259  70.052  1.00  0.00    -0.217 C  
HETATM   15  C   UNL     1     -10.276   6.598  70.316  1.00  0.00    -0.188 A  
HETATM   16  C   UNL     1     -10.897   6.273  71.547  1.00  0.00    -0.303 A  
HETATM   17  C   UNL     1     -11.764   7.150  72.222  1.00  0.00    -0.296 A  
HETATM   18  C   UNL     1     -12.062   8.393  71.686  1.00  0.00    -0.359 A  
HETATM   19  C   UNL     1     -11.453   8.773  70.501  1.00  0.00    -0.222 A  
HETATM   20  C   UNL     1     -10.548   7.905  69.862  1.00  0.00    -0.242 A  
HETATM   21  C   UNL     1      -9.819   8.484  68.732  1.00  0.00    -0.173 C  
HETATM   22  O   UNL     1     -10.419   9.071  67.836  1.00  0.00    -0.231 OA 
ENDBRANCH   5   6
ENDBRANCH   4   5
ENDBRANCH   2   4
TORSDOF 3
ENDMDL
MODEL      165
REMARK 921   NORMALIZED FREE ENERGY PREDICTED BY IDOCK:   -2.91 KCAL/MOL
REMARK 922        TOTAL FREE ENERGY PREDICTED BY IDOCK:   -3.56 KCAL/MOL
REMARK 923 INTER-LIGAND FREE ENERGY PREDICTED BY IDOCK:   -3.20 KCAL/MOL
REMARK 924 INTRA-LIGAND FREE ENERGY PREDICTED BY IDOCK:   -0.36 KCAL/MOL
REMARK 927      BINDING AFFINITY PREDICTED BY RF-SCORE:    0.00 PKD
ROOT
HETATM    1  C   UNL     1      -5.726   8.755  65.394  1.00  0.00    -0.047 C  
HETATM    2  N   UNL     1      -6.861   8.533  66.300  1.00  0.00    -0.072 NA 
HETATM    3  C   UNL     1      -7.865   7.709  65.627  1.00  0.00    -0.109 C  
ENDROOT
BRANCH   2   4
HETATM    4  C   UNL     1      -6.363   7.915  67.547  1.00  0.00    -0.055 C  
BRANCH   4   5
HETATM    5  C   UNL     1      -7.394   7.748  68.683  1.00  0.00    -0.087 C  
BRANCH   5   6
HETATM    6  N   UNL     1      -7.496   8.943  69.557  1.00  0.00    -0.074 N  
HETATM    7  C   UNL     1      -8.577   9.807  69.250  1.00  0.00    -0.158 A  
HETATM    8  C   UNL     1      -8.206  10.963  68.529  1.00  0.00    -0.140 A  
HETATM    9  C   UNL     1      -9.151  11.915  68.188  1.00  0.00    -0.190 A  
HETATM   10  C   UNL     1     -10.465  11.711  68.568  1.00  0.00    -0.236 A  
HETATM   11  C   UNL     1     -10.827  10.566  69.305  1.00  0.00    -0.284 A  
HETATM   12  C   UNL     1      -9.906   9.564  69.691  1.00  0.00    -0.205 A  
HETATM   13  N   UNL     1     -10.292   8.399  70.438  1.00  0.00    -0.201 NA 
HETATM   14  C   UNL     1     -11.738   8.144  70.614  1.00  0.00    -0.143 C  
HETATM   15  C   UNL     1      -9.479   7.457  71.171  1.00  0.00    -0.155 A  
HETATM   16  C   UNL     1     -10.000   6.222  71.629  1.00  0.00    -0.202 A  
HETATM   17  C   UNL     1      -9.255   5.318  72.406  1.00  0.00    -0.154 A  
HETATM   18  C   UNL     1      -7.954   5.619  72.778  1.00  0.00    -0.102 A  
HETATM   19  C   UNL     1      -7.386   6.800  72.327  1.00  0.00    -0.088 A  
HETATM   20  C   UNL     1      -8.127   7.671  71.507  1.00  0.00    -0.102 A  
HETATM   21  C   UNL     1      -7.367   8.782  70.931  1.00  0.00    -0.087 C  
HETATM   22  O   UNL     1      -6.668   9.497  71.644  1.00  0.00    -0.310 OA 
ENDBRANCH   5   6
ENDBRANCH   4   5
ENDBRANCH   2   4
TORSDOF 3
ENDMDL
MODEL      166
REMARK 921   NORMALIZED FREE ENERGY PREDICTED BY IDOCK:   -2.90 KCAL/MOL
REMARK 922        TOTAL FREE ENERGY PREDICTED BY IDOCK:   -3.55 KCAL/MOL
REMARK 923 INTER-LIGAND FREE ENERGY PREDICTED BY IDOCK:   -3.30 KCAL/MOL
REMARK 924 INTRA-LIGAND FREE ENERGY PREDICTED BY IDOCK:   -0.24 KCAL/MOL
REMARK 927      BINDING AFFINITY PREDICTED BY RF-SCORE:    0.00 PKD
ROOT
HETATM    1  C   UNL     1      -5.729   8.218  72.618  1.00  0.00    -0.051 C  
HETATM    2  N   UNL     1      -6.583   9.267  72.045  1.00  0.00    -0.297 NA 
HETATM    3  C   UNL     1      -5.841   9.982  71.006  1.00  0.00    -0.073 C  
ENDROOT
BRANCH   2   4
HETATM    4  C   UNL     1      -7.823   8.648  71.533  1.00  0.00    -0.125 C  
BRANCH   4   5
HETATM    5  C   UNL     1      -7.999   8.643  69.999  1.00  0.00    -0.106 C  
BRANCH   5   6
HETATM    6  N   UNL     1      -7.428   7.436  69.352  1.00  0.00    -0.089 N  
HETATM    7  C   UNL     1      -8.202   6.259  69.515  1.00  0.00    -0.117 A  
HETATM    8  C   UNL     1      -7.709   5.374  70.497  1.00  0.00    -0.084 A  
HETATM    9  C   UNL     1      -8.342   4.169  70.743  1.00  0.00    -0.086 A  
HETATM   10  C   UNL     1      -9.467   3.849  70.005  1.00  0.00    -0.263 A  
HETATM   11  C   UNL     1      -9.944   4.725  69.011  1.00  0.00    -0.213 A  
HETATM   12  C   UNL     1      -9.335   5.965  68.708  1.00  0.00    -0.122 A  
HETATM   13  N   UNL     1      -9.836   6.852  67.694  1.00  0.00    -0.130 NA 
HETATM   14  C   UNL     1     -11.159   6.545  67.107  1.00  0.00    -0.360 C  
HETATM   15  C   UNL     1      -9.198   7.972  67.044  1.00  0.00    -0.147 A  
HETATM   16  C   UNL     1      -9.932   8.894  66.258  1.00  0.00    -0.337 A  
HETATM   17  C   UNL     1      -9.328   9.951  65.555  1.00  0.00    -0.280 A  
HETATM   18  C   UNL     1      -7.953  10.123  65.593  1.00  0.00    -0.147 A  
HETATM   19  C   UNL     1      -7.193   9.268  66.375  1.00  0.00    -0.088 A  
HETATM   20  C   UNL     1      -7.817   8.246  67.114  1.00  0.00    -0.097 A  
HETATM   21  C   UNL     1      -6.947   7.535  68.053  1.00  0.00    -0.072 C  
HETATM   22  O   UNL     1      -5.869   7.079  67.683  1.00  0.00    -0.019 OA 
ENDBRANCH   5   6
ENDBRANCH   4   5
ENDBRANCH   2   4
TORSDOF 3
ENDMDL
MODEL      167
REMARK 921   NORMALIZED FREE ENERGY PREDICTED BY IDOCK:   -2.89 KCAL/MOL
REMARK 922        TOTAL FREE ENERGY PREDICTED BY IDOCK:   -3.53 KCAL/MOL
REMARK 923 INTER-LIGAND FREE ENERGY PREDICTED BY IDOCK:   -3.49 KCAL/MOL
REMARK 924 INTRA-LIGAND FREE ENERGY PREDICTED BY IDOCK:   -0.04 KCAL/MOL
REMARK 927      BINDING AFFINITY PREDICTED BY RF-SCORE:    0.00 PKD
ROOT
HETATM    1  C   UNL     1      -5.294   7.154  68.585  1.00  0.00    -0.018 C  
HETATM    2  N   UNL     1      -5.915   8.286  67.885  1.00  0.00    -0.045 NA 
HETATM    3  C   UNL     1      -5.909   8.028  66.445  1.00  0.00    -0.041 C  
ENDROOT
BRANCH   2   4
HETATM    4  C   UNL     1      -7.278   8.489  68.420  1.00  0.00    -0.085 C  
BRANCH   4   5
HETATM    5  C   UNL     1      -8.109   9.609  67.758  1.00  0.00    -0.113 C  
BRANCH   5   6
HETATM    6  N   UNL     1      -9.249   9.092  66.961  1.00  0.00    -0.132 N  
HETATM    7  C   UNL     1      -9.660   7.778  67.303  1.00  0.00    -0.161 A  
HETATM    8  C   UNL     1      -9.211   6.782  66.409  1.00  0.00    -0.185 A  
HETATM    9  C   UNL     1      -9.561   5.457  66.596  1.00  0.00    -0.161 A  
HETATM   10  C   UNL     1     -10.362   5.129  67.676  1.00  0.00    -0.173 A  
HETATM   11  C   UNL     1     -10.825   6.129  68.553  1.00  0.00    -0.389 A  
HETATM   12  C   UNL     1     -10.508   7.501  68.408  1.00  0.00    -0.175 A  
HETATM   13  N   UNL     1     -10.984   8.508  69.315  1.00  0.00    -0.044 NA 
HETATM   14  C   UNL     1     -11.645   8.057  70.558  1.00  0.00    -0.134 C  
HETATM   15  C   UNL     1     -11.030   9.944  69.163  1.00  0.00    -0.200 A  
HETATM   16  C   UNL     1     -11.288  10.801  70.261  1.00  0.00    -0.374 A  
HETATM   17  C   UNL     1     -11.411  12.195  70.132  1.00  0.00    -0.066 A  
HETATM   18  C   UNL     1     -11.298  12.797  68.888  1.00  0.00    -0.344 A  
HETATM   19  C   UNL     1     -11.012  12.006  67.787  1.00  0.00    -0.279 A  
HETATM   20  C   UNL     1     -10.841  10.618  67.940  1.00  0.00    -0.328 A  
HETATM   21  C   UNL     1     -10.349   9.915  66.753  1.00  0.00    -0.217 C  
HETATM   22  O   UNL     1     -10.892  10.073  65.663  1.00  0.00     0.173 OA 
ENDBRANCH   5   6
ENDBRANCH   4   5
ENDBRANCH   2   4
TORSDOF 3
ENDMDL
MODEL      168
REMARK 921   NORMALIZED FREE ENERGY PREDICTED BY IDOCK:   -2.81 KCAL/MOL
REMARK 922        TOTAL FREE ENERGY PREDICTED BY IDOCK:   -3.44 KCAL/MOL
REMARK 923 INTER-LIGAND FREE ENERGY PREDICTED BY IDOCK:   -3.13 KCAL/MOL
REMARK 924 INTRA-LIGAND FREE ENERGY PREDICTED BY IDOCK:   -0.32 KCAL/MOL
REMARK 927      BINDING AFFINITY PREDICTED BY RF-SCORE:    0.00 PKD
ROOT
HETATM    1  C   UNL     1      -6.762   5.412  73.820  1.00  0.00    -0.076 C  
HETATM    2  N   UNL     1      -6.997   6.852  73.983  1.00  0.00    -0.081 NA 
HETATM    3  C   UNL     1      -5.773   7.583  73.654  1.00  0.00    -0.049 C  
ENDROOT
BRANCH   2   4
HETATM    4  C   UNL     1      -8.141   7.250  73.136  1.00  0.00    -0.102 C  
BRANCH   4   5
HETATM    5  C   UNL     1      -8.094   6.782  71.666  1.00  0.00    -0.106 C  
BRANCH   5   6
HETATM    6  N   UNL     1      -9.346   7.072  70.924  1.00  0.00    -0.157 N  
HETATM    7  C   UNL     1      -9.209   8.031  69.888  1.00  0.00    -0.152 A  
HETATM    8  C   UNL     1      -9.681   9.318  70.225  1.00  0.00    -0.274 A  
HETATM    9  C   UNL     1      -9.642  10.347  69.303  1.00  0.00    -0.226 A  
HETATM   10  C   UNL     1      -9.132  10.090  68.043  1.00  0.00    -0.132 A  
HETATM   11  C   UNL     1      -8.681   8.799  67.704  1.00  0.00    -0.135 A  
HETATM   12  C   UNL     1      -8.704   7.705  68.601  1.00  0.00    -0.128 A  
HETATM   13  N   UNL     1      -8.235   6.395  68.242  1.00  0.00    -0.116 NA 
HETATM   14  C   UNL     1      -7.506   6.253  66.962  1.00  0.00    -0.084 C  
HETATM   15  C   UNL     1      -8.458   5.122  68.885  1.00  0.00    -0.090 A  
HETATM   16  C   UNL     1      -7.705   3.972  68.544  1.00  0.00    -0.065 A  
HETATM   17  C   UNL     1      -7.948   2.705  69.101  1.00  0.00    -0.059 A  
HETATM   18  C   UNL     1      -8.973   2.526  70.016  1.00  0.00    -0.161 A  
HETATM   19  C   UNL     1      -9.718   3.626  70.409  1.00  0.00    -0.201 A  
HETATM   20  C   UNL     1      -9.430   4.898  69.882  1.00  0.00    -0.229 A  
HETATM   21  C   UNL     1     -10.143   6.011  70.512  1.00  0.00    -0.191 C  
HETATM   22  O   UNL     1     -11.362   5.970  70.657  1.00  0.00    -0.311 OA 
ENDBRANCH   5   6
ENDBRANCH   4   5
ENDBRANCH   2   4
TORSDOF 3
ENDMDL
MODEL      169
REMARK 921   NORMALIZED FREE ENERGY PREDICTED BY IDOCK:   -2.79 KCAL/MOL
REMARK 922        TOTAL FREE ENERGY PREDICTED BY IDOCK:   -3.42 KCAL/MOL
REMARK 923 INTER-LIGAND FREE ENERGY PREDICTED BY IDOCK:   -3.16 KCAL/MOL
REMARK 924 INTRA-LIGAND FREE ENERGY PREDICTED BY IDOCK:   -0.25 KCAL/MOL
REMARK 927      BINDING AFFINITY PREDICTED BY RF-SCORE:    0.00 PKD
ROOT
HETATM    1  C   UNL     1     -11.031   5.542  72.026  1.00  0.00    -0.214 C  
HETATM    2  N   UNL     1      -9.929   4.784  72.633  1.00  0.00    -0.158 NA 
HETATM    3  C   UNL     1     -10.430   3.491  73.101  1.00  0.00    -0.172 C  
ENDROOT
BRANCH   2   4
HETATM    4  C   UNL     1      -8.841   4.647  71.643  1.00  0.00    -0.125 C  
BRANCH   4   5
HETATM    5  C   UNL     1      -9.033   5.401  70.310  1.00  0.00    -0.135 C  
BRANCH   5   6
HETATM    6  N   UNL     1      -7.947   5.142  69.334  1.00  0.00    -0.083 N  
HETATM    7  C   UNL     1      -8.135   3.986  68.535  1.00  0.00    -0.075 A  
HETATM    8  C   UNL     1      -7.375   2.869  68.945  1.00  0.00    -0.048 A  
HETATM    9  C   UNL     1      -7.431   1.680  68.241  1.00  0.00    -0.046 A  
HETATM   10  C   UNL     1      -8.247   1.608  67.126  1.00  0.00    -0.074 A  
HETATM   11  C   UNL     1      -8.987   2.731  66.707  1.00  0.00    -0.168 A  
HETATM   12  C   UNL     1      -8.964   3.975  67.380  1.00  0.00    -0.129 A  
HETATM   13  N   UNL     1      -9.730   5.110  66.945  1.00  0.00    -0.147 NA 
HETATM   14  C   UNL     1     -10.738   4.891  65.885  1.00  0.00    -0.179 C  
HETATM   15  C   UNL     1      -9.603   6.504  67.297  1.00  0.00    -0.126 A  
HETATM   16  C   UNL     1     -10.609   7.448  66.975  1.00  0.00    -0.414 A  
HETATM   17  C   UNL     1     -10.481   8.823  67.241  1.00  0.00    -0.353 A  
HETATM   18  C   UNL     1      -9.328   9.320  67.827  1.00  0.00    -0.145 A  
HETATM   19  C   UNL     1      -8.328   8.433  68.192  1.00  0.00    -0.128 A  
HETATM   20  C   UNL     1      -8.491   7.054  67.967  1.00  0.00    -0.125 A  
HETATM   21  C   UNL     1      -7.466   6.198  68.568  1.00  0.00    -0.087 C  
HETATM   22  O   UNL     1      -6.274   6.433  68.393  1.00  0.00    -0.032 OA 
ENDBRANCH   5   6
ENDBRANCH   4   5
ENDBRANCH   2   4
TORSDOF 3
ENDMDL
MODEL      170
REMARK 921   NORMALIZED FREE ENERGY PREDICTED BY IDOCK:   -2.78 KCAL/MOL
REMARK 922        TOTAL FREE ENERGY PREDICTED BY IDOCK:   -3.40 KCAL/MOL
REMARK 923 INTER-LIGAND FREE ENERGY PREDICTED BY IDOCK:   -3.16 KCAL/MOL
REMARK 924 INTRA-LIGAND FREE ENERGY PREDICTED BY IDOCK:   -0.24 KCAL/MOL
REMARK 927      BINDING AFFINITY PREDICTED BY RF-SCORE:    0.00 PKD
ROOT
HETATM    1  C   UNL     1     -11.690  14.056  66.261  1.00  0.00    -0.387 C  
HETATM    2  N   UNL     1     -10.310  13.553  66.249  1.00  0.00    -0.287 NA 
HETATM    3  C   UNL     1      -9.447  14.487  66.973  1.00  0.00    -0.239 C  
ENDROOT
BRANCH   2   4
HETATM    4  C   UNL     1     -10.291  12.195  66.832  1.00  0.00    -0.212 C  
BRANCH   4   5
HETATM    5  C   UNL     1      -9.267  11.210  66.231  1.00  0.00    -0.195 C  
BRANCH   5   6
HETATM    6  N   UNL     1      -8.541  10.426  67.261  1.00  0.00    -0.126 N  
HETATM    7  C   UNL     1      -9.225   9.269  67.712  1.00  0.00    -0.129 A  
HETATM    8  C   UNL     1      -9.855   9.421  68.966  1.00  0.00    -0.171 A  
HETATM    9  C   UNL     1     -10.533   8.365  69.547  1.00  0.00    -0.225 A  
HETATM   10  C   UNL     1     -10.579   7.157  68.876  1.00  0.00    -0.218 A  
HETATM   11  C   UNL     1      -9.931   7.003  67.635  1.00  0.00    -0.194 A  
HETATM   12  C   UNL     1      -9.215   8.042  66.995  1.00  0.00    -0.147 A  
HETATM   13  N   UNL     1      -8.564   7.871  65.726  1.00  0.00    -0.147 NA 
HETATM   14  C   UNL     1      -8.843   6.629  64.973  1.00  0.00     0.298 C  
HETATM   15  C   UNL     1      -7.558   8.683  65.084  1.00  0.00    -0.093 A  
HETATM   16  C   UNL     1      -7.219   8.509  63.720  1.00  0.00    -0.098 A  
HETATM   17  C   UNL     1      -6.195   9.235  63.087  1.00  0.00    -0.090 A  
HETATM   18  C   UNL     1      -5.447  10.159  63.799  1.00  0.00    -0.122 A  
HETATM   19  C   UNL     1      -5.761  10.391  65.129  1.00  0.00    -0.138 A  
HETATM   20  C   UNL     1      -6.823   9.695  65.735  1.00  0.00    -0.093 A  
HETATM   21  C   UNL     1      -7.190  10.160  67.074  1.00  0.00    -0.091 C  
HETATM   22  O   UNL     1      -6.335  10.301  67.943  1.00  0.00    -0.059 OA 
ENDBRANCH   5   6
ENDBRANCH   4   5
ENDBRANCH   2   4
TORSDOF 3
ENDMDL
MODEL      171
REMARK 921   NORMALIZED FREE ENERGY PREDICTED BY IDOCK:   -2.77 KCAL/MOL
REMARK 922        TOTAL FREE ENERGY PREDICTED BY IDOCK:   -3.39 KCAL/MOL
REMARK 923 INTER-LIGAND FREE ENERGY PREDICTED BY IDOCK:   -3.06 KCAL/MOL
REMARK 924 INTRA-LIGAND FREE ENERGY PREDICTED BY IDOCK:   -0.34 KCAL/MOL
REMARK 927      BINDING AFFINITY PREDICTED BY RF-SCORE:    0.00 PKD
ROOT
HETATM    1  C   UNL     1     -12.196  11.714  70.995  1.00  0.00    -0.231 C  
HETATM    2  N   UNL     1     -12.246  11.424  69.556  1.00  0.00    -0.274 NA 
HETATM    3  C   UNL     1     -12.102  12.671  68.805  1.00  0.00    -0.114 C  
ENDROOT
BRANCH   2   4
HETATM    4  C   UNL     1     -11.192  10.440  69.229  1.00  0.00    -0.248 C  
BRANCH   4   5
HETATM    5  C   UNL     1     -11.122   9.192  70.135  1.00  0.00    -0.222 C  
BRANCH   5   6
HETATM    6  N   UNL     1      -9.737   8.844  70.539  1.00  0.00    -0.189 N  
HETATM    7  C   UNL     1      -9.649   8.019  71.689  1.00  0.00    -0.167 A  
HETATM    8  C   UNL     1      -9.305   8.710  72.871  1.00  0.00    -0.036 A  
HETATM    9  C   UNL     1      -9.150   8.030  74.066  1.00  0.00    -0.033 A  
HETATM   10  C   UNL     1      -9.337   6.659  74.077  1.00  0.00    -0.216 A  
HETATM   11  C   UNL     1      -9.660   5.971  72.892  1.00  0.00    -0.158 A  
HETATM   12  C   UNL     1      -9.822   6.610  71.640  1.00  0.00    -0.166 A  
HETATM   13  N   UNL     1     -10.157   5.894  70.440  1.00  0.00    -0.191 NA 
HETATM   14  C   UNL     1     -10.555   4.476  70.574  1.00  0.00     0.437 C  
HETATM   15  C   UNL     1     -10.060   6.305  69.058  1.00  0.00    -0.172 A  
HETATM   16  C   UNL     1     -10.680   5.570  68.018  1.00  0.00    -0.165 A  
HETATM   17  C   UNL     1     -10.543   5.903  66.659  1.00  0.00    -0.330 A  
HETATM   18  C   UNL     1      -9.762   6.983  66.277  1.00  0.00    -0.053 A  
HETATM   19  C   UNL     1      -9.162   7.755  67.259  1.00  0.00    -0.162 A  
HETATM   20  C   UNL     1      -9.350   7.439  68.618  1.00  0.00    -0.139 A  
HETATM   21  C   UNL     1      -8.837   8.431  69.565  1.00  0.00    -0.145 C  
HETATM   22  O   UNL     1      -7.688   8.852  69.468  1.00  0.00    -0.083 OA 
ENDBRANCH   5   6
ENDBRANCH   4   5
ENDBRANCH   2   4
TORSDOF 3
ENDMDL
MODEL      172
REMARK 921   NORMALIZED FREE ENERGY PREDICTED BY IDOCK:   -2.77 KCAL/MOL
REMARK 922        TOTAL FREE ENERGY PREDICTED BY IDOCK:   -3.39 KCAL/MOL
REMARK 923 INTER-LIGAND FREE ENERGY PREDICTED BY IDOCK:   -3.00 KCAL/MOL
REMARK 924 INTRA-LIGAND FREE ENERGY PREDICTED BY IDOCK:   -0.38 KCAL/MOL
REMARK 927      BINDING AFFINITY PREDICTED BY RF-SCORE:    0.00 PKD
ROOT
HETATM    1  C   UNL     1     -10.027   9.345  66.084  1.00  0.00    -0.281 C  
HETATM    2  N   UNL     1      -9.550   9.442  67.470  1.00  0.00    -0.138 NA 
HETATM    3  C   UNL     1      -9.437  10.851  67.846  1.00  0.00    -0.159 C  
ENDROOT
BRANCH   2   4
HETATM    4  C   UNL     1     -10.475   8.692  68.347  1.00  0.00    -0.176 C  
BRANCH   4   5
HETATM    5  C   UNL     1      -9.961   7.337  68.877  1.00  0.00    -0.166 C  
BRANCH   5   6
HETATM    6  N   UNL     1      -8.618   7.428  69.501  1.00  0.00    -0.133 N  
HETATM    7  C   UNL     1      -8.600   7.184  70.899  1.00  0.00    -0.138 A  
HETATM    8  C   UNL     1      -8.515   8.351  71.688  1.00  0.00    -0.213 A  
HETATM    9  C   UNL     1      -8.455   8.266  73.067  1.00  0.00    -0.262 A  
HETATM   10  C   UNL     1      -8.479   7.015  73.656  1.00  0.00    -0.151 A  
HETATM   11  C   UNL     1      -8.542   5.852  72.864  1.00  0.00    -0.121 A  
HETATM   12  C   UNL     1      -8.596   5.875  71.450  1.00  0.00    -0.129 A  
HETATM   13  N   UNL     1      -8.667   4.680  70.656  1.00  0.00    -0.098 NA 
HETATM   14  C   UNL     1      -8.910   3.401  71.358  1.00  0.00    -0.085 C  
HETATM   15  C   UNL     1      -8.421   4.489  69.246  1.00  0.00    -0.078 A  
HETATM   16  C   UNL     1      -8.792   3.295  68.580  1.00  0.00    -0.164 A  
HETATM   17  C   UNL     1      -8.501   3.051  67.226  1.00  0.00    -0.103 A  
HETATM   18  C   UNL     1      -7.806   3.989  66.478  1.00  0.00    -0.093 A  
HETATM   19  C   UNL     1      -7.450   5.188  67.074  1.00  0.00    -0.087 A  
HETATM   20  C   UNL     1      -7.793   5.439  68.415  1.00  0.00    -0.084 A  
HETATM   21  C   UNL     1      -7.544   6.806  68.877  1.00  0.00    -0.105 C  
HETATM   22  O   UNL     1      -6.451   7.336  68.701  1.00  0.00    -0.037 OA 
ENDBRANCH   5   6
ENDBRANCH   4   5
ENDBRANCH   2   4
TORSDOF 3
ENDMDL
MODEL      173
REMARK 921   NORMALIZED FREE ENERGY PREDICTED BY IDOCK:   -2.74 KCAL/MOL
REMARK 922        TOTAL FREE ENERGY PREDICTED BY IDOCK:   -3.35 KCAL/MOL
REMARK 923 INTER-LIGAND FREE ENERGY PREDICTED BY IDOCK:   -3.40 KCAL/MOL
REMARK 924 INTRA-LIGAND FREE ENERGY PREDICTED BY IDOCK:    0.05 KCAL/MOL
REMARK 927      BINDING AFFINITY PREDICTED BY RF-SCORE:    0.00 PKD
ROOT
HETATM    1  C   UNL     1      -5.609  11.918  68.047  1.00  0.00    -0.049 C  
HETATM    2  N   UNL     1      -5.714  10.848  69.047  1.00  0.00    -0.040 NA 
HETATM    3  C   UNL     1      -5.591  11.423  70.387  1.00  0.00    -0.139 C  
ENDROOT
BRANCH   2   4
HETATM    4  C   UNL     1      -6.993  10.134  68.851  1.00  0.00    -0.063 C  
BRANCH   4   5
HETATM    5  C   UNL     1      -7.855   9.922  70.113  1.00  0.00    -0.171 C  
BRANCH   5   6
HETATM    6  N   UNL     1      -9.301   9.784  69.813  1.00  0.00    -0.213 N  
HETATM    7  C   UNL     1      -9.610   9.687  68.432  1.00  0.00    -0.144 A  
HETATM    8  C   UNL     1     -10.099  10.883  67.863  1.00  0.00    -0.199 A  
HETATM    9  C   UNL     1     -10.473  10.929  66.532  1.00  0.00    -0.308 A  
HETATM   10  C   UNL     1     -10.359   9.780  65.771  1.00  0.00    -0.101 A  
HETATM   11  C   UNL     1      -9.890   8.583  66.348  1.00  0.00    -0.327 A  
HETATM   12  C   UNL     1      -9.502   8.472  67.704  1.00  0.00    -0.145 A  
HETATM   13  N   UNL     1      -9.020   7.245  68.276  1.00  0.00    -0.126 NA 
HETATM   14  C   UNL     1      -8.719   6.128  67.354  1.00  0.00    -0.104 C  
HETATM   15  C   UNL     1      -8.879   6.861  69.661  1.00  0.00    -0.141 A  
HETATM   16  C   UNL     1      -8.143   5.713  70.044  1.00  0.00    -0.106 A  
HETATM   17  C   UNL     1      -8.048   5.274  71.376  1.00  0.00    -0.115 A  
HETATM   18  C   UNL     1      -8.705   5.958  72.388  1.00  0.00    -0.127 A  
HETATM   19  C   UNL     1      -9.411   7.106  72.070  1.00  0.00    -0.151 A  
HETATM   20  C   UNL     1      -9.454   7.563  70.739  1.00  0.00    -0.163 A  
HETATM   21  C   UNL     1     -10.058   8.883  70.552  1.00  0.00    -0.205 C  
HETATM   22  O   UNL     1     -11.155   9.144  71.037  1.00  0.00    -0.256 OA 
ENDBRANCH   5   6
ENDBRANCH   4   5
ENDBRANCH   2   4
TORSDOF 3
ENDMDL
MODEL      174
REMARK 921   NORMALIZED FREE ENERGY PREDICTED BY IDOCK:   -2.72 KCAL/MOL
REMARK 922        TOTAL FREE ENERGY PREDICTED BY IDOCK:   -3.33 KCAL/MOL
REMARK 923 INTER-LIGAND FREE ENERGY PREDICTED BY IDOCK:   -2.95 KCAL/MOL
REMARK 924 INTRA-LIGAND FREE ENERGY PREDICTED BY IDOCK:   -0.38 KCAL/MOL
REMARK 927      BINDING AFFINITY PREDICTED BY RF-SCORE:    0.00 PKD
ROOT
HETATM    1  C   UNL     1      -5.589   8.715  72.123  1.00  0.00    -0.054 C  
HETATM    2  N   UNL     1      -6.483   9.617  71.385  1.00  0.00    -0.300 NA 
HETATM    3  C   UNL     1      -5.682  10.571  70.618  1.00  0.00    -0.101 C  
ENDROOT
BRANCH   2   4
HETATM    4  C   UNL     1      -7.378   8.809  70.530  1.00  0.00    -0.066 C  
BRANCH   4   5
HETATM    5  C   UNL     1      -8.035   7.584  71.199  1.00  0.00    -0.095 C  
BRANCH   5   6
HETATM    6  N   UNL     1      -8.047   6.383  70.327  1.00  0.00    -0.118 N  
HETATM    7  C   UNL     1      -7.295   5.287  70.824  1.00  0.00    -0.073 A  
HETATM    8  C   UNL     1      -6.035   5.125  70.210  1.00  0.00    -0.018 A  
HETATM    9  C   UNL     1      -5.205   4.078  70.569  1.00  0.00    -0.004 A  
HETATM   10  C   UNL     1      -5.637   3.193  71.541  1.00  0.00    -0.008 A  
HETATM   11  C   UNL     1      -6.904   3.346  72.135  1.00  0.00    -0.026 A  
HETATM   12  C   UNL     1      -7.800   4.390  71.803  1.00  0.00    -0.087 A  
HETATM   13  N   UNL     1      -9.088   4.536  72.423  1.00  0.00    -0.123 NA 
HETATM   14  C   UNL     1      -9.384   3.689  73.599  1.00  0.00    -0.099 C  
HETATM   15  C   UNL     1     -10.231   5.317  72.013  1.00  0.00    -0.203 A  
HETATM   16  C   UNL     1     -11.325   5.549  72.881  1.00  0.00    -0.348 A  
HETATM   17  C   UNL     1     -12.482   6.244  72.487  1.00  0.00     0.108 A  
HETATM   18  C   UNL     1     -12.604   6.725  71.192  1.00  0.00    -0.305 A  
HETATM   19  C   UNL     1     -11.546   6.553  70.313  1.00  0.00    -0.473 A  
HETATM   20  C   UNL     1     -10.374   5.901  70.738  1.00  0.00    -0.292 A  
HETATM   21  C   UNL     1      -9.255   5.952  69.794  1.00  0.00    -0.145 C  
HETATM   22  O   UNL     1      -9.414   5.636  68.619  1.00  0.00    -0.120 OA 
ENDBRANCH   5   6
ENDBRANCH   4   5
ENDBRANCH   2   4
TORSDOF 3
ENDMDL
MODEL      175
REMARK 921   NORMALIZED FREE ENERGY PREDICTED BY IDOCK:   -2.72 KCAL/MOL
REMARK 922        TOTAL FREE ENERGY PREDICTED BY IDOCK:   -3.33 KCAL/MOL
REMARK 923 INTER-LIGAND FREE ENERGY PREDICTED BY IDOCK:   -3.04 KCAL/MOL
REMARK 924 INTRA-LIGAND FREE ENERGY PREDICTED BY IDOCK:   -0.29 KCAL/MOL
REMARK 927      BINDING AFFINITY PREDICTED BY RF-SCORE:    0.00 PKD
ROOT
HETATM    1  C   UNL     1      -7.219  15.443  67.171  1.00  0.00    -0.144 C  
HETATM    2  N   UNL     1      -6.301  15.002  68.229  1.00  0.00    -0.108 NA 
HETATM    3  C   UNL     1      -6.255  16.014  69.284  1.00  0.00    -0.151 C  
ENDROOT
BRANCH   2   4
HETATM    4  C   UNL     1      -6.744  13.682  68.726  1.00  0.00    -0.104 C  
BRANCH   4   5
HETATM    5  C   UNL     1      -7.010  12.605  67.653  1.00  0.00    -0.140 C  
BRANCH   5   6
HETATM    6  N   UNL     1      -7.843  11.482  68.152  1.00  0.00    -0.120 N  
HETATM    7  C   UNL     1      -9.233  11.628  67.911  1.00  0.00    -0.171 A  
HETATM    8  C   UNL     1      -9.974  12.042  69.038  1.00  0.00     0.114 A  
HETATM    9  C   UNL     1     -11.347  12.194  68.963  1.00  0.00    -0.329 A  
HETATM   10  C   UNL     1     -11.978  11.931  67.760  1.00  0.00    -0.149 A  
HETATM   11  C   UNL     1     -11.237  11.498  66.643  1.00  0.00    -0.336 A  
HETATM   12  C   UNL     1      -9.834  11.315  66.662  1.00  0.00    -0.205 A  
HETATM   13  N   UNL     1      -9.092  10.878  65.513  1.00  0.00    -0.197 NA 
HETATM   14  C   UNL     1      -9.799  10.831  64.215  1.00  0.00    -0.326 C  
HETATM   15  C   UNL     1      -7.751  10.348  65.422  1.00  0.00    -0.136 A  
HETATM   16  C   UNL     1      -7.086  10.214  64.179  1.00  0.00    -0.100 A  
HETATM   17  C   UNL     1      -5.811   9.636  64.051  1.00  0.00    -0.093 A  
HETATM   18  C   UNL     1      -5.148   9.147  65.166  1.00  0.00    -0.037 A  
HETATM   19  C   UNL     1      -5.741   9.285  66.410  1.00  0.00    -0.053 A  
HETATM   20  C   UNL     1      -6.995   9.912  66.529  1.00  0.00    -0.090 A  
HETATM   21  C   UNL     1      -7.432  10.179  67.901  1.00  0.00    -0.088 C  
HETATM   22  O   UNL     1      -7.415   9.289  68.746  1.00  0.00    -0.074 OA 
ENDBRANCH   5   6
ENDBRANCH   4   5
ENDBRANCH   2   4
TORSDOF 3
ENDMDL
MODEL      176
REMARK 921   NORMALIZED FREE ENERGY PREDICTED BY IDOCK:   -2.71 KCAL/MOL
REMARK 922        TOTAL FREE ENERGY PREDICTED BY IDOCK:   -3.32 KCAL/MOL
REMARK 923 INTER-LIGAND FREE ENERGY PREDICTED BY IDOCK:   -3.29 KCAL/MOL
REMARK 924 INTRA-LIGAND FREE ENERGY PREDICTED BY IDOCK:   -0.03 KCAL/MOL
REMARK 927      BINDING AFFINITY PREDICTED BY RF-SCORE:    0.00 PKD
ROOT
HETATM    1  C   UNL     1      -9.830  16.815  67.234  1.00  0.00    -0.260 C  
HETATM    2  N   UNL     1      -8.919  16.318  66.195  1.00  0.00    -0.335 NA 
HETATM    3  C   UNL     1      -7.598  16.918  66.381  1.00  0.00    -0.304 C  
ENDROOT
BRANCH   2   4
HETATM    4  C   UNL     1      -8.886  14.842  66.254  1.00  0.00    -0.020 C  
BRANCH   4   5
HETATM    5  C   UNL     1      -7.668  14.216  66.966  1.00  0.00     0.159 C  
BRANCH   5   6
HETATM    6  N   UNL     1      -8.041  13.412  68.156  1.00  0.00    -0.146 N  
HETATM    7  C   UNL     1      -9.430  13.158  68.285  1.00  0.00    -0.210 A  
HETATM    8  C   UNL     1     -10.082  13.976  69.233  1.00  0.00     0.122 A  
HETATM    9  C   UNL     1     -11.432  13.820  69.490  1.00  0.00    -0.327 A  
HETATM   10  C   UNL     1     -12.129  12.845  68.799  1.00  0.00    -0.175 A  
HETATM   11  C   UNL     1     -11.471  12.017  67.870  1.00  0.00    -0.396 A  
HETATM   12  C   UNL     1     -10.092  12.123  67.572  1.00  0.00    -0.196 A  
HETATM   13  N   UNL     1      -9.435  11.274  66.616  1.00  0.00    -0.182 NA 
HETATM   14  C   UNL     1     -10.284  10.412  65.765  1.00  0.00    -0.235 C  
HETATM   15  C   UNL     1      -8.028  11.024  66.412  1.00  0.00    -0.161 A  
HETATM   16  C   UNL     1      -7.549  10.362  65.255  1.00  0.00    -0.118 A  
HETATM   17  C   UNL     1      -6.194  10.041  65.062  1.00  0.00    -0.115 A  
HETATM   18  C   UNL     1      -5.254  10.354  66.031  1.00  0.00    -0.063 A  
HETATM   19  C   UNL     1      -5.666  11.033  67.167  1.00  0.00    -0.059 A  
HETATM   20  C   UNL     1      -7.017  11.394  67.322  1.00  0.00    -0.115 A  
HETATM   21  C   UNL     1      -7.301  12.275  68.457  1.00  0.00    -0.105 C  
HETATM   22  O   UNL     1      -6.890  12.000  69.580  1.00  0.00    -0.049 OA 
ENDBRANCH   5   6
ENDBRANCH   4   5
ENDBRANCH   2   4
TORSDOF 3
ENDMDL
MODEL      177
REMARK 921   NORMALIZED FREE ENERGY PREDICTED BY IDOCK:   -2.70 KCAL/MOL
REMARK 922        TOTAL FREE ENERGY PREDICTED BY IDOCK:   -3.30 KCAL/MOL
REMARK 923 INTER-LIGAND FREE ENERGY PREDICTED BY IDOCK:   -3.40 KCAL/MOL
REMARK 924 INTRA-LIGAND FREE ENERGY PREDICTED BY IDOCK:    0.10 KCAL/MOL
REMARK 927      BINDING AFFINITY PREDICTED BY RF-SCORE:    0.00 PKD
ROOT
HETATM    1  C   UNL     1     -10.960   6.617  67.806  1.00  0.00    -0.281 C  
HETATM    2  N   UNL     1     -10.068   5.486  68.091  1.00  0.00    -0.161 NA 
HETATM    3  C   UNL     1      -8.718   5.804  67.626  1.00  0.00    -0.107 C  
ENDROOT
BRANCH   2   4
HETATM    4  C   UNL     1     -10.116   5.192  69.538  1.00  0.00    -0.246 C  
BRANCH   4   5
HETATM    5  C   UNL     1      -8.760   5.176  70.275  1.00  0.00    -0.116 C  
BRANCH   5   6
HETATM    6  N   UNL     1      -8.653   6.228  71.317  1.00  0.00    -0.124 N  
HETATM    7  C   UNL     1      -9.710   7.173  71.311  1.00  0.00    -0.170 A  
HETATM    8  C   UNL     1      -9.377   8.409  70.715  1.00  0.00    -0.191 A  
HETATM    9  C   UNL     1     -10.299   9.439  70.667  1.00  0.00    -0.349 A  
HETATM   10  C   UNL     1     -11.552   9.234  71.216  1.00  0.00    -0.419 A  
HETATM   11  C   UNL     1     -11.873   8.007  71.828  1.00  0.00    -0.339 A  
HETATM   12  C   UNL     1     -10.971   6.921  71.916  1.00  0.00    -0.235 A  
HETATM   13  N   UNL     1     -11.315   5.673  72.539  1.00  0.00    -0.296 NA 
HETATM   14  C   UNL     1     -12.732   5.454  72.901  1.00  0.00     0.800 C  
HETATM   15  C   UNL     1     -10.465   4.597  72.992  1.00  0.00    -0.198 A  
HETATM   16  C   UNL     1     -10.990   3.330  73.343  1.00  0.00    -0.301 A  
HETATM   17  C   UNL     1     -10.197   2.288  73.856  1.00  0.00    -0.177 A  
HETATM   18  C   UNL     1      -8.838   2.475  74.058  1.00  0.00    -0.075 A  
HETATM   19  C   UNL     1      -8.269   3.686  73.698  1.00  0.00    -0.083 A  
HETATM   20  C   UNL     1      -9.066   4.701  73.138  1.00  0.00    -0.122 A  
HETATM   21  C   UNL     1      -8.331   5.855  72.616  1.00  0.00    -0.119 C  
HETATM   22  O   UNL     1      -7.489   6.424  73.305  1.00  0.00    -0.090 OA 
ENDBRANCH   5   6
ENDBRANCH   4   5
ENDBRANCH   2   4
TORSDOF 3
ENDMDL
MODEL      178
REMARK 921   NORMALIZED FREE ENERGY PREDICTED BY IDOCK:   -2.67 KCAL/MOL
REMARK 922        TOTAL FREE ENERGY PREDICTED BY IDOCK:   -3.27 KCAL/MOL
REMARK 923 INTER-LIGAND FREE ENERGY PREDICTED BY IDOCK:   -3.13 KCAL/MOL
REMARK 924 INTRA-LIGAND FREE ENERGY PREDICTED BY IDOCK:   -0.14 KCAL/MOL
REMARK 927      BINDING AFFINITY PREDICTED BY RF-SCORE:    0.00 PKD
ROOT
HETATM    1  C   UNL     1     -11.717  10.670  68.803  1.00  0.00    -0.188 C  
HETATM    2  N   UNL     1     -11.903  12.126  68.750  1.00  0.00    -0.314 NA 
HETATM    3  C   UNL     1     -12.145  12.634  70.100  1.00  0.00    -0.294 C  
ENDROOT
BRANCH   2   4
HETATM    4  C   UNL     1     -10.715  12.737  68.117  1.00  0.00    -0.226 C  
BRANCH   4   5
HETATM    5  C   UNL     1      -9.398  11.940  68.230  1.00  0.00    -0.193 C  
BRANCH   5   6
HETATM    6  N   UNL     1      -8.318  12.477  67.367  1.00  0.00    -0.173 N  
HETATM    7  C   UNL     1      -7.905  13.795  67.690  1.00  0.00    -0.178 A  
HETATM    8  C   UNL     1      -8.424  14.790  66.834  1.00  0.00    -0.230 A  
HETATM    9  C   UNL     1      -8.081  16.119  67.007  1.00  0.00    -0.245 A  
HETATM   10  C   UNL     1      -7.219  16.452  68.037  1.00  0.00    -0.145 A  
HETATM   11  C   UNL     1      -6.688  15.454  68.876  1.00  0.00    -0.113 A  
HETATM   12  C   UNL     1      -6.993  14.079  68.742  1.00  0.00    -0.106 A  
HETATM   13  N   UNL     1      -6.447  13.073  69.610  1.00  0.00    -0.085 NA 
HETATM   14  C   UNL     1      -5.716  13.527  70.813  1.00  0.00    -0.189 C  
HETATM   15  C   UNL     1      -6.390  11.639  69.447  1.00  0.00    -0.106 A  
HETATM   16  C   UNL     1      -6.051  10.780  70.520  1.00  0.00    -0.109 A  
HETATM   17  C   UNL     1      -5.916   9.388  70.374  1.00  0.00    -0.051 A  
HETATM   18  C   UNL     1      -6.099   8.792  69.135  1.00  0.00    -0.043 A  
HETATM   19  C   UNL     1      -6.465   9.585  68.060  1.00  0.00    -0.061 A  
HETATM   20  C   UNL     1      -6.646  10.970  68.233  1.00  0.00    -0.058 A  
HETATM   21  C   UNL     1      -7.221  11.672  67.084  1.00  0.00    -0.145 C  
HETATM   22  O   UNL     1      -6.746  11.529  65.961  1.00  0.00     0.118 OA 
ENDBRANCH   5   6
ENDBRANCH   4   5
ENDBRANCH   2   4
TORSDOF 3
ENDMDL
MODEL      179
REMARK 921   NORMALIZED FREE ENERGY PREDICTED BY IDOCK:   -2.65 KCAL/MOL
REMARK 922        TOTAL FREE ENERGY PREDICTED BY IDOCK:   -3.25 KCAL/MOL
REMARK 923 INTER-LIGAND FREE ENERGY PREDICTED BY IDOCK:   -2.93 KCAL/MOL
REMARK 924 INTRA-LIGAND FREE ENERGY PREDICTED BY IDOCK:   -0.32 KCAL/MOL
REMARK 927      BINDING AFFINITY PREDICTED BY RF-SCORE:    0.00 PKD
ROOT
HETATM    1  C   UNL     1      -8.916   8.809  71.335  1.00  0.00    -0.238 C  
HETATM    2  N   UNL     1      -9.682   7.562  71.212  1.00  0.00    -0.165 NA 
HETATM    3  C   UNL     1     -11.042   7.778  71.706  1.00  0.00    -0.245 C  
ENDROOT
BRANCH   2   4
HETATM    4  C   UNL     1      -9.653   7.121  69.801  1.00  0.00    -0.155 C  
BRANCH   4   5
HETATM    5  C   UNL     1      -9.198   8.173  68.768  1.00  0.00    -0.144 C  
BRANCH   5   6
HETATM    6  N   UNL     1      -7.872   7.869  68.175  1.00  0.00    -0.124 N  
HETATM    7  C   UNL     1      -7.925   7.168  66.943  1.00  0.00    -0.115 A  
HETATM    8  C   UNL     1      -7.654   5.787  67.051  1.00  0.00    -0.099 A  
HETATM    9  C   UNL     1      -7.637   4.982  65.927  1.00  0.00    -0.090 A  
HETATM   10  C   UNL     1      -7.889   5.558  64.695  1.00  0.00    -0.108 A  
HETATM   11  C   UNL     1      -8.138   6.940  64.589  1.00  0.00    -0.082 A  
HETATM   12  C   UNL     1      -8.159   7.815  65.700  1.00  0.00    -0.129 A  
HETATM   13  N   UNL     1      -8.421   9.223  65.576  1.00  0.00    -0.132 NA 
HETATM   14  C   UNL     1      -8.896   9.721  64.266  1.00  0.00    -0.228 C  
HETATM   15  C   UNL     1      -8.183  10.296  66.512  1.00  0.00    -0.127 A  
HETATM   16  C   UNL     1      -8.742  11.584  66.328  1.00  0.00    -0.159 A  
HETATM   17  C   UNL     1      -8.471  12.666  67.183  1.00  0.00    -0.186 A  
HETATM   18  C   UNL     1      -7.609  12.512  68.257  1.00  0.00    -0.129 A  
HETATM   19  C   UNL     1      -7.062  11.262  68.502  1.00  0.00    -0.083 A  
HETATM   20  C   UNL     1      -7.384  10.176  67.667  1.00  0.00    -0.089 A  
HETATM   21  C   UNL     1      -6.910   8.871  68.133  1.00  0.00    -0.069 C  
HETATM   22  O   UNL     1      -5.738   8.712  68.463  1.00  0.00    -0.037 OA 
ENDBRANCH   5   6
ENDBRANCH   4   5
ENDBRANCH   2   4
TORSDOF 3
ENDMDL
MODEL      180
REMARK 921   NORMALIZED FREE ENERGY PREDICTED BY IDOCK:   -2.63 KCAL/MOL
REMARK 922        TOTAL FREE ENERGY PREDICTED BY IDOCK:   -3.22 KCAL/MOL
REMARK 923 INTER-LIGAND FREE ENERGY PREDICTED BY IDOCK:   -2.89 KCAL/MOL
REMARK 924 INTRA-LIGAND FREE ENERGY PREDICTED BY IDOCK:   -0.33 KCAL/MOL
REMARK 927      BINDING AFFINITY PREDICTED BY RF-SCORE:    0.00 PKD
ROOT
HETATM    1  C   UNL     1      -5.604   5.653  66.443  1.00  0.00    -0.013 C  
HETATM    2  N   UNL     1      -5.886   6.473  67.628  1.00  0.00    -0.019 NA 
HETATM    3  C   UNL     1      -5.868   7.887  67.255  1.00  0.00    -0.041 C  
ENDROOT
BRANCH   2   4
HETATM    4  C   UNL     1      -7.182   6.053  68.203  1.00  0.00    -0.080 C  
BRANCH   4   5
HETATM    5  C   UNL     1      -7.371   6.308  69.713  1.00  0.00    -0.079 C  
BRANCH   5   6
HETATM    6  N   UNL     1      -8.184   5.261  70.382  1.00  0.00    -0.101 N  
HETATM    7  C   UNL     1      -7.685   4.844  71.642  1.00  0.00    -0.097 A  
HETATM    8  C   UNL     1      -6.999   3.610  71.612  1.00  0.00    -0.031 A  
HETATM    9  C   UNL     1      -6.486   3.060  72.773  1.00  0.00    -0.017 A  
HETATM   10  C   UNL     1      -6.660   3.744  73.963  1.00  0.00    -0.043 A  
HETATM   11  C   UNL     1      -7.363   4.964  73.992  1.00  0.00    -0.082 A  
HETATM   12  C   UNL     1      -7.918   5.570  72.840  1.00  0.00    -0.101 A  
HETATM   13  N   UNL     1      -8.628   6.819  72.885  1.00  0.00    -0.117 NA 
HETATM   14  C   UNL     1      -8.580   7.592  74.145  1.00  0.00    -0.230 C  
HETATM   15  C   UNL     1      -9.507   7.421  71.910  1.00  0.00    -0.144 A  
HETATM   16  C   UNL     1      -9.911   8.774  72.006  1.00  0.00    -0.391 A  
HETATM   17  C   UNL     1     -10.822   9.367  71.114  1.00  0.00    -0.427 A  
HETATM   18  C   UNL     1     -11.385   8.622  70.090  1.00  0.00    -0.083 A  
HETATM   19  C   UNL     1     -10.996   7.302  69.931  1.00  0.00    -0.262 A  
HETATM   20  C   UNL     1     -10.045   6.737  70.801  1.00  0.00    -0.208 A  
HETATM   21  C   UNL     1      -9.565   5.407  70.421  1.00  0.00    -0.175 C  
HETATM   22  O   UNL     1     -10.358   4.509  70.154  1.00  0.00    -0.150 OA 
ENDBRANCH   5   6
ENDBRANCH   4   5
ENDBRANCH   2   4
TORSDOF 3
ENDMDL
MODEL      181
REMARK 921   NORMALIZED FREE ENERGY PREDICTED BY IDOCK:   -2.62 KCAL/MOL
REMARK 922        TOTAL FREE ENERGY PREDICTED BY IDOCK:   -3.21 KCAL/MOL
REMARK 923 INTER-LIGAND FREE ENERGY PREDICTED BY IDOCK:   -2.93 KCAL/MOL
REMARK 924 INTRA-LIGAND FREE ENERGY PREDICTED BY IDOCK:   -0.28 KCAL/MOL
REMARK 927      BINDING AFFINITY PREDICTED BY RF-SCORE:    0.00 PKD
ROOT
HETATM    1  C   UNL     1      -7.319   9.463  70.608  1.00  0.00    -0.131 C  
HETATM    2  N   UNL     1      -8.265   9.326  71.723  1.00  0.00    -0.212 NA 
HETATM    3  C   UNL     1      -9.577   9.825  71.310  1.00  0.00     0.669 C  
ENDROOT
BRANCH   2   4
HETATM    4  C   UNL     1      -8.303   7.911  72.147  1.00  0.00    -0.131 C  
BRANCH   4   5
HETATM    5  C   UNL     1      -8.567   6.874  71.034  1.00  0.00    -0.135 C  
BRANCH   5   6
HETATM    6  N   UNL     1     -10.008   6.718  70.715  1.00  0.00    -0.187 N  
HETATM    7  C   UNL     1     -10.279   6.381  69.365  1.00  0.00    -0.192 A  
HETATM    8  C   UNL     1     -10.718   7.466  68.575  1.00  0.00    -0.138 A  
HETATM    9  C   UNL     1     -11.052   7.281  67.246  1.00  0.00    -0.151 A  
HETATM   10  C   UNL     1     -10.949   6.011  66.707  1.00  0.00    -0.305 A  
HETATM   11  C   UNL     1     -10.531   4.927  67.504  1.00  0.00    -0.036 A  
HETATM   12  C   UNL     1     -10.185   5.052  68.870  1.00  0.00    -0.114 A  
HETATM   13  N   UNL     1      -9.755   3.938  69.668  1.00  0.00    -0.189 NA 
HETATM   14  C   UNL     1      -9.460   2.667  68.972  1.00  0.00    -0.088 C  
HETATM   15  C   UNL     1      -9.665   3.806  71.104  1.00  0.00    -0.175 A  
HETATM   16  C   UNL     1      -8.972   2.730  71.711  1.00  0.00    -0.135 A  
HETATM   17  C   UNL     1      -8.929   2.535  73.102  1.00  0.00    -0.085 A  
HETATM   18  C   UNL     1      -9.595   3.404  73.953  1.00  0.00    -0.126 A  
HETATM   19  C   UNL     1     -10.258   4.493  73.411  1.00  0.00    -0.220 A  
HETATM   20  C   UNL     1     -10.250   4.703  72.019  1.00  0.00    -0.258 A  
HETATM   21  C   UNL     1     -10.811   5.982  71.579  1.00  0.00    -0.266 C  
HETATM   22  O   UNL     1     -11.913   6.351  71.973  1.00  0.00    -0.329 OA 
ENDBRANCH   5   6
ENDBRANCH   4   5
ENDBRANCH   2   4
TORSDOF 3
ENDMDL
MODEL      182
REMARK 921   NORMALIZED FREE ENERGY PREDICTED BY IDOCK:   -2.62 KCAL/MOL
REMARK 922        TOTAL FREE ENERGY PREDICTED BY IDOCK:   -3.21 KCAL/MOL
REMARK 923 INTER-LIGAND FREE ENERGY PREDICTED BY IDOCK:   -2.85 KCAL/MOL
REMARK 924 INTRA-LIGAND FREE ENERGY PREDICTED BY IDOCK:   -0.36 KCAL/MOL
REMARK 927      BINDING AFFINITY PREDICTED BY RF-SCORE:    0.00 PKD
ROOT
HETATM    1  C   UNL     1      -8.890  10.613  69.429  1.00  0.00    -0.018 C  
HETATM    2  N   UNL     1     -10.071   9.759  69.611  1.00  0.00    -0.214 NA 
HETATM    3  C   UNL     1     -10.194   8.853  68.469  1.00  0.00    -0.197 C  
ENDROOT
BRANCH   2   4
HETATM    4  C   UNL     1      -9.947   9.039  70.896  1.00  0.00    -0.260 C  
BRANCH   4   5
HETATM    5  C   UNL     1      -9.807   7.505  70.806  1.00  0.00    -0.178 C  
BRANCH   5   6
HETATM    6  N   UNL     1      -9.153   6.911  71.998  1.00  0.00    -0.137 N  
HETATM    7  C   UNL     1      -9.541   5.576  72.279  1.00  0.00    -0.152 A  
HETATM    8  C   UNL     1     -10.475   5.455  73.331  1.00  0.00    -0.269 A  
HETATM    9  C   UNL     1     -10.920   4.211  73.739  1.00  0.00    -0.331 A  
HETATM   10  C   UNL     1     -10.431   3.088  73.096  1.00  0.00    -0.256 A  
HETATM   11  C   UNL     1      -9.484   3.212  72.061  1.00  0.00    -0.203 A  
HETATM   12  C   UNL     1      -8.984   4.455  71.607  1.00  0.00    -0.124 A  
HETATM   13  N   UNL     1      -8.022   4.566  70.546  1.00  0.00    -0.056 NA 
HETATM   14  C   UNL     1      -7.716   3.346  69.766  1.00  0.00    -0.047 C  
HETATM   15  C   UNL     1      -7.185   5.679  70.166  1.00  0.00    -0.068 A  
HETATM   16  C   UNL     1      -6.486   5.700  68.934  1.00  0.00    -0.042 A  
HETATM   17  C   UNL     1      -5.608   6.735  68.569  1.00  0.00    -0.017 A  
HETATM   18  C   UNL     1      -5.375   7.795  69.432  1.00  0.00    -0.023 A  
HETATM   19  C   UNL     1      -6.061   7.839  70.636  1.00  0.00    -0.034 A  
HETATM   20  C   UNL     1      -6.975   6.821  70.965  1.00  0.00    -0.067 A  
HETATM   21  C   UNL     1      -7.782   7.071  72.161  1.00  0.00    -0.092 C  
HETATM   22  O   UNL     1      -7.250   7.406  73.216  1.00  0.00    -0.071 OA 
ENDBRANCH   5   6
ENDBRANCH   4   5
ENDBRANCH   2   4
TORSDOF 3
ENDMDL
MODEL      183
REMARK 921   NORMALIZED FREE ENERGY PREDICTED BY IDOCK:   -2.60 KCAL/MOL
REMARK 922        TOTAL FREE ENERGY PREDICTED BY IDOCK:   -3.19 KCAL/MOL
REMARK 923 INTER-LIGAND FREE ENERGY PREDICTED BY IDOCK:   -2.88 KCAL/MOL
REMARK 924 INTRA-LIGAND FREE ENERGY PREDICTED BY IDOCK:   -0.31 KCAL/MOL
REMARK 927      BINDING AFFINITY PREDICTED BY RF-SCORE:    0.00 PKD
ROOT
HETATM    1  C   UNL     1      -7.967  11.003  62.387  1.00  0.00    -0.105 C  
HETATM    2  N   UNL     1      -8.616  10.212  63.441  1.00  0.00    -0.182 NA 
HETATM    3  C   UNL     1      -8.806   8.840  62.970  1.00  0.00     0.118 C  
ENDROOT
BRANCH   2   4
HETATM    4  C   UNL     1      -7.793  10.284  64.667  1.00  0.00    -0.123 C  
BRANCH   4   5
HETATM    5  C   UNL     1      -8.480   9.838  65.975  1.00  0.00    -0.124 C  
BRANCH   5   6
HETATM    6  N   UNL     1      -8.125  10.689  67.137  1.00  0.00    -0.120 N  
HETATM    7  C   UNL     1      -9.218  11.386  67.713  1.00  0.00    -0.159 A  
HETATM    8  C   UNL     1      -9.290  12.748  67.351  1.00  0.00    -0.193 A  
HETATM    9  C   UNL     1     -10.285  13.562  67.863  1.00  0.00    -0.247 A  
HETATM   10  C   UNL     1     -11.206  13.013  68.737  1.00  0.00    -0.325 A  
HETATM   11  C   UNL     1     -11.118  11.658  69.111  1.00  0.00    -0.302 A  
HETATM   12  C   UNL     1     -10.119  10.780  68.629  1.00  0.00    -0.183 A  
HETATM   13  N   UNL     1     -10.046   9.398  69.017  1.00  0.00    -0.187 NA 
HETATM   14  C   UNL     1     -11.186   8.835  69.773  1.00  0.00     0.007 C  
HETATM   15  C   UNL     1      -8.959   8.456  68.887  1.00  0.00    -0.146 A  
HETATM   16  C   UNL     1      -9.151   7.066  69.083  1.00  0.00    -0.136 A  
HETATM   17  C   UNL     1      -8.100   6.134  69.035  1.00  0.00    -0.112 A  
HETATM   18  C   UNL     1      -6.799   6.555  68.805  1.00  0.00    -0.070 A  
HETATM   19  C   UNL     1      -6.564   7.900  68.573  1.00  0.00    -0.061 A  
HETATM   20  C   UNL     1      -7.633   8.815  68.573  1.00  0.00    -0.098 A  
HETATM   21  C   UNL     1      -7.297  10.167  68.124  1.00  0.00    -0.082 C  
HETATM   22  O   UNL     1      -6.338  10.765  68.602  1.00  0.00    -0.049 OA 
ENDBRANCH   5   6
ENDBRANCH   4   5
ENDBRANCH   2   4
TORSDOF 3
ENDMDL
MODEL      184
REMARK 921   NORMALIZED FREE ENERGY PREDICTED BY IDOCK:   -2.60 KCAL/MOL
REMARK 922        TOTAL FREE ENERGY PREDICTED BY IDOCK:   -3.19 KCAL/MOL
REMARK 923 INTER-LIGAND FREE ENERGY PREDICTED BY IDOCK:   -2.85 KCAL/MOL
REMARK 924 INTRA-LIGAND FREE ENERGY PREDICTED BY IDOCK:   -0.33 KCAL/MOL
REMARK 927      BINDING AFFINITY PREDICTED BY RF-SCORE:    0.00 PKD
ROOT
HETATM    1  C   UNL     1      -8.403   4.748  66.525  1.00  0.00    -0.107 C  
HETATM    2  N   UNL     1      -7.537   4.105  67.521  1.00  0.00    -0.069 NA 
HETATM    3  C   UNL     1      -6.423   3.445  66.841  1.00  0.00    -0.037 C  
ENDROOT
BRANCH   2   4
HETATM    4  C   UNL     1      -7.087   5.124  68.493  1.00  0.00    -0.062 C  
BRANCH   4   5
HETATM    5  C   UNL     1      -8.174   5.708  69.420  1.00  0.00    -0.103 C  
BRANCH   5   6
HETATM    6  N   UNL     1      -7.876   7.092  69.865  1.00  0.00    -0.111 N  
HETATM    7  C   UNL     1      -8.951   8.004  69.713  1.00  0.00    -0.145 A  
HETATM    8  C   UNL     1      -8.834   8.855  68.593  1.00  0.00    -0.137 A  
HETATM    9  C   UNL     1      -9.792   9.820  68.337  1.00  0.00    -0.168 A  
HETATM   10  C   UNL     1     -10.866   9.933  69.201  1.00  0.00    -0.248 A  
HETATM   11  C   UNL     1     -10.968   9.096  70.329  1.00  0.00    -0.279 A  
HETATM   12  C   UNL     1     -10.017   8.099  70.649  1.00  0.00    -0.189 A  
HETATM   13  N   UNL     1     -10.138   7.249  71.800  1.00  0.00    -0.179 NA 
HETATM   14  C   UNL     1     -11.415   7.280  72.546  1.00  0.00    -0.281 C  
HETATM   15  C   UNL     1      -9.150   6.418  72.447  1.00  0.00    -0.137 A  
HETATM   16  C   UNL     1      -9.510   5.445  73.412  1.00  0.00    -0.137 A  
HETATM   17  C   UNL     1      -8.566   4.673  74.110  1.00  0.00    -0.104 A  
HETATM   18  C   UNL     1      -7.209   4.852  73.886  1.00  0.00    -0.082 A  
HETATM   19  C   UNL     1      -6.806   5.767  72.927  1.00  0.00    -0.075 A  
HETATM   20  C   UNL     1      -7.765   6.496  72.199  1.00  0.00    -0.097 A  
HETATM   21  C   UNL     1      -7.235   7.282  71.083  1.00  0.00    -0.072 C  
HETATM   22  O   UNL     1      -6.283   8.040  71.248  1.00  0.00    -0.034 OA 
ENDBRANCH   5   6
ENDBRANCH   4   5
ENDBRANCH   2   4
TORSDOF 3
ENDMDL
MODEL      185
REMARK 921   NORMALIZED FREE ENERGY PREDICTED BY IDOCK:   -2.60 KCAL/MOL
REMARK 922        TOTAL FREE ENERGY PREDICTED BY IDOCK:   -3.19 KCAL/MOL
REMARK 923 INTER-LIGAND FREE ENERGY PREDICTED BY IDOCK:   -3.19 KCAL/MOL
REMARK 924 INTRA-LIGAND FREE ENERGY PREDICTED BY IDOCK:    0.00 KCAL/MOL
REMARK 927      BINDING AFFINITY PREDICTED BY RF-SCORE:    0.00 PKD
ROOT
HETATM    1  C   UNL     1      -8.652   4.132  64.776  1.00  0.00    -0.119 C  
HETATM    2  N   UNL     1      -9.601   4.742  65.716  1.00  0.00    -0.169 NA 
HETATM    3  C   UNL     1      -9.563   4.014  66.984  1.00  0.00    -0.201 C  
ENDROOT
BRANCH   2   4
HETATM    4  C   UNL     1      -9.266   6.174  65.872  1.00  0.00    -0.045 C  
BRANCH   4   5
HETATM    5  C   UNL     1      -8.901   6.636  67.298  1.00  0.00    -0.116 C  
BRANCH   5   6
HETATM    6  N   UNL     1      -7.767   7.592  67.327  1.00  0.00    -0.111 N  
HETATM    7  C   UNL     1      -7.363   8.066  66.053  1.00  0.00    -0.073 A  
HETATM    8  C   UNL     1      -6.199   7.448  65.548  1.00  0.00    -0.038 A  
HETATM    9  C   UNL     1      -5.668   7.832  64.330  1.00  0.00    -0.044 A  
HETATM   10  C   UNL     1      -6.301   8.835  63.618  1.00  0.00    -0.084 A  
HETATM   11  C   UNL     1      -7.450   9.464  64.135  1.00  0.00    -0.113 A  
HETATM   12  C   UNL     1      -8.033   9.122  65.377  1.00  0.00    -0.106 A  
HETATM   13  N   UNL     1      -9.210   9.769  65.889  1.00  0.00    -0.172 NA 
HETATM   14  C   UNL     1      -9.950  10.669  64.978  1.00  0.00    -0.305 C  
HETATM   15  C   UNL     1      -9.754   9.781  67.226  1.00  0.00    -0.169 A  
HETATM   16  C   UNL     1     -11.061  10.253  67.495  1.00  0.00    -0.302 A  
HETATM   17  C   UNL     1     -11.591  10.345  68.794  1.00  0.00    -0.188 A  
HETATM   18  C   UNL     1     -10.825   9.981  69.891  1.00  0.00    -0.328 A  
HETATM   19  C   UNL     1      -9.551   9.479  69.679  1.00  0.00    -0.216 A  
HETATM   20  C   UNL     1      -9.053   9.346  68.370  1.00  0.00    -0.128 A  
HETATM   21  C   UNL     1      -7.783   8.626  68.256  1.00  0.00    -0.101 C  
HETATM   22  O   UNL     1      -6.823   8.936  68.955  1.00  0.00    -0.057 OA 
ENDBRANCH   5   6
ENDBRANCH   4   5
ENDBRANCH   2   4
TORSDOF 3
ENDMDL
MODEL      186
REMARK 921   NORMALIZED FREE ENERGY PREDICTED BY IDOCK:   -2.59 KCAL/MOL
REMARK 922        TOTAL FREE ENERGY PREDICTED BY IDOCK:   -3.17 KCAL/MOL
REMARK 923 INTER-LIGAND FREE ENERGY PREDICTED BY IDOCK:   -3.17 KCAL/MOL
REMARK 924 INTRA-LIGAND FREE ENERGY PREDICTED BY IDOCK:   -0.00 KCAL/MOL
REMARK 927      BINDING AFFINITY PREDICTED BY RF-SCORE:    0.00 PKD
ROOT
HETATM    1  C   UNL     1     -10.716   7.028  73.463  1.00  0.00    -0.332 C  
HETATM    2  N   UNL     1      -9.786   5.942  73.800  1.00  0.00    -0.166 NA 
HETATM    3  C   UNL     1     -10.533   4.828  74.384  1.00  0.00    -0.285 C  
ENDROOT
BRANCH   2   4
HETATM    4  C   UNL     1      -9.045   5.552  72.583  1.00  0.00    -0.138 C  
BRANCH   4   5
HETATM    5  C   UNL     1      -8.226   6.668  71.898  1.00  0.00    -0.103 C  
BRANCH   5   6
HETATM    6  N   UNL     1      -7.502   6.199  70.691  1.00  0.00    -0.085 N  
HETATM    7  C   UNL     1      -8.082   5.070  70.057  1.00  0.00    -0.074 A  
HETATM    8  C   UNL     1      -7.424   3.852  70.333  1.00  0.00    -0.041 A  
HETATM    9  C   UNL     1      -7.857   2.671  69.757  1.00  0.00    -0.049 A  
HETATM   10  C   UNL     1      -8.946   2.709  68.906  1.00  0.00    -0.175 A  
HETATM   11  C   UNL     1      -9.587   3.930  68.617  1.00  0.00    -0.181 A  
HETATM   12  C   UNL     1      -9.184   5.170  69.167  1.00  0.00    -0.110 A  
HETATM   13  N   UNL     1      -9.852   6.406  68.867  1.00  0.00    -0.135 NA 
HETATM   14  C   UNL     1     -11.133   6.335  68.130  1.00  0.00    -0.266 C  
HETATM   15  C   UNL     1      -9.416   7.768  69.070  1.00  0.00    -0.150 A  
HETATM   16  C   UNL     1     -10.309   8.861  68.957  1.00  0.00    -0.226 A  
HETATM   17  C   UNL     1      -9.899  10.200  69.078  1.00  0.00    -0.211 A  
HETATM   18  C   UNL     1      -8.566  10.508  69.301  1.00  0.00    -0.136 A  
HETATM   19  C   UNL     1      -7.657   9.473  69.453  1.00  0.00    -0.091 A  
HETATM   20  C   UNL     1      -8.091   8.137  69.380  1.00  0.00    -0.116 A  
HETATM   21  C   UNL     1      -7.089   7.135  69.750  1.00  0.00    -0.073 C  
HETATM   22  O   UNL     1      -5.969   7.157  69.250  1.00  0.00    -0.027 OA 
ENDBRANCH   5   6
ENDBRANCH   4   5
ENDBRANCH   2   4
TORSDOF 3
ENDMDL
MODEL      187
REMARK 921   NORMALIZED FREE ENERGY PREDICTED BY IDOCK:   -2.57 KCAL/MOL
REMARK 922        TOTAL FREE ENERGY PREDICTED BY IDOCK:   -3.15 KCAL/MOL
REMARK 923 INTER-LIGAND FREE ENERGY PREDICTED BY IDOCK:   -2.64 KCAL/MOL
REMARK 924 INTRA-LIGAND FREE ENERGY PREDICTED BY IDOCK:   -0.51 KCAL/MOL
REMARK 927      BINDING AFFINITY PREDICTED BY RF-SCORE:    0.00 PKD
ROOT
HETATM    1  C   UNL     1      -9.934   9.309  66.260  1.00  0.00    -0.286 C  
HETATM    2  N   UNL     1      -9.418   9.550  67.614  1.00  0.00    -0.131 NA 
HETATM    3  C   UNL     1      -9.368  10.990  67.865  1.00  0.00    -0.158 C  
ENDROOT
BRANCH   2   4
HETATM    4  C   UNL     1     -10.271   8.833  68.585  1.00  0.00    -0.194 C  
BRANCH   4   5
HETATM    5  C   UNL     1      -9.590   7.701  69.384  1.00  0.00    -0.159 C  
BRANCH   5   6
HETATM    6  N   UNL     1      -8.137   7.585  69.103  1.00  0.00    -0.121 N  
HETATM    7  C   UNL     1      -7.297   7.950  70.186  1.00  0.00    -0.070 A  
HETATM    8  C   UNL     1      -6.726   9.235  70.065  1.00  0.00    -0.054 A  
HETATM    9  C   UNL     1      -5.858   9.715  71.030  1.00  0.00    -0.076 A  
HETATM   10  C   UNL     1      -5.561   8.908  72.114  1.00  0.00    -0.062 A  
HETATM   11  C   UNL     1      -6.117   7.618  72.220  1.00  0.00    -0.040 A  
HETATM   12  C   UNL     1      -7.002   7.070  71.262  1.00  0.00    -0.061 A  
HETATM   13  N   UNL     1      -7.566   5.755  71.387  1.00  0.00    -0.102 NA 
HETATM   14  C   UNL     1      -7.378   5.046  72.671  1.00  0.00    -0.090 C  
HETATM   15  C   UNL     1      -8.214   4.926  70.397  1.00  0.00    -0.088 A  
HETATM   16  C   UNL     1      -8.941   3.766  70.758  1.00  0.00    -0.157 A  
HETATM   17  C   UNL     1      -9.521   2.901  69.814  1.00  0.00    -0.167 A  
HETATM   18  C   UNL     1      -9.383   3.150  68.457  1.00  0.00    -0.240 A  
HETATM   19  C   UNL     1      -8.709   4.291  68.052  1.00  0.00    -0.120 A  
HETATM   20  C   UNL     1      -8.178   5.175  69.010  1.00  0.00    -0.088 A  
HETATM   21  C   UNL     1      -7.665   6.438  68.477  1.00  0.00    -0.104 C  
HETATM   22  O   UNL     1      -6.878   6.445  67.534  1.00  0.00    -0.070 OA 
ENDBRANCH   5   6
ENDBRANCH   4   5
ENDBRANCH   2   4
TORSDOF 3
ENDMDL
MODEL      188
REMARK 921   NORMALIZED FREE ENERGY PREDICTED BY IDOCK:   -2.53 KCAL/MOL
REMARK 922        TOTAL FREE ENERGY PREDICTED BY IDOCK:   -3.11 KCAL/MOL
REMARK 923 INTER-LIGAND FREE ENERGY PREDICTED BY IDOCK:   -3.68 KCAL/MOL
REMARK 924 INTRA-LIGAND FREE ENERGY PREDICTED BY IDOCK:    0.58 KCAL/MOL
REMARK 927      BINDING AFFINITY PREDICTED BY RF-SCORE:    0.00 PKD
ROOT
HETATM    1  C   UNL     1     -11.144   5.974  68.483  1.00  0.00    -0.191 C  
HETATM    2  N   UNL     1      -9.779   5.504  68.752  1.00  0.00    -0.135 NA 
HETATM    3  C   UNL     1      -8.963   5.671  67.549  1.00  0.00    -0.107 C  
ENDROOT
BRANCH   2   4
HETATM    4  C   UNL     1      -9.238   6.243  69.912  1.00  0.00    -0.151 C  
BRANCH   4   5
HETATM    5  C   UNL     1      -7.837   6.863  69.732  1.00  0.00    -0.115 C  
BRANCH   5   6
HETATM    6  N   UNL     1      -7.867   8.342  69.608  1.00  0.00    -0.100 N  
HETATM    7  C   UNL     1      -9.118   8.874  69.205  1.00  0.00    -0.141 A  
HETATM    8  C   UNL     1      -9.177   9.242  67.843  1.00  0.00    -0.140 A  
HETATM    9  C   UNL     1     -10.324   9.807  67.315  1.00  0.00    -0.308 A  
HETATM   10  C   UNL     1     -11.410  10.005  68.148  1.00  0.00    -0.100 A  
HETATM   11  C   UNL     1     -11.339   9.655  69.511  1.00  0.00    -0.080 A  
HETATM   12  C   UNL     1     -10.192   9.084  70.110  1.00  0.00    -0.197 A  
HETATM   13  N   UNL     1     -10.138   8.727  71.501  1.00  0.00    -0.272 NA 
HETATM   14  C   UNL     1     -11.401   8.763  72.269  1.00  0.00    -0.285 C  
HETATM   15  C   UNL     1      -8.999   8.437  72.339  1.00  0.00    -0.239 A  
HETATM   16  C   UNL     1      -9.146   7.849  73.619  1.00  0.00    -0.337 A  
HETATM   17  C   UNL     1      -8.063   7.621  74.486  1.00  0.00    -0.256 A  
HETATM   18  C   UNL     1      -6.779   7.989  74.117  1.00  0.00    -0.140 A  
HETATM   19  C   UNL     1      -6.577   8.537  72.860  1.00  0.00    -0.079 A  
HETATM   20  C   UNL     1      -7.663   8.712  71.983  1.00  0.00    -0.096 A  
HETATM   21  C   UNL     1      -7.306   9.111  70.620  1.00  0.00    -0.111 C  
HETATM   22  O   UNL     1      -6.553  10.061  70.424  1.00  0.00    -0.106 OA 
ENDBRANCH   5   6
ENDBRANCH   4   5
ENDBRANCH   2   4
TORSDOF 3
ENDMDL
MODEL      189
REMARK 921   NORMALIZED FREE ENERGY PREDICTED BY IDOCK:   -2.49 KCAL/MOL
REMARK 922        TOTAL FREE ENERGY PREDICTED BY IDOCK:   -3.06 KCAL/MOL
REMARK 923 INTER-LIGAND FREE ENERGY PREDICTED BY IDOCK:   -2.78 KCAL/MOL
REMARK 924 INTRA-LIGAND FREE ENERGY PREDICTED BY IDOCK:   -0.28 KCAL/MOL
REMARK 927      BINDING AFFINITY PREDICTED BY RF-SCORE:    0.00 PKD
ROOT
HETATM    1  C   UNL     1     -10.682   5.344  71.758  1.00  0.00    -0.204 C  
HETATM    2  N   UNL     1      -9.571   4.523  72.257  1.00  0.00    -0.147 NA 
HETATM    3  C   UNL     1      -9.993   3.124  72.321  1.00  0.00    -0.166 C  
ENDROOT
BRANCH   2   4
HETATM    4  C   UNL     1      -8.398   4.723  71.381  1.00  0.00    -0.108 C  
BRANCH   4   5
HETATM    5  C   UNL     1      -8.410   5.994  70.505  1.00  0.00    -0.128 C  
BRANCH   5   6
HETATM    6  N   UNL     1      -7.679   5.825  69.225  1.00  0.00    -0.088 N  
HETATM    7  C   UNL     1      -8.466   5.320  68.159  1.00  0.00    -0.096 A  
HETATM    8  C   UNL     1      -8.269   3.947  67.895  1.00  0.00    -0.095 A  
HETATM    9  C   UNL     1      -8.945   3.324  66.861  1.00  0.00    -0.174 A  
HETATM   10  C   UNL     1      -9.816   4.074  66.092  1.00  0.00    -0.176 A  
HETATM   11  C   UNL     1      -9.994   5.448  66.346  1.00  0.00    -0.218 A  
HETATM   12  C   UNL     1      -9.325   6.142  67.381  1.00  0.00    -0.115 A  
HETATM   13  N   UNL     1      -9.522   7.543  67.631  1.00  0.00    -0.136 NA 
HETATM   14  C   UNL     1     -10.625   8.220  66.915  1.00  0.00    -0.232 C  
HETATM   15  C   UNL     1      -8.727   8.467  68.406  1.00  0.00    -0.136 A  
HETATM   16  C   UNL     1      -9.210   9.750  68.760  1.00  0.00    -0.143 A  
HETATM   17  C   UNL     1      -8.434  10.697  69.450  1.00  0.00    -0.058 A  
HETATM   18  C   UNL     1      -7.125  10.406  69.805  1.00  0.00    -0.148 A  
HETATM   19  C   UNL     1      -6.616   9.151  69.512  1.00  0.00    -0.043 A  
HETATM   20  C   UNL     1      -7.422   8.196  68.865  1.00  0.00    -0.089 A  
HETATM   21  C   UNL     1      -6.851   6.850  68.785  1.00  0.00    -0.066 C  
HETATM   22  O   UNL     1      -5.712   6.679  68.359  1.00  0.00    -0.015 OA 
ENDBRANCH   5   6
ENDBRANCH   4   5
ENDBRANCH   2   4
TORSDOF 3
ENDMDL
MODEL      190
REMARK 921   NORMALIZED FREE ENERGY PREDICTED BY IDOCK:   -2.46 KCAL/MOL
REMARK 922        TOTAL FREE ENERGY PREDICTED BY IDOCK:   -3.03 KCAL/MOL
REMARK 923 INTER-LIGAND FREE ENERGY PREDICTED BY IDOCK:   -2.70 KCAL/MOL
REMARK 924 INTRA-LIGAND FREE ENERGY PREDICTED BY IDOCK:   -0.33 KCAL/MOL
REMARK 927      BINDING AFFINITY PREDICTED BY RF-SCORE:    0.00 PKD
ROOT
HETATM    1  C   UNL     1      -5.737   9.634  64.575  1.00  0.00    -0.080 C  
HETATM    2  N   UNL     1      -6.622  10.011  65.685  1.00  0.00    -0.097 NA 
HETATM    3  C   UNL     1      -6.019  11.115  66.432  1.00  0.00    -0.145 C  
ENDROOT
BRANCH   2   4
HETATM    4  C   UNL     1      -7.953  10.353  65.141  1.00  0.00    -0.134 C  
BRANCH   4   5
HETATM    5  C   UNL     1      -8.785  11.362  65.961  1.00  0.00    -0.131 C  
BRANCH   5   6
HETATM    6  N   UNL     1     -10.131  10.850  66.318  1.00  0.00    -0.226 N  
HETATM    7  C   UNL     1     -10.244  10.364  67.646  1.00  0.00    -0.201 A  
HETATM    8  C   UNL     1     -10.212   8.957  67.751  1.00  0.00    -0.283 A  
HETATM    9  C   UNL     1     -10.345   8.338  68.981  1.00  0.00    -0.233 A  
HETATM   10  C   UNL     1     -10.511   9.127  70.105  1.00  0.00    -0.249 A  
HETATM   11  C   UNL     1     -10.563  10.530  69.993  1.00  0.00    -0.223 A  
HETATM   12  C   UNL     1     -10.443  11.219  68.763  1.00  0.00    -0.208 A  
HETATM   13  N   UNL     1     -10.493  12.652  68.666  1.00  0.00    -0.230 NA 
HETATM   14  C   UNL     1     -10.450  13.427  69.925  1.00  0.00     1.041 C  
HETATM   15  C   UNL     1     -10.698  13.496  67.513  1.00  0.00    -0.259 A  
HETATM   16  C   UNL     1     -10.455  14.891  67.558  1.00  0.00    -0.254 A  
HETATM   17  C   UNL     1     -10.715  15.748  66.474  1.00  0.00    -0.283 A  
HETATM   18  C   UNL     1     -11.247  15.248  65.296  1.00  0.00    -0.338 A  
HETATM   19  C   UNL     1     -11.470  13.885  65.189  1.00  0.00    -0.324 A  
HETATM   20  C   UNL     1     -11.158  13.032  66.264  1.00  0.00    -0.314 A  
HETATM   21  C   UNL     1     -11.248  11.600  65.970  1.00  0.00    -0.240 C  
HETATM   22  O   UNL     1     -12.253  11.132  65.445  1.00  0.00     0.709 OA 
ENDBRANCH   5   6
ENDBRANCH   4   5
ENDBRANCH   2   4
TORSDOF 3
ENDMDL
MODEL      191
REMARK 921   NORMALIZED FREE ENERGY PREDICTED BY IDOCK:   -2.40 KCAL/MOL
REMARK 922        TOTAL FREE ENERGY PREDICTED BY IDOCK:   -2.96 KCAL/MOL
REMARK 923 INTER-LIGAND FREE ENERGY PREDICTED BY IDOCK:   -3.51 KCAL/MOL
REMARK 924 INTRA-LIGAND FREE ENERGY PREDICTED BY IDOCK:    0.56 KCAL/MOL
REMARK 927      BINDING AFFINITY PREDICTED BY RF-SCORE:    0.00 PKD
ROOT
HETATM    1  C   UNL     1     -11.904  11.835  65.972  1.00  0.00     0.121 C  
HETATM    2  N   UNL     1     -11.250  12.592  64.897  1.00  0.00    -0.288 NA 
HETATM    3  C   UNL     1     -12.267  13.114  63.983  1.00  0.00    -0.414 C  
ENDROOT
BRANCH   2   4
HETATM    4  C   UNL     1     -10.424  13.661  65.497  1.00  0.00    -0.306 C  
BRANCH   4   5
HETATM    5  C   UNL     1      -9.076  13.219  66.105  1.00  0.00     0.123 C  
BRANCH   5   6
HETATM    6  N   UNL     1      -9.232  12.400  67.332  1.00  0.00    -0.178 N  
HETATM    7  C   UNL     1      -8.022  11.860  67.837  1.00  0.00    -0.144 A  
HETATM    8  C   UNL     1      -7.826  10.495  67.533  1.00  0.00    -0.106 A  
HETATM    9  C   UNL     1      -6.706   9.825  67.989  1.00  0.00    -0.061 A  
HETATM   10  C   UNL     1      -5.782  10.518  68.750  1.00  0.00    -0.040 A  
HETATM   11  C   UNL     1      -5.991  11.874  69.068  1.00  0.00    -0.066 A  
HETATM   12  C   UNL     1      -7.120  12.610  68.640  1.00  0.00    -0.096 A  
HETATM   13  N   UNL     1      -7.317  13.995  68.968  1.00  0.00    -0.110 NA 
HETATM   14  C   UNL     1      -6.188  14.720  69.592  1.00  0.00    -0.133 C  
HETATM   15  C   UNL     1      -8.510  14.805  68.895  1.00  0.00    -0.159 A  
HETATM   16  C   UNL     1      -8.461  16.216  69.010  1.00  0.00    -0.251 A  
HETATM   17  C   UNL     1      -9.612  17.024  69.015  1.00  0.00    -0.197 A  
HETATM   18  C   UNL     1     -10.871  16.451  68.923  1.00  0.00    -0.334 A  
HETATM   19  C   UNL     1     -10.972  15.077  68.775  1.00  0.00    -0.259 A  
HETATM   20  C   UNL     1      -9.809  14.286  68.720  1.00  0.00    -0.189 A  
HETATM   21  C   UNL     1     -10.026  12.883  68.365  1.00  0.00    -0.211 C  
HETATM   22  O   UNL     1     -10.867  12.211  68.955  1.00  0.00    -0.216 OA 
ENDBRANCH   5   6
ENDBRANCH   4   5
ENDBRANCH   2   4
TORSDOF 3
ENDMDL
MODEL      192
REMARK 921   NORMALIZED FREE ENERGY PREDICTED BY IDOCK:   -2.34 KCAL/MOL
REMARK 922        TOTAL FREE ENERGY PREDICTED BY IDOCK:   -2.89 KCAL/MOL
REMARK 923 INTER-LIGAND FREE ENERGY PREDICTED BY IDOCK:   -2.48 KCAL/MOL
REMARK 924 INTRA-LIGAND FREE ENERGY PREDICTED BY IDOCK:   -0.41 KCAL/MOL
REMARK 927      BINDING AFFINITY PREDICTED BY RF-SCORE:    0.00 PKD
ROOT
HETATM    1  C   UNL     1      -5.962  10.558  67.846  1.00  0.00    -0.043 C  
HETATM    2  N   UNL     1      -6.166   9.910  69.149  1.00  0.00    -0.043 NA 
HETATM    3  C   UNL     1      -7.461  10.315  69.694  1.00  0.00    -0.158 C  
ENDROOT
BRANCH   2   4
HETATM    4  C   UNL     1      -6.053   8.447  68.977  1.00  0.00    -0.043 C  
BRANCH   4   5
HETATM    5  C   UNL     1      -7.144   7.595  69.660  1.00  0.00    -0.064 C  
BRANCH   5   6
HETATM    6  N   UNL     1      -6.631   6.802  70.804  1.00  0.00    -0.051 N  
HETATM    7  C   UNL     1      -7.253   7.087  72.046  1.00  0.00    -0.081 A  
HETATM    8  C   UNL     1      -6.488   7.912  72.899  1.00  0.00    -0.073 A  
HETATM    9  C   UNL     1      -6.953   8.248  74.158  1.00  0.00    -0.187 A  
HETATM   10  C   UNL     1      -8.182   7.758  74.563  1.00  0.00    -0.259 A  
HETATM   11  C   UNL     1      -8.932   6.919  73.717  1.00  0.00    -0.187 A  
HETATM   12  C   UNL     1      -8.505   6.533  72.425  1.00  0.00    -0.118 A  
HETATM   13  N   UNL     1      -9.284   5.680  71.571  1.00  0.00    -0.143 NA 
HETATM   14  C   UNL     1     -10.673   5.380  71.982  1.00  0.00    -0.220 C  
HETATM   15  C   UNL     1      -8.895   4.945  70.390  1.00  0.00    -0.104 A  
HETATM   16  C   UNL     1      -9.854   4.365  69.524  1.00  0.00    -0.258 A  
HETATM   17  C   UNL     1      -9.505   3.584  68.409  1.00  0.00    -0.209 A  
HETATM   18  C   UNL     1      -8.173   3.332  68.118  1.00  0.00    -0.088 A  
HETATM   19  C   UNL     1      -7.195   3.905  68.916  1.00  0.00    -0.054 A  
HETATM   20  C   UNL     1      -7.559   4.727  69.998  1.00  0.00    -0.055 A  
HETATM   21  C   UNL     1      -6.452   5.433  70.645  1.00  0.00    -0.035 C  
HETATM   22  O   UNL     1      -5.446   4.826  71.001  1.00  0.00    -0.007 OA 
ENDBRANCH   5   6
ENDBRANCH   4   5
ENDBRANCH   2   4
TORSDOF 3
ENDMDL
MODEL      193
REMARK 921   NORMALIZED FREE ENERGY PREDICTED BY IDOCK:   -2.32 KCAL/MOL
REMARK 922        TOTAL FREE ENERGY PREDICTED BY IDOCK:   -2.87 KCAL/MOL
REMARK 923 INTER-LIGAND FREE ENERGY PREDICTED BY IDOCK:   -2.57 KCAL/MOL
REMARK 924 INTRA-LIGAND FREE ENERGY PREDICTED BY IDOCK:   -0.29 KCAL/MOL
REMARK 927      BINDING AFFINITY PREDICTED BY RF-SCORE:    0.00 PKD
ROOT
HETATM    1  C   UNL     1      -7.510  11.199  62.407  1.00  0.00     0.098 C  
HETATM    2  N   UNL     1      -8.231  10.344  63.360  1.00  0.00    -0.160 NA 
HETATM    3  C   UNL     1      -8.972   9.318  62.627  1.00  0.00    -0.148 C  
ENDROOT
BRANCH   2   4
HETATM    4  C   UNL     1      -7.261   9.771  64.317  1.00  0.00    -0.129 C  
BRANCH   4   5
HETATM    5  C   UNL     1      -7.778   8.616  65.200  1.00  0.00    -0.101 C  
BRANCH   5   6
HETATM    6  N   UNL     1      -7.445   8.789  66.636  1.00  0.00    -0.085 N  
HETATM    7  C   UNL     1      -8.473   9.381  67.413  1.00  0.00    -0.125 A  
HETATM    8  C   UNL     1      -8.268  10.748  67.698  1.00  0.00    -0.115 A  
HETATM    9  C   UNL     1      -9.172  11.450  68.474  1.00  0.00    -0.174 A  
HETATM   10  C   UNL     1     -10.280  10.785  68.966  1.00  0.00    -0.229 A  
HETATM   11  C   UNL     1     -10.471   9.415  68.697  1.00  0.00    -0.236 A  
HETATM   12  C   UNL     1      -9.577   8.643  67.918  1.00  0.00    -0.149 A  
HETATM   13  N   UNL     1      -9.788   7.248  67.647  1.00  0.00    -0.144 NA 
HETATM   14  C   UNL     1     -11.097   6.666  68.017  1.00  0.00    -0.205 C  
HETATM   15  C   UNL     1      -8.867   6.249  67.158  1.00  0.00    -0.109 A  
HETATM   16  C   UNL     1      -9.312   4.985  66.701  1.00  0.00    -0.138 A  
HETATM   17  C   UNL     1      -8.435   3.967  66.288  1.00  0.00    -0.109 A  
HETATM   18  C   UNL     1      -7.063   4.164  66.330  1.00  0.00    -0.067 A  
HETATM   19  C   UNL     1      -6.577   5.396  66.737  1.00  0.00    -0.056 A  
HETATM   20  C   UNL     1      -7.469   6.422  67.099  1.00  0.00    -0.084 A  
HETATM   21  C   UNL     1      -6.855   7.733  67.320  1.00  0.00    -0.069 C  
HETATM   22  O   UNL     1      -5.882   7.851  68.059  1.00  0.00    -0.038 OA 
ENDBRANCH   5   6
ENDBRANCH   4   5
ENDBRANCH   2   4
TORSDOF 3
ENDMDL
MODEL      194
REMARK 921   NORMALIZED FREE ENERGY PREDICTED BY IDOCK:   -2.28 KCAL/MOL
REMARK 922        TOTAL FREE ENERGY PREDICTED BY IDOCK:   -2.81 KCAL/MOL
REMARK 923 INTER-LIGAND FREE ENERGY PREDICTED BY IDOCK:   -2.95 KCAL/MOL
REMARK 924 INTRA-LIGAND FREE ENERGY PREDICTED BY IDOCK:    0.14 KCAL/MOL
REMARK 927      BINDING AFFINITY PREDICTED BY RF-SCORE:    0.00 PKD
ROOT
HETATM    1  C   UNL     1     -12.367  10.850  69.704  1.00  0.00    -0.221 C  
HETATM    2  N   UNL     1     -11.918  10.996  68.314  1.00  0.00    -0.597 NA 
HETATM    3  C   UNL     1     -11.480  12.373  68.088  1.00  0.00    -0.318 C  
ENDROOT
BRANCH   2   4
HETATM    4  C   UNL     1     -10.849  10.009  68.050  1.00  0.00    -0.260 C  
BRANCH   4   5
HETATM    5  C   UNL     1      -9.540  10.195  68.846  1.00  0.00    -0.184 C  
BRANCH   5   6
HETATM    6  N   UNL     1      -8.870   8.911  69.169  1.00  0.00    -0.135 N  
HETATM    7  C   UNL     1      -9.563   7.756  68.725  1.00  0.00    -0.154 A  
HETATM    8  C   UNL     1     -10.275   7.083  69.742  1.00  0.00    -0.213 A  
HETATM    9  C   UNL     1     -10.972   5.921  69.464  1.00  0.00    -0.438 A  
HETATM   10  C   UNL     1     -10.956   5.432  68.170  1.00  0.00     0.267 A  
HETATM   11  C   UNL     1     -10.227   6.095  67.164  1.00  0.00    -0.246 A  
HETATM   12  C   UNL     1      -9.488   7.280  67.389  1.00  0.00    -0.132 A  
HETATM   13  N   UNL     1      -8.754   7.948  66.350  1.00  0.00    -0.144 NA 
HETATM   14  C   UNL     1      -8.964   7.492  64.959  1.00  0.00     0.459 C  
HETATM   15  C   UNL     1      -7.721   8.953  66.444  1.00  0.00    -0.095 A  
HETATM   16  C   UNL     1      -7.293   9.689  65.312  1.00  0.00    -0.113 A  
HETATM   17  C   UNL     1      -6.241  10.621  65.359  1.00  0.00    -0.071 A  
HETATM   18  C   UNL     1      -5.556  10.847  66.542  1.00  0.00    -0.099 A  
HETATM   19  C   UNL     1      -5.958  10.177  67.686  1.00  0.00    -0.053 A  
HETATM   20  C   UNL     1      -7.046   9.285  67.636  1.00  0.00    -0.082 A  
HETATM   21  C   UNL     1      -7.506   8.788  68.934  1.00  0.00    -0.083 C  
HETATM   22  O   UNL     1      -6.710   8.311  69.739  1.00  0.00    -0.039 OA 
ENDBRANCH   5   6
ENDBRANCH   4   5
ENDBRANCH   2   4
TORSDOF 3
ENDMDL
MODEL      195
REMARK 921   NORMALIZED FREE ENERGY PREDICTED BY IDOCK:   -2.27 KCAL/MOL
REMARK 922        TOTAL FREE ENERGY PREDICTED BY IDOCK:   -2.80 KCAL/MOL
REMARK 923 INTER-LIGAND FREE ENERGY PREDICTED BY IDOCK:   -3.15 KCAL/MOL
REMARK 924 INTRA-LIGAND FREE ENERGY PREDICTED BY IDOCK:    0.34 KCAL/MOL
REMARK 927      BINDING AFFINITY PREDICTED BY RF-SCORE:    0.00 PKD
ROOT
HETATM    1  C   UNL     1     -12.444  10.938  69.829  1.00  0.00    -0.182 C  
HETATM    2  N   UNL     1     -11.352  10.925  68.847  1.00  0.00    -0.264 NA 
HETATM    3  C   UNL     1     -10.661  12.214  68.874  1.00  0.00    -0.146 C  
ENDROOT
BRANCH   2   4
HETATM    4  C   UNL     1     -10.453   9.791  69.146  1.00  0.00    -0.215 C  
BRANCH   4   5
HETATM    5  C   UNL     1     -10.868   8.885  70.325  1.00  0.00    -0.239 C  
BRANCH   5   6
HETATM    6  N   UNL     1     -10.500   7.462  70.122  1.00  0.00    -0.215 N  
HETATM    7  C   UNL     1     -10.045   7.152  68.815  1.00  0.00    -0.173 A  
HETATM    8  C   UNL     1     -11.009   6.516  68.003  1.00  0.00    -0.368 A  
HETATM    9  C   UNL     1     -10.698   6.124  66.714  1.00  0.00    -0.371 A  
HETATM   10  C   UNL     1      -9.422   6.366  66.237  1.00  0.00    -0.133 A  
HETATM   11  C   UNL     1      -8.457   6.982  67.057  1.00  0.00    -0.121 A  
HETATM   12  C   UNL     1      -8.713   7.396  68.386  1.00  0.00    -0.123 A  
HETATM   13  N   UNL     1      -7.719   8.028  69.208  1.00  0.00    -0.100 NA 
HETATM   14  C   UNL     1      -6.458   8.450  68.560  1.00  0.00    -0.055 C  
HETATM   15  C   UNL     1      -7.691   8.231  70.638  1.00  0.00    -0.083 A  
HETATM   16  C   UNL     1      -6.758   9.104  71.249  1.00  0.00    -0.073 A  
HETATM   17  C   UNL     1      -6.659   9.266  72.641  1.00  0.00     0.418 A  
HETATM   18  C   UNL     1      -7.482   8.544  73.492  1.00  0.00    -0.050 A  
HETATM   19  C   UNL     1      -8.435   7.701  72.943  1.00  0.00    -0.185 A  
HETATM   20  C   UNL     1      -8.557   7.588  71.545  1.00  0.00    -0.123 A  
HETATM   21  C   UNL     1      -9.719   6.828  71.080  1.00  0.00    -0.174 C  
HETATM   22  O   UNL     1      -9.959   5.713  71.534  1.00  0.00    -0.170 OA 
ENDBRANCH   5   6
ENDBRANCH   4   5
ENDBRANCH   2   4
TORSDOF 3
ENDMDL
MODEL      196
REMARK 921   NORMALIZED FREE ENERGY PREDICTED BY IDOCK:   -2.21 KCAL/MOL
REMARK 922        TOTAL FREE ENERGY PREDICTED BY IDOCK:   -2.73 KCAL/MOL
REMARK 923 INTER-LIGAND FREE ENERGY PREDICTED BY IDOCK:   -2.73 KCAL/MOL
REMARK 924 INTRA-LIGAND FREE ENERGY PREDICTED BY IDOCK:    0.00 KCAL/MOL
REMARK 927      BINDING AFFINITY PREDICTED BY RF-SCORE:    0.00 PKD
ROOT
HETATM    1  C   UNL     1     -12.183   6.786  71.347  1.00  0.00    -0.363 C  
HETATM    2  N   UNL     1     -11.236   6.428  72.411  1.00  0.00    -0.265 NA 
HETATM    3  C   UNL     1     -11.498   5.059  72.854  1.00  0.00    -0.226 C  
ENDROOT
BRANCH   2   4
HETATM    4  C   UNL     1      -9.859   6.608  71.905  1.00  0.00    -0.166 C  
BRANCH   4   5
HETATM    5  C   UNL     1      -9.717   6.843  70.386  1.00  0.00    -0.172 C  
BRANCH   5   6
HETATM    6  N   UNL     1      -8.323   7.140  69.972  1.00  0.00    -0.136 N  
HETATM    7  C   UNL     1      -7.332   6.716  70.893  1.00  0.00    -0.082 A  
HETATM    8  C   UNL     1      -6.803   7.754  71.691  1.00  0.00    -0.058 A  
HETATM    9  C   UNL     1      -5.804   7.497  72.612  1.00  0.00    -0.040 A  
HETATM   10  C   UNL     1      -5.333   6.201  72.734  1.00  0.00    -0.031 A  
HETATM   11  C   UNL     1      -5.848   5.173  71.922  1.00  0.00    -0.024 A  
HETATM   12  C   UNL     1      -6.863   5.377  70.957  1.00  0.00    -0.045 A  
HETATM   13  N   UNL     1      -7.383   4.316  70.140  1.00  0.00    -0.045 NA 
HETATM   14  C   UNL     1      -6.990   2.931  70.480  1.00  0.00    -0.033 C  
HETATM   15  C   UNL     1      -8.164   4.378  68.927  1.00  0.00    -0.079 A  
HETATM   16  C   UNL     1      -8.812   3.234  68.398  1.00  0.00    -0.162 A  
HETATM   17  C   UNL     1      -9.518   3.248  67.183  1.00  0.00    -0.178 A  
HETATM   18  C   UNL     1      -9.593   4.408  66.428  1.00  0.00    -0.205 A  
HETATM   19  C   UNL     1      -9.005   5.563  66.918  1.00  0.00    -0.111 A  
HETATM   20  C   UNL     1      -8.345   5.547  68.161  1.00  0.00    -0.099 A  
HETATM   21  C   UNL     1      -7.937   6.859  68.667  1.00  0.00    -0.120 C  
HETATM   22  O   UNL     1      -7.305   7.634  67.956  1.00  0.00    -0.093 OA 
ENDBRANCH   5   6
ENDBRANCH   4   5
ENDBRANCH   2   4
TORSDOF 3
ENDMDL
MODEL      197
REMARK 921   NORMALIZED FREE ENERGY PREDICTED BY IDOCK:   -2.09 KCAL/MOL
REMARK 922        TOTAL FREE ENERGY PREDICTED BY IDOCK:   -2.59 KCAL/MOL
REMARK 923 INTER-LIGAND FREE ENERGY PREDICTED BY IDOCK:   -2.71 KCAL/MOL
REMARK 924 INTRA-LIGAND FREE ENERGY PREDICTED BY IDOCK:    0.12 KCAL/MOL
REMARK 927      BINDING AFFINITY PREDICTED BY RF-SCORE:    0.00 PKD
ROOT
HETATM    1  C   UNL     1      -9.401   9.089  67.015  1.00  0.00    -0.150 C  
HETATM    2  N   UNL     1      -8.235   8.309  66.580  1.00  0.00    -0.104 NA 
HETATM    3  C   UNL     1      -7.175   9.221  66.149  1.00  0.00    -0.091 C  
ENDROOT
BRANCH   2   4
HETATM    4  C   UNL     1      -7.810   7.426  67.686  1.00  0.00    -0.113 C  
BRANCH   4   5
HETATM    5  C   UNL     1      -8.701   7.436  68.946  1.00  0.00    -0.132 C  
BRANCH   5   6
HETATM    6  N   UNL     1      -9.633   6.283  69.008  1.00  0.00    -0.127 N  
HETATM    7  C   UNL     1      -9.531   5.383  67.916  1.00  0.00    -0.120 A  
HETATM    8  C   UNL     1     -10.546   5.532  66.947  1.00  0.00    -0.348 A  
HETATM    9  C   UNL     1     -10.594   4.702  65.842  1.00  0.00    -0.265 A  
HETATM   10  C   UNL     1      -9.627   3.721  65.707  1.00  0.00    -0.165 A  
HETATM   11  C   UNL     1      -8.629   3.562  66.688  1.00  0.00    -0.113 A  
HETATM   12  C   UNL     1      -8.534   4.373  67.842  1.00  0.00    -0.098 A  
HETATM   13  N   UNL     1      -7.505   4.202  68.831  1.00  0.00    -0.055 NA 
HETATM   14  C   UNL     1      -6.389   3.286  68.509  1.00  0.00    -0.032 C  
HETATM   15  C   UNL     1      -7.427   4.703  70.183  1.00  0.00    -0.054 A  
HETATM   16  C   UNL     1      -6.222   4.656  70.926  1.00  0.00    -0.019 A  
HETATM   17  C   UNL     1      -6.133   5.069  72.267  1.00  0.00    -0.026 A  
HETATM   18  C   UNL     1      -7.256   5.534  72.934  1.00  0.00    -0.091 A  
HETATM   19  C   UNL     1      -8.452   5.631  72.241  1.00  0.00    -0.119 A  
HETATM   20  C   UNL     1      -8.514   5.263  70.884  1.00  0.00    -0.121 A  
HETATM   21  C   UNL     1      -9.768   5.592  70.206  1.00  0.00    -0.178 C  
HETATM   22  O   UNL     1     -10.847   5.271  70.696  1.00  0.00    -0.189 OA 
ENDBRANCH   5   6
ENDBRANCH   4   5
ENDBRANCH   2   4
TORSDOF 3
ENDMDL
MODEL      198
REMARK 921   NORMALIZED FREE ENERGY PREDICTED BY IDOCK:   -2.06 KCAL/MOL
REMARK 922        TOTAL FREE ENERGY PREDICTED BY IDOCK:   -2.56 KCAL/MOL
REMARK 923 INTER-LIGAND FREE ENERGY PREDICTED BY IDOCK:   -2.39 KCAL/MOL
REMARK 924 INTRA-LIGAND FREE ENERGY PREDICTED BY IDOCK:   -0.17 KCAL/MOL
REMARK 927      BINDING AFFINITY PREDICTED BY RF-SCORE:    0.00 PKD
ROOT
HETATM    1  C   UNL     1      -5.851   8.233  73.156  1.00  0.00    -0.069 C  
HETATM    2  N   UNL     1      -6.263   9.232  72.162  1.00  0.00    -0.280 NA 
HETATM    3  C   UNL     1      -5.197   9.404  71.175  1.00  0.00    -0.043 C  
ENDROOT
BRANCH   2   4
HETATM    4  C   UNL     1      -7.539   8.802  71.552  1.00  0.00    -0.096 C  
BRANCH   4   5
HETATM    5  C   UNL     1      -7.427   7.945  70.273  1.00  0.00    -0.077 C  
BRANCH   5   6
HETATM    6  N   UNL     1      -7.488   6.487  70.543  1.00  0.00    -0.088 N  
HETATM    7  C   UNL     1      -8.642   6.066  71.251  1.00  0.00    -0.129 A  
HETATM    8  C   UNL     1      -8.421   5.821  72.623  1.00  0.00    -0.120 A  
HETATM    9  C   UNL     1      -9.448   5.373  73.434  1.00  0.00    -0.137 A  
HETATM   10  C   UNL     1     -10.695   5.168  72.872  1.00  0.00    -0.300 A  
HETATM   11  C   UNL     1     -10.906   5.394  71.497  1.00  0.00    -0.218 A  
HETATM   12  C   UNL     1      -9.894   5.843  70.617  1.00  0.00    -0.183 A  
HETATM   13  N   UNL     1     -10.126   6.074  69.218  1.00  0.00    -0.171 NA 
HETATM   14  C   UNL     1     -11.526   6.047  68.741  1.00  0.00     0.296 C  
HETATM   15  C   UNL     1      -9.184   6.224  68.135  1.00  0.00    -0.110 A  
HETATM   16  C   UNL     1      -9.580   6.707  66.864  1.00  0.00    -0.194 A  
HETATM   17  C   UNL     1      -8.702   6.795  65.770  1.00  0.00    -0.122 A  
HETATM   18  C   UNL     1      -7.383   6.385  65.894  1.00  0.00    -0.080 A  
HETATM   19  C   UNL     1      -6.937   5.936  67.127  1.00  0.00    -0.069 A  
HETATM   20  C   UNL     1      -7.814   5.902  68.226  1.00  0.00    -0.105 A  
HETATM   21  C   UNL     1      -7.188   5.602  69.515  1.00  0.00    -0.066 C  
HETATM   22  O   UNL     1      -6.448   4.630  69.639  1.00  0.00    -0.030 OA 
ENDBRANCH   5   6
ENDBRANCH   4   5
ENDBRANCH   2   4
TORSDOF 3
ENDMDL
MODEL      199
REMARK 921   NORMALIZED FREE ENERGY PREDICTED BY IDOCK:   -1.80 KCAL/MOL
REMARK 922        TOTAL FREE ENERGY PREDICTED BY IDOCK:   -2.25 KCAL/MOL
REMARK 923 INTER-LIGAND FREE ENERGY PREDICTED BY IDOCK:   -2.51 KCAL/MOL
REMARK 924 INTRA-LIGAND FREE ENERGY PREDICTED BY IDOCK:    0.26 KCAL/MOL
REMARK 927      BINDING AFFINITY PREDICTED BY RF-SCORE:    0.00 PKD
ROOT
HETATM    1  C   UNL     1     -10.784  15.285  64.954  1.00  0.00    -0.400 C  
HETATM    2  N   UNL     1     -11.779  15.240  66.033  1.00  0.00    -0.006 NA 
HETATM    3  C   UNL     1     -12.532  13.988  65.947  1.00  0.00    -0.481 C  
ENDROOT
BRANCH   2   4
HETATM    4  C   UNL     1     -11.085  15.397  67.329  1.00  0.00    -0.302 C  
BRANCH   4   5
HETATM    5  C   UNL     1      -9.723  14.683  67.464  1.00  0.00    -0.210 C  
BRANCH   5   6
HETATM    6  N   UNL     1      -9.235  14.622  68.863  1.00  0.00    -0.182 N  
HETATM    7  C   UNL     1      -7.905  14.150  69.003  1.00  0.00    -0.010 A  
HETATM    8  C   UNL     1      -7.809  12.805  69.421  1.00  0.00     0.734 A  
HETATM    9  C   UNL     1      -6.575  12.218  69.632  1.00  0.00    -0.020 A  
HETATM   10  C   UNL     1      -5.436  12.977  69.427  1.00  0.00    -0.080 A  
HETATM   11  C   UNL     1      -5.537  14.325  69.030  1.00  0.00    -0.088 A  
HETATM   12  C   UNL     1      -6.770  14.982  68.808  1.00  0.00    -0.099 A  
HETATM   13  N   UNL     1      -6.856  16.356  68.399  1.00  0.00    -0.138 NA 
HETATM   14  C   UNL     1      -5.604  17.030  67.989  1.00  0.00    -0.120 C  
HETATM   15  C   UNL     1      -7.979  17.263  68.425  1.00  0.00    -0.253 A  
HETATM   16  C   UNL     1      -7.953  18.502  67.740  1.00  0.00    -0.263 A  
HETATM   17  C   UNL     1      -9.001  19.436  67.806  1.00  0.00    -0.365 A  
HETATM   18  C   UNL     1     -10.122  19.178  68.580  1.00  0.00    -0.471 A  
HETATM   19  C   UNL     1     -10.212  17.965  69.243  1.00  0.00    -0.078 A  
HETATM   20  C   UNL     1      -9.177  17.018  69.126  1.00  0.00    -0.073 A  
HETATM   21  C   UNL     1      -9.466  15.704  69.703  1.00  0.00    -0.243 C  
HETATM   22  O   UNL     1      -9.891  15.605  70.851  1.00  0.00     0.636 OA 
ENDBRANCH   5   6
ENDBRANCH   4   5
ENDBRANCH   2   4
TORSDOF 3
ENDMDL
MODEL      200
REMARK 921   NORMALIZED FREE ENERGY PREDICTED BY IDOCK:   -1.77 KCAL/MOL
REMARK 922        TOTAL FREE ENERGY PREDICTED BY IDOCK:   -2.22 KCAL/MOL
REMARK 923 INTER-LIGAND FREE ENERGY PREDICTED BY IDOCK:   -1.83 KCAL/MOL
REMARK 924 INTRA-LIGAND FREE ENERGY PREDICTED BY IDOCK:   -0.39 KCAL/MOL
REMARK 927      BINDING AFFINITY PREDICTED BY RF-SCORE:    0.00 PKD
ROOT
HETATM    1  C   UNL     1      -5.966   7.833  69.948  1.00  0.00    -0.023 C  
HETATM    2  N   UNL     1      -6.424   9.228  69.931  1.00  0.00    -0.042 NA 
HETATM    3  C   UNL     1      -5.803   9.929  68.806  1.00  0.00    -0.038 C  
ENDROOT
BRANCH   2   4
HETATM    4  C   UNL     1      -7.901   9.246  69.866  1.00  0.00    -0.109 C  
BRANCH   4   5
HETATM    5  C   UNL     1      -8.553  10.615  69.581  1.00  0.00     0.148 C  
BRANCH   5   6
HETATM    6  N   UNL     1      -9.953  10.503  69.101  1.00  0.00    -0.214 N  
HETATM    7  C   UNL     1     -10.723  11.685  69.250  1.00  0.00    -0.097 A  
HETATM    8  C   UNL     1     -11.608  11.664  70.349  1.00  0.00    -0.158 A  
HETATM    9  C   UNL     1     -12.447  12.735  70.600  1.00  0.00    -0.328 A  
HETATM   10  C   UNL     1     -12.402  13.826  69.750  1.00  0.00    -0.311 A  
HETATM   11  C   UNL     1     -11.532  13.834  68.642  1.00  0.00    -0.336 A  
HETATM   12  C   UNL     1     -10.658  12.766  68.329  1.00  0.00    -0.238 A  
HETATM   13  N   UNL     1      -9.773  12.791  67.198  1.00  0.00    -0.211 NA 
HETATM   14  C   UNL     1      -9.623  14.071  66.472  1.00  0.00    -0.293 C  
HETATM   15  C   UNL     1      -9.060  11.713  66.554  1.00  0.00    -0.197 A  
HETATM   16  C   UNL     1      -8.028  11.957  65.616  1.00  0.00     0.955 A  
HETATM   17  C   UNL     1      -7.367  10.930  64.920  1.00  0.00     0.378 A  
HETATM   18  C   UNL     1      -7.724   9.606  65.119  1.00  0.00    -0.117 A  
HETATM   19  C   UNL     1      -8.705   9.311  66.052  1.00  0.00    -0.175 A  
HETATM   20  C   UNL     1      -9.322  10.346  66.779  1.00  0.00    -0.181 A  
HETATM   21  C   UNL     1     -10.195   9.908  67.869  1.00  0.00    -0.193 C  
HETATM   22  O   UNL     1     -11.065   9.064  67.674  1.00  0.00    -0.045 OA 
ENDBRANCH   5   6
ENDBRANCH   4   5
ENDBRANCH   2   4
TORSDOF 3
ENDMDL
MODEL      201
REMARK 921   NORMALIZED FREE ENERGY PREDICTED BY IDOCK:   -1.76 KCAL/MOL
REMARK 922        TOTAL FREE ENERGY PREDICTED BY IDOCK:   -2.20 KCAL/MOL
REMARK 923 INTER-LIGAND FREE ENERGY PREDICTED BY IDOCK:   -1.93 KCAL/MOL
REMARK 924 INTRA-LIGAND FREE ENERGY PREDICTED BY IDOCK:   -0.27 KCAL/MOL
REMARK 927      BINDING AFFINITY PREDICTED BY RF-SCORE:    0.00 PKD
ROOT
HETATM    1  C   UNL     1      -6.265   8.348  70.351  1.00  0.00    -0.035 C  
HETATM    2  N   UNL     1      -6.939   9.507  69.752  1.00  0.00    -0.063 NA 
HETATM    3  C   UNL     1      -5.948  10.536  69.439  1.00  0.00    -0.039 C  
ENDROOT
BRANCH   2   4
HETATM    4  C   UNL     1      -7.690   9.059  68.560  1.00  0.00    -0.097 C  
BRANCH   4   5
HETATM    5  C   UNL     1      -7.718   7.538  68.304  1.00  0.00    -0.120 C  
BRANCH   5   6
HETATM    6  N   UNL     1      -8.402   7.174  67.039  1.00  0.00    -0.117 N  
HETATM    7  C   UNL     1      -7.554   7.124  65.903  1.00  0.00    -0.093 A  
HETATM    8  C   UNL     1      -7.645   8.255  65.063  1.00  0.00    -0.095 A  
HETATM    9  C   UNL     1      -6.901   8.332  63.900  1.00  0.00    -0.075 A  
HETATM   10  C   UNL     1      -6.066   7.278  63.577  1.00  0.00    -0.045 A  
HETATM   11  C   UNL     1      -5.993   6.142  64.407  1.00  0.00    -0.025 A  
HETATM   12  C   UNL     1      -6.736   6.002  65.602  1.00  0.00    -0.048 A  
HETATM   13  N   UNL     1      -6.647   4.839  66.442  1.00  0.00    -0.045 NA 
HETATM   14  C   UNL     1      -5.577   3.861  66.148  1.00  0.00    -0.018 C  
HETATM   15  C   UNL     1      -7.525   4.387  67.495  1.00  0.00    -0.073 A  
HETATM   16  C   UNL     1      -7.144   3.360  68.393  1.00  0.00    -0.050 A  
HETATM   17  C   UNL     1      -8.003   2.849  69.381  1.00  0.00    -0.055 A  
HETATM   18  C   UNL     1      -9.296   3.333  69.504  1.00  0.00    -0.235 A  
HETATM   19  C   UNL     1      -9.707   4.362  68.672  1.00  0.00    -0.190 A  
HETATM   20  C   UNL     1      -8.818   4.899  67.722  1.00  0.00    -0.109 A  
HETATM   21  C   UNL     1      -9.290   6.105  67.039  1.00  0.00    -0.124 C  
HETATM   22  O   UNL     1     -10.402   6.135  66.520  1.00  0.00    -0.181 OA 
ENDBRANCH   5   6
ENDBRANCH   4   5
ENDBRANCH   2   4
TORSDOF 3
ENDMDL
MODEL      202
REMARK 921   NORMALIZED FREE ENERGY PREDICTED BY IDOCK:   -1.11 KCAL/MOL
REMARK 922        TOTAL FREE ENERGY PREDICTED BY IDOCK:   -1.44 KCAL/MOL
REMARK 923 INTER-LIGAND FREE ENERGY PREDICTED BY IDOCK:   -1.55 KCAL/MOL
REMARK 924 INTRA-LIGAND FREE ENERGY PREDICTED BY IDOCK:    0.11 KCAL/MOL
REMARK 927      BINDING AFFINITY PREDICTED BY RF-SCORE:    0.00 PKD
ROOT
HETATM    1  C   UNL     1      -9.104  11.237  66.204  1.00  0.00    -0.204 C  
HETATM    2  N   UNL     1      -9.424  12.618  65.820  1.00  0.00    -0.109 NA 
HETATM    3  C   UNL     1     -10.797  12.926  66.220  1.00  0.00    -0.275 C  
ENDROOT
BRANCH   2   4
HETATM    4  C   UNL     1      -8.435  13.527  66.436  1.00  0.00     0.511 C  
BRANCH   4   5
HETATM    5  C   UNL     1      -8.257  13.405  67.964  1.00  0.00    -0.161 C  
BRANCH   5   6
HETATM    6  N   UNL     1      -7.647  14.611  68.576  1.00  0.00    -0.113 N  
HETATM    7  C   UNL     1      -7.265  15.614  67.649  1.00  0.00    -0.173 A  
HETATM    8  C   UNL     1      -5.882  15.648  67.371  1.00  0.00    -0.029 A  
HETATM    9  C   UNL     1      -5.359  16.595  66.509  1.00  0.00     0.226 A  
HETATM   10  C   UNL     1      -6.219  17.509  65.927  1.00  0.00    -0.126 A  
HETATM   11  C   UNL     1      -7.595  17.485  66.224  1.00  0.00    -0.343 A  
HETATM   12  C   UNL     1      -8.187  16.547  67.103  1.00  0.00    -0.179 A  
HETATM   13  N   UNL     1      -9.595  16.532  67.390  1.00  0.00    -0.236 NA 
HETATM   14  C   UNL     1     -10.474  17.391  66.567  1.00  0.00    -0.264 C  
HETATM   15  C   UNL     1     -10.315  15.883  68.460  1.00  0.00    -0.232 A  
HETATM   16  C   UNL     1     -11.726  15.758  68.441  1.00  0.00    -0.279 A  
HETATM   17  C   UNL     1     -12.459  15.196  69.500  1.00  0.00    -0.120 A  
HETATM   18  C   UNL     1     -11.812  14.747  70.641  1.00  0.00    -0.364 A  
HETATM   19  C   UNL     1     -10.430  14.816  70.696  1.00  0.00     0.380 A  
HETATM   20  C   UNL     1      -9.705  15.334  69.606  1.00  0.00    -0.208 A  
HETATM   21  C   UNL     1      -8.252  15.176  69.693  1.00  0.00    -0.080 C  
HETATM   22  O   UNL     1      -7.644  15.522  70.702  1.00  0.00     0.829 OA 
ENDBRANCH   5   6
ENDBRANCH   4   5
ENDBRANCH   2   4
TORSDOF 3
ENDMDL
MODEL      203
REMARK 921   NORMALIZED FREE ENERGY PREDICTED BY IDOCK:   -0.91 KCAL/MOL
REMARK 922        TOTAL FREE ENERGY PREDICTED BY IDOCK:   -1.20 KCAL/MOL
REMARK 923 INTER-LIGAND FREE ENERGY PREDICTED BY IDOCK:   -1.02 KCAL/MOL
REMARK 924 INTRA-LIGAND FREE ENERGY PREDICTED BY IDOCK:   -0.18 KCAL/MOL
REMARK 927      BINDING AFFINITY PREDICTED BY RF-SCORE:    0.00 PKD
ROOT
HETATM    1  C   UNL     1     -10.675  16.370  66.223  1.00  0.00    -0.161 C  
HETATM    2  N   UNL     1     -11.753  15.401  66.456  1.00  0.00     0.068 NA 
HETATM    3  C   UNL     1     -11.444  14.154  65.755  1.00  0.00    -0.327 C  
ENDROOT
BRANCH   2   4
HETATM    4  C   UNL     1     -11.917  15.208  67.912  1.00  0.00    -0.057 C  
BRANCH   4   5
HETATM    5  C   UNL     1     -12.112  13.753  68.388  1.00  0.00    -0.289 C  
BRANCH   5   6
HETATM    6  N   UNL     1     -11.743  13.553  69.812  1.00  0.00    -0.302 N  
HETATM    7  C   UNL     1     -11.920  12.228  70.286  1.00  0.00    -0.290 A  
HETATM    8  C   UNL     1     -13.084  12.043  71.063  1.00  0.00    -0.022 A  
HETATM    9  C   UNL     1     -13.371  10.810  71.621  1.00  0.00    -0.390 A  
HETATM   10  C   UNL     1     -12.494   9.763  71.402  1.00  0.00    -0.482 A  
HETATM   11  C   UNL     1     -11.323   9.957  70.643  1.00  0.00    -0.413 A  
HETATM   12  C   UNL     1     -10.971  11.196  70.056  1.00  0.00    -0.006 A  
HETATM   13  N   UNL     1      -9.776  11.377  69.280  1.00  0.00     0.099 NA 
HETATM   14  C   UNL     1      -9.009  10.168  68.908  1.00  0.00    -0.155 C  
HETATM   15  C   UNL     1      -9.107  12.591  68.878  1.00  0.00     0.318 A  
HETATM   16  C   UNL     1      -8.087  12.590  67.895  1.00  0.00    -0.163 A  
HETATM   17  C   UNL     1      -7.368  13.744  67.536  1.00  0.00    -0.176 A  
HETATM   18  C   UNL     1      -7.627  14.954  68.161  1.00  0.00    -0.115 A  
HETATM   19  C   UNL     1      -8.638  15.015  69.106  1.00  0.00    -0.188 A  
HETATM   20  C   UNL     1      -9.384  13.864  69.418  1.00  0.00     0.645 A  
HETATM   21  C   UNL     1     -10.548  14.088  70.277  1.00  0.00     0.896 C  
HETATM   22  O   UNL     1     -10.440  14.718  71.325  1.00  0.00     0.490 OA 
ENDBRANCH   5   6
ENDBRANCH   4   5
ENDBRANCH   2   4
TORSDOF 3
ENDMDL
MODEL      204
REMARK 921   NORMALIZED FREE ENERGY PREDICTED BY IDOCK:   -0.65 KCAL/MOL
REMARK 922        TOTAL FREE ENERGY PREDICTED BY IDOCK:   -0.90 KCAL/MOL
REMARK 923 INTER-LIGAND FREE ENERGY PREDICTED BY IDOCK:   -0.51 KCAL/MOL
REMARK 924 INTRA-LIGAND FREE ENERGY PREDICTED BY IDOCK:   -0.39 KCAL/MOL
REMARK 927      BINDING AFFINITY PREDICTED BY RF-SCORE:    0.00 PKD
ROOT
HETATM    1  C   UNL     1     -11.392  15.394  65.101  1.00  0.00    -0.281 C  
HETATM    2  N   UNL     1     -12.051  14.724  66.229  1.00  0.00    -0.180 NA 
HETATM    3  C   UNL     1     -12.893  13.639  65.725  1.00  0.00    -0.333 C  
ENDROOT
BRANCH   2   4
HETATM    4  C   UNL     1     -11.017  14.249  67.173  1.00  0.00    -0.302 C  
BRANCH   4   5
HETATM    5  C   UNL     1      -9.835  13.473  66.554  1.00  0.00    -0.291 C  
BRANCH   5   6
HETATM    6  N   UNL     1      -9.646  12.128  67.152  1.00  0.00    -0.191 N  
HETATM    7  C   UNL     1      -9.238  11.127  66.234  1.00  0.00    -0.195 A  
HETATM    8  C   UNL     1     -10.276  10.266  65.818  1.00  0.00    -0.289 A  
HETATM    9  C   UNL     1     -10.019   9.220  64.949  1.00  0.00     0.636 A  
HETATM   10  C   UNL     1      -8.725   9.037  64.497  1.00  0.00    -0.153 A  
HETATM   11  C   UNL     1      -7.688   9.886  64.931  1.00  0.00    -0.134 A  
HETATM   12  C   UNL     1      -7.887  10.964  65.825  1.00  0.00    -0.057 A  
HETATM   13  N   UNL     1      -6.820  11.826  66.253  1.00  0.00     0.227 NA 
HETATM   14  C   UNL     1      -5.518  11.704  65.561  1.00  0.00     1.082 C  
HETATM   15  C   UNL     1      -6.762  12.749  67.362  1.00  0.00    -0.134 A  
HETATM   16  C   UNL     1      -5.727  13.708  67.481  1.00  0.00     0.056 A  
HETATM   17  C   UNL     1      -5.604  14.569  68.585  1.00  0.00    -0.093 A  
HETATM   18  C   UNL     1      -6.507  14.498  69.634  1.00  0.00    -0.148 A  
HETATM   19  C   UNL     1      -7.559  13.600  69.551  1.00  0.00     0.480 A  
HETATM   20  C   UNL     1      -7.698  12.779  68.416  1.00  0.00    -0.132 A  
HETATM   21  C   UNL     1      -8.946  12.017  68.347  1.00  0.00    -0.153 C  
HETATM   22  O   UNL     1      -9.321  11.344  69.303  1.00  0.00     0.078 OA 
ENDBRANCH   5   6
ENDBRANCH   4   5
ENDBRANCH   2   4
TORSDOF 3
ENDMDL
MODEL      205
REMARK 921   NORMALIZED FREE ENERGY PREDICTED BY IDOCK:   -0.24 KCAL/MOL
REMARK 922        TOTAL FREE ENERGY PREDICTED BY IDOCK:   -0.42 KCAL/MOL
REMARK 923 INTER-LIGAND FREE ENERGY PREDICTED BY IDOCK:   -0.40 KCAL/MOL
REMARK 924 INTRA-LIGAND FREE ENERGY PREDICTED BY IDOCK:   -0.01 KCAL/MOL
REMARK 927      BINDING AFFINITY PREDICTED BY RF-SCORE:    0.00 PKD
ROOT
HETATM    1  C   UNL     1      -9.374   9.164  67.003  1.00  0.00    -0.148 C  
HETATM    2  N   UNL     1      -8.031   8.572  66.949  1.00  0.00    -0.095 NA 
HETATM    3  C   UNL     1      -7.129   9.481  66.243  1.00  0.00    -0.092 C  
ENDROOT
BRANCH   2   4
HETATM    4  C   UNL     1      -7.581   8.280  68.326  1.00  0.00    -0.101 C  
BRANCH   4   5
HETATM    5  C   UNL     1      -8.571   8.635  69.456  1.00  0.00    -0.131 C  
BRANCH   5   6
HETATM    6  N   UNL     1      -9.232   7.444  70.045  1.00  0.00    -0.148 N  
HETATM    7  C   UNL     1      -8.739   6.202  69.571  1.00  0.00    -0.130 A  
HETATM    8  C   UNL     1      -9.563   5.583  68.607  1.00  0.00    -0.172 A  
HETATM    9  C   UNL     1      -9.226   4.349  68.079  1.00  0.00    -0.174 A  
HETATM   10  C   UNL     1      -8.066   3.735  68.516  1.00  0.00    -0.079 A  
HETATM   11  C   UNL     1      -7.258   4.347  69.494  1.00  0.00    -0.051 A  
HETATM   12  C   UNL     1      -7.555   5.601  70.077  1.00  0.00    -0.082 A  
HETATM   13  N   UNL     1      -6.717   6.215  71.070  1.00  0.00    -0.059 NA 
HETATM   14  C   UNL     1      -5.392   5.607  71.322  1.00  0.00    -0.009 C  
HETATM   15  C   UNL     1      -7.001   7.300  71.980  1.00  0.00    -0.063 A  
HETATM   16  C   UNL     1      -5.975   7.949  72.709  1.00  0.00    -0.048 A  
HETATM   17  C   UNL     1      -6.228   8.958  73.655  1.00  0.00    -0.008 A  
HETATM   18  C   UNL     1      -7.528   9.352  73.929  1.00  0.00     1.346 A  
HETATM   19  C   UNL     1      -8.566   8.772  73.218  1.00  0.00     0.348 A  
HETATM   20  C   UNL     1      -8.294   7.800  72.238  1.00  0.00    -0.154 A  
HETATM   21  C   UNL     1      -9.440   7.403  71.418  1.00  0.00    -0.152 C  
HETATM   22  O   UNL     1     -10.499   7.070  71.942  1.00  0.00    -0.201 OA 
ENDBRANCH   5   6
ENDBRANCH   4   5
ENDBRANCH   2   4
TORSDOF 3
ENDMDL
MODEL      206
REMARK 921   NORMALIZED FREE ENERGY PREDICTED BY IDOCK:    1.42 KCAL/MOL
REMARK 922        TOTAL FREE ENERGY PREDICTED BY IDOCK:    1.54 KCAL/MOL
REMARK 923 INTER-LIGAND FREE ENERGY PREDICTED BY IDOCK:    1.32 KCAL/MOL
REMARK 924 INTRA-LIGAND FREE ENERGY PREDICTED BY IDOCK:    0.22 KCAL/MOL
REMARK 927      BINDING AFFINITY PREDICTED BY RF-SCORE:    0.00 PKD
ROOT
HETATM    1  C   UNL     1      -8.729  15.788  70.491  1.00  0.00     1.789 C  
HETATM    2  N   UNL     1      -9.856  14.921  70.126  1.00  0.00     0.193 NA 
HETATM    3  C   UNL     1     -11.024  15.280  70.930  1.00  0.00    -0.246 C  
ENDROOT
BRANCH   2   4
HETATM    4  C   UNL     1     -10.106  15.046  68.674  1.00  0.00    -0.233 C  
BRANCH   4   5
HETATM    5  C   UNL     1     -10.053  13.737  67.859  1.00  0.00    -0.246 C  
BRANCH   5   6
HETATM    6  N   UNL     1      -8.747  13.522  67.189  1.00  0.00    -0.219 N  
HETATM    7  C   UNL     1      -7.617  13.711  68.025  1.00  0.00    -0.139 A  
HETATM    8  C   UNL     1      -6.962  14.947  67.840  1.00  0.00    -0.170 A  
HETATM    9  C   UNL     1      -5.824  15.257  68.563  1.00  0.00    -0.097 A  
HETATM   10  C   UNL     1      -5.342  14.330  69.470  1.00  0.00    -0.090 A  
HETATM   11  C   UNL     1      -5.987  13.089  69.636  1.00  0.00    -0.118 A  
HETATM   12  C   UNL     1      -7.147  12.712  68.919  1.00  0.00    -0.069 A  
HETATM   13  N   UNL     1      -7.797  11.444  69.104  1.00  0.00    -0.037 NA 
HETATM   14  C   UNL     1      -7.356  10.605  70.239  1.00  0.00     0.350 C  
HETATM   15  C   UNL     1      -8.768  10.771  68.274  1.00  0.00    -0.136 A  
HETATM   16  C   UNL     1      -9.497   9.649  68.740  1.00  0.00    -0.148 A  
HETATM   17  C   UNL     1     -10.395   8.930  67.932  1.00  0.00    -0.286 A  
HETATM   18  C   UNL     1     -10.592   9.292  66.608  1.00  0.00    -0.161 A  
HETATM   19  C   UNL     1      -9.928  10.403  66.114  1.00  0.00    -0.290 A  
HETATM   20  C   UNL     1      -9.072  11.144  66.949  1.00  0.00    -0.166 A  
HETATM   21  C   UNL     1      -8.583  12.402  66.382  1.00  0.00     0.083 C  
HETATM   22  O   UNL     1      -8.076  12.429  65.264  1.00  0.00     1.755 OA 
ENDBRANCH   5   6
ENDBRANCH   4   5
ENDBRANCH   2   4
TORSDOF 3
ENDMDL
MODEL      207
REMARK 921   NORMALIZED FREE ENERGY PREDICTED BY IDOCK:    1.67 KCAL/MOL
REMARK 922        TOTAL FREE ENERGY PREDICTED BY IDOCK:    1.83 KCAL/MOL
REMARK 923 INTER-LIGAND FREE ENERGY PREDICTED BY IDOCK:    0.93 KCAL/MOL
REMARK 924 INTRA-LIGAND FREE ENERGY PREDICTED BY IDOCK:    0.90 KCAL/MOL
REMARK 927      BINDING AFFINITY PREDICTED BY RF-SCORE:    0.00 PKD
ROOT
HETATM    1  C   UNL     1      -8.847   9.835  67.448  1.00  0.00    -0.132 C  
HETATM    2  N   UNL     1      -8.735  11.197  67.985  1.00  0.00    -0.136 NA 
HETATM    3  C   UNL     1      -9.280  12.147  67.015  1.00  0.00    -0.202 C  
ENDROOT
BRANCH   2   4
HETATM    4  C   UNL     1      -9.428  11.256  69.289  1.00  0.00     0.202 C  
BRANCH   4   5
HETATM    5  C   UNL     1      -9.484   9.938  70.090  1.00  0.00    -0.163 C  
BRANCH   5   6
HETATM    6  N   UNL     1      -8.168   9.260  70.188  1.00  0.00    -0.147 N  
HETATM    7  C   UNL     1      -7.580   9.298  71.478  1.00  0.00     0.233 A  
HETATM    8  C   UNL     1      -6.554  10.258  71.618  1.00  0.00     1.070 A  
HETATM    9  C   UNL     1      -5.866  10.386  72.811  1.00  0.00     1.020 A  
HETATM   10  C   UNL     1      -6.204   9.555  73.863  1.00  0.00     0.455 A  
HETATM   11  C   UNL     1      -7.214   8.585  73.713  1.00  0.00    -0.080 A  
HETATM   12  C   UNL     1      -7.945   8.399  72.516  1.00  0.00    -0.106 A  
HETATM   13  N   UNL     1      -8.976   7.409  72.380  1.00  0.00    -0.129 NA 
HETATM   14  C   UNL     1      -9.428   6.715  73.606  1.00  0.00    -0.164 C  
HETATM   15  C   UNL     1      -9.595   6.872  71.191  1.00  0.00    -0.166 A  
HETATM   16  C   UNL     1     -10.777   6.095  71.252  1.00  0.00    -0.310 A  
HETATM   17  C   UNL     1     -11.362   5.499  70.121  1.00  0.00     0.418 A  
HETATM   18  C   UNL     1     -10.777   5.642  68.872  1.00  0.00    -0.280 A  
HETATM   19  C   UNL     1      -9.638   6.422  68.753  1.00  0.00    -0.127 A  
HETATM   20  C   UNL     1      -9.093   7.054  69.886  1.00  0.00    -0.141 A  
HETATM   21  C   UNL     1      -8.015   8.005  69.612  1.00  0.00    -0.117 C  
HETATM   22  O   UNL     1      -7.060   7.684  68.910  1.00  0.00    -0.074 OA 
ENDBRANCH   5   6
ENDBRANCH   4   5
ENDBRANCH   2   4
TORSDOF 3
ENDMDL
MODEL      208
REMARK 921   NORMALIZED FREE ENERGY PREDICTED BY IDOCK:    3.00 KCAL/MOL
REMARK 922        TOTAL FREE ENERGY PREDICTED BY IDOCK:    3.39 KCAL/MOL
REMARK 923 INTER-LIGAND FREE ENERGY PREDICTED BY IDOCK:    3.48 KCAL/MOL
REMARK 924 INTRA-LIGAND FREE ENERGY PREDICTED BY IDOCK:   -0.09 KCAL/MOL
REMARK 927      BINDING AFFINITY PREDICTED BY RF-SCORE:    0.00 PKD
ROOT
HETATM    1  C   UNL     1      -8.105  18.029  67.499  1.00  0.00    -0.230 C  
HETATM    2  N   UNL     1      -7.094  17.115  68.047  1.00  0.00    -0.171 NA 
HETATM    3  C   UNL     1      -6.316  17.810  69.073  1.00  0.00    -0.224 C  
ENDROOT
BRANCH   2   4
HETATM    4  C   UNL     1      -7.773  15.909  68.569  1.00  0.00    -0.147 C  
BRANCH   4   5
HETATM    5  C   UNL     1      -9.126  16.141  69.273  1.00  0.00    -0.213 C  
BRANCH   5   6
HETATM    6  N   UNL     1      -9.749  14.886  69.761  1.00  0.00     0.016 N  
HETATM    7  C   UNL     1     -10.960  15.069  70.478  1.00  0.00    -0.175 A  
HETATM    8  C   UNL     1     -10.821  14.977  71.880  1.00  0.00     0.486 A  
HETATM    9  C   UNL     1     -11.922  15.102  72.707  1.00  0.00    -0.482 A  
HETATM   10  C   UNL     1     -13.162  15.317  72.133  1.00  0.00    -0.489 A  
HETATM   11  C   UNL     1     -13.299  15.387  70.733  1.00  0.00    -0.385 A  
HETATM   12  C   UNL     1     -12.213  15.258  69.836  1.00  0.00    -0.323 A  
HETATM   13  N   UNL     1     -12.368  15.338  68.410  1.00  0.00     0.123 NA 
HETATM   14  C   UNL     1     -13.676  15.787  67.885  1.00  0.00     6.763 C  
HETATM   15  C   UNL     1     -11.469  14.933  67.355  1.00  0.00    -0.343 A  
HETATM   16  C   UNL     1     -11.673  15.325  66.010  1.00  0.00     0.104 A  
HETATM   17  C   UNL     1     -10.856  14.888  64.952  1.00  0.00    -0.431 A  
HETATM   18  C   UNL     1      -9.803  14.019  65.192  1.00  0.00    -0.138 A  
HETATM   19  C   UNL     1      -9.541  13.631  66.496  1.00  0.00    -0.294 A  
HETATM   20  C   UNL     1     -10.335  14.118  67.551  1.00  0.00    -0.248 A  
HETATM   21  C   UNL     1      -9.847  13.804  68.895  1.00  0.00     0.001 C  
HETATM   22  O   UNL     1      -9.547  12.653  69.198  1.00  0.00     0.286 OA 
ENDBRANCH   5   6
ENDBRANCH   4   5
ENDBRANCH   2   4
TORSDOF 3
ENDMDL
MODEL      209
REMARK 921   NORMALIZED FREE ENERGY PREDICTED BY IDOCK:    5.84 KCAL/MOL
REMARK 922        TOTAL FREE ENERGY PREDICTED BY IDOCK:    6.73 KCAL/MOL
REMARK 923 INTER-LIGAND FREE ENERGY PREDICTED BY IDOCK:    4.02 KCAL/MOL
REMARK 924 INTRA-LIGAND FREE ENERGY PREDICTED BY IDOCK:    2.71 KCAL/MOL
REMARK 927      BINDING AFFINITY PREDICTED BY RF-SCORE:    0.00 PKD
ROOT
HETATM    1  C   UNL     1     -12.185  11.485  68.038  1.00  0.00     0.357 C  
HETATM    2  N   UNL     1     -11.136  11.076  68.982  1.00  0.00    -0.223 NA 
HETATM    3  C   UNL     1     -10.761   9.687  68.717  1.00  0.00    -0.206 C  
ENDROOT
BRANCH   2   4
HETATM    4  C   UNL     1      -9.994  12.007  68.860  1.00  0.00     0.023 C  
BRANCH   4   5
HETATM    5  C   UNL     1     -10.187  13.200  67.901  1.00  0.00    -0.233 C  
BRANCH   5   6
HETATM    6  N   UNL     1     -11.441  13.952  68.153  1.00  0.00    -0.293 N  
HETATM    7  C   UNL     1     -11.250  15.275  68.627  1.00  0.00    -0.296 A  
HETATM    8  C   UNL     1     -11.449  15.425  70.017  1.00  0.00    -0.335 A  
HETATM    9  C   UNL     1     -11.330  16.666  70.616  1.00  0.00     0.103 A  
HETATM   10  C   UNL     1     -11.012  17.756  69.826  1.00  0.00     1.257 A  
HETATM   11  C   UNL     1     -10.834  17.605  68.437  1.00  0.00    -0.148 A  
HETATM   12  C   UNL     1     -10.953  16.365  67.766  1.00  0.00    -0.261 A  
HETATM   13  N   UNL     1     -10.763  16.226  66.349  1.00  0.00    -0.238 NA 
HETATM   14  C   UNL     1     -10.213  17.385  65.613  1.00  0.00    -0.101 C  
HETATM   15  C   UNL     1     -11.135  15.147  65.465  1.00  0.00    -0.345 A  
HETATM   16  C   UNL     1     -10.637  15.061  64.142  1.00  0.00     0.985 A  
HETATM   17  C   UNL     1     -11.038  14.064  63.236  1.00  0.00     1.907 A  
HETATM   18  C   UNL     1     -11.974  13.112  63.610  1.00  0.00    -0.580 A  
HETATM   19  C   UNL     1     -12.466  13.131  64.905  1.00  0.00    -0.490 A  
HETATM   20  C   UNL     1     -12.017  14.105  65.816  1.00  0.00    -0.410 A  
HETATM   21  C   UNL     1     -12.452  13.910  67.201  1.00  0.00    -0.047 C  
HETATM   22  O   UNL     1     -13.635  13.717  67.463  1.00  0.00     3.599 OA 
ENDBRANCH   5   6
ENDBRANCH   4   5
ENDBRANCH   2   4
TORSDOF 3
ENDMDL
MODEL      210
REMARK 921   NORMALIZED FREE ENERGY PREDICTED BY IDOCK:    6.25 KCAL/MOL
REMARK 922        TOTAL FREE ENERGY PREDICTED BY IDOCK:    7.22 KCAL/MOL
REMARK 923 INTER-LIGAND FREE ENERGY PREDICTED BY IDOCK:    7.08 KCAL/MOL
REMARK 924 INTRA-LIGAND FREE ENERGY PREDICTED BY IDOCK:    0.13 KCAL/MOL
REMARK 927      BINDING AFFINITY PREDICTED BY RF-SCORE:    0.00 PKD
ROOT
HETATM    1  C   UNL     1     -10.681  12.622  68.495  1.00  0.00    -0.248 C  
HETATM    2  N   UNL     1     -11.224  13.968  68.716  1.00  0.00    -0.256 NA 
HETATM    3  C   UNL     1     -10.839  14.434  70.049  1.00  0.00     0.078 C  
ENDROOT
BRANCH   2   4
HETATM    4  C   UNL     1     -10.743  14.861  67.641  1.00  0.00    -0.270 C  
BRANCH   4   5
HETATM    5  C   UNL     1      -9.319  14.585  67.113  1.00  0.00    -0.218 C  
BRANCH   5   6
HETATM    6  N   UNL     1      -8.838  15.624  66.169  1.00  0.00    -0.325 N  
HETATM    7  C   UNL     1      -9.758  16.676  65.932  1.00  0.00    -0.237 A  
HETATM    8  C   UNL     1     -10.451  16.572  64.707  1.00  0.00     0.315 A  
HETATM    9  C   UNL     1     -11.358  17.545  64.325  1.00  0.00     2.665 A  
HETATM   10  C   UNL     1     -11.569  18.622  65.167  1.00  0.00     2.832 A  
HETATM   11  C   UNL     1     -10.860  18.732  66.379  1.00  0.00    -0.173 A  
HETATM   12  C   UNL     1      -9.914  17.776  66.818  1.00  0.00    -0.333 A  
HETATM   13  N   UNL     1      -9.202  17.900  68.060  1.00  0.00    -0.261 NA 
HETATM   14  C   UNL     1      -9.641  18.954  69.001  1.00  0.00    -0.277 C  
HETATM   15  C   UNL     1      -8.014  17.220  68.519  1.00  0.00    -0.261 A  
HETATM   16  C   UNL     1      -7.601  17.273  69.873  1.00  0.00     1.154 A  
HETATM   17  C   UNL     1      -6.412  16.683  70.334  1.00  0.00     0.641 A  
HETATM   18  C   UNL     1      -5.568  16.023  69.454  1.00  0.00    -0.121 A  
HETATM   19  C   UNL     1      -5.944  15.913  68.124  1.00  0.00    -0.131 A  
HETATM   20  C   UNL     1      -7.163  16.465  67.687  1.00  0.00    -0.156 A  
HETATM   21  C   UNL     1      -7.548  16.119  66.318  1.00  0.00     0.169 C  
HETATM   22  O   UNL     1      -6.757  16.263  65.390  1.00  0.00     2.500 OA 
ENDBRANCH   5   6
ENDBRANCH   4   5
ENDBRANCH   2   4
TORSDOF 3
ENDMDL
MODEL      211
REMARK 921   NORMALIZED FREE ENERGY PREDICTED BY IDOCK:    6.33 KCAL/MOL
REMARK 922        TOTAL FREE ENERGY PREDICTED BY IDOCK:    7.31 KCAL/MOL
REMARK 923 INTER-LIGAND FREE ENERGY PREDICTED BY IDOCK:    4.73 KCAL/MOL
REMARK 924 INTRA-LIGAND FREE ENERGY PREDICTED BY IDOCK:    2.58 KCAL/MOL
REMARK 927      BINDING AFFINITY PREDICTED BY RF-SCORE:    0.00 PKD
ROOT
HETATM    1  C   UNL     1     -10.698  12.634  68.415  1.00  0.00    -0.242 C  
HETATM    2  N   UNL     1     -11.268  13.987  68.444  1.00  0.00    -0.253 NA 
HETATM    3  C   UNL     1     -10.708  14.725  69.577  1.00  0.00    -0.215 C  
ENDROOT
BRANCH   2   4
HETATM    4  C   UNL     1     -11.001  14.647  67.149  1.00  0.00    -0.316 C  
BRANCH   4   5
HETATM    5  C   UNL     1      -9.703  14.229  66.427  1.00  0.00    -0.299 C  
BRANCH   5   6
HETATM    6  N   UNL     1      -8.779  15.365  66.186  1.00  0.00    -0.215 N  
HETATM    7  C   UNL     1      -9.246  16.615  66.667  1.00  0.00    -0.253 A  
HETATM    8  C   UNL     1      -9.772  17.459  65.665  1.00  0.00     0.177 A  
HETATM    9  C   UNL     1     -10.234  18.724  65.980  1.00  0.00    -0.413 A  
HETATM   10  C   UNL     1     -10.169  19.145  67.297  1.00  0.00    -0.487 A  
HETATM   11  C   UNL     1      -9.624  18.307  68.289  1.00  0.00    -0.332 A  
HETATM   12  C   UNL     1      -9.127  17.009  68.027  1.00  0.00    -0.237 A  
HETATM   13  N   UNL     1      -8.579  16.164  69.051  1.00  0.00    -0.245 NA 
HETATM   14  C   UNL     1      -8.746  16.593  70.457  1.00  0.00     3.286 C  
HETATM   15  C   UNL     1      -7.764  14.978  68.937  1.00  0.00    -0.152 A  
HETATM   16  C   UNL     1      -7.532  14.123  70.042  1.00  0.00     0.555 A  
HETATM   17  C   UNL     1      -6.685  13.003  69.980  1.00  0.00     0.327 A  
HETATM   18  C   UNL     1      -6.015  12.695  68.806  1.00  0.00    -0.067 A  
HETATM   19  C   UNL     1      -6.234  13.481  67.686  1.00  0.00    -0.139 A  
HETATM   20  C   UNL     1      -7.124  14.569  67.749  1.00  0.00    -0.190 A  
HETATM   21  C   UNL     1      -7.428  15.202  66.464  1.00  0.00     0.921 C  
HETATM   22  O   UNL     1      -6.524  15.545  65.707  1.00  0.00     3.518 OA 
ENDBRANCH   5   6
ENDBRANCH   4   5
ENDBRANCH   2   4
TORSDOF 3
ENDMDL
MODEL      212
REMARK 921   NORMALIZED FREE ENERGY PREDICTED BY IDOCK:   13.24 KCAL/MOL
REMARK 922        TOTAL FREE ENERGY PREDICTED BY IDOCK:   15.43 KCAL/MOL
REMARK 923 INTER-LIGAND FREE ENERGY PREDICTED BY IDOCK:   10.30 KCAL/MOL
REMARK 924 INTRA-LIGAND FREE ENERGY PREDICTED BY IDOCK:    5.13 KCAL/MOL
REMARK 927      BINDING AFFINITY PREDICTED BY RF-SCORE:    0.00 PKD
ROOT
HETATM    1  C   UNL     1      -9.818  13.215  69.316  1.00  0.00     0.625 C  
HETATM    2  N   UNL     1     -10.432  14.541  69.461  1.00  0.00    -0.126 NA 
HETATM    3  C   UNL     1     -10.005  15.137  70.727  1.00  0.00     0.793 C  
ENDROOT
BRANCH   2   4
HETATM    4  C   UNL     1     -10.068  15.368  68.291  1.00  0.00    -0.218 C  
BRANCH   4   5
HETATM    5  C   UNL     1      -9.865  14.613  66.960  1.00  0.00    -0.244 C  
BRANCH   5   6
HETATM    6  N   UNL     1      -8.472  14.691  66.454  1.00  0.00     0.112 N  
HETATM    7  C   UNL     1      -7.609  15.510  67.227  1.00  0.00    -0.218 A  
HETATM    8  C   UNL     1      -7.371  16.785  66.670  1.00  0.00    -0.297 A  
HETATM    9  C   UNL     1      -6.522  17.680  67.295  1.00  0.00    -0.180 A  
HETATM   10  C   UNL     1      -5.912  17.300  68.477  1.00  0.00    -0.156 A  
HETATM   11  C   UNL     1      -6.137  16.020  69.019  1.00  0.00    -0.128 A  
HETATM   12  C   UNL     1      -6.985  15.058  68.421  1.00  0.00    -0.109 A  
HETATM   13  N   UNL     1      -7.209  13.758  68.988  1.00  0.00    -0.096 NA 
HETATM   14  C   UNL     1      -6.701  13.508  70.355  1.00  0.00     0.500 C  
HETATM   15  C   UNL     1      -7.767  12.568  68.390  1.00  0.00    -0.136 A  
HETATM   16  C   UNL     1      -8.156  11.452  69.171  1.00  0.00     0.074 A  
HETATM   17  C   UNL     1      -8.634  10.255  68.611  1.00  0.00    -0.128 A  
HETATM   18  C   UNL     1      -8.730  10.113  67.235  1.00  0.00    -0.130 A  
HETATM   19  C   UNL     1      -8.394  11.188  66.428  1.00  0.00    -0.167 A  
HETATM   20  C   UNL     1      -7.966  12.398  67.004  1.00  0.00    -0.106 A  
HETATM   21  C   UNL     1      -7.830  13.519  66.073  1.00  0.00     2.617 C  
HETATM   22  O   UNL     1      -7.192  13.393  65.032  1.00  0.00     8.022 OA 
ENDBRANCH   5   6
ENDBRANCH   4   5
ENDBRANCH   2   4
TORSDOF 3
ENDMDL
MODEL      213
REMARK 921   NORMALIZED FREE ENERGY PREDICTED BY IDOCK:   17.38 KCAL/MOL
REMARK 922        TOTAL FREE ENERGY PREDICTED BY IDOCK:   20.30 KCAL/MOL
REMARK 923 INTER-LIGAND FREE ENERGY PREDICTED BY IDOCK:   20.73 KCAL/MOL
REMARK 924 INTRA-LIGAND FREE ENERGY PREDICTED BY IDOCK:   -0.44 KCAL/MOL
REMARK 927      BINDING AFFINITY PREDICTED BY RF-SCORE:    0.00 PKD
ROOT
HETATM    1  C   UNL     1      -6.978  19.820  67.473  1.00  0.00    -0.233 C  
HETATM    2  N   UNL     1      -5.932  19.322  68.375  1.00  0.00    -0.216 NA 
HETATM    3  C   UNL     1      -5.856  20.186  69.554  1.00  0.00    -0.319 C  
ENDROOT
BRANCH   2   4
HETATM    4  C   UNL     1      -6.228  17.916  68.720  1.00  0.00    -0.205 C  
BRANCH   4   5
HETATM    5  C   UNL     1      -7.718  17.558  68.902  1.00  0.00    -0.207 C  
BRANCH   5   6
HETATM    6  N   UNL     1      -7.992  16.109  68.741  1.00  0.00    -0.202 N  
HETATM    7  C   UNL     1      -9.047  15.615  69.551  1.00  0.00    -0.240 A  
HETATM    8  C   UNL     1      -8.616  14.914  70.698  1.00  0.00     1.842 A  
HETATM    9  C   UNL     1      -9.534  14.347  71.563  1.00  0.00     5.096 A  
HETATM   10  C   UNL     1     -10.882  14.480  71.281  1.00  0.00     0.904 A  
HETATM   11  C   UNL     1     -11.306  15.162  70.124  1.00  0.00    -0.300 A  
HETATM   12  C   UNL     1     -10.416  15.754  69.198  1.00  0.00    -0.240 A  
HETATM   13  N   UNL     1     -10.865  16.452  68.025  1.00  0.00    -0.342 NA 
HETATM   14  C   UNL     1     -12.311  16.741  67.909  1.00  0.00     2.074 C  
HETATM   15  C   UNL     1     -10.136  16.837  66.839  1.00  0.00    -0.286 A  
HETATM   16  C   UNL     1     -10.673  17.748  65.897  1.00  0.00    -0.116 A  
HETATM   17  C   UNL     1     -10.019  18.086  64.700  1.00  0.00     4.042 A  
HETATM   18  C   UNL     1      -8.799  17.510  64.381  1.00  0.00     7.872 A  
HETATM   19  C   UNL     1      -8.215  16.638  65.285  1.00  0.00     2.442 A  
HETATM   20  C   UNL     1      -8.857  16.349  66.503  1.00  0.00    -0.316 A  
HETATM   21  C   UNL     1      -8.062  15.577  67.460  1.00  0.00    -0.165 C  
HETATM   22  O   UNL     1      -7.503  14.539  67.115  1.00  0.00    -0.153 OA 
ENDBRANCH   5   6
ENDBRANCH   4   5
ENDBRANCH   2   4
TORSDOF 3
ENDMDL
MODEL      214
REMARK 921   NORMALIZED FREE ENERGY PREDICTED BY IDOCK:   18.43 KCAL/MOL
REMARK 922        TOTAL FREE ENERGY PREDICTED BY IDOCK:   21.53 KCAL/MOL
REMARK 923 INTER-LIGAND FREE ENERGY PREDICTED BY IDOCK:   11.25 KCAL/MOL
REMARK 924 INTRA-LIGAND FREE ENERGY PREDICTED BY IDOCK:   10.28 KCAL/MOL
REMARK 927      BINDING AFFINITY PREDICTED BY RF-SCORE:    0.00 PKD
ROOT
HETATM    1  C   UNL     1      -9.662  14.882  66.608  1.00  0.00    -0.261 C  
HETATM    2  N   UNL     1      -9.736  15.064  65.152  1.00  0.00    -0.138 NA 
HETATM    3  C   UNL     1     -10.731  14.145  64.599  1.00  0.00    -0.389 C  
ENDROOT
BRANCH   2   4
HETATM    4  C   UNL     1     -10.046  16.479  64.862  1.00  0.00     0.781 C  
BRANCH   4   5
HETATM    5  C   UNL     1      -8.958  17.506  65.243  1.00  0.00     1.879 C  
BRANCH   5   6
HETATM    6  N   UNL     1      -9.247  18.214  66.515  1.00  0.00    -0.286 N  
HETATM    7  C   UNL     1     -10.440  17.800  67.162  1.00  0.00    -0.335 A  
HETATM    8  C   UNL     1     -11.529  18.681  66.986  1.00  0.00     0.978 A  
HETATM    9  C   UNL     1     -12.748  18.424  67.586  1.00  0.00     6.112 A  
HETATM   10  C   UNL     1     -12.878  17.287  68.364  1.00  0.00     5.014 A  
HETATM   11  C   UNL     1     -11.783  16.422  68.554  1.00  0.00     0.020 A  
HETATM   12  C   UNL     1     -10.510  16.636  67.974  1.00  0.00    -0.320 A  
HETATM   13  N   UNL     1      -9.404  15.741  68.173  1.00  0.00    -0.193 NA 
HETATM   14  C   UNL     1      -9.680  14.444  68.828  1.00  0.00    -0.190 C  
HETATM   15  C   UNL     1      -7.994  15.942  67.935  1.00  0.00    -0.138 A  
HETATM   16  C   UNL     1      -7.076  14.864  67.939  1.00  0.00    -0.168 A  
HETATM   17  C   UNL     1      -5.690  15.037  67.783  1.00  0.00    -0.108 A  
HETATM   18  C   UNL     1      -5.155  16.307  67.632  1.00  0.00    -0.149 A  
HETATM   19  C   UNL     1      -6.014  17.393  67.587  1.00  0.00    -0.152 A  
HETATM   20  C   UNL     1      -7.404  17.199  67.693  1.00  0.00    -0.179 A  
HETATM   21  C   UNL     1      -8.221  18.386  67.435  1.00  0.00    -0.244 C  
HETATM   22  O   UNL     1      -7.981  19.447  68.005  1.00  0.00    -0.286 OA 
ENDBRANCH   5   6
ENDBRANCH   4   5
ENDBRANCH   2   4
TORSDOF 3
ENDMDL
