MODEL        1
REMARK 921   NORMALIZED FREE ENERGY PREDICTED BY IDOCK:   -8.28 KCAL/MOL
REMARK 922        TOTAL FREE ENERGY PREDICTED BY IDOCK:  -12.74 KCAL/MOL
REMARK 923 INTER-LIGAND FREE ENERGY PREDICTED BY IDOCK:  -11.19 KCAL/MOL
REMARK 924 INTRA-LIGAND FREE ENERGY PREDICTED BY IDOCK:   -1.56 KCAL/MOL
REMARK 927      BINDING AFFINITY PREDICTED BY RF-SCORE:    0.00 PKD
ROOT
HETATM    1  C   UNL     1     -12.248  14.513  64.618  1.00  0.00    -0.460 C  
HETATM    2  C   UNL     1     -10.925  15.252  64.854  1.00  0.00    -0.445 C  
HETATM    3  N   UNL     1     -12.163  13.941  63.256  1.00  0.00    -1.111 NA 
HETATM    4  H1  UNL     1     -13.043  13.450  63.099  1.00  0.00     0.000 HD 
HETATM    5  C   UNL     1     -10.707  15.637  66.299  1.00  0.00    -0.295 C  
HETATM    6  H2  UNL     1     -11.340  13.356  63.113  1.00  0.00     0.000 HD 
HETATM    7  C   UNL     1     -11.038  14.494  67.258  1.00  0.00    -0.312 C  
HETATM    8  C   UNL     1     -12.684  13.500  65.759  1.00  0.00    -0.374 C  
HETATM    9  O   UNL     1     -12.364  13.976  67.067  1.00  0.00    -0.397 OA 
ENDROOT
BRANCH   7  10
HETATM   10  C   UNL     1     -10.953  15.060  68.702  1.00  0.00    -0.257 C  
HETATM   11  N   UNL     1     -12.265  15.360  69.275  1.00  0.00    -0.582 NA 
HETATM   12  H1  UNL     1     -12.209  15.731  70.224  1.00  0.00     0.000 HD 
HETATM   13  H2  UNL     1     -12.874  14.542  69.239  1.00  0.00     0.000 HD 
ENDBRANCH   7  10
BRANCH   8  14
HETATM   14  O   UNL     1     -12.206  12.184  65.476  1.00  0.00    -0.549 OA 
BRANCH  14  15
HETATM   15  C   UNL     1     -11.155  11.578  66.270  1.00  0.00    -0.263 C  
HETATM   16  C   UNL     1     -10.249  10.922  65.191  1.00  0.00    -0.297 C  
HETATM   17  N   UNL     1      -9.629  11.942  64.323  1.00  0.00    -0.462 NA 
HETATM   18  C   UNL     1      -9.112  10.059  65.700  1.00  0.00    -0.222 C  
HETATM   19  H2  UNL     1      -9.121  12.638  64.867  1.00  0.00     0.000 HD 
HETATM   20  H1  UNL     1      -9.035  11.511  63.615  1.00  0.00     0.000 HD 
HETATM   21  C   UNL     1      -9.547   9.030  66.731  1.00  0.00    -0.200 C  
HETATM   22  N   UNL     1      -8.319   8.285  67.050  1.00  0.00    -0.121 NA 
HETATM   23  C   UNL     1     -10.246   9.771  67.913  1.00  0.00    -0.194 C  
HETATM   24  C   UNL     1     -11.536  10.521  67.373  1.00  0.00     0.162 C  
HETATM   25  O   UNL     1     -12.193  11.184  68.469  1.00  0.00    -0.684 OA 
HETATM   26  H2  UNL     1      -7.542   8.873  67.351  1.00  0.00     0.000 HD 
HETATM   27  H1  UNL     1      -8.611   7.595  67.742  1.00  0.00     0.000 HD 
HETATM   28  H   UNL     1     -12.423  10.546  69.135  1.00  0.00     0.000 HD 
BRANCH  23  29
HETATM   29  O   UNL     1     -10.537   8.893  69.046  1.00  0.00    -0.226 OA 
BRANCH  29  30
HETATM   30  C   UNL     1     -10.383   9.581  70.321  1.00  0.00    -0.269 C  
HETATM   31  O   UNL     1     -11.645   9.743  70.979  1.00  0.00    -0.314 OA 
HETATM   32  C   UNL     1     -12.185   8.482  71.412  1.00  0.00    -0.304 C  
HETATM   33  C   UNL     1     -11.303   7.918  72.526  1.00  0.00    -0.390 C  
HETATM   34  H   UNL     1      -7.456   8.329  71.216  1.00  0.00     0.000 HD 
HETATM   35  O   UNL     1     -11.830   6.697  73.045  1.00  0.00    -0.453 OA 
HETATM   36  C   UNL     1      -9.875   7.685  71.976  1.00  0.00    -0.167 C  
HETATM   37  H1  UNL     1      -8.045   7.072  72.706  1.00  0.00     0.000 HD 
HETATM   38  H2  UNL     1      -9.355   6.400  73.541  1.00  0.00     0.000 HD 
HETATM   39  C   UNL     1      -9.343   8.949  71.283  1.00  0.00    -0.266 C  
HETATM   40  N   UNL     1      -8.986   7.225  73.068  1.00  0.00    -0.131 NA 
HETATM   41  H   UNL     1     -11.283   6.347  73.738  1.00  0.00     0.000 HD 
HETATM   42  O   UNL     1      -8.094   8.717  70.627  1.00  0.00    -0.097 OA 
BRANCH  32  43
HETATM   43  C   UNL     1     -13.633   8.722  71.841  1.00  0.00    -0.424 C  
HETATM   44  O   UNL     1     -13.675   8.864  73.268  1.00  0.00    -1.085 OA 
HETATM   45  H   UNL     1     -14.575   9.012  73.535  1.00  0.00     0.000 HD 
ENDBRANCH  32  43
ENDBRANCH  29  30
ENDBRANCH  23  29
ENDBRANCH  14  15
ENDBRANCH   8  14
TORSDOF 6
ENDMDL
MODEL        2
REMARK 921   NORMALIZED FREE ENERGY PREDICTED BY IDOCK:   -8.20 KCAL/MOL
REMARK 922        TOTAL FREE ENERGY PREDICTED BY IDOCK:  -12.63 KCAL/MOL
REMARK 923 INTER-LIGAND FREE ENERGY PREDICTED BY IDOCK:  -10.42 KCAL/MOL
REMARK 924 INTRA-LIGAND FREE ENERGY PREDICTED BY IDOCK:   -2.21 KCAL/MOL
REMARK 927      BINDING AFFINITY PREDICTED BY RF-SCORE:    0.00 PKD
ROOT
HETATM    1  C   UNL     1     -12.330  14.791  64.673  1.00  0.00    -0.333 C  
HETATM    2  C   UNL     1     -10.972  15.475  64.870  1.00  0.00    -0.452 C  
HETATM    3  N   UNL     1     -12.340  14.291  63.280  1.00  0.00    -1.092 NA 
HETATM    4  H1  UNL     1     -13.243  13.836  63.149  1.00  0.00     0.000 HD 
HETATM    5  C   UNL     1     -10.661  15.775  66.318  1.00  0.00    -0.313 C  
HETATM    6  H2  UNL     1     -11.547  13.689  63.059  1.00  0.00     0.000 HD 
HETATM    7  C   UNL     1     -10.975  14.593  67.234  1.00  0.00    -0.317 C  
HETATM    8  C   UNL     1     -12.734  13.731  65.783  1.00  0.00    -0.446 C  
HETATM    9  O   UNL     1     -12.326  14.127  67.093  1.00  0.00    -0.370 OA 
ENDROOT
BRANCH   7  10
HETATM   10  C   UNL     1     -10.790  15.077  68.699  1.00  0.00    -0.249 C  
HETATM   11  N   UNL     1     -10.836  13.985  69.670  1.00  0.00    -0.454 NA 
HETATM   12  H1  UNL     1     -10.715  14.303  70.631  1.00  0.00     0.000 HD 
HETATM   13  H2  UNL     1     -10.156  13.261  69.437  1.00  0.00     0.000 HD 
ENDBRANCH   7  10
BRANCH   8  14
HETATM   14  O   UNL     1     -12.318  12.419  65.405  1.00  0.00    -0.596 OA 
BRANCH  14  15
HETATM   15  C   UNL     1     -11.219  11.755  66.079  1.00  0.00    -0.296 C  
HETATM   16  C   UNL     1     -10.416  11.143  64.898  1.00  0.00    -0.308 C  
HETATM   17  N   UNL     1      -9.846  12.197  64.037  1.00  0.00    -0.536 NA 
HETATM   18  C   UNL     1      -9.259  10.235  65.268  1.00  0.00    -0.244 C  
HETATM   19  H2  UNL     1      -9.282  12.855  64.574  1.00  0.00     0.000 HD 
HETATM   20  H1  UNL     1      -9.319  11.795  63.262  1.00  0.00     0.000 HD 
HETATM   21  C   UNL     1      -9.632   9.160  66.276  1.00  0.00    -0.255 C  
HETATM   22  N   UNL     1      -8.397   8.380  66.456  1.00  0.00    -0.108 NA 
HETATM   23  C   UNL     1     -10.219   9.848  67.548  1.00  0.00    -0.216 C  
HETATM   24  C   UNL     1     -11.533  10.647  67.153  1.00  0.00     0.228 C  
HETATM   25  O   UNL     1     -12.087  11.261  68.331  1.00  0.00    -0.598 OA 
HETATM   26  H2  UNL     1      -7.587   8.938  66.725  1.00  0.00     0.000 HD 
HETATM   27  H1  UNL     1      -8.647   7.658  67.133  1.00  0.00     0.000 HD 
HETATM   28  H   UNL     1     -12.276  10.592  68.979  1.00  0.00     0.000 HD 
BRANCH  23  29
HETATM   29  O   UNL     1     -10.437   8.916  68.654  1.00  0.00    -0.214 OA 
BRANCH  29  30
HETATM   30  C   UNL     1      -9.800   9.371  69.882  1.00  0.00    -0.210 C  
HETATM   31  O   UNL     1     -10.698  10.160  70.672  1.00  0.00    -0.297 OA 
HETATM   32  C   UNL     1     -11.777   9.369  71.199  1.00  0.00    -0.345 C  
HETATM   33  C   UNL     1     -11.216   8.382  72.225  1.00  0.00    -0.376 C  
HETATM   34  H   UNL     1      -7.919   6.718  70.482  1.00  0.00     0.000 HD 
HETATM   35  O   UNL     1     -12.254   7.615  72.837  1.00  0.00    -0.564 OA 
HETATM   36  C   UNL     1     -10.205   7.441  71.527  1.00  0.00    -0.192 C  
HETATM   37  H1  UNL     1      -8.919   5.920  72.065  1.00  0.00     0.000 HD 
HETATM   38  H2  UNL     1     -10.284   6.024  73.062  1.00  0.00     0.000 HD 
HETATM   39  C   UNL     1      -9.160   8.248  70.740  1.00  0.00    -0.150 C  
HETATM   40  N   UNL     1      -9.586   6.540  72.526  1.00  0.00    -0.152 NA 
HETATM   41  H   UNL     1     -11.906   7.003  73.474  1.00  0.00     0.000 HD 
HETATM   42  O   UNL     1      -8.310   7.406  69.956  1.00  0.00    -0.132 OA 
BRANCH  32  43
HETATM   43  C   UNL     1     -12.814  10.330  71.781  1.00  0.00    -0.460 C  
HETATM   44  O   UNL     1     -12.753  11.568  71.058  1.00  0.00    -0.371 OA 
HETATM   45  H   UNL     1     -13.397  12.166  71.420  1.00  0.00     0.000 HD 
ENDBRANCH  32  43
ENDBRANCH  29  30
ENDBRANCH  23  29
ENDBRANCH  14  15
ENDBRANCH   8  14
TORSDOF 6
ENDMDL
MODEL        3
REMARK 921   NORMALIZED FREE ENERGY PREDICTED BY IDOCK:   -7.97 KCAL/MOL
REMARK 922        TOTAL FREE ENERGY PREDICTED BY IDOCK:  -12.32 KCAL/MOL
REMARK 923 INTER-LIGAND FREE ENERGY PREDICTED BY IDOCK:  -10.91 KCAL/MOL
REMARK 924 INTRA-LIGAND FREE ENERGY PREDICTED BY IDOCK:   -1.41 KCAL/MOL
REMARK 927      BINDING AFFINITY PREDICTED BY RF-SCORE:    0.00 PKD
ROOT
HETATM    1  C   UNL     1      -9.815   9.677  66.405  1.00  0.00    -0.244 C  
HETATM    2  C   UNL     1     -10.257   8.331  66.992  1.00  0.00    -0.380 C  
HETATM    3  N   UNL     1     -10.033   9.580  64.944  1.00  0.00    -0.311 NA 
HETATM    4  H1  UNL     1      -9.739  10.474  64.554  1.00  0.00     0.000 HD 
HETATM    5  C   UNL     1     -10.396   8.354  68.497  1.00  0.00    -0.232 C  
HETATM    6  H2  UNL     1     -10.986   9.321  64.692  1.00  0.00     0.000 HD 
HETATM    7  C   UNL     1     -11.135   9.597  68.991  1.00  0.00    -0.070 C  
HETATM    8  C   UNL     1     -10.425  10.966  67.102  1.00  0.00    -0.237 C  
HETATM    9  O   UNL     1     -10.545  10.817  68.517  1.00  0.00    -0.173 OA 
ENDROOT
BRANCH   7  10
HETATM   10  C   UNL     1     -11.055   9.600  70.542  1.00  0.00    -0.308 C  
HETATM   11  N   UNL     1     -12.180  10.294  71.169  1.00  0.00    -0.364 NA 
HETATM   12  H1  UNL     1     -12.127  10.296  72.187  1.00  0.00     0.000 HD 
HETATM   13  H2  UNL     1     -13.069   9.908  70.851  1.00  0.00     0.000 HD 
ENDBRANCH   7  10
BRANCH   8  14
HETATM   14  O   UNL     1     -11.625  11.376  66.446  1.00  0.00    -0.369 OA 
BRANCH  14  15
HETATM   15  C   UNL     1     -11.935  12.779  66.253  1.00  0.00    -0.395 C  
HETATM   16  C   UNL     1     -11.958  12.911  64.705  1.00  0.00    -0.392 C  
HETATM   17  N   UNL     1     -13.057  12.120  64.118  1.00  0.00    -0.734 NA 
HETATM   18  C   UNL     1     -12.111  14.314  64.150  1.00  0.00    -0.423 C  
HETATM   19  H2  UNL     1     -13.957  12.366  64.529  1.00  0.00     0.000 HD 
HETATM   20  H1  UNL     1     -13.072  12.207  63.101  1.00  0.00     0.000 HD 
HETATM   21  C   UNL     1     -11.141  15.314  64.759  1.00  0.00    -0.394 C  
HETATM   22  N   UNL     1     -11.427  16.577  64.059  1.00  0.00    -1.581 NA 
HETATM   23  C   UNL     1     -11.327  15.312  66.309  1.00  0.00    -0.155 C  
HETATM   24  C   UNL     1     -10.986  13.870  66.876  1.00  0.00    -0.295 C  
HETATM   25  O   UNL     1     -11.135  13.876  68.308  1.00  0.00    -0.241 OA 
HETATM   26  H2  UNL     1     -12.404  16.866  64.103  1.00  0.00     0.000 HD 
HETATM   27  H1  UNL     1     -10.776  17.248  64.468  1.00  0.00     0.000 HD 
HETATM   28  H   UNL     1     -10.562  14.535  68.684  1.00  0.00     0.000 HD 
BRANCH  23  29
HETATM   29  O   UNL     1     -10.573  16.373  66.976  1.00  0.00    -0.305 OA 
BRANCH  29  30
HETATM   30  C   UNL     1      -9.205  16.459  66.486  1.00  0.00    -0.277 C  
HETATM   31  O   UNL     1      -8.937  17.748  65.919  1.00  0.00    -0.511 OA 
HETATM   32  C   UNL     1      -8.934  18.779  66.921  1.00  0.00    -0.297 C  
HETATM   33  C   UNL     1      -7.736  18.571  67.847  1.00  0.00    -0.251 C  
HETATM   34  H   UNL     1      -7.729  14.596  68.785  1.00  0.00     0.000 HD 
HETATM   35  O   UNL     1      -7.641  19.610  68.823  1.00  0.00    -0.342 OA 
HETATM   36  C   UNL     1      -7.866  17.198  68.549  1.00  0.00    -0.257 C  
HETATM   37  H1  UNL     1      -6.752  16.037  69.842  1.00  0.00     0.000 HD 
HETATM   38  H2  UNL     1      -6.492  17.698  70.044  1.00  0.00     0.000 HD 
HETATM   39  C   UNL     1      -8.114  16.081  67.522  1.00  0.00    -0.148 C  
HETATM   40  N   UNL     1      -6.666  16.943  69.380  1.00  0.00    -0.238 NA 
HETATM   41  H   UNL     1      -6.896  19.481  69.399  1.00  0.00     0.000 HD 
HETATM   42  O   UNL     1      -8.397  14.828  68.150  1.00  0.00    -0.133 OA 
BRANCH  32  43
HETATM   43  C   UNL     1      -8.921  20.127  66.198  1.00  0.00    -0.192 C  
HETATM   44  O   UNL     1      -9.580  21.100  67.020  1.00  0.00    -0.664 OA 
HETATM   45  H   UNL     1      -9.572  21.937  66.571  1.00  0.00     0.000 HD 
ENDBRANCH  32  43
ENDBRANCH  29  30
ENDBRANCH  23  29
ENDBRANCH  14  15
ENDBRANCH   8  14
TORSDOF 6
ENDMDL
MODEL        4
REMARK 921   NORMALIZED FREE ENERGY PREDICTED BY IDOCK:   -7.95 KCAL/MOL
REMARK 922        TOTAL FREE ENERGY PREDICTED BY IDOCK:  -12.29 KCAL/MOL
REMARK 923 INTER-LIGAND FREE ENERGY PREDICTED BY IDOCK:  -10.69 KCAL/MOL
REMARK 924 INTRA-LIGAND FREE ENERGY PREDICTED BY IDOCK:   -1.61 KCAL/MOL
REMARK 927      BINDING AFFINITY PREDICTED BY RF-SCORE:    0.00 PKD
ROOT
HETATM    1  C   UNL     1      -9.310   8.191  71.500  1.00  0.00    -0.160 C  
HETATM    2  C   UNL     1     -10.299   7.213  72.146  1.00  0.00    -0.218 C  
HETATM    3  N   UNL     1      -8.295   7.359  70.817  1.00  0.00    -0.118 NA 
HETATM    4  H1  UNL     1      -7.638   8.009  70.388  1.00  0.00     0.000 HD 
HETATM    5  C   UNL     1     -11.568   7.879  72.626  1.00  0.00    -0.435 C  
HETATM    6  H2  UNL     1      -8.695   6.691  70.158  1.00  0.00     0.000 HD 
HETATM    7  C   UNL     1     -12.137   8.851  71.593  1.00  0.00    -0.346 C  
HETATM    8  C   UNL     1      -9.956   9.341  70.619  1.00  0.00    -0.273 C  
HETATM    9  O   UNL     1     -11.179   9.833  71.170  1.00  0.00    -0.346 OA 
ENDROOT
BRANCH   7  10
HETATM   10  C   UNL     1     -13.322   9.600  72.262  1.00  0.00    -0.408 C  
HETATM   11  N   UNL     1     -14.133   8.735  73.118  1.00  0.00    -1.183 NA 
HETATM   12  H1  UNL     1     -14.911   9.227  73.557  1.00  0.00     0.000 HD 
HETATM   13  H2  UNL     1     -13.555   8.268  73.817  1.00  0.00     0.000 HD 
ENDBRANCH   7  10
BRANCH   8  14
HETATM   14  O   UNL     1     -10.044   8.942  69.251  1.00  0.00    -0.191 OA 
BRANCH  14  15
HETATM   15  C   UNL     1     -10.438   9.879  68.217  1.00  0.00    -0.210 C  
HETATM   16  C   UNL     1      -9.859   9.228  66.930  1.00  0.00    -0.214 C  
HETATM   17  N   UNL     1     -10.514   7.937  66.644  1.00  0.00    -0.469 NA 
HETATM   18  C   UNL     1      -9.967  10.042  65.656  1.00  0.00    -0.355 C  
HETATM   19  H2  UNL     1     -11.527   8.034  66.592  1.00  0.00     0.000 HD 
HETATM   20  H1  UNL     1     -10.134   7.509  65.799  1.00  0.00     0.000 HD 
HETATM   21  C   UNL     1      -9.466  11.469  65.806  1.00  0.00    -0.234 C  
HETATM   22  N   UNL     1      -9.617  12.056  64.464  1.00  0.00    -0.458 NA 
HETATM   23  C   UNL     1     -10.253  12.157  66.965  1.00  0.00    -0.207 C  
HETATM   24  C   UNL     1      -9.975  11.380  68.320  1.00  0.00    -0.198 C  
HETATM   25  O   UNL     1     -10.681  12.029  69.393  1.00  0.00    -0.440 OA 
HETATM   26  H2  UNL     1     -10.560  11.984  64.082  1.00  0.00     0.000 HD 
HETATM   27  H1  UNL     1      -9.281  13.014  64.564  1.00  0.00     0.000 HD 
HETATM   28  H   UNL     1     -10.402  12.935  69.456  1.00  0.00     0.000 HD 
BRANCH  23  29
HETATM   29  O   UNL     1      -9.980  13.590  67.071  1.00  0.00    -0.238 OA 
BRANCH  29  30
HETATM   30  C   UNL     1     -11.184  14.388  66.885  1.00  0.00    -0.334 C  
HETATM   31  O   UNL     1     -11.721  14.817  68.142  1.00  0.00    -0.324 OA 
HETATM   32  C   UNL     1     -10.859  15.768  68.791  1.00  0.00    -0.274 C  
HETATM   33  C   UNL     1     -10.845  17.064  67.978  1.00  0.00    -0.330 C  
HETATM   34  H   UNL     1     -10.335  15.933  64.088  1.00  0.00     0.000 HD 
HETATM   35  O   UNL     1     -10.059  18.073  68.614  1.00  0.00    -0.367 OA 
HETATM   36  C   UNL     1     -10.288  16.773  66.564  1.00  0.00    -0.301 C  
HETATM   37  H1  UNL     1      -9.987  17.807  64.804  1.00  0.00     0.000 HD 
HETATM   38  H2  UNL     1      -9.882  18.788  66.181  1.00  0.00     0.000 HD 
HETATM   39  C   UNL     1     -11.028  15.591  65.918  1.00  0.00    -0.264 C  
HETATM   40  N   UNL     1     -10.354  17.999  65.737  1.00  0.00    -0.618 NA 
HETATM   41  H   UNL     1     -10.051  18.878  68.110  1.00  0.00     0.000 HD 
HETATM   42  O   UNL     1     -10.431  15.196  64.680  1.00  0.00    -0.300 OA 
BRANCH  32  43
HETATM   43  C   UNL     1     -11.365  15.950  70.222  1.00  0.00    -0.372 C  
HETATM   44  O   UNL     1     -11.212  14.711  70.928  1.00  0.00    -0.502 OA 
HETATM   45  H   UNL     1     -11.527  14.824  71.817  1.00  0.00     0.000 HD 
ENDBRANCH  32  43
ENDBRANCH  29  30
ENDBRANCH  23  29
ENDBRANCH  14  15
ENDBRANCH   8  14
TORSDOF 6
ENDMDL
MODEL        5
REMARK 921   NORMALIZED FREE ENERGY PREDICTED BY IDOCK:   -7.82 KCAL/MOL
REMARK 922        TOTAL FREE ENERGY PREDICTED BY IDOCK:  -12.12 KCAL/MOL
REMARK 923 INTER-LIGAND FREE ENERGY PREDICTED BY IDOCK:  -10.94 KCAL/MOL
REMARK 924 INTRA-LIGAND FREE ENERGY PREDICTED BY IDOCK:   -1.18 KCAL/MOL
REMARK 927      BINDING AFFINITY PREDICTED BY RF-SCORE:    0.00 PKD
ROOT
HETATM    1  C   UNL     1      -9.296   8.258  71.581  1.00  0.00    -0.192 C  
HETATM    2  C   UNL     1     -10.291   7.315  72.268  1.00  0.00    -0.239 C  
HETATM    3  N   UNL     1      -8.257   7.392  70.981  1.00  0.00    -0.109 NA 
HETATM    4  H1  UNL     1      -7.595   8.019  70.525  1.00  0.00     0.000 HD 
HETATM    5  C   UNL     1     -11.578   7.998  72.671  1.00  0.00    -0.448 C  
HETATM    6  H2  UNL     1      -8.634   6.678  70.358  1.00  0.00     0.000 HD 
HETATM    7  C   UNL     1     -12.130   8.892  71.562  1.00  0.00    -0.330 C  
HETATM    8  C   UNL     1      -9.930   9.340  70.609  1.00  0.00    -0.273 C  
HETATM    9  O   UNL     1     -11.170   9.854  71.097  1.00  0.00    -0.354 OA 
ENDROOT
BRANCH   7  10
HETATM   10  C   UNL     1     -13.337   9.672  72.151  1.00  0.00    -0.454 C  
HETATM   11  N   UNL     1     -14.037   8.931  73.200  1.00  0.00    -1.225 NA 
HETATM   12  H1  UNL     1     -14.830   9.444  73.586  1.00  0.00     0.000 HD 
HETATM   13  H2  UNL     1     -13.393   8.647  73.937  1.00  0.00     0.000 HD 
ENDBRANCH   7  10
BRANCH   8  14
HETATM   14  O   UNL     1      -9.980   8.848  69.270  1.00  0.00    -0.182 OA 
BRANCH  14  15
HETATM   15  C   UNL     1     -10.381   9.703  68.169  1.00  0.00    -0.209 C  
HETATM   16  C   UNL     1      -9.870   8.919  66.928  1.00  0.00    -0.223 C  
HETATM   17  N   UNL     1     -10.576   7.632  66.781  1.00  0.00    -0.478 NA 
HETATM   18  C   UNL     1      -9.997   9.620  65.590  1.00  0.00    -0.321 C  
HETATM   19  H2  UNL     1     -11.588   7.760  66.754  1.00  0.00     0.000 HD 
HETATM   20  H1  UNL     1     -10.241   7.118  65.966  1.00  0.00     0.000 HD 
HETATM   21  C   UNL     1      -9.445  11.037  65.594  1.00  0.00    -0.217 C  
HETATM   22  N   UNL     1      -9.625  11.506  64.210  1.00  0.00    -0.382 NA 
HETATM   23  C   UNL     1     -10.166  11.852  66.712  1.00  0.00    -0.206 C  
HETATM   24  C   UNL     1      -9.865  11.189  68.121  1.00  0.00    -0.180 C  
HETATM   25  O   UNL     1     -10.511  11.956  69.154  1.00  0.00    -0.396 OA 
HETATM   26  H2  UNL     1     -10.583  11.434  63.868  1.00  0.00     0.000 HD 
HETATM   27  H1  UNL     1      -9.254  12.457  64.213  1.00  0.00     0.000 HD 
HETATM   28  H   UNL     1     -10.200  12.854  69.125  1.00  0.00     0.000 HD 
BRANCH  23  29
HETATM   29  O   UNL     1      -9.843  13.278  66.678  1.00  0.00    -0.261 OA 
BRANCH  29  30
HETATM   30  C   UNL     1     -11.027  14.108  66.855  1.00  0.00    -0.300 C  
HETATM   31  O   UNL     1     -10.834  15.070  67.901  1.00  0.00    -0.265 OA 
HETATM   32  C   UNL     1      -9.856  16.060  67.539  1.00  0.00    -0.235 C  
HETATM   33  C   UNL     1     -10.413  16.917  66.401  1.00  0.00    -0.252 C  
HETATM   34  H   UNL     1     -11.988  14.293  63.697  1.00  0.00     0.000 HD 
HETATM   35  O   UNL     1      -9.511  17.966  66.045  1.00  0.00    -0.504 OA 
HETATM   36  C   UNL     1     -10.687  16.017  65.172  1.00  0.00    -0.409 C  
HETATM   37  H1  UNL     1     -11.492  16.224  63.283  1.00  0.00     0.000 HD 
HETATM   38  H2  UNL     1     -10.754  17.637  63.852  1.00  0.00     0.000 HD 
HETATM   39  C   UNL     1     -11.539  14.800  65.565  1.00  0.00    -0.301 C  
HETATM   40  N   UNL     1     -11.311  16.818  64.094  1.00  0.00    -1.085 NA 
HETATM   41  H   UNL     1      -9.857  18.499  65.339  1.00  0.00     0.000 HD 
HETATM   42  O   UNL     1     -11.675  13.869  64.488  1.00  0.00    -0.376 OA 
BRANCH  32  43
HETATM   43  C   UNL     1      -9.520  16.860  68.798  1.00  0.00    -0.264 C  
HETATM   44  O   UNL     1      -8.106  17.100  68.830  1.00  0.00    -0.264 OA 
HETATM   45  H   UNL     1      -7.897  17.596  69.612  1.00  0.00     0.000 HD 
ENDBRANCH  32  43
ENDBRANCH  29  30
ENDBRANCH  23  29
ENDBRANCH  14  15
ENDBRANCH   8  14
TORSDOF 6
ENDMDL
MODEL        6
REMARK 921   NORMALIZED FREE ENERGY PREDICTED BY IDOCK:   -7.68 KCAL/MOL
REMARK 922        TOTAL FREE ENERGY PREDICTED BY IDOCK:  -11.93 KCAL/MOL
REMARK 923 INTER-LIGAND FREE ENERGY PREDICTED BY IDOCK:  -11.04 KCAL/MOL
REMARK 924 INTRA-LIGAND FREE ENERGY PREDICTED BY IDOCK:   -0.89 KCAL/MOL
REMARK 927      BINDING AFFINITY PREDICTED BY RF-SCORE:    0.00 PKD
ROOT
HETATM    1  C   UNL     1      -9.807  17.633  68.732  1.00  0.00    -0.334 C  
HETATM    2  C   UNL     1     -10.008  19.152  68.779  1.00  0.00    -0.493 C  
HETATM    3  N   UNL     1     -11.014  17.039  69.347  1.00  0.00    -0.321 NA 
HETATM    4  H1  UNL     1     -10.881  16.029  69.316  1.00  0.00     0.000 HD 
HETATM    5  C   UNL     1      -9.021  19.911  67.922  1.00  0.00    -0.381 C  
HETATM    6  H2  UNL     1     -11.885  17.346  68.912  1.00  0.00     0.000 HD 
HETATM    7  C   UNL     1      -8.851  19.282  66.540  1.00  0.00    -0.346 C  
HETATM    8  C   UNL     1      -9.395  17.036  67.320  1.00  0.00    -0.237 C  
HETATM    9  O   UNL     1      -8.502  17.890  66.604  1.00  0.00    -0.241 OA 
ENDROOT
BRANCH   7  10
HETATM   10  C   UNL     1      -7.692  20.030  65.827  1.00  0.00    -0.235 C  
HETATM   11  N   UNL     1      -7.199  21.176  66.590  1.00  0.00    -0.657 NA 
HETATM   12  H1  UNL     1      -6.438  21.668  66.122  1.00  0.00     0.000 HD 
HETATM   13  H2  UNL     1      -6.927  20.897  67.533  1.00  0.00     0.000 HD 
ENDBRANCH   7  10
BRANCH   8  14
HETATM   14  O   UNL     1     -10.551  16.639  66.582  1.00  0.00    -0.286 OA 
BRANCH  14  15
HETATM   15  C   UNL     1     -10.647  15.320  65.986  1.00  0.00    -0.319 C  
HETATM   16  C   UNL     1     -11.771  15.505  64.930  1.00  0.00    -0.118 C  
HETATM   17  N   UNL     1     -11.361  16.450  63.874  1.00  0.00    -1.535 NA 
HETATM   18  C   UNL     1     -12.235  14.253  64.213  1.00  0.00    -0.451 C  
HETATM   19  H2  UNL     1     -10.482  16.170  63.441  1.00  0.00     0.000 HD 
HETATM   20  H1  UNL     1     -12.099  16.572  63.181  1.00  0.00     0.000 HD 
HETATM   21  C   UNL     1     -12.567  13.106  65.153  1.00  0.00    -0.465 C  
HETATM   22  N   UNL     1     -13.031  12.025  64.267  1.00  0.00    -0.634 NA 
HETATM   23  C   UNL     1     -11.315  12.802  66.035  1.00  0.00    -0.321 C  
HETATM   24  C   UNL     1     -10.964  14.081  66.905  1.00  0.00    -0.298 C  
HETATM   25  O   UNL     1      -9.824  13.792  67.735  1.00  0.00    -0.223 OA 
HETATM   26  H2  UNL     1     -12.371  11.781  63.529  1.00  0.00     0.000 HD 
HETATM   27  H1  UNL     1     -13.254  11.255  64.898  1.00  0.00     0.000 HD 
HETATM   28  H   UNL     1     -10.016  13.044  68.289  1.00  0.00     0.000 HD 
BRANCH  23  29
HETATM   29  O   UNL     1     -11.465  11.593  66.844  1.00  0.00    -0.426 OA 
BRANCH  29  30
HETATM   30  C   UNL     1     -10.177  11.016  67.203  1.00  0.00    -0.206 C  
HETATM   31  O   UNL     1     -10.054  10.866  68.623  1.00  0.00    -0.176 OA 
HETATM   32  C   UNL     1     -10.953   9.866  69.132  1.00  0.00    -0.200 C  
HETATM   33  C   UNL     1     -10.517   8.494  68.616  1.00  0.00    -0.169 C  
HETATM   34  H   UNL     1      -9.803   8.980  64.625  1.00  0.00     0.000 HD 
HETATM   35  O   UNL     1     -11.334   7.450  69.148  1.00  0.00    -0.436 OA 
HETATM   36  C   UNL     1     -10.588   8.484  67.070  1.00  0.00    -0.235 C  
HETATM   37  H1  UNL     1     -10.128   7.186  65.534  1.00  0.00     0.000 HD 
HETATM   38  H2  UNL     1     -10.570   6.397  66.964  1.00  0.00     0.000 HD 
HETATM   39  C   UNL     1      -9.833   9.687  66.481  1.00  0.00    -0.235 C  
HETATM   40  N   UNL     1     -10.082   7.193  66.553  1.00  0.00    -0.141 NA 
HETATM   41  H   UNL     1     -11.064   6.598  68.828  1.00  0.00     0.000 HD 
HETATM   42  O   UNL     1     -10.014   9.794  65.067  1.00  0.00    -0.286 OA 
BRANCH  32  43
HETATM   43  C   UNL     1     -10.950   9.975  70.657  1.00  0.00    -0.322 C  
HETATM   44  O   UNL     1     -12.198   9.476  71.159  1.00  0.00    -0.308 OA 
HETATM   45  H   UNL     1     -12.196   9.544  72.107  1.00  0.00     0.000 HD 
ENDBRANCH  32  43
ENDBRANCH  29  30
ENDBRANCH  23  29
ENDBRANCH  14  15
ENDBRANCH   8  14
TORSDOF 6
ENDMDL
MODEL        7
REMARK 921   NORMALIZED FREE ENERGY PREDICTED BY IDOCK:   -7.64 KCAL/MOL
REMARK 922        TOTAL FREE ENERGY PREDICTED BY IDOCK:  -11.88 KCAL/MOL
REMARK 923 INTER-LIGAND FREE ENERGY PREDICTED BY IDOCK:  -10.63 KCAL/MOL
REMARK 924 INTRA-LIGAND FREE ENERGY PREDICTED BY IDOCK:   -1.26 KCAL/MOL
REMARK 927      BINDING AFFINITY PREDICTED BY RF-SCORE:    0.00 PKD
ROOT
HETATM    1  C   UNL     1      -8.588  10.245  65.407  1.00  0.00    -0.159 C  
HETATM    2  C   UNL     1      -8.506   8.753  65.063  1.00  0.00    -0.193 C  
HETATM    3  N   UNL     1      -8.473  10.970  64.122  1.00  0.00    -0.369 NA 
HETATM    4  H1  UNL     1      -8.528  11.962  64.351  1.00  0.00     0.000 HD 
HETATM    5  C   UNL     1      -8.911   7.854  66.208  1.00  0.00    -0.188 C  
HETATM    6  H2  UNL     1      -9.159  10.676  63.427  1.00  0.00     0.000 HD 
HETATM    7  C   UNL     1     -10.190   8.332  66.894  1.00  0.00    -0.318 C  
HETATM    8  C   UNL     1      -9.809  10.673  66.326  1.00  0.00    -0.214 C  
HETATM    9  O   UNL     1     -10.108   9.699  67.327  1.00  0.00    -0.185 OA 
ENDROOT
BRANCH   7  10
HETATM   10  C   UNL     1     -10.402   7.446  68.152  1.00  0.00    -0.192 C  
HETATM   11  N   UNL     1     -11.489   6.480  67.992  1.00  0.00    -0.611 NA 
HETATM   12  H1  UNL     1     -11.628   5.899  68.819  1.00  0.00     0.000 HD 
HETATM   13  H2  UNL     1     -11.347   5.905  67.162  1.00  0.00     0.000 HD 
ENDBRANCH   7  10
BRANCH   8  14
HETATM   14  O   UNL     1     -10.928  11.066  65.531  1.00  0.00    -0.150 OA 
BRANCH  14  15
HETATM   15  C   UNL     1     -11.436  12.424  65.567  1.00  0.00    -0.361 C  
HETATM   16  C   UNL     1     -11.547  12.785  64.060  1.00  0.00    -0.424 C  
HETATM   17  N   UNL     1     -12.551  11.944  63.382  1.00  0.00    -0.800 NA 
HETATM   18  C   UNL     1     -11.915  14.220  63.736  1.00  0.00    -0.077 C  
HETATM   19  H2  UNL     1     -13.457  11.994  63.847  1.00  0.00     0.000 HD 
HETATM   20  H1  UNL     1     -12.624  12.181  62.392  1.00  0.00     0.000 HD 
HETATM   21  C   UNL     1     -11.065  15.243  64.471  1.00  0.00    -0.245 C  
HETATM   22  N   UNL     1     -11.553  16.544  63.985  1.00  0.00    -1.544 NA 
HETATM   23  C   UNL     1     -11.179  14.980  66.006  1.00  0.00    -0.310 C  
HETATM   24  C   UNL     1     -10.619  13.532  66.332  1.00  0.00    -0.283 C  
HETATM   25  O   UNL     1     -10.702  13.299  67.750  1.00  0.00    -0.237 OA 
HETATM   26  H2  UNL     1     -12.557  16.681  64.097  1.00  0.00     0.000 HD 
HETATM   27  H1  UNL     1     -10.983  17.232  64.478  1.00  0.00     0.000 HD 
HETATM   28  H   UNL     1     -10.209  13.968  68.211  1.00  0.00     0.000 HD 
BRANCH  23  29
HETATM   29  O   UNL     1     -10.549  16.024  66.814  1.00  0.00    -0.315 OA 
BRANCH  29  30
HETATM   30  C   UNL     1      -9.224  16.368  66.319  1.00  0.00    -0.315 C  
HETATM   31  O   UNL     1      -9.180  17.722  65.853  1.00  0.00    -0.519 OA 
HETATM   32  C   UNL     1      -9.322  18.661  66.933  1.00  0.00    -0.304 C  
HETATM   33  C   UNL     1      -8.086  18.581  67.829  1.00  0.00    -0.251 C  
HETATM   34  H   UNL     1      -7.417  14.601  68.452  1.00  0.00     0.000 HD 
HETATM   35  O   UNL     1      -8.139  19.545  68.883  1.00  0.00    -0.355 OA 
HETATM   36  C   UNL     1      -7.977  17.156  68.422  1.00  0.00    -0.250 C  
HETATM   37  H1  UNL     1      -6.663  16.097  69.609  1.00  0.00     0.000 HD 
HETATM   38  H2  UNL     1      -6.670  17.758  69.938  1.00  0.00     0.000 HD 
HETATM   39  C   UNL     1      -8.064  16.095  67.313  1.00  0.00    -0.175 C  
HETATM   40  N   UNL     1      -6.735  17.037  69.219  1.00  0.00    -0.237 NA 
HETATM   41  H   UNL     1      -7.371  19.495  69.439  1.00  0.00     0.000 HD 
HETATM   42  O   UNL     1      -8.127  14.768  67.843  1.00  0.00    -0.125 OA 
BRANCH  32  43
HETATM   43  C   UNL     1      -9.542  20.044  66.317  1.00  0.00    -0.407 C  
HETATM   44  O   UNL     1      -9.879  20.967  67.363  1.00  0.00    -0.513 OA 
HETATM   45  H   UNL     1     -10.016  21.826  66.980  1.00  0.00     0.000 HD 
ENDBRANCH  32  43
ENDBRANCH  29  30
ENDBRANCH  23  29
ENDBRANCH  14  15
ENDBRANCH   8  14
TORSDOF 6
ENDMDL
MODEL        8
REMARK 921   NORMALIZED FREE ENERGY PREDICTED BY IDOCK:   -7.63 KCAL/MOL
REMARK 922        TOTAL FREE ENERGY PREDICTED BY IDOCK:  -11.86 KCAL/MOL
REMARK 923 INTER-LIGAND FREE ENERGY PREDICTED BY IDOCK:  -10.21 KCAL/MOL
REMARK 924 INTRA-LIGAND FREE ENERGY PREDICTED BY IDOCK:   -1.65 KCAL/MOL
REMARK 927      BINDING AFFINITY PREDICTED BY RF-SCORE:    0.00 PKD
ROOT
HETATM    1  C   UNL     1      -9.553   9.407  66.614  1.00  0.00    -0.192 C  
HETATM    2  C   UNL     1     -10.369   8.340  67.354  1.00  0.00    -0.350 C  
HETATM    3  N   UNL     1      -9.648   9.072  65.176  1.00  0.00    -0.421 NA 
HETATM    4  H1  UNL     1      -9.105   9.781  64.684  1.00  0.00     0.000 HD 
HETATM    5  C   UNL     1     -10.640   8.693  68.799  1.00  0.00    -0.169 C  
HETATM    6  H2  UNL     1     -10.608   8.991  64.840  1.00  0.00     0.000 HD 
HETATM    7  C   UNL     1     -11.091  10.143  68.965  1.00  0.00    -0.205 C  
HETATM    8  C   UNL     1      -9.886  10.912  66.989  1.00  0.00    -0.183 C  
HETATM    9  O   UNL     1     -10.174  11.080  68.378  1.00  0.00    -0.171 OA 
ENDROOT
BRANCH   7  10
HETATM   10  C   UNL     1     -11.160  10.438  70.488  1.00  0.00    -0.265 C  
HETATM   11  N   UNL     1     -11.914  11.652  70.801  1.00  0.00    -0.433 NA 
HETATM   12  H1  UNL     1     -11.959  11.844  71.801  1.00  0.00     0.000 HD 
HETATM   13  H2  UNL     1     -12.849  11.615  70.394  1.00  0.00     0.000 HD 
ENDBRANCH   7  10
BRANCH   8  14
HETATM   14  O   UNL     1     -10.879  11.444  66.112  1.00  0.00    -0.274 OA 
BRANCH  14  15
HETATM   15  C   UNL     1     -11.203  12.857  66.110  1.00  0.00    -0.292 C  
HETATM   16  C   UNL     1     -11.931  13.037  64.749  1.00  0.00    -0.395 C  
HETATM   17  N   UNL     1     -13.199  12.283  64.718  1.00  0.00    -0.539 NA 
HETATM   18  C   UNL     1     -12.281  14.459  64.355  1.00  0.00    -0.481 C  
HETATM   19  H2  UNL     1     -13.802  12.531  65.502  1.00  0.00     0.000 HD 
HETATM   20  H1  UNL     1     -13.677  12.401  63.824  1.00  0.00     0.000 HD 
HETATM   21  C   UNL     1     -11.111  15.423  64.468  1.00  0.00    -0.256 C  
HETATM   22  N   UNL     1     -11.650  16.712  64.003  1.00  0.00    -1.496 NA 
HETATM   23  C   UNL     1     -10.564  15.377  65.929  1.00  0.00    -0.339 C  
HETATM   24  C   UNL     1     -10.043  13.913  66.248  1.00  0.00    -0.300 C  
HETATM   25  O   UNL     1      -9.517  13.878  67.587  1.00  0.00    -0.201 OA 
HETATM   26  H2  UNL     1     -12.489  17.015  64.497  1.00  0.00     0.000 HD 
HETATM   27  H1  UNL     1     -10.865  17.359  64.079  1.00  0.00     0.000 HD 
HETATM   28  H   UNL     1      -8.817  14.515  67.670  1.00  0.00     0.000 HD 
BRANCH  23  29
HETATM   29  O   UNL     1      -9.558  16.405  66.196  1.00  0.00    -0.290 OA 
BRANCH  29  30
HETATM   30  C   UNL     1      -9.911  17.226  67.345  1.00  0.00    -0.278 C  
HETATM   31  O   UNL     1      -9.209  16.803  68.520  1.00  0.00    -0.227 OA 
HETATM   32  C   UNL     1      -7.798  17.065  68.419  1.00  0.00    -0.233 C  
HETATM   33  C   UNL     1      -7.570  18.577  68.425  1.00  0.00    -0.292 C  
HETATM   34  H   UNL     1     -10.286  20.123  65.796  1.00  0.00     0.000 HD 
HETATM   35  O   UNL     1      -6.178  18.898  68.398  1.00  0.00    -0.215 OA 
HETATM   36  C   UNL     1      -8.280  19.205  67.202  1.00  0.00    -0.270 C  
HETATM   37  H1  UNL     1      -8.613  21.092  66.438  1.00  0.00     0.000 HD 
HETATM   38  H2  UNL     1      -7.170  20.972  67.315  1.00  0.00     0.000 HD 
HETATM   39  C   UNL     1      -9.748  18.754  67.132  1.00  0.00    -0.301 C  
HETATM   40  N   UNL     1      -8.145  20.679  67.244  1.00  0.00    -0.314 NA 
HETATM   41  H   UNL     1      -6.036  19.837  68.402  1.00  0.00     0.000 HD 
HETATM   42  O   UNL     1     -10.386  19.188  65.927  1.00  0.00    -0.446 OA 
BRANCH  32  43
HETATM   43  C   UNL     1      -7.109  16.339  69.575  1.00  0.00    -0.141 C  
HETATM   44  O   UNL     1      -7.556  14.976  69.598  1.00  0.00    -0.243 OA 
HETATM   45  H   UNL     1      -7.128  14.525  70.316  1.00  0.00     0.000 HD 
ENDBRANCH  32  43
ENDBRANCH  29  30
ENDBRANCH  23  29
ENDBRANCH  14  15
ENDBRANCH   8  14
TORSDOF 6
ENDMDL
MODEL        9
REMARK 921   NORMALIZED FREE ENERGY PREDICTED BY IDOCK:   -7.62 KCAL/MOL
REMARK 922        TOTAL FREE ENERGY PREDICTED BY IDOCK:  -11.85 KCAL/MOL
REMARK 923 INTER-LIGAND FREE ENERGY PREDICTED BY IDOCK:  -10.38 KCAL/MOL
REMARK 924 INTRA-LIGAND FREE ENERGY PREDICTED BY IDOCK:   -1.47 KCAL/MOL
REMARK 927      BINDING AFFINITY PREDICTED BY RF-SCORE:    0.00 PKD
ROOT
HETATM    1  C   UNL     1      -9.953   7.209  71.601  1.00  0.00    -0.177 C  
HETATM    2  C   UNL     1     -10.919   6.057  71.905  1.00  0.00    -0.316 C  
HETATM    3  N   UNL     1      -8.729   6.585  71.053  1.00  0.00    -0.138 NA 
HETATM    4  H1  UNL     1      -8.087   7.352  70.851  1.00  0.00     0.000 HD 
HETATM    5  C   UNL     1     -12.330   6.519  72.183  1.00  0.00    -0.244 C  
HETATM    6  H2  UNL     1      -8.905   5.982  70.250  1.00  0.00     0.000 HD 
HETATM    7  C   UNL     1     -12.804   7.566  71.176  1.00  0.00    -0.222 C  
HETATM    8  C   UNL     1     -10.555   8.403  70.746  1.00  0.00    -0.207 C  
HETATM    9  O   UNL     1     -11.913   8.689  71.083  1.00  0.00    -0.290 OA 
ENDROOT
BRANCH   7  10
HETATM   10  C   UNL     1     -14.181   8.093  71.666  1.00  0.00    -0.446 C  
HETATM   11  N   UNL     1     -14.088   8.866  72.905  1.00  0.00    -1.094 NA 
HETATM   12  H1  UNL     1     -14.992   9.212  73.226  1.00  0.00     0.000 HD 
HETATM   13  H2  UNL     1     -13.418   9.630  72.808  1.00  0.00     0.000 HD 
ENDBRANCH   7  10
BRANCH   8  14
HETATM   14  O   UNL     1     -10.323   8.194  69.353  1.00  0.00    -0.211 OA 
BRANCH  14  15
HETATM   15  C   UNL     1     -10.641   9.216  68.375  1.00  0.00    -0.172 C  
HETATM   16  C   UNL     1      -9.975   8.669  67.082  1.00  0.00    -0.231 C  
HETATM   17  N   UNL     1     -10.610   7.412  66.645  1.00  0.00    -0.509 NA 
HETATM   18  C   UNL     1      -9.990   9.587  65.876  1.00  0.00    -0.342 C  
HETATM   19  H2  UNL     1     -11.617   7.521  66.530  1.00  0.00     0.000 HD 
HETATM   20  H1  UNL     1     -10.172   7.053  65.796  1.00  0.00     0.000 HD 
HETATM   21  C   UNL     1      -9.499  10.993  66.179  1.00  0.00    -0.203 C  
HETATM   22  N   UNL     1      -9.553  11.690  64.883  1.00  0.00    -0.370 NA 
HETATM   23  C   UNL     1     -10.364  11.589  67.333  1.00  0.00    -0.207 C  
HETATM   24  C   UNL     1     -10.184  10.700  68.635  1.00  0.00    -0.182 C  
HETATM   25  O   UNL     1     -10.963  11.263  69.706  1.00  0.00    -0.417 OA 
HETATM   26  H2  UNL     1     -10.467  11.657  64.432  1.00  0.00     0.000 HD 
HETATM   27  H1  UNL     1      -9.224  12.634  65.086  1.00  0.00     0.000 HD 
HETATM   28  H   UNL     1     -10.686  12.159  69.863  1.00  0.00     0.000 HD 
BRANCH  23  29
HETATM   29  O   UNL     1     -10.096  13.006  67.577  1.00  0.00    -0.214 OA 
BRANCH  29  30
HETATM   30  C   UNL     1     -11.224  13.845  67.196  1.00  0.00    -0.313 C  
HETATM   31  O   UNL     1     -12.211  13.888  68.234  1.00  0.00    -0.332 OA 
HETATM   32  C   UNL     1     -11.730  14.585  69.397  1.00  0.00    -0.318 C  
HETATM   33  C   UNL     1     -11.550  16.064  69.052  1.00  0.00    -0.349 C  
HETATM   34  H   UNL     1      -9.583  16.141  65.473  1.00  0.00     0.000 HD 
HETATM   35  O   UNL     1     -11.140  16.822  70.191  1.00  0.00    -0.451 OA 
HETATM   36  C   UNL     1     -10.501  16.200  67.922  1.00  0.00    -0.290 C  
HETATM   37  H1  UNL     1      -9.691  17.708  66.770  1.00  0.00     0.000 HD 
HETATM   38  H2  UNL     1     -10.175  18.229  68.306  1.00  0.00     0.000 HD 
HETATM   39  C   UNL     1     -10.847  15.279  66.741  1.00  0.00    -0.312 C  
HETATM   40  N   UNL     1     -10.382  17.618  67.515  1.00  0.00    -0.351 NA 
HETATM   41  H   UNL     1     -11.028  17.741  69.977  1.00  0.00     0.000 HD 
HETATM   42  O   UNL     1      -9.815  15.263  65.752  1.00  0.00    -0.319 OA 
BRANCH  32  43
HETATM   43  C   UNL     1     -12.728  14.340  70.529  1.00  0.00    -0.328 C  
HETATM   44  O   UNL     1     -13.604  15.472  70.628  1.00  0.00    -0.826 OA 
HETATM   45  H   UNL     1     -14.223  15.319  71.332  1.00  0.00     0.000 HD 
ENDBRANCH  32  43
ENDBRANCH  29  30
ENDBRANCH  23  29
ENDBRANCH  14  15
ENDBRANCH   8  14
TORSDOF 6
ENDMDL
MODEL       10
REMARK 921   NORMALIZED FREE ENERGY PREDICTED BY IDOCK:   -7.53 KCAL/MOL
REMARK 922        TOTAL FREE ENERGY PREDICTED BY IDOCK:  -11.72 KCAL/MOL
REMARK 923 INTER-LIGAND FREE ENERGY PREDICTED BY IDOCK:   -9.84 KCAL/MOL
REMARK 924 INTRA-LIGAND FREE ENERGY PREDICTED BY IDOCK:   -1.88 KCAL/MOL
REMARK 927      BINDING AFFINITY PREDICTED BY RF-SCORE:    0.00 PKD
ROOT
HETATM    1  C   UNL     1     -10.367   5.006  69.874  1.00  0.00    -0.228 C  
HETATM    2  C   UNL     1      -9.515   3.840  69.359  1.00  0.00    -0.257 C  
HETATM    3  N   UNL     1      -9.880   5.299  71.241  1.00  0.00    -0.165 NA 
HETATM    4  H1  UNL     1     -10.447   6.074  71.583  1.00  0.00     0.000 HD 
HETATM    5  C   UNL     1      -9.661   3.606  67.873  1.00  0.00    -0.180 C  
HETATM    6  H2  UNL     1      -8.877   5.479  71.284  1.00  0.00     0.000 HD 
HETATM    7  C   UNL     1      -9.601   4.907  67.074  1.00  0.00    -0.159 C  
HETATM    8  C   UNL     1     -10.479   6.258  68.906  1.00  0.00    -0.232 C  
HETATM    9  O   UNL     1     -10.554   5.881  67.530  1.00  0.00    -0.225 OA 
ENDROOT
BRANCH   7  10
HETATM   10  C   UNL     1      -9.942   4.564  65.599  1.00  0.00    -0.231 C  
HETATM   11  N   UNL     1     -11.372   4.665  65.306  1.00  0.00    -1.078 NA 
HETATM   12  H1  UNL     1     -11.595   4.439  64.336  1.00  0.00     0.000 HD 
HETATM   13  H2  UNL     1     -11.731   5.586  65.558  1.00  0.00     0.000 HD 
ENDBRANCH   7  10
BRANCH   8  14
HETATM   14  O   UNL     1      -9.464   7.218  69.201  1.00  0.00    -0.149 OA 
BRANCH  14  15
HETATM   15  C   UNL     1      -9.762   8.636  69.255  1.00  0.00    -0.173 C  
HETATM   16  C   UNL     1     -10.627   8.751  70.541  1.00  0.00    -0.215 C  
HETATM   17  N   UNL     1      -9.844   8.407  71.744  1.00  0.00    -0.217 NA 
HETATM   18  C   UNL     1     -11.245  10.108  70.818  1.00  0.00    -0.414 C  
HETATM   19  H2  UNL     1      -8.995   8.968  71.811  1.00  0.00     0.000 HD 
HETATM   20  H1  UNL     1     -10.412   8.484  72.588  1.00  0.00     0.000 HD 
HETATM   21  C   UNL     1     -11.980  10.693  69.624  1.00  0.00    -0.268 C  
HETATM   22  N   UNL     1     -12.530  11.967  70.117  1.00  0.00    -0.136 NA 
HETATM   23  C   UNL     1     -10.992  10.775  68.418  1.00  0.00    -0.248 C  
HETATM   24  C   UNL     1     -10.501   9.314  68.042  1.00  0.00    -0.223 C  
HETATM   25  O   UNL     1      -9.609   9.388  66.915  1.00  0.00    -0.148 OA 
HETATM   26  H2  UNL     1     -11.833  12.591  70.524  1.00  0.00     0.000 HD 
HETATM   27  H1  UNL     1     -13.023  12.360  69.316  1.00  0.00     0.000 HD 
HETATM   28  H   UNL     1     -10.056   9.798  66.183  1.00  0.00     0.000 HD 
BRANCH  23  29
HETATM   29  O   UNL     1     -11.545  11.497  67.273  1.00  0.00    -0.506 OA 
BRANCH  29  30
HETATM   30  C   UNL     1     -10.658  12.559  66.819  1.00  0.00    -0.233 C  
HETATM   31  O   UNL     1      -9.767  12.089  65.800  1.00  0.00    -0.240 OA 
HETATM   32  C   UNL     1     -10.468  11.778  64.583  1.00  0.00    -0.299 C  
HETATM   33  C   UNL     1     -11.010  13.072  63.976  1.00  0.00    -0.389 C  
HETATM   34  H   UNL     1     -12.756  15.103  67.059  1.00  0.00     0.000 HD 
HETATM   35  O   UNL     1     -11.657  12.834  62.724  1.00  0.00    -0.657 OA 
HETATM   36  C   UNL     1     -12.004  13.724  64.968  1.00  0.00    -0.383 C  
HETATM   37  H1  UNL     1     -13.122  15.454  65.086  1.00  0.00     0.000 HD 
HETATM   38  H2  UNL     1     -12.864  14.934  63.496  1.00  0.00     0.000 HD 
HETATM   39  C   UNL     1     -11.373  13.858  66.363  1.00  0.00    -0.328 C  
HETATM   40  N   UNL     1     -12.468  15.024  64.432  1.00  0.00    -0.565 NA 
HETATM   41  H   UNL     1     -11.994  13.637  62.347  1.00  0.00     0.000 HD 
HETATM   42  O   UNL     1     -12.318  14.308  67.338  1.00  0.00    -0.311 OA 
BRANCH  32  43
HETATM   43  C   UNL     1      -9.495  11.034  63.666  1.00  0.00    -0.272 C  
HETATM   44  O   UNL     1     -10.233  10.459  62.578  1.00  0.00    -0.712 OA 
HETATM   45  H   UNL     1      -9.628   9.997  62.009  1.00  0.00     0.000 HD 
ENDBRANCH  32  43
ENDBRANCH  29  30
ENDBRANCH  23  29
ENDBRANCH  14  15
ENDBRANCH   8  14
TORSDOF 6
ENDMDL
MODEL       11
REMARK 921   NORMALIZED FREE ENERGY PREDICTED BY IDOCK:   -7.44 KCAL/MOL
REMARK 922        TOTAL FREE ENERGY PREDICTED BY IDOCK:  -11.60 KCAL/MOL
REMARK 923 INTER-LIGAND FREE ENERGY PREDICTED BY IDOCK:   -9.74 KCAL/MOL
REMARK 924 INTRA-LIGAND FREE ENERGY PREDICTED BY IDOCK:   -1.86 KCAL/MOL
REMARK 927      BINDING AFFINITY PREDICTED BY RF-SCORE:    0.00 PKD
ROOT
HETATM    1  C   UNL     1      -9.797  15.861  66.243  1.00  0.00    -0.302 C  
HETATM    2  C   UNL     1      -8.552  16.754  66.279  1.00  0.00    -0.340 C  
HETATM    3  N   UNL     1      -9.302  14.468  66.177  1.00  0.00    -0.475 NA 
HETATM    4  H1  UNL     1     -10.130  13.874  66.153  1.00  0.00     0.000 HD 
HETATM    5  C   UNL     1      -8.857  18.186  66.654  1.00  0.00    -0.287 C  
HETATM    6  H2  UNL     1      -8.655  14.231  66.930  1.00  0.00     0.000 HD 
HETATM    7  C   UNL     1      -9.807  18.282  67.847  1.00  0.00    -0.317 C  
HETATM    8  C   UNL     1     -10.884  16.148  67.363  1.00  0.00    -0.265 C  
HETATM    9  O   UNL     1     -11.021  17.541  67.648  1.00  0.00    -0.294 OA 
ENDROOT
BRANCH   7  10
HETATM   10  C   UNL     1     -10.187  19.778  68.021  1.00  0.00    -0.451 C  
HETATM   11  N   UNL     1      -9.760  20.609  66.896  1.00  0.00    -0.643 NA 
HETATM   12  H1  UNL     1     -10.009  21.591  67.010  1.00  0.00     0.000 HD 
HETATM   13  H2  UNL     1     -10.119  20.242  66.014  1.00  0.00     0.000 HD 
ENDBRANCH   7  10
BRANCH   8  14
HETATM   14  O   UNL     1     -10.656  15.329  68.510  1.00  0.00    -0.228 OA 
BRANCH  14  15
HETATM   15  C   UNL     1     -11.573  14.265  68.869  1.00  0.00    -0.305 C  
HETATM   16  C   UNL     1     -11.997  14.654  70.312  1.00  0.00    -0.308 C  
HETATM   17  N   UNL     1     -12.751  15.922  70.323  1.00  0.00    -0.628 NA 
HETATM   18  C   UNL     1     -12.857  13.650  71.055  1.00  0.00    -0.360 C  
HETATM   19  H2  UNL     1     -13.552  15.888  69.693  1.00  0.00     0.000 HD 
HETATM   20  H1  UNL     1     -13.030  16.177  71.270  1.00  0.00     0.000 HD 
HETATM   21  C   UNL     1     -12.301  12.236  71.023  1.00  0.00    -0.220 C  
HETATM   22  N   UNL     1     -13.249  11.449  71.828  1.00  0.00    -0.439 NA 
HETATM   23  C   UNL     1     -12.115  11.804  69.535  1.00  0.00    -0.250 C  
HETATM   24  C   UNL     1     -11.071  12.773  68.835  1.00  0.00    -0.262 C  
HETATM   25  O   UNL     1     -10.882  12.359  67.469  1.00  0.00    -0.225 OA 
HETATM   26  H2  UNL     1     -14.218  11.521  71.517  1.00  0.00     0.000 HD 
HETATM   27  H1  UNL     1     -12.876  10.499  71.806  1.00  0.00     0.000 HD 
HETATM   28  H   UNL     1     -10.579  11.458  67.449  1.00  0.00     0.000 HD 
BRANCH  23  29
HETATM   29  O   UNL     1     -11.760  10.393  69.389  1.00  0.00    -0.229 OA 
BRANCH  29  30
HETATM   30  C   UNL     1     -10.514  10.072  70.070  1.00  0.00    -0.287 C  
HETATM   31  O   UNL     1     -10.761   9.477  71.350  1.00  0.00    -0.346 OA 
HETATM   32  C   UNL     1     -11.349   8.170  71.225  1.00  0.00    -0.265 C  
HETATM   33  C   UNL     1     -10.322   7.218  70.611  1.00  0.00    -0.204 C  
HETATM   34  H   UNL     1      -8.708   9.216  67.436  1.00  0.00     0.000 HD 
HETATM   35  O   UNL     1     -10.827   5.885  70.527  1.00  0.00    -0.272 OA 
HETATM   36  C   UNL     1      -9.934   7.726  69.202  1.00  0.00    -0.182 C  
HETATM   37  H1  UNL     1      -8.617   7.199  67.703  1.00  0.00     0.000 HD 
HETATM   38  H2  UNL     1      -9.140   5.879  68.626  1.00  0.00     0.000 HD 
HETATM   39  C   UNL     1      -9.524   9.206  69.248  1.00  0.00    -0.158 C  
HETATM   40  N   UNL     1      -8.873   6.864  68.633  1.00  0.00    -0.125 NA 
HETATM   41  H   UNL     1     -10.189   5.293  70.147  1.00  0.00     0.000 HD 
HETATM   42  O   UNL     1      -9.314   9.746  67.940  1.00  0.00    -0.128 OA 
BRANCH  32  43
HETATM   43  C   UNL     1     -11.826   7.743  72.613  1.00  0.00    -0.262 C  
HETATM   44  O   UNL     1     -12.839   8.657  73.057  1.00  0.00    -0.677 OA 
HETATM   45  H   UNL     1     -13.135   8.392  73.919  1.00  0.00     0.000 HD 
ENDBRANCH  32  43
ENDBRANCH  29  30
ENDBRANCH  23  29
ENDBRANCH  14  15
ENDBRANCH   8  14
TORSDOF 6
ENDMDL
MODEL       12
REMARK 921   NORMALIZED FREE ENERGY PREDICTED BY IDOCK:   -7.39 KCAL/MOL
REMARK 922        TOTAL FREE ENERGY PREDICTED BY IDOCK:  -11.53 KCAL/MOL
REMARK 923 INTER-LIGAND FREE ENERGY PREDICTED BY IDOCK:   -9.49 KCAL/MOL
REMARK 924 INTRA-LIGAND FREE ENERGY PREDICTED BY IDOCK:   -2.04 KCAL/MOL
REMARK 927      BINDING AFFINITY PREDICTED BY RF-SCORE:    0.00 PKD
ROOT
HETATM    1  C   UNL     1      -9.727   7.032  73.138  1.00  0.00    -0.184 C  
HETATM    2  C   UNL     1     -10.420   5.740  72.690  1.00  0.00    -0.243 C  
HETATM    3  N   UNL     1      -8.273   6.778  73.030  1.00  0.00    -0.108 NA 
HETATM    4  H1  UNL     1      -7.812   7.637  73.328  1.00  0.00     0.000 HD 
HETATM    5  C   UNL     1     -11.901   5.913  72.443  1.00  0.00    -0.263 C  
HETATM    6  H2  UNL     1      -7.984   6.463  72.103  1.00  0.00     0.000 HD 
HETATM    7  C   UNL     1     -12.210   7.175  71.637  1.00  0.00    -0.350 C  
HETATM    8  C   UNL     1     -10.241   8.365  72.447  1.00  0.00    -0.329 C  
HETATM    9  O   UNL     1     -11.653   8.359  72.229  1.00  0.00    -0.341 OA 
ENDROOT
BRANCH   7  10
HETATM   10  C   UNL     1     -13.753   7.341  71.605  1.00  0.00    -0.347 C  
HETATM   11  N   UNL     1     -14.176   8.651  71.110  1.00  0.00    -0.613 NA 
HETATM   12  H1  UNL     1     -15.189   8.759  71.089  1.00  0.00     0.000 HD 
HETATM   13  H2  UNL     1     -13.769   8.843  70.194  1.00  0.00     0.000 HD 
ENDBRANCH   7  10
BRANCH   8  14
HETATM   14  O   UNL     1      -9.465   8.665  71.287  1.00  0.00    -0.180 OA 
BRANCH  14  15
HETATM   15  C   UNL     1      -9.942   8.340  69.957  1.00  0.00    -0.188 C  
HETATM   16  C   UNL     1      -8.687   7.709  69.291  1.00  0.00    -0.136 C  
HETATM   17  N   UNL     1      -8.307   6.448  69.956  1.00  0.00    -0.128 NA 
HETATM   18  C   UNL     1      -8.799   7.385  67.815  1.00  0.00    -0.128 C  
HETATM   19  H2  UNL     1      -9.086   5.791  69.987  1.00  0.00     0.000 HD 
HETATM   20  H1  UNL     1      -7.484   6.034  69.519  1.00  0.00     0.000 HD 
HETATM   21  C   UNL     1      -9.324   8.542  66.980  1.00  0.00    -0.161 C  
HETATM   22  N   UNL     1      -9.310   8.035  65.598  1.00  0.00    -0.413 NA 
HETATM   23  C   UNL     1     -10.707   8.985  67.551  1.00  0.00    -0.169 C  
HETATM   24  C   UNL     1     -10.521   9.485  69.045  1.00  0.00    -0.213 C  
HETATM   25  O   UNL     1     -11.793   9.916  69.563  1.00  0.00    -0.461 OA 
HETATM   26  H2  UNL     1      -9.823   7.163  65.469  1.00  0.00     0.000 HD 
HETATM   27  H1  UNL     1      -9.662   8.811  65.037  1.00  0.00     0.000 HD 
HETATM   28  H   UNL     1     -12.142  10.608  69.012  1.00  0.00     0.000 HD 
BRANCH  23  29
HETATM   29  O   UNL     1     -11.386   9.968  66.708  1.00  0.00     0.098 OA 
BRANCH  29  30
HETATM   30  C   UNL     1     -10.628  11.207  66.599  1.00  0.00    -0.264 C  
HETATM   31  O   UNL     1      -9.795  11.205  65.432  1.00  0.00    -0.217 OA 
HETATM   32  C   UNL     1     -10.574  11.252  64.224  1.00  0.00    -0.358 C  
HETATM   33  C   UNL     1     -11.267  12.612  64.131  1.00  0.00    -0.386 C  
HETATM   34  H   UNL     1     -12.890  13.289  67.817  1.00  0.00     0.000 HD 
HETATM   35  O   UNL     1     -12.001  12.745  62.912  1.00  0.00    -0.698 OA 
HETATM   36  C   UNL     1     -12.218  12.783  65.341  1.00  0.00    -0.478 C  
HETATM   37  H1  UNL     1     -13.454  14.245  66.110  1.00  0.00     0.000 HD 
HETATM   38  H2  UNL     1     -13.296  14.323  64.426  1.00  0.00     0.000 HD 
HETATM   39  C   UNL     1     -11.480  12.502  66.659  1.00  0.00    -0.359 C  
HETATM   40  N   UNL     1     -12.827  14.132  65.313  1.00  0.00    -0.710 NA 
HETATM   41  H   UNL     1     -12.431  13.589  62.854  1.00  0.00     0.000 HD 
HETATM   42  O   UNL     1     -12.367  12.496  67.780  1.00  0.00    -0.266 OA 
BRANCH  32  43
HETATM   43  C   UNL     1      -9.630  10.967  63.055  1.00  0.00    -0.358 C  
HETATM   44  O   UNL     1      -9.626   9.555  62.797  1.00  0.00    -0.543 OA 
HETATM   45  H   UNL     1      -9.040   9.378  62.071  1.00  0.00     0.000 HD 
ENDBRANCH  32  43
ENDBRANCH  29  30
ENDBRANCH  23  29
ENDBRANCH  14  15
ENDBRANCH   8  14
TORSDOF 6
ENDMDL
MODEL       13
REMARK 921   NORMALIZED FREE ENERGY PREDICTED BY IDOCK:   -7.26 KCAL/MOL
REMARK 922        TOTAL FREE ENERGY PREDICTED BY IDOCK:  -11.36 KCAL/MOL
REMARK 923 INTER-LIGAND FREE ENERGY PREDICTED BY IDOCK:  -10.12 KCAL/MOL
REMARK 924 INTRA-LIGAND FREE ENERGY PREDICTED BY IDOCK:   -1.25 KCAL/MOL
REMARK 927      BINDING AFFINITY PREDICTED BY RF-SCORE:    0.00 PKD
ROOT
HETATM    1  C   UNL     1     -10.006   6.436  70.736  1.00  0.00    -0.185 C  
HETATM    2  C   UNL     1     -11.160   6.001  71.647  1.00  0.00    -0.333 C  
HETATM    3  N   UNL     1      -9.575   5.222  70.009  1.00  0.00    -0.161 NA 
HETATM    4  H1  UNL     1      -8.808   5.511  69.403  1.00  0.00     0.000 HD 
HETATM    5  C   UNL     1     -11.926   7.163  72.236  1.00  0.00    -0.256 C  
HETATM    6  H2  UNL     1     -10.333   4.757  69.509  1.00  0.00     0.000 HD 
HETATM    7  C   UNL     1     -12.239   8.236  71.194  1.00  0.00    -0.233 C  
HETATM    8  C   UNL     1     -10.286   7.710  69.832  1.00  0.00    -0.225 C  
HETATM    9  O   UNL     1     -11.067   8.699  70.506  1.00  0.00    -0.240 OA 
ENDROOT
BRANCH   7  10
HETATM   10  C   UNL     1     -12.858   9.447  71.945  1.00  0.00    -0.412 C  
HETATM   11  N   UNL     1     -13.788   9.048  73.001  1.00  0.00    -1.108 NA 
HETATM   12  H1  UNL     1     -14.194   9.843  73.494  1.00  0.00     0.000 HD 
HETATM   13  H2  UNL     1     -13.343   8.403  73.654  1.00  0.00     0.000 HD 
ENDBRANCH   7  10
BRANCH   8  14
HETATM   14  O   UNL     1     -10.796   7.323  68.556  1.00  0.00    -0.162 OA 
BRANCH  14  15
HETATM   15  C   UNL     1     -10.656   8.183  67.397  1.00  0.00    -0.255 C  
HETATM   16  C   UNL     1      -9.414   7.585  66.679  1.00  0.00    -0.191 C  
HETATM   17  N   UNL     1      -9.684   6.216  66.197  1.00  0.00    -0.361 NA 
HETATM   18  C   UNL     1      -8.892   8.354  65.482  1.00  0.00    -0.172 C  
HETATM   19  H2  UNL     1     -10.512   6.185  65.603  1.00  0.00     0.000 HD 
HETATM   20  H1  UNL     1      -8.868   5.824  65.726  1.00  0.00     0.000 HD 
HETATM   21  C   UNL     1      -8.690   9.836  65.756  1.00  0.00    -0.142 C  
HETATM   22  N   UNL     1      -8.147  10.373  64.497  1.00  0.00    -0.263 NA 
HETATM   23  C   UNL     1     -10.040  10.442  66.252  1.00  0.00    -0.231 C  
HETATM   24  C   UNL     1     -10.467   9.732  67.606  1.00  0.00    -0.251 C  
HETATM   25  O   UNL     1     -11.700  10.308  68.075  1.00  0.00    -0.712 OA 
HETATM   26  H2  UNL     1      -8.722  10.175  63.678  1.00  0.00     0.000 HD 
HETATM   27  H1  UNL     1      -8.012  11.367  64.681  1.00  0.00     0.000 HD 
HETATM   28  H   UNL     1     -11.586  11.243  68.201  1.00  0.00     0.000 HD 
BRANCH  23  29
HETATM   29  O   UNL     1     -10.006  11.899  66.366  1.00  0.00    -0.205 OA 
BRANCH  29  30
HETATM   30  C   UNL     1     -11.321  12.491  66.170  1.00  0.00    -0.343 C  
HETATM   31  O   UNL     1     -11.858  12.986  67.403  1.00  0.00    -0.358 OA 
HETATM   32  C   UNL     1     -11.117  14.119  67.889  1.00  0.00    -0.268 C  
HETATM   33  C   UNL     1     -11.332  15.298  66.940  1.00  0.00    -0.209 C  
HETATM   34  H   UNL     1     -10.840  13.802  63.173  1.00  0.00     0.000 HD 
HETATM   35  O   UNL     1     -10.675  16.476  67.411  1.00  0.00    -0.315 OA 
HETATM   36  C   UNL     1     -10.803  14.925  65.534  1.00  0.00    -0.356 C  
HETATM   37  H1  UNL     1     -10.740  15.778  63.656  1.00  0.00     0.000 HD 
HETATM   38  H2  UNL     1     -10.717  16.918  64.908  1.00  0.00     0.000 HD 
HETATM   39  C   UNL     1     -11.389  13.583  65.069  1.00  0.00    -0.320 C  
HETATM   40  N   UNL     1     -11.088  16.024  64.583  1.00  0.00    -0.587 NA 
HETATM   41  H   UNL     1     -10.809  17.209  66.822  1.00  0.00     0.000 HD 
HETATM   42  O   UNL     1     -10.799  13.134  63.847  1.00  0.00    -0.370 OA 
BRANCH  32  43
HETATM   43  C   UNL     1     -11.578  14.394  69.321  1.00  0.00    -0.304 C  
HETATM   44  O   UNL     1     -12.578  15.423  69.295  1.00  0.00    -0.591 OA 
HETATM   45  H   UNL     1     -12.864  15.594  70.185  1.00  0.00     0.000 HD 
ENDBRANCH  32  43
ENDBRANCH  29  30
ENDBRANCH  23  29
ENDBRANCH  14  15
ENDBRANCH   8  14
TORSDOF 6
ENDMDL
MODEL       14
REMARK 921   NORMALIZED FREE ENERGY PREDICTED BY IDOCK:   -7.22 KCAL/MOL
REMARK 922        TOTAL FREE ENERGY PREDICTED BY IDOCK:  -11.30 KCAL/MOL
REMARK 923 INTER-LIGAND FREE ENERGY PREDICTED BY IDOCK:   -9.38 KCAL/MOL
REMARK 924 INTRA-LIGAND FREE ENERGY PREDICTED BY IDOCK:   -1.93 KCAL/MOL
REMARK 927      BINDING AFFINITY PREDICTED BY RF-SCORE:    0.00 PKD
ROOT
HETATM    1  C   UNL     1     -12.264  14.609  64.591  1.00  0.00    -0.434 C  
HETATM    2  C   UNL     1     -11.015  15.479  64.773  1.00  0.00    -0.416 C  
HETATM    3  N   UNL     1     -12.062  13.856  63.334  1.00  0.00    -1.002 NA 
HETATM    4  H1  UNL     1     -12.893  13.277  63.214  1.00  0.00     0.000 HD 
HETATM    5  C   UNL     1     -10.906  16.085  66.153  1.00  0.00    -0.179 C  
HETATM    6  H2  UNL     1     -11.191  13.324  63.315  1.00  0.00     0.000 HD 
HETATM    7  C   UNL     1     -11.203  15.070  67.256  1.00  0.00    -0.338 C  
HETATM    8  C   UNL     1     -12.686  13.739  65.850  1.00  0.00    -0.401 C  
HETATM    9  O   UNL     1     -12.475  14.424  67.085  1.00  0.00    -0.234 OA 
ENDROOT
BRANCH   7  10
HETATM   10  C   UNL     1     -11.240  15.843  68.602  1.00  0.00    -0.360 C  
HETATM   11  N   UNL     1     -12.287  15.366  69.505  1.00  0.00    -0.586 NA 
HETATM   12  H1  UNL     1     -12.311  15.873  70.389  1.00  0.00     0.000 HD 
HETATM   13  H2  UNL     1     -12.202  14.361  69.663  1.00  0.00     0.000 HD 
ENDBRANCH   7  10
BRANCH   8  14
HETATM   14  O   UNL     1     -12.097  12.440  65.786  1.00  0.00    -0.561 OA 
BRANCH  14  15
HETATM   15  C   UNL     1     -11.019  12.057  66.677  1.00  0.00    -0.287 C  
HETATM   16  C   UNL     1     -10.140  11.147  65.776  1.00  0.00    -0.249 C  
HETATM   17  N   UNL     1      -9.553  11.910  64.657  1.00  0.00    -0.432 NA 
HETATM   18  C   UNL     1      -8.982  10.443  66.454  1.00  0.00    -0.166 C  
HETATM   19  H2  UNL     1      -9.034  12.722  64.990  1.00  0.00     0.000 HD 
HETATM   20  H1  UNL     1      -8.976  11.312  64.066  1.00  0.00     0.000 HD 
HETATM   21  C   UNL     1      -9.380   9.713  67.727  1.00  0.00    -0.127 C  
HETATM   22  N   UNL     1      -8.137   9.074  68.189  1.00  0.00    -0.105 NA 
HETATM   23  C   UNL     1     -10.050  10.732  68.701  1.00  0.00    -0.183 C  
HETATM   24  C   UNL     1     -11.360  11.319  68.025  1.00  0.00    -0.304 C  
HETATM   25  O   UNL     1     -11.990  12.240  68.933  1.00  0.00    -0.308 OA 
HETATM   26  H2  UNL     1      -7.356   9.720  68.307  1.00  0.00     0.000 HD 
HETATM   27  H1  UNL     1      -8.403   8.584  69.044  1.00  0.00     0.000 HD 
HETATM   28  H   UNL     1     -12.196  11.794  69.747  1.00  0.00     0.000 HD 
BRANCH  23  29
HETATM   29  O   UNL     1     -10.302  10.174  70.029  1.00  0.00    -0.260 OA 
BRANCH  29  30
HETATM   30  C   UNL     1     -11.169   9.006  69.972  1.00  0.00    -0.128 C  
HETATM   31  O   UNL     1     -10.444   7.806  70.273  1.00  0.00    -0.215 OA 
HETATM   32  C   UNL     1     -10.025   7.770  71.648  1.00  0.00    -0.174 C  
HETATM   33  C   UNL     1     -11.258   7.642  72.542  1.00  0.00    -0.346 C  
HETATM   34  H   UNL     1     -13.941  10.381  71.136  1.00  0.00     0.000 HD 
HETATM   35  O   UNL     1     -10.898   7.529  73.920  1.00  0.00    -0.534 OA 
HETATM   36  C   UNL     1     -12.169   8.876  72.334  1.00  0.00    -0.295 C  
HETATM   37  H1  UNL     1     -14.011   9.536  72.987  1.00  0.00     0.000 HD 
HETATM   38  H2  UNL     1     -13.218   8.550  74.112  1.00  0.00     0.000 HD 
HETATM   39  C   UNL     1     -12.451   9.100  70.840  1.00  0.00    -0.100 C  
HETATM   40  N   UNL     1     -13.411   8.722  73.125  1.00  0.00    -0.038 NA 
HETATM   41  H   UNL     1     -11.664   7.450  74.475  1.00  0.00     0.000 HD 
HETATM   42  O   UNL     1     -13.156  10.322  70.604  1.00  0.00    -0.365 OA 
BRANCH  32  43
HETATM   43  C   UNL     1      -9.038   6.611  71.799  1.00  0.00    -0.144 C  
HETATM   44  O   UNL     1      -8.227   6.843  72.960  1.00  0.00    -0.107 OA 
HETATM   45  H   UNL     1      -7.614   6.123  73.054  1.00  0.00     0.000 HD 
ENDBRANCH  32  43
ENDBRANCH  29  30
ENDBRANCH  23  29
ENDBRANCH  14  15
ENDBRANCH   8  14
TORSDOF 6
ENDMDL
MODEL       15
REMARK 921   NORMALIZED FREE ENERGY PREDICTED BY IDOCK:   -7.20 KCAL/MOL
REMARK 922        TOTAL FREE ENERGY PREDICTED BY IDOCK:  -11.29 KCAL/MOL
REMARK 923 INTER-LIGAND FREE ENERGY PREDICTED BY IDOCK:   -9.61 KCAL/MOL
REMARK 924 INTRA-LIGAND FREE ENERGY PREDICTED BY IDOCK:   -1.68 KCAL/MOL
REMARK 927      BINDING AFFINITY PREDICTED BY RF-SCORE:    0.00 PKD
ROOT
HETATM    1  C   UNL     1     -11.973   8.311  71.638  1.00  0.00    -0.303 C  
HETATM    2  C   UNL     1     -11.253   7.777  72.882  1.00  0.00    -0.434 C  
HETATM    3  N   UNL     1     -12.045   9.780  71.803  1.00  0.00    -0.385 NA 
HETATM    4  H1  UNL     1     -12.524  10.135  70.976  1.00  0.00     0.000 HD 
HETATM    5  C   UNL     1     -10.818   6.336  72.745  1.00  0.00    -0.281 C  
HETATM    6  H2  UNL     1     -11.137  10.215  71.964  1.00  0.00     0.000 HD 
HETATM    7  C   UNL     1     -10.158   6.057  71.396  1.00  0.00    -0.193 C  
HETATM    8  C   UNL     1     -11.405   7.807  70.244  1.00  0.00    -0.163 C  
HETATM    9  O   UNL     1     -10.983   6.443  70.286  1.00  0.00    -0.262 OA 
ENDROOT
BRANCH   7  10
HETATM   10  C   UNL     1      -9.923   4.524  71.302  1.00  0.00    -0.188 C  
HETATM   11  N   UNL     1      -9.767   4.055  69.925  1.00  0.00    -0.210 NA 
HETATM   12  H1  UNL     1      -9.613   3.049  69.863  1.00  0.00     0.000 HD 
HETATM   13  H2  UNL     1      -9.026   4.568  69.447  1.00  0.00     0.000 HD 
ENDBRANCH   7  10
BRANCH   8  14
HETATM   14  O   UNL     1     -10.425   8.715  69.740  1.00  0.00    -0.212 OA 
BRANCH  14  15
HETATM   15  C   UNL     1     -10.719   9.600  68.630  1.00  0.00    -0.201 C  
HETATM   16  C   UNL     1     -10.101   8.846  67.421  1.00  0.00    -0.227 C  
HETATM   17  N   UNL     1     -10.796   7.568  67.176  1.00  0.00    -0.515 NA 
HETATM   18  C   UNL     1     -10.101   9.582  66.096  1.00  0.00    -0.326 C  
HETATM   19  H2  UNL     1     -11.800   7.704  67.060  1.00  0.00     0.000 HD 
HETATM   20  H1  UNL     1     -10.390   7.073  66.382  1.00  0.00     0.000 HD 
HETATM   21  C   UNL     1      -9.545  10.994  66.188  1.00  0.00    -0.207 C  
HETATM   22  N   UNL     1      -9.596  11.501  64.806  1.00  0.00    -0.345 NA 
HETATM   23  C   UNL     1     -10.362  11.786  67.256  1.00  0.00    -0.206 C  
HETATM   24  C   UNL     1     -10.194  11.084  68.670  1.00  0.00    -0.199 C  
HETATM   25  O   UNL     1     -10.929  11.829  69.659  1.00  0.00    -0.451 OA 
HETATM   26  H2  UNL     1     -10.519  11.445  64.376  1.00  0.00     0.000 HD 
HETATM   27  H1  UNL     1      -9.223  12.449  64.868  1.00  0.00     0.000 HD 
HETATM   28  H   UNL     1     -10.612  12.725  69.682  1.00  0.00     0.000 HD 
BRANCH  23  29
HETATM   29  O   UNL     1     -10.031  13.210  67.291  1.00  0.00    -0.225 OA 
BRANCH  29  30
HETATM   30  C   UNL     1     -11.195  14.045  67.031  1.00  0.00    -0.313 C  
HETATM   31  O   UNL     1     -11.748  14.556  68.251  1.00  0.00    -0.312 OA 
HETATM   32  C   UNL     1     -10.866  15.503  68.879  1.00  0.00    -0.254 C  
HETATM   33  C   UNL     1     -10.776  16.755  68.007  1.00  0.00    -0.355 C  
HETATM   34  H   UNL     1     -10.206  15.418  64.191  1.00  0.00     0.000 HD 
HETATM   35  O   UNL     1      -9.967  17.762  68.617  1.00  0.00    -0.342 OA 
HETATM   36  C   UNL     1     -10.193  16.375  66.625  1.00  0.00    -0.294 C  
HETATM   37  H1  UNL     1      -9.801  17.309  64.828  1.00  0.00     0.000 HD 
HETATM   38  H2  UNL     1      -9.693  18.350  66.159  1.00  0.00     0.000 HD 
HETATM   39  C   UNL     1     -10.963  15.193  66.014  1.00  0.00    -0.332 C  
HETATM   40  N   UNL     1     -10.185  17.561  65.739  1.00  0.00    -0.602 NA 
HETATM   41  H   UNL     1      -9.911  18.541  68.076  1.00  0.00     0.000 HD 
HETATM   42  O   UNL     1     -10.349  14.716  64.814  1.00  0.00    -0.396 OA 
BRANCH  32  43
HETATM   43  C   UNL     1     -11.404  15.774  70.285  1.00  0.00    -0.361 C  
HETATM   44  O   UNL     1     -11.290  14.574  71.063  1.00  0.00    -0.518 OA 
HETATM   45  H   UNL     1     -11.624  14.742  71.936  1.00  0.00     0.000 HD 
ENDBRANCH  32  43
ENDBRANCH  29  30
ENDBRANCH  23  29
ENDBRANCH  14  15
ENDBRANCH   8  14
TORSDOF 6
ENDMDL
MODEL       16
REMARK 921   NORMALIZED FREE ENERGY PREDICTED BY IDOCK:   -7.18 KCAL/MOL
REMARK 922        TOTAL FREE ENERGY PREDICTED BY IDOCK:  -11.25 KCAL/MOL
REMARK 923 INTER-LIGAND FREE ENERGY PREDICTED BY IDOCK:   -9.30 KCAL/MOL
REMARK 924 INTRA-LIGAND FREE ENERGY PREDICTED BY IDOCK:   -1.95 KCAL/MOL
REMARK 927      BINDING AFFINITY PREDICTED BY RF-SCORE:    0.00 PKD
ROOT
HETATM    1  C   UNL     1     -12.302  14.594  64.525  1.00  0.00    -0.398 C  
HETATM    2  C   UNL     1     -10.916  15.248  64.555  1.00  0.00    -0.212 C  
HETATM    3  N   UNL     1     -12.398  13.894  63.225  1.00  0.00    -1.148 NA 
HETATM    4  H1  UNL     1     -13.320  13.459  63.205  1.00  0.00     0.000 HD 
HETATM    5  C   UNL     1     -10.522  15.748  65.926  1.00  0.00    -0.366 C  
HETATM    6  H2  UNL     1     -11.636  13.237  63.060  1.00  0.00     0.000 HD 
HETATM    7  C   UNL     1     -10.824  14.727  67.022  1.00  0.00    -0.315 C  
HETATM    8  C   UNL     1     -12.681  13.726  65.799  1.00  0.00    -0.446 C  
HETATM    9  O   UNL     1     -12.194  14.296  67.014  1.00  0.00    -0.424 OA 
ENDROOT
BRANCH   7  10
HETATM   10  C   UNL     1     -10.551  15.415  68.387  1.00  0.00    -0.247 C  
HETATM   11  N   UNL     1     -10.183  14.468  69.440  1.00  0.00    -0.414 NA 
HETATM   12  H1  UNL     1     -10.003  14.921  70.336  1.00  0.00     0.000 HD 
HETATM   13  H2  UNL     1      -9.387  13.897  69.154  1.00  0.00     0.000 HD 
ENDBRANCH   7  10
BRANCH   8  14
HETATM   14  O   UNL     1     -12.324  12.358  65.602  1.00  0.00    -0.639 OA 
BRANCH  14  15
HETATM   15  C   UNL     1     -11.083  11.821  66.127  1.00  0.00    -0.307 C  
HETATM   16  C   UNL     1     -10.579  10.928  64.959  1.00  0.00    -0.217 C  
HETATM   17  N   UNL     1     -10.254  11.738  63.769  1.00  0.00    -0.359 NA 
HETATM   18  C   UNL     1      -9.351  10.084  65.238  1.00  0.00    -0.294 C  
HETATM   19  H2  UNL     1      -9.589  12.478  63.990  1.00  0.00     0.000 HD 
HETATM   20  H1  UNL     1      -9.923  11.152  63.003  1.00  0.00     0.000 HD 
HETATM   21  C   UNL     1      -9.449   9.280  66.524  1.00  0.00    -0.202 C  
HETATM   22  N   UNL     1      -8.193   8.513  66.576  1.00  0.00    -0.106 NA 
HETATM   23  C   UNL     1      -9.722  10.259  67.708  1.00  0.00    -0.156 C  
HETATM   24  C   UNL     1     -11.106  10.998  67.468  1.00  0.00    -0.302 C  
HETATM   25  O   UNL     1     -11.369  11.882  68.572  1.00  0.00    -0.228 OA 
HETATM   26  H2  UNL     1      -7.352   9.086  66.506  1.00  0.00     0.000 HD 
HETATM   27  H1  UNL     1      -8.258   7.973  67.439  1.00  0.00     0.000 HD 
HETATM   28  H   UNL     1     -11.383  11.385  69.382  1.00  0.00     0.000 HD 
BRANCH  23  29
HETATM   29  O   UNL     1      -9.649   9.610  69.016  1.00  0.00    -0.158 OA 
BRANCH  29  30
HETATM   30  C   UNL     1     -10.774   8.714  69.243  1.00  0.00    -0.136 C  
HETATM   31  O   UNL     1     -10.455   7.372  68.856  1.00  0.00    -0.204 OA 
HETATM   32  C   UNL     1      -9.464   6.791  69.720  1.00  0.00    -0.144 C  
HETATM   33  C   UNL     1     -10.068   6.597  71.111  1.00  0.00    -0.182 C  
HETATM   34  H   UNL     1     -11.973  10.100  71.996  1.00  0.00     0.000 HD 
HETATM   35  O   UNL     1      -9.149   5.956  71.998  1.00  0.00    -0.144 OA 
HETATM   36  C   UNL     1     -10.480   7.975  71.685  1.00  0.00    -0.219 C  
HETATM   37  H1  UNL     1     -11.422   8.702  73.370  1.00  0.00     0.000 HD 
HETATM   38  H2  UNL     1     -10.576   7.262  73.648  1.00  0.00     0.000 HD 
HETATM   39  C   UNL     1     -11.354   8.744  70.681  1.00  0.00    -0.254 C  
HETATM   40  N   UNL     1     -11.150   7.794  72.993  1.00  0.00    -0.407 NA 
HETATM   41  H   UNL     1      -9.524   5.836  72.862  1.00  0.00     0.000 HD 
HETATM   42  O   UNL     1     -11.618  10.081  71.114  1.00  0.00    -0.355 OA 
BRANCH  32  43
HETATM   43  C   UNL     1      -8.992   5.488  69.073  1.00  0.00    -0.108 C  
HETATM   44  O   UNL     1      -9.862   4.424  69.485  1.00  0.00    -0.209 OA 
HETATM   45  H   UNL     1      -9.568   3.615  69.083  1.00  0.00     0.000 HD 
ENDBRANCH  32  43
ENDBRANCH  29  30
ENDBRANCH  23  29
ENDBRANCH  14  15
ENDBRANCH   8  14
TORSDOF 6
ENDMDL
MODEL       17
REMARK 921   NORMALIZED FREE ENERGY PREDICTED BY IDOCK:   -7.15 KCAL/MOL
REMARK 922        TOTAL FREE ENERGY PREDICTED BY IDOCK:  -11.22 KCAL/MOL
REMARK 923 INTER-LIGAND FREE ENERGY PREDICTED BY IDOCK:   -9.87 KCAL/MOL
REMARK 924 INTRA-LIGAND FREE ENERGY PREDICTED BY IDOCK:   -1.35 KCAL/MOL
REMARK 927      BINDING AFFINITY PREDICTED BY RF-SCORE:    0.00 PKD
ROOT
HETATM    1  C   UNL     1      -8.897  16.935  66.494  1.00  0.00    -0.271 C  
HETATM    2  C   UNL     1     -10.214  17.577  66.042  1.00  0.00    -0.306 C  
HETATM    3  N   UNL     1      -8.395  17.768  67.609  1.00  0.00    -0.226 NA 
HETATM    4  H1  UNL     1      -7.519  17.341  67.910  1.00  0.00     0.000 HD 
HETATM    5  C   UNL     1     -11.023  16.693  65.121  1.00  0.00    -0.160 C  
HETATM    6  H2  UNL     1      -9.070  17.884  68.365  1.00  0.00     0.000 HD 
HETATM    7  C   UNL     1     -11.096  15.251  65.620  1.00  0.00    -0.308 C  
HETATM    8  C   UNL     1      -8.954  15.375  66.778  1.00  0.00    -0.259 C  
HETATM    9  O   UNL     1      -9.799  14.681  65.860  1.00  0.00    -0.305 OA 
ENDROOT
BRANCH   7  10
HETATM   10  C   UNL     1     -11.787  14.409  64.513  1.00  0.00    -0.449 C  
HETATM   11  N   UNL     1     -12.930  13.644  65.009  1.00  0.00    -0.744 NA 
HETATM   12  H1  UNL     1     -13.384  13.091  64.281  1.00  0.00     0.000 HD 
HETATM   13  H2  UNL     1     -13.602  14.253  65.476  1.00  0.00     0.000 HD 
ENDBRANCH   7  10
BRANCH   8  14
HETATM   14  O   UNL     1      -9.240  15.121  68.154  1.00  0.00    -0.179 OA 
BRANCH  14  15
HETATM   15  C   UNL     1     -10.522  14.585  68.569  1.00  0.00    -0.250 C  
HETATM   16  C   UNL     1     -10.822  15.387  69.865  1.00  0.00    -0.293 C  
HETATM   17  N   UNL     1     -11.005  16.822  69.575  1.00  0.00    -0.358 NA 
HETATM   18  C   UNL     1     -12.045  14.961  70.654  1.00  0.00    -0.366 C  
HETATM   19  H2  UNL     1     -11.722  16.973  68.866  1.00  0.00     0.000 HD 
HETATM   20  H1  UNL     1     -11.202  17.349  70.426  1.00  0.00     0.000 HD 
HETATM   21  C   UNL     1     -12.100  13.467  70.924  1.00  0.00    -0.183 C  
HETATM   22  N   UNL     1     -13.321  13.282  71.726  1.00  0.00    -0.404 NA 
HETATM   23  C   UNL     1     -12.034  12.709  69.561  1.00  0.00    -0.270 C  
HETATM   24  C   UNL     1     -10.658  13.041  68.843  1.00  0.00    -0.127 C  
HETATM   25  O   UNL     1     -10.587  12.322  67.598  1.00  0.00    -0.209 OA 
HETATM   26  H2  UNL     1     -14.164  13.658  71.292  1.00  0.00     0.000 HD 
HETATM   27  H1  UNL     1     -13.358  12.279  71.907  1.00  0.00     0.000 HD 
HETATM   28  H   UNL     1     -10.670  11.390  67.764  1.00  0.00     0.000 HD 
BRANCH  23  29
HETATM   29  O   UNL     1     -12.267  11.271  69.694  1.00  0.00    -0.309 OA 
BRANCH  29  30
HETATM   30  C   UNL     1     -11.577  10.712  70.849  1.00  0.00    -0.217 C  
HETATM   31  O   UNL     1     -12.502  10.113  71.765  1.00  0.00    -0.394 OA 
HETATM   32  C   UNL     1     -13.109   8.933  71.212  1.00  0.00    -0.197 C  
HETATM   33  C   UNL     1     -12.043   7.847  71.061  1.00  0.00    -0.230 C  
HETATM   34  H   UNL     1      -8.825   9.677  69.337  1.00  0.00     0.000 HD 
HETATM   35  O   UNL     1     -12.604   6.624  70.580  1.00  0.00    -0.415 OA 
HETATM   36  C   UNL     1     -10.944   8.342  70.090  1.00  0.00    -0.215 C  
HETATM   37  H1  UNL     1      -9.135   7.665  69.366  1.00  0.00     0.000 HD 
HETATM   38  H2  UNL     1     -10.210   6.415  69.750  1.00  0.00     0.000 HD 
HETATM   39  C   UNL     1     -10.428   9.727  70.510  1.00  0.00    -0.301 C  
HETATM   40  N   UNL     1      -9.859   7.338  70.006  1.00  0.00    -0.175 NA 
HETATM   41  H   UNL     1     -11.942   5.950  70.487  1.00  0.00     0.000 HD 
HETATM   42  O   UNL     1      -9.529  10.280  69.545  1.00  0.00    -0.214 OA 
BRANCH  32  43
HETATM   43  C   UNL     1     -14.264   8.532  72.131  1.00  0.00    -0.434 C  
HETATM   44  O   UNL     1     -14.092   9.181  73.399  1.00  0.00    -1.104 OA 
HETATM   45  H   UNL     1     -14.809   8.932  73.970  1.00  0.00     0.000 HD 
ENDBRANCH  32  43
ENDBRANCH  29  30
ENDBRANCH  23  29
ENDBRANCH  14  15
ENDBRANCH   8  14
TORSDOF 6
ENDMDL
MODEL       18
REMARK 921   NORMALIZED FREE ENERGY PREDICTED BY IDOCK:   -7.14 KCAL/MOL
REMARK 922        TOTAL FREE ENERGY PREDICTED BY IDOCK:  -11.19 KCAL/MOL
REMARK 923 INTER-LIGAND FREE ENERGY PREDICTED BY IDOCK:   -9.30 KCAL/MOL
REMARK 924 INTRA-LIGAND FREE ENERGY PREDICTED BY IDOCK:   -1.89 KCAL/MOL
REMARK 927      BINDING AFFINITY PREDICTED BY RF-SCORE:    0.00 PKD
ROOT
HETATM    1  C   UNL     1     -11.606   6.446  69.890  1.00  0.00    -0.353 C  
HETATM    2  C   UNL     1     -10.749   5.674  70.900  1.00  0.00    -0.313 C  
HETATM    3  N   UNL     1     -11.943   7.734  70.536  1.00  0.00    -0.489 NA 
HETATM    4  H1  UNL     1     -12.512   8.248  69.864  1.00  0.00     0.000 HD 
HETATM    5  C   UNL     1     -10.059   4.471  70.299  1.00  0.00    -0.230 C  
HETATM    6  H2  UNL     1     -11.125   8.254  70.856  1.00  0.00     0.000 HD 
HETATM    7  C   UNL     1      -9.414   4.787  68.951  1.00  0.00    -0.146 C  
HETATM    8  C   UNL     1     -11.011   6.553  68.422  1.00  0.00    -0.281 C  
HETATM    9  O   UNL     1     -10.341   5.359  68.015  1.00  0.00    -0.183 OA 
ENDROOT
BRANCH   7  10
HETATM   10  C   UNL     1      -8.902   3.448  68.354  1.00  0.00    -0.119 C  
HETATM   11  N   UNL     1      -9.478   3.151  67.043  1.00  0.00    -0.366 NA 
HETATM   12  H1  UNL     1      -9.142   2.271  66.651  1.00  0.00     0.000 HD 
HETATM   13  H2  UNL     1      -9.323   3.922  66.393  1.00  0.00     0.000 HD 
ENDBRANCH   7  10
BRANCH   8  14
HETATM   14  O   UNL     1     -10.237   7.744  68.275  1.00  0.00    -0.190 OA 
BRANCH  14  15
HETATM   15  C   UNL     1     -10.627   8.784  67.342  1.00  0.00    -0.233 C  
HETATM   16  C   UNL     1      -9.444   8.797  66.335  1.00  0.00    -0.228 C  
HETATM   17  N   UNL     1      -9.364   7.527  65.589  1.00  0.00    -0.375 NA 
HETATM   18  C   UNL     1      -9.460   9.895  65.291  1.00  0.00    -0.331 C  
HETATM   19  H2  UNL     1     -10.246   7.306  65.128  1.00  0.00     0.000 HD 
HETATM   20  H1  UNL     1      -8.587   7.535  64.928  1.00  0.00     0.000 HD 
HETATM   21  C   UNL     1      -9.683  11.281  65.873  1.00  0.00    -0.224 C  
HETATM   22  N   UNL     1      -9.618  12.184  64.712  1.00  0.00    -0.455 NA 
HETATM   23  C   UNL     1     -11.016  11.275  66.685  1.00  0.00    -0.268 C  
HETATM   24  C   UNL     1     -10.897  10.239  67.880  1.00  0.00    -0.284 C  
HETATM   25  O   UNL     1     -12.118  10.251  68.642  1.00  0.00    -0.686 OA 
HETATM   26  H2  UNL     1     -10.262  11.940  63.960  1.00  0.00     0.000 HD 
HETATM   27  H1  UNL     1      -9.768  13.114  65.103  1.00  0.00     0.000 HD 
HETATM   28  H   UNL     1     -12.281  11.130  68.967  1.00  0.00     0.000 HD 
BRANCH  23  29
HETATM   29  O   UNL     1     -11.420  12.608  67.132  1.00  0.00    -0.305 OA 
BRANCH  29  30
HETATM   30  C   UNL     1     -10.448  13.193  68.045  1.00  0.00    -0.239 C  
HETATM   31  O   UNL     1      -9.588  14.116  67.366  1.00  0.00    -0.220 OA 
HETATM   32  C   UNL     1     -10.301  15.289  66.936  1.00  0.00    -0.278 C  
HETATM   33  C   UNL     1     -10.734  16.086  68.167  1.00  0.00    -0.311 C  
HETATM   34  H   UNL     1     -12.339  13.362  70.751  1.00  0.00     0.000 HD 
HETATM   35  O   UNL     1     -11.388  17.303  67.800  1.00  0.00    -0.022 OA 
HETATM   36  C   UNL     1     -11.681  15.218  69.030  1.00  0.00    -0.347 C  
HETATM   37  H1  UNL     1     -12.660  15.371  70.840  1.00  0.00     0.000 HD 
HETATM   38  H2  UNL     1     -12.431  16.865  70.077  1.00  0.00     0.000 HD 
HETATM   39  C   UNL     1     -11.054  13.844  69.315  1.00  0.00    -0.218 C  
HETATM   40  N   UNL     1     -12.036  15.944  70.271  1.00  0.00    -0.329 NA 
HETATM   41  H   UNL     1     -11.657  17.798  68.564  1.00  0.00     0.000 HD 
HETATM   42  O   UNL     1     -11.968  12.963  69.973  1.00  0.00    -0.334 OA 
BRANCH  32  43
HETATM   43  C   UNL     1      -9.383  16.070  65.995  1.00  0.00    -0.345 C  
HETATM   44  O   UNL     1     -10.178  16.983  65.226  1.00  0.00    -0.601 OA 
HETATM   45  H   UNL     1      -9.607  17.468  64.641  1.00  0.00     0.000 HD 
ENDBRANCH  32  43
ENDBRANCH  29  30
ENDBRANCH  23  29
ENDBRANCH  14  15
ENDBRANCH   8  14
TORSDOF 6
ENDMDL
MODEL       19
REMARK 921   NORMALIZED FREE ENERGY PREDICTED BY IDOCK:   -7.12 KCAL/MOL
REMARK 922        TOTAL FREE ENERGY PREDICTED BY IDOCK:  -11.18 KCAL/MOL
REMARK 923 INTER-LIGAND FREE ENERGY PREDICTED BY IDOCK:   -8.99 KCAL/MOL
REMARK 924 INTRA-LIGAND FREE ENERGY PREDICTED BY IDOCK:   -2.19 KCAL/MOL
REMARK 927      BINDING AFFINITY PREDICTED BY RF-SCORE:    0.00 PKD
ROOT
HETATM    1  C   UNL     1     -10.582   5.167  72.609  1.00  0.00    -0.228 C  
HETATM    2  C   UNL     1      -9.803   5.913  73.698  1.00  0.00    -0.174 C  
HETATM    3  N   UNL     1     -12.001   5.188  73.029  1.00  0.00    -0.458 NA 
HETATM    4  H1  UNL     1     -12.519   4.692  72.305  1.00  0.00     0.000 HD 
HETATM    5  C   UNL     1      -8.390   6.258  73.290  1.00  0.00    -0.115 C  
HETATM    6  H2  UNL     1     -12.356   6.127  73.212  1.00  0.00     0.000 HD 
HETATM    7  C   UNL     1      -8.320   6.835  71.877  1.00  0.00    -0.109 C  
HETATM    8  C   UNL     1     -10.304   5.638  71.119  1.00  0.00    -0.232 C  
HETATM    9  O   UNL     1      -8.936   5.982  70.900  1.00  0.00    -0.141 OA 
ENDROOT
BRANCH   7  10
HETATM   10  C   UNL     1      -6.818   6.977  71.506  1.00  0.00    -0.064 C  
HETATM   11  N   UNL     1      -6.608   7.689  70.246  1.00  0.00    -0.038 NA 
HETATM   12  H1  UNL     1      -5.622   7.782  70.002  1.00  0.00     0.000 HD 
HETATM   13  H2  UNL     1      -7.067   8.600  70.261  1.00  0.00     0.000 HD 
ENDBRANCH   7  10
BRANCH   8  14
HETATM   14  O   UNL     1     -11.237   6.644  70.724  1.00  0.00    -0.274 OA 
BRANCH  14  15
HETATM   15  C   UNL     1     -10.859   8.043  70.671  1.00  0.00    -0.234 C  
HETATM   16  C   UNL     1     -12.069   8.748  71.343  1.00  0.00    -0.307 C  
HETATM   17  N   UNL     1     -12.188   8.366  72.763  1.00  0.00    -0.531 NA 
HETATM   18  C   UNL     1     -12.065  10.264  71.317  1.00  0.00    -0.479 C  
HETATM   19  H2  UNL     1     -11.322   8.540  73.272  1.00  0.00     0.000 HD 
HETATM   20  H1  UNL     1     -12.982   8.830  73.204  1.00  0.00     0.000 HD 
HETATM   21  C   UNL     1     -11.805  10.845  69.936  1.00  0.00    -0.349 C  
HETATM   22  N   UNL     1     -11.888  12.302  70.128  1.00  0.00    -0.493 NA 
HETATM   23  C   UNL     1     -10.451  10.283  69.403  1.00  0.00    -0.236 C  
HETATM   24  C   UNL     1     -10.552   8.704  69.275  1.00  0.00    -0.192 C  
HETATM   25  O   UNL     1      -9.311   8.189  68.760  1.00  0.00    -0.144 OA 
HETATM   26  H2  UNL     1     -11.268  12.662  70.854  1.00  0.00     0.000 HD 
HETATM   27  H1  UNL     1     -11.714  12.692  69.202  1.00  0.00     0.000 HD 
HETATM   28  H   UNL     1      -9.125   8.589  67.918  1.00  0.00     0.000 HD 
BRANCH  23  29
HETATM   29  O   UNL     1     -10.015  10.922  68.162  1.00  0.00    -0.165 OA 
BRANCH  29  30
HETATM   30  C   UNL     1     -10.981  10.738  67.087  1.00  0.00    -0.260 C  
HETATM   31  O   UNL     1     -11.794  11.905  66.915  1.00  0.00    -0.590 OA 
HETATM   32  C   UNL     1     -11.030  13.015  66.410  1.00  0.00    -0.281 C  
HETATM   33  C   UNL     1     -10.589  12.706  64.979  1.00  0.00    -0.303 C  
HETATM   34  H   UNL     1      -9.132   8.892  65.060  1.00  0.00     0.000 HD 
HETATM   35  O   UNL     1      -9.885  13.806  64.399  1.00  0.00    -0.687 OA 
HETATM   36  C   UNL     1      -9.691  11.446  64.983  1.00  0.00    -0.250 C  
HETATM   37  H1  UNL     1      -8.739  10.252  63.596  1.00  0.00     0.000 HD 
HETATM   38  H2  UNL     1      -8.899  11.860  63.093  1.00  0.00     0.000 HD 
HETATM   39  C   UNL     1     -10.373  10.291  65.732  1.00  0.00    -0.165 C  
HETATM   40  N   UNL     1      -9.331  11.083  63.593  1.00  0.00    -0.234 NA 
HETATM   41  H   UNL     1      -9.611  13.614  63.510  1.00  0.00     0.000 HD 
HETATM   42  O   UNL     1      -9.504   9.166  65.890  1.00  0.00    -0.226 OA 
BRANCH  32  43
HETATM   43  C   UNL     1     -11.902  14.266  66.525  1.00  0.00    -0.415 C  
HETATM   44  O   UNL     1     -12.344  14.399  67.883  1.00  0.00    -0.615 OA 
HETATM   45  H   UNL     1     -12.886  15.177  67.954  1.00  0.00     0.000 HD 
ENDBRANCH  32  43
ENDBRANCH  29  30
ENDBRANCH  23  29
ENDBRANCH  14  15
ENDBRANCH   8  14
TORSDOF 6
ENDMDL
MODEL       20
REMARK 921   NORMALIZED FREE ENERGY PREDICTED BY IDOCK:   -7.06 KCAL/MOL
REMARK 922        TOTAL FREE ENERGY PREDICTED BY IDOCK:  -11.10 KCAL/MOL
REMARK 923 INTER-LIGAND FREE ENERGY PREDICTED BY IDOCK:   -9.13 KCAL/MOL
REMARK 924 INTRA-LIGAND FREE ENERGY PREDICTED BY IDOCK:   -1.97 KCAL/MOL
REMARK 927      BINDING AFFINITY PREDICTED BY RF-SCORE:    0.00 PKD
ROOT
HETATM    1  C   UNL     1      -9.595   6.788  70.593  1.00  0.00    -0.169 C  
HETATM    2  C   UNL     1     -10.616   6.041  71.459  1.00  0.00    -0.295 C  
HETATM    3  N   UNL     1      -8.963   5.766  69.729  1.00  0.00    -0.128 NA 
HETATM    4  H1  UNL     1      -8.284   6.263  69.153  1.00  0.00     0.000 HD 
HETATM    5  C   UNL     1     -11.570   6.962  72.184  1.00  0.00    -0.322 C  
HETATM    6  H2  UNL     1      -9.634   5.222  69.187  1.00  0.00     0.000 HD 
HETATM    7  C   UNL     1     -12.114   8.063  71.274  1.00  0.00    -0.291 C  
HETATM    8  C   UNL     1     -10.139   8.076  69.843  1.00  0.00    -0.198 C  
HETATM    9  O   UNL     1     -11.072   8.815  70.632  1.00  0.00    -0.237 OA 
ENDROOT
BRANCH   7  10
HETATM   10  C   UNL     1     -12.928   9.042  72.163  1.00  0.00    -0.424 C  
HETATM   11  N   UNL     1     -12.817  10.434  71.728  1.00  0.00    -0.448 NA 
HETATM   12  H1  UNL     1     -13.352  11.076  72.312  1.00  0.00     0.000 HD 
HETATM   13  H2  UNL     1     -13.078  10.530  70.746  1.00  0.00     0.000 HD 
ENDBRANCH   7  10
BRANCH   8  14
HETATM   14  O   UNL     1     -10.605   7.740  68.536  1.00  0.00    -0.189 OA 
BRANCH  14  15
HETATM   15  C   UNL     1     -10.873   8.766  67.547  1.00  0.00    -0.021 C  
HETATM   16  C   UNL     1      -9.662   8.634  66.583  1.00  0.00    -0.247 C  
HETATM   17  N   UNL     1      -9.667   7.329  65.894  1.00  0.00    -0.346 NA 
HETATM   18  C   UNL     1      -9.550   9.681  65.493  1.00  0.00    -0.351 C  
HETATM   19  H2  UNL     1     -10.550   7.164  65.412  1.00  0.00     0.000 HD 
HETATM   20  H1  UNL     1      -8.871   7.243  65.262  1.00  0.00     0.000 HD 
HETATM   21  C   UNL     1      -9.672  11.106  66.008  1.00  0.00    -0.226 C  
HETATM   22  N   UNL     1      -9.494  11.947  64.813  1.00  0.00    -0.437 NA 
HETATM   23  C   UNL     1     -11.027  11.249  66.771  1.00  0.00    -0.281 C  
HETATM   24  C   UNL     1     -11.036  10.261  68.012  1.00  0.00    -0.289 C  
HETATM   25  O   UNL     1     -12.275  10.411  68.729  1.00  0.00    -0.750 OA 
HETATM   26  H2  UNL     1     -10.132  11.725  64.049  1.00  0.00     0.000 HD 
HETATM   27  H1  UNL     1      -9.576  12.903  65.158  1.00  0.00     0.000 HD 
HETATM   28  H   UNL     1     -12.373  11.314  69.010  1.00  0.00     0.000 HD 
BRANCH  23  29
HETATM   29  O   UNL     1     -11.329  12.630  67.146  1.00  0.00    -0.283 OA 
BRANCH  29  30
HETATM   30  C   UNL     1     -10.440  13.115  68.193  1.00  0.00    -0.248 C  
HETATM   31  O   UNL     1      -9.463  14.021  67.664  1.00  0.00    -0.200 OA 
HETATM   32  C   UNL     1     -10.063  15.251  67.221  1.00  0.00    -0.236 C  
HETATM   33  C   UNL     1     -10.594  16.012  68.436  1.00  0.00    -0.270 C  
HETATM   34  H   UNL     1     -12.619  13.262  70.675  1.00  0.00     0.000 HD 
HETATM   35  O   UNL     1     -11.140  17.279  68.063  1.00  0.00    -0.289 OA 
HETATM   36  C   UNL     1     -11.676  15.158  69.140  1.00  0.00    -0.325 C  
HETATM   37  H1  UNL     1     -12.848  15.280  70.834  1.00  0.00     0.000 HD 
HETATM   38  H2  UNL     1     -12.458  16.793  70.182  1.00  0.00     0.000 HD 
HETATM   39  C   UNL     1     -11.155  13.739  69.420  1.00  0.00    -0.156 C  
HETATM   40  N   UNL     1     -12.135  15.843  70.370  1.00  0.00    -0.342 NA 
HETATM   41  H   UNL     1     -11.470  17.752  68.817  1.00  0.00     0.000 HD 
HETATM   42  O   UNL     1     -12.181  12.880  69.924  1.00  0.00    -0.271 OA 
BRANCH  32  43
HETATM   43  C   UNL     1      -9.005  16.022  66.431  1.00  0.00    -0.319 C  
HETATM   44  O   UNL     1      -9.666  16.896  65.504  1.00  0.00    -0.541 OA 
HETATM   45  H   UNL     1      -9.008  17.375  65.013  1.00  0.00     0.000 HD 
ENDBRANCH  32  43
ENDBRANCH  29  30
ENDBRANCH  23  29
ENDBRANCH  14  15
ENDBRANCH   8  14
TORSDOF 6
ENDMDL
MODEL       21
REMARK 921   NORMALIZED FREE ENERGY PREDICTED BY IDOCK:   -7.01 KCAL/MOL
REMARK 922        TOTAL FREE ENERGY PREDICTED BY IDOCK:  -11.02 KCAL/MOL
REMARK 923 INTER-LIGAND FREE ENERGY PREDICTED BY IDOCK:  -10.59 KCAL/MOL
REMARK 924 INTRA-LIGAND FREE ENERGY PREDICTED BY IDOCK:   -0.43 KCAL/MOL
REMARK 927      BINDING AFFINITY PREDICTED BY RF-SCORE:    0.00 PKD
ROOT
HETATM    1  C   UNL     1     -10.345  19.211  66.830  1.00  0.00    -0.421 C  
HETATM    2  C   UNL     1      -9.548  19.502  68.107  1.00  0.00    -0.457 C  
HETATM    3  N   UNL     1      -9.579  19.818  65.719  1.00  0.00    -0.370 NA 
HETATM    4  H1  UNL     1     -10.109  19.624  64.870  1.00  0.00     0.000 HD 
HETATM    5  C   UNL     1     -10.017  18.698  69.298  1.00  0.00    -0.113 C  
HETATM    6  H2  UNL     1      -8.610  19.501  65.674  1.00  0.00     0.000 HD 
HETATM    7  C   UNL     1     -10.245  17.228  68.951  1.00  0.00    -0.349 C  
HETATM    8  C   UNL     1     -10.775  17.698  66.617  1.00  0.00    -0.117 C  
HETATM    9  O   UNL     1     -11.139  17.055  67.839  1.00  0.00    -0.300 OA 
ENDROOT
BRANCH   7  10
HETATM   10  C   UNL     1     -10.892  16.552  70.190  1.00  0.00    -0.201 C  
HETATM   11  N   UNL     1     -10.500  15.151  70.344  1.00  0.00    -0.520 NA 
HETATM   12  H1  UNL     1     -10.925  14.707  71.158  1.00  0.00     0.000 HD 
HETATM   13  H2  UNL     1      -9.485  15.057  70.366  1.00  0.00     0.000 HD 
ENDBRANCH   7  10
BRANCH   8  14
HETATM   14  O   UNL     1      -9.797  16.998  65.848  1.00  0.00    -0.470 OA 
BRANCH  14  15
HETATM   15  C   UNL     1      -9.995  15.615  65.458  1.00  0.00    -0.329 C  
HETATM   16  C   UNL     1     -11.464  15.612  64.952  1.00  0.00    -0.245 C  
HETATM   17  N   UNL     1     -11.615  16.448  63.746  1.00  0.00    -1.515 NA 
HETATM   18  C   UNL     1     -12.053  14.260  64.600  1.00  0.00    -0.478 C  
HETATM   19  H2  UNL     1     -10.965  16.168  63.012  1.00  0.00     0.000 HD 
HETATM   20  H1  UNL     1     -12.580  16.446  63.415  1.00  0.00     0.000 HD 
HETATM   21  C   UNL     1     -11.857  13.214  65.686  1.00  0.00    -0.387 C  
HETATM   22  N   UNL     1     -12.531  12.013  65.165  1.00  0.00    -0.340 NA 
HETATM   23  C   UNL     1     -10.332  13.086  65.990  1.00  0.00    -0.285 C  
HETATM   24  C   UNL     1      -9.786  14.477  66.525  1.00  0.00    -0.285 C  
HETATM   25  O   UNL     1      -8.385  14.351  66.829  1.00  0.00    -0.396 OA 
HETATM   26  H2  UNL     1     -12.208  11.721  64.243  1.00  0.00     0.000 HD 
HETATM   27  H1  UNL     1     -12.400  11.310  65.894  1.00  0.00     0.000 HD 
HETATM   28  H   UNL     1      -8.259  13.664  67.473  1.00  0.00     0.000 HD 
BRANCH  23  29
HETATM   29  O   UNL     1     -10.018  11.974  66.886  1.00  0.00    -0.200 OA 
BRANCH  29  30
HETATM   30  C   UNL     1     -11.211  11.231  67.269  1.00  0.00    -0.296 C  
HETATM   31  O   UNL     1     -11.157   9.881  66.791  1.00  0.00    -0.009 OA 
HETATM   32  C   UNL     1     -10.134   9.122  67.459  1.00  0.00    -0.228 C  
HETATM   33  C   UNL     1     -10.528   8.937  68.925  1.00  0.00    -0.205 C  
HETATM   34  H   UNL     1     -11.737  12.614  70.226  1.00  0.00     0.000 HD 
HETATM   35  O   UNL     1      -9.582   8.127  69.624  1.00  0.00    -0.166 OA 
HETATM   36  C   UNL     1     -10.639  10.324  69.603  1.00  0.00    -0.256 C  
HETATM   37  H1  UNL     1     -11.181  11.080  71.444  1.00  0.00     0.000 HD 
HETATM   38  H2  UNL     1     -10.520   9.524  71.530  1.00  0.00     0.000 HD 
HETATM   39  C   UNL     1     -11.541  11.261  68.784  1.00  0.00    -0.316 C  
HETATM   40  N   UNL     1     -11.108  10.165  70.998  1.00  0.00    -0.274 NA 
HETATM   41  H   UNL     1      -9.827   8.012  70.535  1.00  0.00     0.000 HD 
HETATM   42  O   UNL     1     -11.535  12.596  69.298  1.00  0.00    -0.277 OA 
BRANCH  32  43
HETATM   43  C   UNL     1      -9.967   7.804  66.701  1.00  0.00    -0.228 C  
HETATM   44  O   UNL     1     -11.121   6.986  66.935  1.00  0.00    -0.561 OA 
HETATM   45  H   UNL     1     -11.017   6.167  66.464  1.00  0.00     0.000 HD 
ENDBRANCH  32  43
ENDBRANCH  29  30
ENDBRANCH  23  29
ENDBRANCH  14  15
ENDBRANCH   8  14
TORSDOF 6
ENDMDL
MODEL       22
REMARK 921   NORMALIZED FREE ENERGY PREDICTED BY IDOCK:   -6.97 KCAL/MOL
REMARK 922        TOTAL FREE ENERGY PREDICTED BY IDOCK:  -10.98 KCAL/MOL
REMARK 923 INTER-LIGAND FREE ENERGY PREDICTED BY IDOCK:   -9.68 KCAL/MOL
REMARK 924 INTRA-LIGAND FREE ENERGY PREDICTED BY IDOCK:   -1.29 KCAL/MOL
REMARK 927      BINDING AFFINITY PREDICTED BY RF-SCORE:    0.00 PKD
ROOT
HETATM    1  C   UNL     1     -10.065  15.147  65.201  1.00  0.00    -0.296 C  
HETATM    2  C   UNL     1     -11.468  15.591  64.771  1.00  0.00    -0.314 C  
HETATM    3  N   UNL     1      -9.530  16.237  66.046  1.00  0.00    -0.363 NA 
HETATM    4  H1  UNL     1      -8.596  15.942  66.332  1.00  0.00     0.000 HD 
HETATM    5  C   UNL     1     -12.285  14.477  64.159  1.00  0.00    -0.372 C  
HETATM    6  H2  UNL     1     -10.136  16.479  66.830  1.00  0.00     0.000 HD 
HETATM    7  C   UNL     1     -12.189  13.181  64.963  1.00  0.00    -0.440 C  
HETATM    8  C   UNL     1      -9.964  13.690  65.819  1.00  0.00    -0.261 C  
HETATM    9  O   UNL     1     -10.833  12.759  65.173  1.00  0.00    -0.279 OA 
ENDROOT
BRANCH   7  10
HETATM   10  C   UNL     1     -12.911  12.073  64.147  1.00  0.00    -0.174 C  
HETATM   11  N   UNL     1     -12.117  11.588  63.019  1.00  0.00    -0.920 NA 
HETATM   12  H1  UNL     1     -12.591  10.860  62.484  1.00  0.00     0.000 HD 
HETATM   13  H2  UNL     1     -11.197  11.273  63.328  1.00  0.00     0.000 HD 
ENDBRANCH   7  10
BRANCH   8  14
HETATM   14  O   UNL     1     -10.095  13.733  67.240  1.00  0.00    -0.235 OA 
BRANCH  14  15
HETATM   15  C   UNL     1      -9.499  12.715  68.083  1.00  0.00    -0.218 C  
HETATM   16  C   UNL     1      -8.239  12.300  67.274  1.00  0.00    -0.182 C  
HETATM   17  N   UNL     1      -7.281  13.417  67.168  1.00  0.00    -0.347 NA 
HETATM   18  C   UNL     1      -7.450  11.122  67.813  1.00  0.00    -0.095 C  
HETATM   19  H2  UNL     1      -7.033  13.786  68.086  1.00  0.00     0.000 HD 
HETATM   20  H1  UNL     1      -6.454  13.144  66.637  1.00  0.00     0.000 HD 
HETATM   21  C   UNL     1      -8.311   9.909  68.123  1.00  0.00    -0.110 C  
HETATM   22  N   UNL     1      -7.356   8.887  68.582  1.00  0.00    -0.076 NA 
HETATM   23  C   UNL     1      -9.426  10.330  69.131  1.00  0.00    -0.215 C  
HETATM   24  C   UNL     1     -10.342  11.441  68.465  1.00  0.00    -0.205 C  
HETATM   25  O   UNL     1     -11.384  11.812  69.386  1.00  0.00    -0.257 OA 
HETATM   26  H2  UNL     1      -6.765   9.187  69.357  1.00  0.00     0.000 HD 
HETATM   27  H1  UNL     1      -7.934   8.072  68.791  1.00  0.00     0.000 HD 
HETATM   28  H   UNL     1     -11.893  11.043  69.617  1.00  0.00     0.000 HD 
BRANCH  23  29
HETATM   29  O   UNL     1     -10.196   9.195  69.640  1.00  0.00    -0.188 OA 
BRANCH  29  30
HETATM   30  C   UNL     1     -10.044   9.038  71.080  1.00  0.00    -0.295 C  
HETATM   31  O   UNL     1     -11.180   9.560  71.781  1.00  0.00    -0.363 OA 
HETATM   32  C   UNL     1     -12.360   8.773  71.542  1.00  0.00    -0.328 C  
HETATM   33  C   UNL     1     -12.180   7.397  72.184  1.00  0.00    -0.230 C  
HETATM   34  H   UNL     1      -8.447   6.143  71.104  1.00  0.00     0.000 HD 
HETATM   35  O   UNL     1     -13.352   6.594  72.040  1.00  0.00    -0.500 OA 
HETATM   36  C   UNL     1     -10.969   6.686  71.534  1.00  0.00    -0.247 C  
HETATM   37  H1  UNL     1      -9.928   4.921  71.781  1.00  0.00     0.000 HD 
HETATM   38  H2  UNL     1     -11.559   4.800  72.217  1.00  0.00     0.000 HD 
HETATM   39  C   UNL     1      -9.729   7.594  71.550  1.00  0.00    -0.165 C  
HETATM   40  N   UNL     1     -10.727   5.390  72.209  1.00  0.00    -0.225 NA 
HETATM   41  H   UNL     1     -13.241   5.739  72.439  1.00  0.00     0.000 HD 
HETATM   42  O   UNL     1      -8.640   7.028  70.816  1.00  0.00    -0.140 OA 
BRANCH  32  43
HETATM   43  C   UNL     1     -13.555   9.553  72.092  1.00  0.00    -0.424 C  
HETATM   44  O   UNL     1     -13.950   8.972  73.343  1.00  0.00    -1.220 OA 
HETATM   45  H   UNL     1     -14.692   9.456  73.685  1.00  0.00     0.000 HD 
ENDBRANCH  32  43
ENDBRANCH  29  30
ENDBRANCH  23  29
ENDBRANCH  14  15
ENDBRANCH   8  14
TORSDOF 6
ENDMDL
MODEL       23
REMARK 921   NORMALIZED FREE ENERGY PREDICTED BY IDOCK:   -6.96 KCAL/MOL
REMARK 922        TOTAL FREE ENERGY PREDICTED BY IDOCK:  -10.96 KCAL/MOL
REMARK 923 INTER-LIGAND FREE ENERGY PREDICTED BY IDOCK:  -10.01 KCAL/MOL
REMARK 924 INTRA-LIGAND FREE ENERGY PREDICTED BY IDOCK:   -0.94 KCAL/MOL
REMARK 927      BINDING AFFINITY PREDICTED BY RF-SCORE:    0.00 PKD
ROOT
HETATM    1  C   UNL     1      -9.585  16.252  67.491  1.00  0.00    -0.230 C  
HETATM    2  C   UNL     1     -10.200  16.949  66.272  1.00  0.00    -0.337 C  
HETATM    3  N   UNL     1      -9.570  17.258  68.576  1.00  0.00    -0.281 NA 
HETATM    4  H1  UNL     1      -9.161  16.794  69.387  1.00  0.00     0.000 HD 
HETATM    5  C   UNL     1     -10.577  15.992  65.165  1.00  0.00    -0.394 C  
HETATM    6  H2  UNL     1     -10.485  17.669  68.762  1.00  0.00     0.000 HD 
HETATM    7  C   UNL     1     -11.307  14.757  65.692  1.00  0.00    -0.343 C  
HETATM    8  C   UNL     1     -10.217  14.847  67.871  1.00  0.00    -0.228 C  
HETATM    9  O   UNL     1     -10.573  14.077  66.722  1.00  0.00    -0.275 OA 
ENDROOT
BRANCH   7  10
HETATM   10  C   UNL     1     -11.478  13.774  64.502  1.00  0.00    -0.384 C  
HETATM   11  N   UNL     1     -12.317  14.314  63.432  1.00  0.00    -1.126 NA 
HETATM   12  H1  UNL     1     -12.429  13.668  62.651  1.00  0.00     0.000 HD 
HETATM   13  H2  UNL     1     -11.964  15.216  63.112  1.00  0.00     0.000 HD 
ENDBRANCH   7  10
BRANCH   8  14
HETATM   14  O   UNL     1     -11.267  15.006  68.825  1.00  0.00    -0.250 OA 
BRANCH  14  15
HETATM   15  C   UNL     1     -12.090  13.883  69.233  1.00  0.00    -0.339 C  
HETATM   16  C   UNL     1     -12.500  14.271  70.680  1.00  0.00    -0.358 C  
HETATM   17  N   UNL     1     -13.346  15.479  70.690  1.00  0.00    -0.794 NA 
HETATM   18  C   UNL     1     -13.259  13.222  71.469  1.00  0.00    -0.383 C  
HETATM   19  H2  UNL     1     -14.161  15.372  70.086  1.00  0.00     0.000 HD 
HETATM   20  H1  UNL     1     -13.615  15.734  71.641  1.00  0.00     0.000 HD 
HETATM   21  C   UNL     1     -12.599  11.853  71.448  1.00  0.00    -0.240 C  
HETATM   22  N   UNL     1     -13.461  11.015  72.296  1.00  0.00    -0.525 NA 
HETATM   23  C   UNL     1     -12.425  11.405  69.963  1.00  0.00    -0.154 C  
HETATM   24  C   UNL     1     -11.479  12.433  69.212  1.00  0.00    -0.288 C  
HETATM   25  O   UNL     1     -11.300  12.005  67.849  1.00  0.00    -0.261 OA 
HETATM   26  H2  UNL     1     -14.442  11.008  72.015  1.00  0.00     0.000 HD 
HETATM   27  H1  UNL     1     -13.018  10.096  72.282  1.00  0.00     0.000 HD 
HETATM   28  H   UNL     1     -10.930  11.129  67.837  1.00  0.00     0.000 HD 
BRANCH  23  29
HETATM   29  O   UNL     1     -11.970  10.021  69.833  1.00  0.00    -0.148 OA 
BRANCH  29  30
HETATM   30  C   UNL     1     -10.624   9.840  70.358  1.00  0.00    -0.304 C  
HETATM   31  O   UNL     1     -10.643   9.129  71.602  1.00  0.00    -0.339 OA 
HETATM   32  C   UNL     1     -11.056   7.762  71.428  1.00  0.00    -0.238 C  
HETATM   33  C   UNL     1      -9.981   7.015  70.638  1.00  0.00    -0.186 C  
HETATM   34  H   UNL     1      -9.018   9.438  67.495  1.00  0.00     0.000 HD 
HETATM   35  O   UNL     1     -10.303   5.631  70.494  1.00  0.00    -0.222 OA 
HETATM   36  C   UNL     1      -9.824   7.668  69.244  1.00  0.00    -0.168 C  
HETATM   37  H1  UNL     1      -8.620   7.443  67.583  1.00  0.00     0.000 HD 
HETATM   38  H2  UNL     1      -8.851   6.002  68.440  1.00  0.00     0.000 HD 
HETATM   39  C   UNL     1      -9.620   9.186  69.372  1.00  0.00    -0.165 C  
HETATM   40  N   UNL     1      -8.723   7.012  68.503  1.00  0.00    -0.123 NA 
HETATM   41  H   UNL     1      -9.635   5.166  70.004  1.00  0.00     0.000 HD 
HETATM   42  O   UNL     1      -9.633   9.839  68.100  1.00  0.00    -0.142 OA 
BRANCH  32  43
HETATM   43  C   UNL     1     -11.313   7.176  72.816  1.00  0.00    -0.245 C  
HETATM   44  O   UNL     1     -12.180   6.040  72.686  1.00  0.00    -0.540 OA 
HETATM   45  H   UNL     1     -12.340   5.676  73.549  1.00  0.00     0.000 HD 
ENDBRANCH  32  43
ENDBRANCH  29  30
ENDBRANCH  23  29
ENDBRANCH  14  15
ENDBRANCH   8  14
TORSDOF 6
ENDMDL
MODEL       24
REMARK 921   NORMALIZED FREE ENERGY PREDICTED BY IDOCK:   -6.90 KCAL/MOL
REMARK 922        TOTAL FREE ENERGY PREDICTED BY IDOCK:  -10.88 KCAL/MOL
REMARK 923 INTER-LIGAND FREE ENERGY PREDICTED BY IDOCK:   -9.60 KCAL/MOL
REMARK 924 INTRA-LIGAND FREE ENERGY PREDICTED BY IDOCK:   -1.28 KCAL/MOL
REMARK 927      BINDING AFFINITY PREDICTED BY RF-SCORE:    0.00 PKD
ROOT
HETATM    1  C   UNL     1     -11.470   8.357  71.281  1.00  0.00    -0.280 C  
HETATM    2  C   UNL     1     -10.664   7.756  72.439  1.00  0.00    -0.347 C  
HETATM    3  N   UNL     1     -11.424   9.824  71.466  1.00  0.00    -0.366 NA 
HETATM    4  H1  UNL     1     -11.959  10.224  70.696  1.00  0.00     0.000 HD 
HETATM    5  C   UNL     1     -10.345   6.292  72.246  1.00  0.00    -0.216 C  
HETATM    6  H2  UNL     1     -10.476  10.195  71.536  1.00  0.00     0.000 HD 
HETATM    7  C   UNL     1      -9.847   5.990  70.834  1.00  0.00    -0.184 C  
HETATM    8  C   UNL     1     -11.083   7.838  69.832  1.00  0.00    -0.136 C  
HETATM    9  O   UNL     1     -10.753   6.449  69.818  1.00  0.00    -0.228 OA 
ENDROOT
BRANCH   7  10
HETATM   10  C   UNL     1      -9.728   4.447  70.702  1.00  0.00    -0.213 C  
HETATM   11  N   UNL     1      -9.498   3.782  71.984  1.00  0.00    -0.128 NA 
HETATM   12  H1  UNL     1      -9.420   2.768  71.898  1.00  0.00     0.000 HD 
HETATM   13  H2  UNL     1     -10.219   4.035  72.661  1.00  0.00     0.000 HD 
ENDBRANCH   7  10
BRANCH   8  14
HETATM   14  O   UNL     1     -10.100   8.685  69.237  1.00  0.00    -0.190 OA 
BRANCH  14  15
HETATM   15  C   UNL     1     -10.440   9.588  68.155  1.00  0.00    -0.223 C  
HETATM   16  C   UNL     1      -9.850   8.866  66.912  1.00  0.00    -0.223 C  
HETATM   17  N   UNL     1     -10.535   7.583  66.664  1.00  0.00    -0.511 NA 
HETATM   18  C   UNL     1      -9.900   9.627  65.602  1.00  0.00    -0.369 C  
HETATM   19  H2  UNL     1     -11.544   7.708  66.581  1.00  0.00     0.000 HD 
HETATM   20  H1  UNL     1     -10.148   7.109  65.848  1.00  0.00     0.000 HD 
HETATM   21  C   UNL     1      -9.360  11.045  65.705  1.00  0.00    -0.211 C  
HETATM   22  N   UNL     1      -9.460  11.577  64.336  1.00  0.00    -0.402 NA 
HETATM   23  C   UNL     1     -10.155  11.804  66.813  1.00  0.00    -0.209 C  
HETATM   24  C   UNL     1      -9.934  11.078  68.207  1.00  0.00    -0.179 C  
HETATM   25  O   UNL     1     -10.647  11.793  69.232  1.00  0.00    -0.405 OA 
HETATM   26  H2  UNL     1     -10.395  11.517  63.933  1.00  0.00     0.000 HD 
HETATM   27  H1  UNL     1      -9.098  12.528  64.405  1.00  0.00     0.000 HD 
HETATM   28  H   UNL     1     -10.342  12.693  69.264  1.00  0.00     0.000 HD 
BRANCH  23  29
HETATM   29  O   UNL     1      -9.841  13.232  66.866  1.00  0.00    -0.235 OA 
BRANCH  29  30
HETATM   30  C   UNL     1     -11.039  14.046  67.012  1.00  0.00    -0.304 C  
HETATM   31  O   UNL     1     -10.835  15.105  67.955  1.00  0.00    -0.267 OA 
HETATM   32  C   UNL     1      -9.898  16.081  67.465  1.00  0.00    -0.235 C  
HETATM   33  C   UNL     1     -10.519  16.814  66.276  1.00  0.00    -0.261 C  
HETATM   34  H   UNL     1     -12.122  13.913  63.890  1.00  0.00     0.000 HD 
HETATM   35  O   UNL     1      -9.660  17.847  65.790  1.00  0.00    -0.514 OA 
HETATM   36  C   UNL     1     -10.814  15.798  65.147  1.00  0.00    -0.428 C  
HETATM   37  H1  UNL     1     -11.694  15.808  63.281  1.00  0.00     0.000 HD 
HETATM   38  H2  UNL     1     -10.974  17.286  63.687  1.00  0.00     0.000 HD 
HETATM   39  C   UNL     1     -11.618  14.603  65.684  1.00  0.00    -0.328 C  
HETATM   40  N   UNL     1     -11.499  16.479  64.025  1.00  0.00    -1.122 NA 
HETATM   41  H   UNL     1     -10.046  18.303  65.052  1.00  0.00     0.000 HD 
HETATM   42  O   UNL     1     -11.768  13.573  64.704  1.00  0.00    -0.351 OA 
BRANCH  32  43
HETATM   43  C   UNL     1      -9.537  17.002  68.631  1.00  0.00    -0.275 C  
HETATM   44  O   UNL     1      -8.340  17.720  68.300  1.00  0.00    -0.259 OA 
HETATM   45  H   UNL     1      -8.115  18.292  69.024  1.00  0.00     0.000 HD 
ENDBRANCH  32  43
ENDBRANCH  29  30
ENDBRANCH  23  29
ENDBRANCH  14  15
ENDBRANCH   8  14
TORSDOF 6
ENDMDL
MODEL       25
REMARK 921   NORMALIZED FREE ENERGY PREDICTED BY IDOCK:   -6.88 KCAL/MOL
REMARK 922        TOTAL FREE ENERGY PREDICTED BY IDOCK:  -10.85 KCAL/MOL
REMARK 923 INTER-LIGAND FREE ENERGY PREDICTED BY IDOCK:  -10.41 KCAL/MOL
REMARK 924 INTRA-LIGAND FREE ENERGY PREDICTED BY IDOCK:   -0.43 KCAL/MOL
REMARK 927      BINDING AFFINITY PREDICTED BY RF-SCORE:    0.00 PKD
ROOT
HETATM    1  C   UNL     1      -9.465   8.054  71.120  1.00  0.00    -0.153 C  
HETATM    2  C   UNL     1     -10.369   7.179  71.997  1.00  0.00    -0.214 C  
HETATM    3  N   UNL     1      -8.508   7.133  70.469  1.00  0.00    -0.137 NA 
HETATM    4  H1  UNL     1      -7.907   7.715  69.886  1.00  0.00     0.000 HD 
HETATM    5  C   UNL     1     -11.597   7.904  72.498  1.00  0.00    -0.443 C  
HETATM    6  H2  UNL     1      -8.958   6.375  69.957  1.00  0.00     0.000 HD 
HETATM    7  C   UNL     1     -12.281   8.712  71.396  1.00  0.00    -0.304 C  
HETATM    8  C   UNL     1     -10.215   9.060  70.148  1.00  0.00    -0.197 C  
HETATM    9  O   UNL     1     -11.386   9.624  70.741  1.00  0.00    -0.285 OA 
ENDROOT
BRANCH   7  10
HETATM   10  C   UNL     1     -13.407   9.548  72.063  1.00  0.00    -0.452 C  
HETATM   11  N   UNL     1     -13.995   8.887  73.228  1.00  0.00    -1.217 NA 
HETATM   12  H1  UNL     1     -14.734   9.436  73.665  1.00  0.00     0.000 HD 
HETATM   13  H2  UNL     1     -13.275   8.637  73.906  1.00  0.00     0.000 HD 
ENDBRANCH   7  10
BRANCH   8  14
HETATM   14  O   UNL     1     -10.428   8.463  68.869  1.00  0.00    -0.218 OA 
BRANCH  14  15
HETATM   15  C   UNL     1     -10.771   9.266  67.711  1.00  0.00    -0.207 C  
HETATM   16  C   UNL     1      -9.707   8.828  66.667  1.00  0.00    -0.242 C  
HETATM   17  N   UNL     1      -9.873   7.410  66.299  1.00  0.00    -0.442 NA 
HETATM   18  C   UNL     1      -9.685   9.600  65.363  1.00  0.00    -0.365 C  
HETATM   19  H2  UNL     1     -10.820   7.215  65.973  1.00  0.00     0.000 HD 
HETATM   20  H1  UNL     1      -9.174   7.122  65.613  1.00  0.00     0.000 HD 
HETATM   21  C   UNL     1      -9.662  11.108  65.551  1.00  0.00    -0.228 C  
HETATM   22  N   UNL     1      -9.599  11.649  64.184  1.00  0.00    -0.422 NA 
HETATM   23  C   UNL     1     -10.893  11.524  66.415  1.00  0.00    -0.285 C  
HETATM   24  C   UNL     1     -10.790  10.835  67.841  1.00  0.00    -0.264 C  
HETATM   25  O   UNL     1     -11.913  11.239  68.645  1.00  0.00    -0.472 OA 
HETATM   26  H2  UNL     1     -10.344  11.319  63.571  1.00  0.00     0.000 HD 
HETATM   27  H1  UNL     1      -9.583  12.662  64.310  1.00  0.00     0.000 HD 
HETATM   28  H   UNL     1     -11.924  12.186  68.724  1.00  0.00     0.000 HD 
BRANCH  23  29
HETATM   29  O   UNL     1     -11.069  12.973  66.500  1.00  0.00    -0.278 OA 
BRANCH  29  30
HETATM   30  C   UNL     1      -9.824  13.687  66.254  1.00  0.00    -0.301 C  
HETATM   31  O   UNL     1     -10.004  14.725  65.283  1.00  0.00    -0.361 OA 
HETATM   32  C   UNL     1     -10.834  15.786  65.786  1.00  0.00    -0.280 C  
HETATM   33  C   UNL     1     -10.089  16.511  66.908  1.00  0.00    -0.281 C  
HETATM   34  H   UNL     1      -8.570  13.580  69.312  1.00  0.00     0.000 HD 
HETATM   35  O   UNL     1     -10.838  17.624  67.401  1.00  0.00    -0.301 OA 
HETATM   36  C   UNL     1      -9.804  15.515  68.058  1.00  0.00    -0.212 C  
HETATM   37  H1  UNL     1      -8.816  15.523  69.869  1.00  0.00     0.000 HD 
HETATM   38  H2  UNL     1      -9.446  17.036  69.446  1.00  0.00     0.000 HD 
HETATM   39  C   UNL     1      -9.127  14.243  67.524  1.00  0.00    -0.193 C  
HETATM   40  N   UNL     1      -9.004  16.180  69.111  1.00  0.00    -0.249 NA 
HETATM   41  H   UNL     1     -10.375  18.074  68.098  1.00  0.00     0.000 HD 
HETATM   42  O   UNL     1      -8.996  13.240  68.534  1.00  0.00    -0.155 OA 
BRANCH  32  43
HETATM   43  C   UNL     1     -11.194  16.692  64.607  1.00  0.00    -0.015 C  
HETATM   44  O   UNL     1     -11.927  15.924  63.642  1.00  0.00    -1.239 OA 
HETATM   45  H   UNL     1     -12.150  16.487  62.909  1.00  0.00     0.000 HD 
ENDBRANCH  32  43
ENDBRANCH  29  30
ENDBRANCH  23  29
ENDBRANCH  14  15
ENDBRANCH   8  14
TORSDOF 6
ENDMDL
MODEL       26
REMARK 921   NORMALIZED FREE ENERGY PREDICTED BY IDOCK:   -6.86 KCAL/MOL
REMARK 922        TOTAL FREE ENERGY PREDICTED BY IDOCK:  -10.82 KCAL/MOL
REMARK 923 INTER-LIGAND FREE ENERGY PREDICTED BY IDOCK:   -9.24 KCAL/MOL
REMARK 924 INTRA-LIGAND FREE ENERGY PREDICTED BY IDOCK:   -1.58 KCAL/MOL
REMARK 927      BINDING AFFINITY PREDICTED BY RF-SCORE:    0.00 PKD
ROOT
HETATM    1  C   UNL     1     -12.156  12.801  64.463  1.00  0.00    -0.414 C  
HETATM    2  C   UNL     1     -11.786  14.289  64.503  1.00  0.00    -0.456 C  
HETATM    3  N   UNL     1     -11.603  12.273  63.197  1.00  0.00    -0.709 NA 
HETATM    4  H1  UNL     1     -11.849  11.284  63.171  1.00  0.00     0.000 HD 
HETATM    5  C   UNL     1     -12.000  14.920  65.859  1.00  0.00    -0.054 C  
HETATM    6  H2  UNL     1     -10.604  12.445  63.087  1.00  0.00     0.000 HD 
HETATM    7  C   UNL     1     -11.466  14.048  66.994  1.00  0.00    -0.351 C  
HETATM    8  C   UNL     1     -11.799  11.968  65.766  1.00  0.00    -0.164 C  
HETATM    9  O   UNL     1     -12.000  12.715  66.966  1.00  0.00    -0.445 OA 
ENDROOT
BRANCH   7  10
HETATM   10  C   UNL     1     -11.902  14.706  68.332  1.00  0.00    -0.295 C  
HETATM   11  N   UNL     1     -11.235  15.983  68.583  1.00  0.00    -0.348 NA 
HETATM   12  H1  UNL     1     -11.521  16.415  69.461  1.00  0.00     0.000 HD 
HETATM   13  H2  UNL     1     -11.369  16.624  67.800  1.00  0.00     0.000 HD 
ENDBRANCH   7  10
BRANCH   8  14
HETATM   14  O   UNL     1     -10.505  11.376  65.648  1.00  0.00    -0.249 OA 
BRANCH  14  15
HETATM   15  C   UNL     1      -9.911  10.638  66.746  1.00  0.00    -0.209 C  
HETATM   16  C   UNL     1      -8.669   9.982  66.082  1.00  0.00    -0.140 C  
HETATM   17  N   UNL     1      -7.697  11.001  65.644  1.00  0.00    -0.365 NA 
HETATM   18  C   UNL     1      -7.890   8.999  66.935  1.00  0.00    -0.101 C  
HETATM   19  H2  UNL     1      -7.430  11.618  66.411  1.00  0.00     0.000 HD 
HETATM   20  H1  UNL     1      -6.881  10.569  65.209  1.00  0.00     0.000 HD 
HETATM   21  C   UNL     1      -8.764   7.946  67.596  1.00  0.00    -0.126 C  
HETATM   22  N   UNL     1      -7.817   7.086  68.324  1.00  0.00    -0.116 NA 
HETATM   23  C   UNL     1      -9.858   8.664  68.446  1.00  0.00    -0.172 C  
HETATM   24  C   UNL     1     -10.767   9.548  67.492  1.00  0.00    -0.245 C  
HETATM   25  O   UNL     1     -11.790  10.191  68.274  1.00  0.00    -0.697 OA 
HETATM   26  H2  UNL     1      -7.211   7.589  68.972  1.00  0.00     0.000 HD 
HETATM   27  H1  UNL     1      -8.404   6.379  68.768  1.00  0.00     0.000 HD 
HETATM   28  H   UNL     1     -12.307   9.532  68.725  1.00  0.00     0.000 HD 
BRANCH  23  29
HETATM   29  O   UNL     1     -10.637   7.742  69.273  1.00  0.00    -0.220 OA 
BRANCH  29  30
HETATM   30  C   UNL     1     -10.427   7.978  70.695  1.00  0.00    -0.210 C  
HETATM   31  O   UNL     1     -11.495   8.753  71.255  1.00  0.00    -0.261 OA 
HETATM   32  C   UNL     1     -12.731   8.018  71.278  1.00  0.00    -0.217 C  
HETATM   33  C   UNL     1     -12.604   6.863  72.272  1.00  0.00    -0.005 C  
HETATM   34  H   UNL     1      -9.009   5.096  71.479  1.00  0.00     0.000 HD 
HETATM   35  O   UNL     1     -13.829   6.137  72.391  1.00  0.00    -0.461 OA 
HETATM   36  C   UNL     1     -11.471   5.915  71.813  1.00  0.00    -0.198 C  
HETATM   37  H1  UNL     1     -10.529   4.218  72.511  1.00  0.00     0.000 HD 
HETATM   38  H2  UNL     1     -12.142   4.339  73.010  1.00  0.00     0.000 HD 
HETATM   39  C   UNL     1     -10.179   6.701  71.540  1.00  0.00    -0.197 C  
HETATM   40  N   UNL     1     -11.277   4.842  72.815  1.00  0.00    -0.214 NA 
HETATM   41  H   UNL     1     -13.751   5.420  73.009  1.00  0.00     0.000 HD 
HETATM   42  O   UNL     1      -9.162   5.879  70.962  1.00  0.00    -0.148 OA 
BRANCH  32  43
HETATM   43  C   UNL     1     -13.849   9.002  71.623  1.00  0.00    -0.368 C  
HETATM   44  O   UNL     1     -14.066   8.977  73.041  1.00  0.00    -1.086 OA 
HETATM   45  H   UNL     1     -14.761   9.589  73.255  1.00  0.00     0.000 HD 
ENDBRANCH  32  43
ENDBRANCH  29  30
ENDBRANCH  23  29
ENDBRANCH  14  15
ENDBRANCH   8  14
TORSDOF 6
ENDMDL
MODEL       27
REMARK 921   NORMALIZED FREE ENERGY PREDICTED BY IDOCK:   -6.83 KCAL/MOL
REMARK 922        TOTAL FREE ENERGY PREDICTED BY IDOCK:  -10.79 KCAL/MOL
REMARK 923 INTER-LIGAND FREE ENERGY PREDICTED BY IDOCK:   -9.74 KCAL/MOL
REMARK 924 INTRA-LIGAND FREE ENERGY PREDICTED BY IDOCK:   -1.05 KCAL/MOL
REMARK 927      BINDING AFFINITY PREDICTED BY RF-SCORE:    0.00 PKD
ROOT
HETATM    1  C   UNL     1     -10.532   6.695  68.865  1.00  0.00    -0.212 C  
HETATM    2  C   UNL     1     -10.993   5.604  69.840  1.00  0.00    -0.309 C  
HETATM    3  N   UNL     1     -11.533   6.724  67.776  1.00  0.00    -0.617 NA 
HETATM    4  H1  UNL     1     -11.226   7.449  67.128  1.00  0.00     0.000 HD 
HETATM    5  C   UNL     1     -10.265   5.641  71.163  1.00  0.00    -0.280 C  
HETATM    6  H2  UNL     1     -12.489   6.854  68.107  1.00  0.00     0.000 HD 
HETATM    7  C   UNL     1     -10.150   7.058  71.722  1.00  0.00    -0.184 C  
HETATM    8  C   UNL     1     -10.189   8.100  69.517  1.00  0.00    -0.213 C  
HETATM    9  O   UNL     1      -9.553   7.974  70.789  1.00  0.00    -0.161 OA 
ENDROOT
BRANCH   7  10
HETATM   10  C   UNL     1      -9.235   6.992  72.975  1.00  0.00    -0.137 C  
HETATM   11  N   UNL     1      -9.848   7.591  74.160  1.00  0.00    -0.377 NA 
HETATM   12  H1  UNL     1      -9.247   7.547  74.983  1.00  0.00     0.000 HD 
HETATM   13  H2  UNL     1     -10.758   7.171  74.351  1.00  0.00     0.000 HD 
ENDBRANCH   7  10
BRANCH   8  14
HETATM   14  O   UNL     1     -11.335   8.953  69.511  1.00  0.00     0.014 OA 
BRANCH  14  15
HETATM   15  C   UNL     1     -11.213  10.379  69.744  1.00  0.00    -0.293 C  
HETATM   16  C   UNL     1     -12.231  10.624  70.892  1.00  0.00    -0.395 C  
HETATM   17  N   UNL     1     -11.821   9.928  72.126  1.00  0.00     0.169 NA 
HETATM   18  C   UNL     1     -12.468  12.068  71.285  1.00  0.00    -0.303 C  
HETATM   19  H2  UNL     1     -10.874  10.183  72.404  1.00  0.00     0.000 HD 
HETATM   20  H1  UNL     1     -12.490  10.089  72.880  1.00  0.00     0.000 HD 
HETATM   21  C   UNL     1     -12.764  12.977  70.103  1.00  0.00     0.169 C  
HETATM   22  N   UNL     1     -13.002  14.299  70.705  1.00  0.00    -0.334 NA 
HETATM   23  C   UNL     1     -11.588  12.872  69.083  1.00  0.00    -0.322 C  
HETATM   24  C   UNL     1     -11.482  11.378  68.557  1.00  0.00    -0.297 C  
HETATM   25  O   UNL     1     -10.413  11.287  67.598  1.00  0.00    -0.182 OA 
HETATM   26  H2  UNL     1     -12.243  14.628  71.302  1.00  0.00     0.000 HD 
HETATM   27  H1  UNL     1     -13.201  14.909  69.912  1.00  0.00     0.000 HD 
HETATM   28  H   UNL     1     -10.576  11.891  66.882  1.00  0.00     0.000 HD 
BRANCH  23  29
HETATM   29  O   UNL     1     -11.683  13.846  67.997  1.00  0.00    -0.313 OA 
BRANCH  29  30
HETATM   30  C   UNL     1     -10.387  14.110  67.387  1.00  0.00    -0.256 C  
HETATM   31  O   UNL     1     -10.317  13.568  66.063  1.00  0.00    -0.289 OA 
HETATM   32  C   UNL     1     -11.192  14.263  65.157  1.00  0.00    -0.345 C  
HETATM   33  C   UNL     1     -10.674  15.688  64.958  1.00  0.00    -0.436 C  
HETATM   34  H   UNL     1      -9.815  17.092  68.696  1.00  0.00     0.000 HD 
HETATM   35  O   UNL     1     -11.466  16.406  64.011  1.00  0.00    -1.465 OA 
HETATM   36  C   UNL     1     -10.679  16.427  66.318  1.00  0.00    -0.161 C  
HETATM   37  H1  UNL     1     -10.098  18.264  67.054  1.00  0.00     0.000 HD 
HETATM   38  H2  UNL     1     -10.564  18.315  65.428  1.00  0.00     0.000 HD 
HETATM   39  C   UNL     1      -9.954  15.600  67.392  1.00  0.00    -0.232 C  
HETATM   40  N   UNL     1     -10.095  17.778  66.158  1.00  0.00    -0.470 NA 
HETATM   41  H   UNL     1     -11.144  17.291  63.887  1.00  0.00     0.000 HD 
HETATM   42  O   UNL     1     -10.080  16.180  68.693  1.00  0.00    -0.217 OA 
BRANCH  32  43
HETATM   43  C   UNL     1     -11.258  13.451  63.863  1.00  0.00    -0.205 C  
HETATM   44  O   UNL     1     -12.428  13.842  63.131  1.00  0.00    -1.089 OA 
HETATM   45  H   UNL     1     -12.469  13.337  62.327  1.00  0.00     0.000 HD 
ENDBRANCH  32  43
ENDBRANCH  29  30
ENDBRANCH  23  29
ENDBRANCH  14  15
ENDBRANCH   8  14
TORSDOF 6
ENDMDL
MODEL       28
REMARK 921   NORMALIZED FREE ENERGY PREDICTED BY IDOCK:   -6.81 KCAL/MOL
REMARK 922        TOTAL FREE ENERGY PREDICTED BY IDOCK:  -10.76 KCAL/MOL
REMARK 923 INTER-LIGAND FREE ENERGY PREDICTED BY IDOCK:   -9.08 KCAL/MOL
REMARK 924 INTRA-LIGAND FREE ENERGY PREDICTED BY IDOCK:   -1.68 KCAL/MOL
REMARK 927      BINDING AFFINITY PREDICTED BY RF-SCORE:    0.00 PKD
ROOT
HETATM    1  C   UNL     1     -11.873  14.983  68.352  1.00  0.00    -0.270 C  
HETATM    2  C   UNL     1     -12.122  15.733  69.666  1.00  0.00    -0.282 C  
HETATM    3  N   UNL     1     -10.944  15.825  67.567  1.00  0.00    -0.315 NA 
HETATM    4  H1  UNL     1     -10.779  15.326  66.693  1.00  0.00     0.000 HD 
HETATM    5  C   UNL     1     -12.801  14.886  70.717  1.00  0.00    -0.428 C  
HETATM    6  H2  UNL     1     -10.088  16.060  68.068  1.00  0.00     0.000 HD 
HETATM    7  C   UNL     1     -12.180  13.494  70.827  1.00  0.00    -0.338 C  
HETATM    8  C   UNL     1     -11.457  13.459  68.499  1.00  0.00    -0.310 C  
HETATM    9  O   UNL     1     -12.141  12.804  69.568  1.00  0.00    -0.280 OA 
ENDROOT
BRANCH   7  10
HETATM   10  C   UNL     1     -13.065  12.664  71.796  1.00  0.00    -0.360 C  
HETATM   11  N   UNL     1     -14.043  13.481  72.515  1.00  0.00    -0.758 NA 
HETATM   12  H1  UNL     1     -14.625  12.935  73.152  1.00  0.00     0.000 HD 
HETATM   13  H2  UNL     1     -14.618  14.018  71.866  1.00  0.00     0.000 HD 
ENDBRANCH   7  10
BRANCH   8  14
HETATM   14  O   UNL     1     -10.036  13.324  68.535  1.00  0.00    -0.234 OA 
BRANCH  14  15
HETATM   15  C   UNL     1      -9.362  12.254  67.825  1.00  0.00    -0.194 C  
HETATM   16  C   UNL     1      -9.895  12.421  66.375  1.00  0.00    -0.240 C  
HETATM   17  N   UNL     1      -9.453  13.700  65.788  1.00  0.00    -0.506 NA 
HETATM   18  C   UNL     1      -9.496  11.346  65.383  1.00  0.00    -0.240 C  
HETATM   19  H2  UNL     1      -8.440  13.802  65.830  1.00  0.00     0.000 HD 
HETATM   20  H1  UNL     1      -9.803  13.809  64.836  1.00  0.00     0.000 HD 
HETATM   21  C   UNL     1      -9.747   9.934  65.887  1.00  0.00    -0.262 C  
HETATM   22  N   UNL     1      -9.339   9.066  64.770  1.00  0.00    -0.413 NA 
HETATM   23  C   UNL     1      -8.990   9.742  67.238  1.00  0.00    -0.135 C  
HETATM   24  C   UNL     1      -9.559  10.768  68.308  1.00  0.00    -0.166 C  
HETATM   25  O   UNL     1      -8.877  10.574  69.560  1.00  0.00    -0.335 OA 
HETATM   26  H2  UNL     1      -8.386   9.228  64.444  1.00  0.00     0.000 HD 
HETATM   27  H1  UNL     1      -9.507   8.118  65.108  1.00  0.00     0.000 HD 
HETATM   28  H   UNL     1      -8.995   9.677  69.851  1.00  0.00     0.000 HD 
BRANCH  23  29
HETATM   29  O   UNL     1      -9.013   8.360  67.716  1.00  0.00    -0.136 OA 
BRANCH  29  30
HETATM   30  C   UNL     1     -10.372   7.860  67.870  1.00  0.00    -0.221 C  
HETATM   31  O   UNL     1     -10.676   6.869  66.881  1.00  0.00    -0.318 OA 
HETATM   32  C   UNL     1      -9.916   5.665  67.083  1.00  0.00    -0.164 C  
HETATM   33  C   UNL     1     -10.382   4.994  68.376  1.00  0.00    -0.021 C  
HETATM   34  H   UNL     1     -10.574   7.967  71.169  1.00  0.00     0.000 HD 
HETATM   35  O   UNL     1      -9.710   3.752  68.593  1.00  0.00    -0.137 OA 
HETATM   36  C   UNL     1     -10.126   5.948  69.567  1.00  0.00    -0.203 C  
HETATM   37  H1  UNL     1     -10.488   5.978  71.598  1.00  0.00     0.000 HD 
HETATM   38  H2  UNL     1     -10.278   4.416  70.981  1.00  0.00     0.000 HD 
HETATM   39  C   UNL     1     -10.719   7.339  69.289  1.00  0.00    -0.198 C  
HETATM   40  N   UNL     1     -10.656   5.348  70.813  1.00  0.00    -0.248 NA 
HETATM   41  H   UNL     1      -9.999   3.335  69.396  1.00  0.00     0.000 HD 
HETATM   42  O   UNL     1     -10.362   8.286  70.300  1.00  0.00    -0.201 OA 
BRANCH  32  43
HETATM   43  C   UNL     1     -10.095   4.791  65.841  1.00  0.00    -0.242 C  
HETATM   44  O   UNL     1     -11.498   4.654  65.571  1.00  0.00    -0.924 OA 
HETATM   45  H   UNL     1     -11.609   4.110  64.799  1.00  0.00     0.000 HD 
ENDBRANCH  32  43
ENDBRANCH  29  30
ENDBRANCH  23  29
ENDBRANCH  14  15
ENDBRANCH   8  14
TORSDOF 6
ENDMDL
MODEL       29
REMARK 921   NORMALIZED FREE ENERGY PREDICTED BY IDOCK:   -6.79 KCAL/MOL
REMARK 922        TOTAL FREE ENERGY PREDICTED BY IDOCK:  -10.73 KCAL/MOL
REMARK 923 INTER-LIGAND FREE ENERGY PREDICTED BY IDOCK:   -9.59 KCAL/MOL
REMARK 924 INTRA-LIGAND FREE ENERGY PREDICTED BY IDOCK:   -1.14 KCAL/MOL
REMARK 927      BINDING AFFINITY PREDICTED BY RF-SCORE:    0.00 PKD
ROOT
HETATM    1  C   UNL     1      -9.849   6.887  72.653  1.00  0.00    -0.165 C  
HETATM    2  C   UNL     1     -11.104   6.088  72.278  1.00  0.00    -0.324 C  
HETATM    3  N   UNL     1      -8.695   6.051  72.254  1.00  0.00    -0.131 NA 
HETATM    4  H1  UNL     1      -7.861   6.582  72.503  1.00  0.00     0.000 HD 
HETATM    5  C   UNL     1     -12.371   6.911  72.330  1.00  0.00    -0.129 C  
HETATM    6  H2  UNL     1      -8.719   5.768  71.274  1.00  0.00     0.000 HD 
HETATM    7  C   UNL     1     -12.201   8.277  71.666  1.00  0.00    -0.313 C  
HETATM    8  C   UNL     1      -9.813   8.390  72.145  1.00  0.00    -0.302 C  
HETATM    9  O   UNL     1     -11.094   9.018  72.202  1.00  0.00    -0.350 OA 
ENDROOT
BRANCH   7  10
HETATM   10  C   UNL     1     -13.495   9.091  71.940  1.00  0.00    -0.425 C  
HETATM   11  N   UNL     1     -14.292   8.542  73.037  1.00  0.00    -0.982 NA 
HETATM   12  H1  UNL     1     -15.142   9.077  73.216  1.00  0.00     0.000 HD 
HETATM   13  H2  UNL     1     -13.732   8.451  73.885  1.00  0.00     0.000 HD 
ENDBRANCH   7  10
BRANCH   8  14
HETATM   14  O   UNL     1      -9.166   8.479  70.875  1.00  0.00    -0.152 OA 
BRANCH  14  15
HETATM   15  C   UNL     1      -9.922   8.716  69.660  1.00  0.00    -0.191 C  
HETATM   16  C   UNL     1      -9.254   7.744  68.649  1.00  0.00    -0.138 C  
HETATM   17  N   UNL     1      -9.462   6.338  69.043  1.00  0.00    -0.128 NA 
HETATM   18  C   UNL     1      -9.716   7.847  67.209  1.00  0.00    -0.230 C  
HETATM   19  H2  UNL     1     -10.452   6.126  69.169  1.00  0.00     0.000 HD 
HETATM   20  H1  UNL     1      -9.024   5.699  68.379  1.00  0.00     0.000 HD 
HETATM   21  C   UNL     1      -9.708   9.269  66.671  1.00  0.00    -0.219 C  
HETATM   22  N   UNL     1     -10.141   9.136  65.270  1.00  0.00    -0.148 NA 
HETATM   23  C   UNL     1     -10.592  10.161  67.597  1.00  0.00    -0.265 C  
HETATM   24  C   UNL     1      -9.976  10.171  69.060  1.00  0.00    -0.208 C  
HETATM   25  O   UNL     1     -10.779  11.012  69.907  1.00  0.00    -0.447 OA 
HETATM   26  H2  UNL     1     -11.031   8.653  65.154  1.00  0.00     0.000 HD 
HETATM   27  H1  UNL     1     -10.135  10.090  64.909  1.00  0.00     0.000 HD 
HETATM   28  H   UNL     1     -10.812  11.890  69.544  1.00  0.00     0.000 HD 
BRANCH  23  29
HETATM   29  O   UNL     1     -10.803  11.507  67.065  1.00  0.00    -0.244 OA 
BRANCH  29  30
HETATM   30  C   UNL     1      -9.714  11.923  66.193  1.00  0.00    -0.232 C  
HETATM   31  O   UNL     1     -10.145  12.007  64.829  1.00  0.00    -0.261 OA 
HETATM   32  C   UNL     1     -11.080  13.082  64.632  1.00  0.00    -0.332 C  
HETATM   33  C   UNL     1     -10.356  14.414  64.832  1.00  0.00    -0.389 C  
HETATM   34  H   UNL     1      -8.178  13.995  68.261  1.00  0.00     0.000 HD 
HETATM   35  O   UNL     1     -11.220  15.523  64.579  1.00  0.00    -0.644 OA 
HETATM   36  C   UNL     1      -9.812  14.487  66.279  1.00  0.00    -0.304 C  
HETATM   37  H1  UNL     1      -8.672  15.780  67.414  1.00  0.00     0.000 HD 
HETATM   38  H2  UNL     1      -9.569  16.562  66.209  1.00  0.00     0.000 HD 
HETATM   39  C   UNL     1      -8.997  13.230  66.621  1.00  0.00    -0.126 C  
HETATM   40  N   UNL     1      -9.031  15.732  66.460  1.00  0.00    -0.277 NA 
HETATM   41  H   UNL     1     -10.771  16.351  64.703  1.00  0.00     0.000 HD 
HETATM   42  O   UNL     1      -8.617  13.195  67.999  1.00  0.00    -0.164 OA 
BRANCH  32  43
HETATM   43  C   UNL     1     -11.685  12.919  63.238  1.00  0.00    -0.342 C  
HETATM   44  O   UNL     1     -12.637  13.971  63.020  1.00  0.00    -1.027 OA 
HETATM   45  H   UNL     1     -13.013  13.869  62.154  1.00  0.00     0.000 HD 
ENDBRANCH  32  43
ENDBRANCH  29  30
ENDBRANCH  23  29
ENDBRANCH  14  15
ENDBRANCH   8  14
TORSDOF 6
ENDMDL
MODEL       30
REMARK 921   NORMALIZED FREE ENERGY PREDICTED BY IDOCK:   -6.77 KCAL/MOL
REMARK 922        TOTAL FREE ENERGY PREDICTED BY IDOCK:  -10.71 KCAL/MOL
REMARK 923 INTER-LIGAND FREE ENERGY PREDICTED BY IDOCK:   -9.32 KCAL/MOL
REMARK 924 INTRA-LIGAND FREE ENERGY PREDICTED BY IDOCK:   -1.39 KCAL/MOL
REMARK 927      BINDING AFFINITY PREDICTED BY RF-SCORE:    0.00 PKD
ROOT
HETATM    1  C   UNL     1      -9.652  17.992  68.109  1.00  0.00    -0.301 C  
HETATM    2  C   UNL     1      -9.876  19.509  68.149  1.00  0.00    -0.506 C  
HETATM    3  N   UNL     1     -10.970  17.375  68.377  1.00  0.00    -0.221 NA 
HETATM    4  H1  UNL     1     -10.821  16.367  68.351  1.00  0.00     0.000 HD 
HETATM    5  C   UNL     1      -8.711  20.297  67.596  1.00  0.00    -0.351 C  
HETATM    6  H2  UNL     1     -11.704  17.693  67.744  1.00  0.00     0.000 HD 
HETATM    7  C   UNL     1      -8.187  19.713  66.285  1.00  0.00    -0.347 C  
HETATM    8  C   UNL     1      -8.887  17.442  66.832  1.00  0.00    -0.242 C  
HETATM    9  O   UNL     1      -7.850  18.321  66.394  1.00  0.00    -0.245 OA 
ENDROOT
BRANCH   7  10
HETATM   10  C   UNL     1      -6.893  20.488  65.915  1.00  0.00    -0.204 C  
HETATM   11  N   UNL     1      -6.899  20.982  64.538  1.00  0.00    -0.514 NA 
HETATM   12  H1  UNL     1      -6.049  21.491  64.295  1.00  0.00     0.000 HD 
HETATM   13  H2  UNL     1      -7.727  21.549  64.358  1.00  0.00     0.000 HD 
ENDBRANCH   7  10
BRANCH   8  14
HETATM   14  O   UNL     1      -9.812  17.065  65.812  1.00  0.00    -0.525 OA 
BRANCH  14  15
HETATM   15  C   UNL     1      -9.968  15.679  65.413  1.00  0.00    -0.276 C  
HETATM   16  C   UNL     1     -11.449  15.625  64.947  1.00  0.00    -0.245 C  
HETATM   17  N   UNL     1     -11.665  16.466  63.754  1.00  0.00    -1.498 NA 
HETATM   18  C   UNL     1     -11.995  14.255  64.597  1.00  0.00    -0.468 C  
HETATM   19  H2  UNL     1     -11.025  16.218  63.000  1.00  0.00     0.000 HD 
HETATM   20  H1  UNL     1     -12.637  16.430  63.449  1.00  0.00     0.000 HD 
HETATM   21  C   UNL     1     -11.731  13.206  65.665  1.00  0.00    -0.364 C  
HETATM   22  N   UNL     1     -12.373  11.986  65.151  1.00  0.00    -0.374 NA 
HETATM   23  C   UNL     1     -10.194  13.135  65.927  1.00  0.00    -0.291 C  
HETATM   24  C   UNL     1      -9.687  14.540  66.462  1.00  0.00    -0.285 C  
HETATM   25  O   UNL     1      -8.274  14.465  66.726  1.00  0.00    -0.395 OA 
HETATM   26  H2  UNL     1     -12.064  11.715  64.217  1.00  0.00     0.000 HD 
HETATM   27  H1  UNL     1     -12.195  11.282  65.867  1.00  0.00     0.000 HD 
HETATM   28  H   UNL     1      -8.105  13.777  67.360  1.00  0.00     0.000 HD 
BRANCH  23  29
HETATM   29  O   UNL     1      -9.814  12.027  66.803  1.00  0.00    -0.199 OA 
BRANCH  29  30
HETATM   30  C   UNL     1      -8.959  11.064  66.122  1.00  0.00    -0.191 C  
HETATM   31  O   UNL     1      -7.573  11.355  66.343  1.00  0.00    -0.117 OA 
HETATM   32  C   UNL     1      -7.195  11.136  67.713  1.00  0.00    -0.091 C  
HETATM   33  C   UNL     1      -7.271   9.640  68.018  1.00  0.00    -0.081 C  
HETATM   34  H   UNL     1     -10.840   8.371  66.493  1.00  0.00     0.000 HD 
HETATM   35  O   UNL     1      -6.838   9.353  69.349  1.00  0.00    -0.047 OA 
HETATM   36  C   UNL     1      -8.726   9.151  67.820  1.00  0.00    -0.121 C  
HETATM   37  H1  UNL     1      -9.756   7.365  67.893  1.00  0.00     0.000 HD 
HETATM   38  H2  UNL     1      -8.417   7.406  68.928  1.00  0.00     0.000 HD 
HETATM   39  C   UNL     1      -9.263   9.578  66.444  1.00  0.00    -0.166 C  
HETATM   40  N   UNL     1      -8.796   7.686  68.023  1.00  0.00    -0.128 NA 
HETATM   41  H   UNL     1      -6.884   8.423  69.538  1.00  0.00     0.000 HD 
HETATM   42  O   UNL     1     -10.654   9.281  66.295  1.00  0.00    -0.105 OA 
BRANCH  32  43
HETATM   43  C   UNL     1      -5.800  11.730  67.909  1.00  0.00    -0.050 C  
HETATM   44  O   UNL     1      -5.619  12.805  66.976  1.00  0.00    -0.373 OA 
HETATM   45  H   UNL     1      -4.752  13.173  67.097  1.00  0.00     0.000 HD 
ENDBRANCH  32  43
ENDBRANCH  29  30
ENDBRANCH  23  29
ENDBRANCH  14  15
ENDBRANCH   8  14
TORSDOF 6
ENDMDL
MODEL       31
REMARK 921   NORMALIZED FREE ENERGY PREDICTED BY IDOCK:   -6.77 KCAL/MOL
REMARK 922        TOTAL FREE ENERGY PREDICTED BY IDOCK:  -10.70 KCAL/MOL
REMARK 923 INTER-LIGAND FREE ENERGY PREDICTED BY IDOCK:   -8.93 KCAL/MOL
REMARK 924 INTRA-LIGAND FREE ENERGY PREDICTED BY IDOCK:   -1.77 KCAL/MOL
REMARK 927      BINDING AFFINITY PREDICTED BY RF-SCORE:    0.00 PKD
ROOT
HETATM    1  C   UNL     1     -12.386  11.697  70.990  1.00  0.00    -0.301 C  
HETATM    2  C   UNL     1     -13.785  11.902  71.584  1.00  0.00     0.385 C  
HETATM    3  N   UNL     1     -12.506  10.575  70.033  1.00  0.00    -0.508 NA 
HETATM    4  H1  UNL     1     -11.576  10.439  69.638  1.00  0.00     0.000 HD 
HETATM    5  C   UNL     1     -13.924  13.198  72.349  1.00  0.00    -0.497 C  
HETATM    6  H2  UNL     1     -13.229  10.718  69.328  1.00  0.00     0.000 HD 
HETATM    7  C   UNL     1     -13.316  14.381  71.597  1.00  0.00    -0.363 C  
HETATM    8  C   UNL     1     -11.679  13.002  70.428  1.00  0.00    -0.035 C  
HETATM    9  O   UNL     1     -11.947  14.156  71.225  1.00  0.00    -0.325 OA 
ENDROOT
BRANCH   7  10
HETATM   10  C   UNL     1     -13.354  15.607  72.549  1.00  0.00    -0.516 C  
HETATM   11  N   UNL     1     -13.065  15.258  73.940  1.00  0.00    -0.624 NA 
HETATM   12  H1  UNL     1     -13.090  16.063  74.565  1.00  0.00     0.000 HD 
HETATM   13  H2  UNL     1     -12.174  14.766  74.015  1.00  0.00     0.000 HD 
ENDBRANCH   7  10
BRANCH   8  14
HETATM   14  O   UNL     1     -11.955  13.167  69.037  1.00  0.00    -0.311 OA 
BRANCH  14  15
HETATM   15  C   UNL     1     -10.907  13.516  68.098  1.00  0.00    -0.254 C  
HETATM   16  C   UNL     1      -9.984  12.267  68.140  1.00  0.00    -0.210 C  
HETATM   17  N   UNL     1     -10.677  11.072  67.621  1.00  0.00    -0.220 NA 
HETATM   18  C   UNL     1      -8.683  12.363  67.368  1.00  0.00    -0.183 C  
HETATM   19  H2  UNL     1     -11.049  11.232  66.686  1.00  0.00     0.000 HD 
HETATM   20  H1  UNL     1     -10.071  10.252  67.650  1.00  0.00     0.000 HD 
HETATM   21  C   UNL     1      -7.891  13.625  67.672  1.00  0.00    -0.174 C  
HETATM   22  N   UNL     1      -6.667  13.495  66.864  1.00  0.00    -0.237 NA 
HETATM   23  C   UNL     1      -8.795  14.865  67.383  1.00  0.00    -0.193 C  
HETATM   24  C   UNL     1     -10.062  14.823  68.337  1.00  0.00    -0.225 C  
HETATM   25  O   UNL     1     -10.882  15.979  68.087  1.00  0.00    -0.297 OA 
HETATM   26  H2  UNL     1      -6.839  13.341  65.871  1.00  0.00     0.000 HD 
HETATM   27  H1  UNL     1      -6.136  14.342  67.068  1.00  0.00     0.000 HD 
HETATM   28  H   UNL     1     -10.372  16.768  68.231  1.00  0.00     0.000 HD 
BRANCH  23  29
HETATM   29  O   UNL     1      -8.070  16.132  67.464  1.00  0.00    -0.136 OA 
BRANCH  29  30
HETATM   30  C   UNL     1      -7.932  16.764  66.160  1.00  0.00    -0.238 C  
HETATM   31  O   UNL     1      -9.071  17.579  65.855  1.00  0.00    -0.512 OA 
HETATM   32  C   UNL     1      -9.144  18.732  66.712  1.00  0.00    -0.312 C  
HETATM   33  C   UNL     1      -7.976  19.665  66.392  1.00  0.00    -0.318 C  
HETATM   34  H   UNL     1      -4.667  17.281  66.193  1.00  0.00     0.000 HD 
HETATM   35  O   UNL     1      -8.036  20.865  67.165  1.00  0.00    -0.549 OA 
HETATM   36  C   UNL     1      -6.643  18.927  66.665  1.00  0.00    -0.191 C  
HETATM   37  H1  UNL     1      -4.625  19.300  66.453  1.00  0.00     0.000 HD 
HETATM   38  H2  UNL     1      -5.537  20.700  66.728  1.00  0.00     0.000 HD 
HETATM   39  C   UNL     1      -6.619  17.564  65.956  1.00  0.00    -0.206 C  
HETATM   40  N   UNL     1      -5.504  19.787  66.273  1.00  0.00    -0.164 NA 
HETATM   41  H   UNL     1      -7.311  21.445  66.966  1.00  0.00     0.000 HD 
HETATM   42  O   UNL     1      -5.471  16.791  66.317  1.00  0.00    -0.314 OA 
BRANCH  32  43
HETATM   43  C   UNL     1     -10.515  19.376  66.505  1.00  0.00    -0.476 C  
HETATM   44  O   UNL     1     -10.376  20.482  65.602  1.00  0.00    -0.422 OA 
HETATM   45  H   UNL     1     -11.228  20.882  65.474  1.00  0.00     0.000 HD 
ENDBRANCH  32  43
ENDBRANCH  29  30
ENDBRANCH  23  29
ENDBRANCH  14  15
ENDBRANCH   8  14
TORSDOF 6
ENDMDL
MODEL       32
REMARK 921   NORMALIZED FREE ENERGY PREDICTED BY IDOCK:   -6.76 KCAL/MOL
REMARK 922        TOTAL FREE ENERGY PREDICTED BY IDOCK:  -10.69 KCAL/MOL
REMARK 923 INTER-LIGAND FREE ENERGY PREDICTED BY IDOCK:   -8.55 KCAL/MOL
REMARK 924 INTRA-LIGAND FREE ENERGY PREDICTED BY IDOCK:   -2.14 KCAL/MOL
REMARK 927      BINDING AFFINITY PREDICTED BY RF-SCORE:    0.00 PKD
ROOT
HETATM    1  C   UNL     1      -9.885   6.316  72.441  1.00  0.00    -0.164 C  
HETATM    2  C   UNL     1     -11.202   5.711  71.940  1.00  0.00    -0.246 C  
HETATM    3  N   UNL     1      -8.820   5.366  72.051  1.00  0.00    -0.134 NA 
HETATM    4  H1  UNL     1      -7.945   5.769  72.385  1.00  0.00     0.000 HD 
HETATM    5  C   UNL     1     -12.358   6.684  71.976  1.00  0.00    -0.316 C  
HETATM    6  H2  UNL     1      -8.814   5.151  71.054  1.00  0.00     0.000 HD 
HETATM    7  C   UNL     1     -11.976   8.056  71.423  1.00  0.00    -0.298 C  
HETATM    8  C   UNL     1      -9.629   7.831  72.044  1.00  0.00    -0.168 C  
HETATM    9  O   UNL     1     -10.823   8.614  72.072  1.00  0.00    -0.314 OA 
ENDROOT
BRANCH   7  10
HETATM   10  C   UNL     1     -13.175   9.010  71.679  1.00  0.00    -0.371 C  
HETATM   11  N   UNL     1     -13.304  10.049  70.657  1.00  0.00    -0.585 NA 
HETATM   12  H1  UNL     1     -14.091  10.676  70.826  1.00  0.00     0.000 HD 
HETATM   13  H2  UNL     1     -13.358   9.638  69.725  1.00  0.00     0.000 HD 
ENDBRANCH   7  10
BRANCH   8  14
HETATM   14  O   UNL     1      -8.894   7.917  70.823  1.00  0.00    -0.136 OA 
BRANCH  14  15
HETATM   15  C   UNL     1      -9.550   8.238  69.571  1.00  0.00    -0.171 C  
HETATM   16  C   UNL     1      -8.886   7.248  68.575  1.00  0.00    -0.129 C  
HETATM   17  N   UNL     1      -9.215   5.850  68.912  1.00  0.00    -0.119 NA 
HETATM   18  C   UNL     1      -9.244   7.420  67.112  1.00  0.00    -0.159 C  
HETATM   19  H2  UNL     1     -10.223   5.706  68.969  1.00  0.00     0.000 HD 
HETATM   20  H1  UNL     1      -8.779   5.200  68.259  1.00  0.00     0.000 HD 
HETATM   21  C   UNL     1      -9.102   8.851  66.619  1.00  0.00    -0.156 C  
HETATM   22  N   UNL     1      -9.450   8.785  65.190  1.00  0.00    -0.395 NA 
HETATM   23  C   UNL     1      -9.983   9.779  67.514  1.00  0.00    -0.184 C  
HETATM   24  C   UNL     1      -9.465   9.708  69.012  1.00  0.00    -0.168 C  
HETATM   25  O   UNL     1     -10.263  10.582  69.832  1.00  0.00    -0.405 OA 
HETATM   26  H2  UNL     1     -10.363   8.369  65.003  1.00  0.00     0.000 HD 
HETATM   27  H1  UNL     1      -9.356   9.745  64.859  1.00  0.00     0.000 HD 
HETATM   28  H   UNL     1     -10.211  11.469  69.494  1.00  0.00     0.000 HD 
BRANCH  23  29
HETATM   29  O   UNL     1     -10.066  11.149  67.010  1.00  0.00    -0.191 OA 
BRANCH  29  30
HETATM   30  C   UNL     1     -11.435  11.532  66.696  1.00  0.00    -0.129 C  
HETATM   31  O   UNL     1     -12.059  12.185  67.808  1.00  0.00    -0.508 OA 
HETATM   32  C   UNL     1     -11.469  13.470  68.070  1.00  0.00    -0.307 C  
HETATM   33  C   UNL     1     -11.793  14.412  66.910  1.00  0.00    -0.410 C  
HETATM   34  H   UNL     1     -11.025  12.292  63.505  1.00  0.00     0.000 HD 
HETATM   35  O   UNL     1     -11.291  15.729  67.147  1.00  0.00    -0.190 OA 
HETATM   36  C   UNL     1     -11.186  13.843  65.605  1.00  0.00    -0.306 C  
HETATM   37  H1  UNL     1     -11.169  14.322  63.598  1.00  0.00     0.000 HD 
HETATM   38  H2  UNL     1     -11.314  15.674  64.605  1.00  0.00     0.000 HD 
HETATM   39  C   UNL     1     -11.599  12.376  65.405  1.00  0.00    -0.381 C  
HETATM   40  N   UNL     1     -11.569  14.698  64.458  1.00  0.00    -0.391 NA 
HETATM   41  H   UNL     1     -11.492  16.314  66.427  1.00  0.00     0.000 HD 
HETATM   42  O   UNL     1     -10.926  11.775  64.295  1.00  0.00    -0.317 OA 
BRANCH  32  43
HETATM   43  C   UNL     1     -11.999  13.957  69.419  1.00  0.00    -0.354 C  
HETATM   44  O   UNL     1     -10.923  14.566  70.146  1.00  0.00    -0.448 OA 
HETATM   45  H   UNL     1     -11.252  14.868  70.985  1.00  0.00     0.000 HD 
ENDBRANCH  32  43
ENDBRANCH  29  30
ENDBRANCH  23  29
ENDBRANCH  14  15
ENDBRANCH   8  14
TORSDOF 6
ENDMDL
MODEL       33
REMARK 921   NORMALIZED FREE ENERGY PREDICTED BY IDOCK:   -6.71 KCAL/MOL
REMARK 922        TOTAL FREE ENERGY PREDICTED BY IDOCK:  -10.63 KCAL/MOL
REMARK 923 INTER-LIGAND FREE ENERGY PREDICTED BY IDOCK:   -8.73 KCAL/MOL
REMARK 924 INTRA-LIGAND FREE ENERGY PREDICTED BY IDOCK:   -1.90 KCAL/MOL
REMARK 927      BINDING AFFINITY PREDICTED BY RF-SCORE:    0.00 PKD
ROOT
HETATM    1  C   UNL     1      -9.035   5.687  69.031  1.00  0.00    -0.112 C  
HETATM    2  C   UNL     1      -9.755   4.517  69.713  1.00  0.00    -0.285 C  
HETATM    3  N   UNL     1      -8.885   5.305  67.610  1.00  0.00    -0.106 NA 
HETATM    4  H1  UNL     1      -8.406   6.083  67.157  1.00  0.00     0.000 HD 
HETATM    5  C   UNL     1     -10.266   4.855  71.095  1.00  0.00    -0.261 C  
HETATM    6  H2  UNL     1      -9.766   5.055  67.162  1.00  0.00     0.000 HD 
HETATM    7  C   UNL     1     -10.967   6.212  71.136  1.00  0.00    -0.284 C  
HETATM    8  C   UNL     1      -9.657   7.123  69.292  1.00  0.00    -0.155 C  
HETATM    9  O   UNL     1     -10.147   7.275  70.625  1.00  0.00    -0.194 OA 
ENDROOT
BRANCH   7  10
HETATM   10  C   UNL     1     -11.281   6.528  72.624  1.00  0.00    -0.249 C  
HETATM   11  N   UNL     1     -11.987   7.798  72.800  1.00  0.00    -0.608 NA 
HETATM   12  H1  UNL     1     -12.193   8.005  73.777  1.00  0.00     0.000 HD 
HETATM   13  H2  UNL     1     -12.835   7.825  72.234  1.00  0.00     0.000 HD 
ENDBRANCH   7  10
BRANCH   8  14
HETATM   14  O   UNL     1     -10.600   7.458  68.274  1.00  0.00    -0.202 OA 
BRANCH  14  15
HETATM   15  C   UNL     1     -10.611   8.772  67.660  1.00  0.00    -0.213 C  
HETATM   16  C   UNL     1      -9.346   8.736  66.759  1.00  0.00    -0.179 C  
HETATM   17  N   UNL     1      -9.484   7.734  65.685  1.00  0.00    -0.369 NA 
HETATM   18  C   UNL     1      -8.970  10.035  66.073  1.00  0.00    -0.174 C  
HETATM   19  H2  UNL     1     -10.331   7.886  65.137  1.00  0.00     0.000 HD 
HETATM   20  H1  UNL     1      -8.654   7.711  65.093  1.00  0.00     0.000 HD 
HETATM   21  C   UNL     1      -8.921  11.225  67.017  1.00  0.00    -0.154 C  
HETATM   22  N   UNL     1      -8.501  12.352  66.168  1.00  0.00    -0.328 NA 
HETATM   23  C   UNL     1     -10.305  11.359  67.726  1.00  0.00    -0.182 C  
HETATM   24  C   UNL     1     -10.586  10.050  68.578  1.00  0.00    -0.215 C  
HETATM   25  O   UNL     1     -11.852  10.185  69.251  1.00  0.00    -0.491 OA 
HETATM   26  H2  UNL     1      -9.088  12.496  65.346  1.00  0.00     0.000 HD 
HETATM   27  H1  UNL     1      -8.468  13.151  66.801  1.00  0.00     0.000 HD 
HETATM   28  H   UNL     1     -11.837  10.957  69.805  1.00  0.00     0.000 HD 
BRANCH  23  29
HETATM   29  O   UNL     1     -10.428  12.584  68.516  1.00  0.00    -0.230 OA 
BRANCH  29  30
HETATM   30  C   UNL     1     -11.631  13.331  68.179  1.00  0.00    -0.338 C  
HETATM   31  O   UNL     1     -12.525  13.406  69.296  1.00  0.00    -0.139 OA 
HETATM   32  C   UNL     1     -11.986  14.218  70.354  1.00  0.00    -0.332 C  
HETATM   33  C   UNL     1     -11.923  15.672  69.883  1.00  0.00    -0.360 C  
HETATM   34  H   UNL     1     -10.285  15.562  66.144  1.00  0.00     0.000 HD 
HETATM   35  O   UNL     1     -11.460  16.539  70.920  1.00  0.00    -0.566 OA 
HETATM   36  C   UNL     1     -10.987  15.770  68.655  1.00  0.00    -0.307 C  
HETATM   37  H1  UNL     1     -10.370  17.220  67.323  1.00  0.00     0.000 HD 
HETATM   38  H2  UNL     1     -10.748  17.837  68.854  1.00  0.00     0.000 HD 
HETATM   39  C   UNL     1     -11.381  14.741  67.584  1.00  0.00    -0.339 C  
HETATM   40  N   UNL     1     -10.988  17.156  68.133  1.00  0.00    -0.314 NA 
HETATM   41  H   UNL     1     -11.421  17.442  70.628  1.00  0.00     0.000 HD 
HETATM   42  O   UNL     1     -10.439  14.698  66.508  1.00  0.00    -0.280 OA 
BRANCH  32  43
HETATM   43  C   UNL     1     -12.865  14.013  71.588  1.00  0.00    -0.352 C  
HETATM   44  O   UNL     1     -13.986  14.905  71.512  1.00  0.00    -0.412 OA 
HETATM   45  H   UNL     1     -14.532  14.777  72.279  1.00  0.00     0.000 HD 
ENDBRANCH  32  43
ENDBRANCH  29  30
ENDBRANCH  23  29
ENDBRANCH  14  15
ENDBRANCH   8  14
TORSDOF 6
ENDMDL
MODEL       34
REMARK 921   NORMALIZED FREE ENERGY PREDICTED BY IDOCK:   -6.71 KCAL/MOL
REMARK 922        TOTAL FREE ENERGY PREDICTED BY IDOCK:  -10.62 KCAL/MOL
REMARK 923 INTER-LIGAND FREE ENERGY PREDICTED BY IDOCK:   -9.49 KCAL/MOL
REMARK 924 INTRA-LIGAND FREE ENERGY PREDICTED BY IDOCK:   -1.13 KCAL/MOL
REMARK 927      BINDING AFFINITY PREDICTED BY RF-SCORE:    0.00 PKD
ROOT
HETATM    1  C   UNL     1      -9.906  16.508  68.420  1.00  0.00    -0.237 C  
HETATM    2  C   UNL     1     -10.534  17.804  68.948  1.00  0.00    -0.213 C  
HETATM    3  N   UNL     1     -10.710  15.402  68.984  1.00  0.00    -0.231 NA 
HETATM    4  H1  UNL     1     -10.292  14.540  68.633  1.00  0.00     0.000 HD 
HETATM    5  C   UNL     1     -10.037  19.040  68.235  1.00  0.00    -0.466 C  
HETATM    6  H2  UNL     1     -11.707  15.481  68.783  1.00  0.00     0.000 HD 
HETATM    7  C   UNL     1     -10.006  18.860  66.718  1.00  0.00    -0.360 C  
HETATM    8  C   UNL     1      -9.666  16.449  66.853  1.00  0.00    -0.251 C  
HETATM    9  O   UNL     1      -9.253  17.705  66.314  1.00  0.00    -0.376 OA 
ENDROOT
BRANCH   7  10
HETATM   10  C   UNL     1      -9.315  20.113  66.114  1.00  0.00    -0.265 C  
HETATM   11  N   UNL     1      -8.536  20.864  67.099  1.00  0.00    -0.545 NA 
HETATM   12  H1  UNL     1      -8.082  21.687  66.702  1.00  0.00     0.000 HD 
HETATM   13  H2  UNL     1      -7.857  20.261  67.563  1.00  0.00     0.000 HD 
ENDBRANCH   7  10
BRANCH   8  14
HETATM   14  O   UNL     1     -10.787  15.861  66.191  1.00  0.00    -0.296 OA 
BRANCH  14  15
HETATM   15  C   UNL     1     -10.620  14.762  65.260  1.00  0.00    -0.395 C  
HETATM   16  C   UNL     1     -11.945  14.801  64.449  1.00  0.00    -0.417 C  
HETATM   17  N   UNL     1     -12.054  16.045  63.665  1.00  0.00    -1.087 NA 
HETATM   18  C   UNL     1     -12.167  13.667  63.467  1.00  0.00    -0.329 C  
HETATM   19  H2  UNL     1     -11.242  16.182  63.063  1.00  0.00     0.000 HD 
HETATM   20  H1  UNL     1     -12.924  16.071  63.132  1.00  0.00     0.000 HD 
HETATM   21  C   UNL     1     -11.950  12.290  64.074  1.00  0.00    -0.462 C  
HETATM   22  N   UNL     1     -12.257  11.354  62.980  1.00  0.00    -0.875 NA 
HETATM   23  C   UNL     1     -10.509  12.227  64.669  1.00  0.00    -0.303 C  
HETATM   24  C   UNL     1     -10.368  13.312  65.818  1.00  0.00    -0.288 C  
HETATM   25  O   UNL     1      -9.046  13.236  66.383  1.00  0.00    -0.423 OA 
HETATM   26  H2  UNL     1     -11.723  11.521  62.127  1.00  0.00     0.000 HD 
HETATM   27  H1  UNL     1     -12.111  10.429  63.387  1.00  0.00     0.000 HD 
HETATM   28  H   UNL     1      -8.894  12.360  66.720  1.00  0.00     0.000 HD 
BRANCH  23  29
HETATM   29  O   UNL     1     -10.131  10.885  65.111  1.00  0.00    -0.256 OA 
BRANCH  29  30
HETATM   30  C   UNL     1      -8.703  10.644  64.960  1.00  0.00    -0.176 C  
HETATM   31  O   UNL     1      -8.034  10.676  66.227  1.00  0.00    -0.138 OA 
HETATM   32  C   UNL     1      -8.414   9.563  67.056  1.00  0.00    -0.128 C  
HETATM   33  C   UNL     1      -7.879   8.273  66.433  1.00  0.00    -0.095 C  
HETATM   34  H   UNL     1      -8.819   8.478  62.465  1.00  0.00     0.000 HD 
HETATM   35  O   UNL     1      -8.164   7.138  67.252  1.00  0.00    -0.116 OA 
HETATM   36  C   UNL     1      -8.507   8.085  65.031  1.00  0.00    -0.071 C  
HETATM   37  H1  UNL     1      -8.343   6.764  63.455  1.00  0.00     0.000 HD 
HETATM   38  H2  UNL     1      -8.023   6.052  64.958  1.00  0.00     0.000 HD 
HETATM   39  C   UNL     1      -8.336   9.354  64.181  1.00  0.00    -0.168 C  
HETATM   40  N   UNL     1      -7.929   6.888  64.379  1.00  0.00    -0.115 NA 
HETATM   41  H   UNL     1      -7.832   6.337  66.866  1.00  0.00     0.000 HD 
HETATM   42  O   UNL     1      -9.044   9.269  62.942  1.00  0.00    -0.196 OA 
BRANCH  32  43
HETATM   43  C   UNL     1      -7.877   9.831  68.463  1.00  0.00    -0.081 C  
HETATM   44  O   UNL     1      -8.613   9.030  69.399  1.00  0.00    -0.129 OA 
HETATM   45  H   UNL     1      -8.280   9.196  70.273  1.00  0.00     0.000 HD 
ENDBRANCH  32  43
ENDBRANCH  29  30
ENDBRANCH  23  29
ENDBRANCH  14  15
ENDBRANCH   8  14
TORSDOF 6
ENDMDL
MODEL       35
REMARK 921   NORMALIZED FREE ENERGY PREDICTED BY IDOCK:   -6.69 KCAL/MOL
REMARK 922        TOTAL FREE ENERGY PREDICTED BY IDOCK:  -10.59 KCAL/MOL
REMARK 923 INTER-LIGAND FREE ENERGY PREDICTED BY IDOCK:   -8.83 KCAL/MOL
REMARK 924 INTRA-LIGAND FREE ENERGY PREDICTED BY IDOCK:   -1.77 KCAL/MOL
REMARK 927      BINDING AFFINITY PREDICTED BY RF-SCORE:    0.00 PKD
ROOT
HETATM    1  C   UNL     1      -9.021   5.238  67.151  1.00  0.00    -0.112 C  
HETATM    2  C   UNL     1      -9.584   3.812  67.195  1.00  0.00    -0.218 C  
HETATM    3  N   UNL     1      -9.743   5.933  66.063  1.00  0.00    -0.357 NA 
HETATM    4  H1  UNL     1      -9.368   6.880  66.034  1.00  0.00     0.000 HD 
HETATM    5  C   UNL     1      -9.186   3.052  68.439  1.00  0.00    -0.242 C  
HETATM    6  H2  UNL     1     -10.758   5.900  66.163  1.00  0.00     0.000 HD 
HETATM    7  C   UNL     1      -9.343   3.893  69.705  1.00  0.00    -0.172 C  
HETATM    8  C   UNL     1      -8.977   6.004  68.540  1.00  0.00    -0.114 C  
HETATM    9  O   UNL     1      -8.641   5.143  69.630  1.00  0.00    -0.091 OA 
ENDROOT
BRANCH   7  10
HETATM   10  C   UNL     1      -8.738   3.079  70.882  1.00  0.00    -0.075 C  
HETATM   11  N   UNL     1      -9.592   1.970  71.306  1.00  0.00    -0.139 NA 
HETATM   12  H1  UNL     1      -9.195   1.436  72.079  1.00  0.00     0.000 HD 
HETATM   13  H2  UNL     1      -9.817   1.361  70.519  1.00  0.00     0.000 HD 
ENDBRANCH   7  10
BRANCH   8  14
HETATM   14  O   UNL     1     -10.169   6.766  68.735  1.00  0.00    -0.160 OA 
BRANCH  14  15
HETATM   15  C   UNL     1     -10.123   8.207  68.891  1.00  0.00    -0.202 C  
HETATM   16  C   UNL     1     -10.692   8.412  70.322  1.00  0.00    -0.234 C  
HETATM   17  N   UNL     1      -9.804   7.819  71.339  1.00  0.00    -0.166 NA 
HETATM   18  C   UNL     1     -10.926   9.846  70.755  1.00  0.00    -0.407 C  
HETATM   19  H2  UNL     1      -8.852   8.176  71.260  1.00  0.00     0.000 HD 
HETATM   20  H1  UNL     1     -10.178   7.954  72.279  1.00  0.00     0.000 HD 
HETATM   21  C   UNL     1     -11.713  10.663  69.743  1.00  0.00    -0.310 C  
HETATM   22  N   UNL     1     -11.862  11.985  70.373  1.00  0.00    -0.519 NA 
HETATM   23  C   UNL     1     -10.967  10.618  68.374  1.00  0.00    -0.251 C  
HETATM   24  C   UNL     1     -10.896   9.116  67.864  1.00  0.00    -0.083 C  
HETATM   25  O   UNL     1     -10.229   9.079  66.589  1.00  0.00    -0.269 OA 
HETATM   26  H2  UNL     1     -10.980  12.412  70.657  1.00  0.00     0.000 HD 
HETATM   27  H1  UNL     1     -12.390  12.534  69.695  1.00  0.00     0.000 HD 
HETATM   28  H   UNL     1     -10.696   9.628  65.970  1.00  0.00     0.000 HD 
BRANCH  23  29
HETATM   29  O   UNL     1     -11.540  11.524  67.379  1.00  0.00    -0.495 OA 
BRANCH  29  30
HETATM   30  C   UNL     1     -10.574  12.515  66.926  1.00  0.00    -0.236 C  
HETATM   31  O   UNL     1      -9.769  12.003  65.856  1.00  0.00    -0.235 OA 
HETATM   32  C   UNL     1     -10.541  11.805  64.659  1.00  0.00    -0.308 C  
HETATM   33  C   UNL     1     -10.981  13.165  64.118  1.00  0.00    -0.390 C  
HETATM   34  H   UNL     1     -12.411  15.233  67.336  1.00  0.00     0.000 HD 
HETATM   35  O   UNL     1     -11.693  13.035  62.887  1.00  0.00    -0.772 OA 
HETATM   36  C   UNL     1     -11.870  13.869  65.171  1.00  0.00    -0.362 C  
HETATM   37  H1  UNL     1     -12.815  15.690  65.393  1.00  0.00     0.000 HD 
HETATM   38  H2  UNL     1     -12.666  15.208  63.777  1.00  0.00     0.000 HD 
HETATM   39  C   UNL     1     -11.179  13.891  66.543  1.00  0.00    -0.321 C  
HETATM   40  N   UNL     1     -12.229  15.226  64.699  1.00  0.00    -0.217 NA 
HETATM   41  H   UNL     1     -11.966  13.880  62.551  1.00  0.00     0.000 HD 
HETATM   42  O   UNL     1     -12.040  14.391  67.570  1.00  0.00    -0.377 OA 
BRANCH  32  43
HETATM   43  C   UNL     1      -9.678  11.008  63.679  1.00  0.00    -0.324 C  
HETATM   44  O   UNL     1     -10.518  10.486  62.640  1.00  0.00    -0.668 OA 
HETATM   45  H   UNL     1      -9.982   9.991  62.032  1.00  0.00     0.000 HD 
ENDBRANCH  32  43
ENDBRANCH  29  30
ENDBRANCH  23  29
ENDBRANCH  14  15
ENDBRANCH   8  14
TORSDOF 6
ENDMDL
MODEL       36
REMARK 921   NORMALIZED FREE ENERGY PREDICTED BY IDOCK:   -6.66 KCAL/MOL
REMARK 922        TOTAL FREE ENERGY PREDICTED BY IDOCK:  -10.55 KCAL/MOL
REMARK 923 INTER-LIGAND FREE ENERGY PREDICTED BY IDOCK:   -9.05 KCAL/MOL
REMARK 924 INTRA-LIGAND FREE ENERGY PREDICTED BY IDOCK:   -1.50 KCAL/MOL
REMARK 927      BINDING AFFINITY PREDICTED BY RF-SCORE:    0.00 PKD
ROOT
HETATM    1  C   UNL     1     -11.636   6.616  71.901  1.00  0.00    -0.303 C  
HETATM    2  C   UNL     1     -10.907   7.048  73.180  1.00  0.00    -0.350 C  
HETATM    3  N   UNL     1     -13.068   6.515  72.258  1.00  0.00    -0.512 NA 
HETATM    4  H1  UNL     1     -13.552   6.227  71.408  1.00  0.00     0.000 HD 
HETATM    5  C   UNL     1      -9.486   7.499  72.932  1.00  0.00    -0.239 C  
HETATM    6  H2  UNL     1     -13.445   7.368  72.672  1.00  0.00     0.000 HD 
HETATM    7  C   UNL     1      -9.377   8.434  71.729  1.00  0.00    -0.226 C  
HETATM    8  C   UNL     1     -11.314   7.471  70.603  1.00  0.00    -0.281 C  
HETATM    9  O   UNL     1      -9.944   7.870  70.536  1.00  0.00    -0.189 OA 
ENDROOT
BRANCH   7  10
HETATM   10  C   UNL     1      -7.866   8.680  71.466  1.00  0.00    -0.125 C  
HETATM   11  N   UNL     1      -7.550   8.815  70.044  1.00  0.00    -0.059 NA 
HETATM   12  H1  UNL     1      -6.557   8.976  69.872  1.00  0.00     0.000 HD 
HETATM   13  H2  UNL     1      -8.118   9.543  69.612  1.00  0.00     0.000 HD 
ENDBRANCH   7  10
BRANCH   8  14
HETATM   14  O   UNL     1     -12.249   8.540  70.457  1.00  0.00    -0.002 OA 
BRANCH  14  15
HETATM   15  C   UNL     1     -11.877   9.911  70.748  1.00  0.00    -0.330 C  
HETATM   16  C   UNL     1     -13.139  10.460  71.468  1.00  0.00    -0.431 C  
HETATM   17  N   UNL     1     -13.363   9.771  72.753  1.00  0.00    -0.472 NA 
HETATM   18  C   UNL     1     -13.144  11.943  71.784  1.00  0.00    -0.465 C  
HETATM   19  H2  UNL     1     -12.540   9.817  73.352  1.00  0.00     0.000 HD 
HETATM   20  H1  UNL     1     -14.192  10.131  73.226  1.00  0.00     0.000 HD 
HETATM   21  C   UNL     1     -12.784  12.816  70.592  1.00  0.00    -0.077 C  
HETATM   22  N   UNL     1     -12.891  14.194  71.100  1.00  0.00    -0.343 NA 
HETATM   23  C   UNL     1     -11.389  12.374  70.050  1.00  0.00     0.104 C  
HETATM   24  C   UNL     1     -11.470  10.866  69.564  1.00  0.00    -0.301 C  
HETATM   25  O   UNL     1     -10.189  10.466  69.042  1.00  0.00    -0.193 OA 
HETATM   26  H2  UNL     1     -12.331  14.375  71.932  1.00  0.00     0.000 HD 
HETATM   27  H1  UNL     1     -12.650  14.780  70.300  1.00  0.00     0.000 HD 
HETATM   28  H   UNL     1      -9.943  11.043  68.327  1.00  0.00     0.000 HD 
BRANCH  23  29
HETATM   29  O   UNL     1     -10.865  13.271  69.021  1.00  0.00    -0.241 OA 
BRANCH  29  30
HETATM   30  C   UNL     1     -11.928  13.852  68.213  1.00  0.00    -0.357 C  
HETATM   31  O   UNL     1     -11.881  15.284  68.245  1.00  0.00    -0.336 OA 
HETATM   32  C   UNL     1     -10.716  15.792  67.572  1.00  0.00    -0.317 C  
HETATM   33  C   UNL     1     -10.838  15.500  66.076  1.00  0.00    -0.300 C  
HETATM   34  H   UNL     1     -12.010  11.598  65.795  1.00  0.00     0.000 HD 
HETATM   35  O   UNL     1      -9.739  16.046  65.344  1.00  0.00    -0.427 OA 
HETATM   36  C   UNL     1     -10.908  13.969  65.859  1.00  0.00    -0.288 C  
HETATM   37  H1  UNL     1     -11.163  12.666  64.281  1.00  0.00     0.000 HD 
HETATM   38  H2  UNL     1     -10.409  14.114  63.834  1.00  0.00     0.000 HD 
HETATM   39  C   UNL     1     -11.991  13.340  66.750  1.00  0.00    -0.382 C  
HETATM   40  N   UNL     1     -11.117  13.675  64.423  1.00  0.00    -0.378 NA 
HETATM   41  H   UNL     1      -9.815  15.865  64.415  1.00  0.00     0.000 HD 
HETATM   42  O   UNL     1     -11.972  11.912  66.691  1.00  0.00    -0.601 OA 
BRANCH  32  43
HETATM   43  C   UNL     1     -10.608  17.283  67.897  1.00  0.00    -0.384 C  
HETATM   44  O   UNL     1      -9.238  17.687  67.766  1.00  0.00    -0.246 OA 
HETATM   45  H   UNL     1      -9.171  18.613  67.968  1.00  0.00     0.000 HD 
ENDBRANCH  32  43
ENDBRANCH  29  30
ENDBRANCH  23  29
ENDBRANCH  14  15
ENDBRANCH   8  14
TORSDOF 6
ENDMDL
MODEL       37
REMARK 921   NORMALIZED FREE ENERGY PREDICTED BY IDOCK:   -6.64 KCAL/MOL
REMARK 922        TOTAL FREE ENERGY PREDICTED BY IDOCK:  -10.53 KCAL/MOL
REMARK 923 INTER-LIGAND FREE ENERGY PREDICTED BY IDOCK:   -9.02 KCAL/MOL
REMARK 924 INTRA-LIGAND FREE ENERGY PREDICTED BY IDOCK:   -1.51 KCAL/MOL
REMARK 927      BINDING AFFINITY PREDICTED BY RF-SCORE:    0.00 PKD
ROOT
HETATM    1  C   UNL     1     -10.256   4.248  70.380  1.00  0.00     0.101 C  
HETATM    2  C   UNL     1      -9.309   3.430  69.494  1.00  0.00    -0.240 C  
HETATM    3  N   UNL     1      -9.797   4.043  71.772  1.00  0.00    -0.174 NA 
HETATM    4  H1  UNL     1     -10.426   4.587  72.361  1.00  0.00     0.000 HD 
HETATM    5  C   UNL     1      -9.433   3.760  68.025  1.00  0.00    -0.221 C  
HETATM    6  H2  UNL     1      -8.812   4.271  71.912  1.00  0.00     0.000 HD 
HETATM    7  C   UNL     1      -9.481   5.267  67.773  1.00  0.00    -0.124 C  
HETATM    8  C   UNL     1     -10.470   5.760  69.947  1.00  0.00    -0.290 C  
HETATM    9  O   UNL     1     -10.512   5.922  68.528  1.00  0.00    -0.192 OA 
ENDROOT
BRANCH   7  10
HETATM   10  C   UNL     1      -9.791   5.477  66.265  1.00  0.00    -0.145 C  
HETATM   11  N   UNL     1     -11.222   5.432  65.966  1.00  0.00    -0.774 NA 
HETATM   12  H1  UNL     1     -11.425   5.571  64.976  1.00  0.00     0.000 HD 
HETATM   13  H2  UNL     1     -11.735   6.101  66.540  1.00  0.00     0.000 HD 
ENDBRANCH   7  10
BRANCH   8  14
HETATM   14  O   UNL     1      -9.539   6.613  70.612  1.00  0.00    -0.169 OA 
BRANCH  14  15
HETATM   15  C   UNL     1      -9.680   8.056  70.573  1.00  0.00    -0.178 C  
HETATM   16  C   UNL     1     -11.040   8.284  71.289  1.00  0.00    -0.251 C  
HETATM   17  N   UNL     1     -10.973   7.874  72.705  1.00  0.00    -0.373 NA 
HETATM   18  C   UNL     1     -11.572   9.703  71.290  1.00  0.00    -0.466 C  
HETATM   19  H2  UNL     1     -10.209   8.339  73.194  1.00  0.00     0.000 HD 
HETATM   20  H1  UNL     1     -11.866   8.023  73.175  1.00  0.00     0.000 HD 
HETATM   21  C   UNL     1     -11.577  10.348  69.914  1.00  0.00    -0.284 C  
HETATM   22  N   UNL     1     -12.162  11.681  70.133  1.00  0.00    -0.306 NA 
HETATM   23  C   UNL     1     -10.128  10.305  69.335  1.00  0.00    -0.235 C  
HETATM   24  C   UNL     1      -9.669   8.793  69.183  1.00  0.00    -0.175 C  
HETATM   25  O   UNL     1      -8.342   8.754  68.626  1.00  0.00    -0.125 OA 
HETATM   26  H2  UNL     1     -11.688  12.231  70.849  1.00  0.00     0.000 HD 
HETATM   27  H1  UNL     1     -12.166  12.114  69.210  1.00  0.00     0.000 HD 
HETATM   28  H   UNL     1      -8.336   9.200  67.787  1.00  0.00     0.000 HD 
BRANCH  23  29
HETATM   29  O   UNL     1      -9.984  11.066  68.095  1.00  0.00    -0.168 OA 
BRANCH  29  30
HETATM   30  C   UNL     1     -10.944  10.645  67.084  1.00  0.00    -0.247 C  
HETATM   31  O   UNL     1     -11.895  11.682  66.809  1.00  0.00    -0.557 OA 
HETATM   32  C   UNL     1     -11.281  12.805  66.153  1.00  0.00    -0.298 C  
HETATM   33  C   UNL     1     -10.839  12.382  64.752  1.00  0.00    -0.304 C  
HETATM   34  H   UNL     1      -8.934   8.800  65.217  1.00  0.00     0.000 HD 
HETATM   35  O   UNL     1     -10.284  13.480  64.024  1.00  0.00    -0.723 OA 
HETATM   36  C   UNL     1      -9.796  11.245  64.867  1.00  0.00    -0.264 C  
HETATM   37  H1  UNL     1      -8.739  10.013  63.593  1.00  0.00     0.000 HD 
HETATM   38  H2  UNL     1      -9.102  11.521  62.915  1.00  0.00     0.000 HD 
HETATM   39  C   UNL     1     -10.319  10.114  65.768  1.00  0.00    -0.146 C  
HETATM   40  N   UNL     1      -9.426  10.763  63.516  1.00  0.00    -0.269 NA 
HETATM   41  H   UNL     1     -10.009  13.218  63.153  1.00  0.00     0.000 HD 
HETATM   42  O   UNL     1      -9.318   9.125  66.023  1.00  0.00    -0.200 OA 
BRANCH  32  43
HETATM   43  C   UNL     1     -12.293  13.951  66.154  1.00  0.00    -0.465 C  
HETATM   44  O   UNL     1     -13.235  13.739  65.092  1.00  0.00    -0.757 OA 
HETATM   45  H   UNL     1     -13.863  14.451  65.093  1.00  0.00     0.000 HD 
ENDBRANCH  32  43
ENDBRANCH  29  30
ENDBRANCH  23  29
ENDBRANCH  14  15
ENDBRANCH   8  14
TORSDOF 6
ENDMDL
MODEL       38
REMARK 921   NORMALIZED FREE ENERGY PREDICTED BY IDOCK:   -6.62 KCAL/MOL
REMARK 922        TOTAL FREE ENERGY PREDICTED BY IDOCK:  -10.50 KCAL/MOL
REMARK 923 INTER-LIGAND FREE ENERGY PREDICTED BY IDOCK:   -9.04 KCAL/MOL
REMARK 924 INTRA-LIGAND FREE ENERGY PREDICTED BY IDOCK:   -1.46 KCAL/MOL
REMARK 927      BINDING AFFINITY PREDICTED BY RF-SCORE:    0.00 PKD
ROOT
HETATM    1  C   UNL     1     -10.982  13.516  67.986  1.00  0.00    -0.251 C  
HETATM    2  C   UNL     1     -11.868  14.519  67.237  1.00  0.00    -0.419 C  
HETATM    3  N   UNL     1     -11.207  13.766  69.427  1.00  0.00    -0.364 NA 
HETATM    4  H1  UNL     1     -10.618  13.099  69.926  1.00  0.00     0.000 HD 
HETATM    5  C   UNL     1     -12.002  14.210  65.763  1.00  0.00    -0.410 C  
HETATM    6  H2  UNL     1     -12.190  13.722  69.699  1.00  0.00     0.000 HD 
HETATM    7  C   UNL     1     -12.271  12.728  65.505  1.00  0.00    -0.463 C  
HETATM    8  C   UNL     1     -11.114  12.003  67.526  1.00  0.00    -0.275 C  
HETATM    9  O   UNL     1     -11.290  11.873  66.115  1.00  0.00    -0.332 OA 
ENDROOT
BRANCH   7  10
HETATM   10  C   UNL     1     -12.207  12.504  63.970  1.00  0.00    -0.480 C  
HETATM   11  N   UNL     1     -12.381  13.739  63.206  1.00  0.00    -1.124 NA 
HETATM   12  H1  UNL     1     -12.339  13.591  62.198  1.00  0.00     0.000 HD 
HETATM   13  H2  UNL     1     -11.707  14.446  63.499  1.00  0.00     0.000 HD 
ENDBRANCH   7  10
BRANCH   8  14
HETATM   14  O   UNL     1     -12.092  11.320  68.310  1.00  0.00    -0.619 OA 
BRANCH  14  15
HETATM   15  C   UNL     1     -11.769  10.096  69.017  1.00  0.00     0.072 C  
HETATM   16  C   UNL     1     -11.438  10.607  70.447  1.00  0.00    -0.334 C  
HETATM   17  N   UNL     1     -12.626  11.201  71.090  1.00  0.00    -0.402 NA 
HETATM   18  C   UNL     1     -10.905   9.578  71.424  1.00  0.00    -0.382 C  
HETATM   19  H2  UNL     1     -13.412  10.552  71.096  1.00  0.00     0.000 HD 
HETATM   20  H1  UNL     1     -12.408  11.536  72.028  1.00  0.00     0.000 HD 
HETATM   21  C   UNL     1      -9.752   8.757  70.868  1.00  0.00    -0.222 C  
HETATM   22  N   UNL     1      -9.366   7.868  71.976  1.00  0.00    -0.151 NA 
HETATM   23  C   UNL     1     -10.218   8.070  69.547  1.00  0.00    -0.209 C  
HETATM   24  C   UNL     1     -10.602   9.184  68.484  1.00  0.00    -0.169 C  
HETATM   25  O   UNL     1     -11.009   8.549  67.258  1.00  0.00    -0.447 OA 
HETATM   26  H2  UNL     1     -10.133   7.309  72.348  1.00  0.00     0.000 HD 
HETATM   27  H1  UNL     1      -8.592   7.316  71.603  1.00  0.00     0.000 HD 
HETATM   28  H   UNL     1     -10.304   7.998  66.935  1.00  0.00     0.000 HD 
BRANCH  23  29
HETATM   29  O   UNL     1      -9.247   7.107  69.029  1.00  0.00    -0.137 OA 
BRANCH  29  30
HETATM   30  C   UNL     1      -9.626   5.735  69.333  1.00  0.00    -0.140 C  
HETATM   31  O   UNL     1     -10.258   5.109  68.209  1.00  0.00    -0.164 OA 
HETATM   32  C   UNL     1      -9.335   4.905  67.126  1.00  0.00    -0.130 C  
HETATM   33  C   UNL     1      -8.299   3.861  67.544  1.00  0.00    -0.094 C  
HETATM   34  H   UNL     1      -7.085   4.934  71.292  1.00  0.00     0.000 HD 
HETATM   35  O   UNL     1      -7.394   3.563  66.479  1.00  0.00    -0.073 OA 
HETATM   36  C   UNL     1      -7.515   4.383  68.772  1.00  0.00    -0.060 C  
HETATM   37  H1  UNL     1      -6.055   3.688  70.054  1.00  0.00     0.000 HD 
HETATM   38  H2  UNL     1      -5.951   3.024  68.501  1.00  0.00     0.000 HD 
HETATM   39  C   UNL     1      -8.478   4.845  69.878  1.00  0.00    -0.079 C  
HETATM   40  N   UNL     1      -6.572   3.344  69.244  1.00  0.00    -0.033 NA 
HETATM   41  H   UNL     1      -6.751   2.915  66.739  1.00  0.00     0.000 HD 
HETATM   42  O   UNL     1      -7.789   5.479  70.959  1.00  0.00    -0.099 OA 
BRANCH  32  43
HETATM   43  C   UNL     1     -10.148   4.501  65.895  1.00  0.00    -0.258 C  
HETATM   44  O   UNL     1     -11.321   5.323  65.825  1.00  0.00    -0.792 OA 
HETATM   45  H   UNL     1     -11.826   5.072  65.061  1.00  0.00     0.000 HD 
ENDBRANCH  32  43
ENDBRANCH  29  30
ENDBRANCH  23  29
ENDBRANCH  14  15
ENDBRANCH   8  14
TORSDOF 6
ENDMDL
MODEL       39
REMARK 921   NORMALIZED FREE ENERGY PREDICTED BY IDOCK:   -6.62 KCAL/MOL
REMARK 922        TOTAL FREE ENERGY PREDICTED BY IDOCK:  -10.49 KCAL/MOL
REMARK 923 INTER-LIGAND FREE ENERGY PREDICTED BY IDOCK:   -9.75 KCAL/MOL
REMARK 924 INTRA-LIGAND FREE ENERGY PREDICTED BY IDOCK:   -0.74 KCAL/MOL
REMARK 927      BINDING AFFINITY PREDICTED BY RF-SCORE:    0.00 PKD
ROOT
HETATM    1  C   UNL     1     -12.242   7.077  71.766  1.00  0.00    -0.351 C  
HETATM    2  C   UNL     1     -11.344   6.067  72.491  1.00  0.00    -0.344 C  
HETATM    3  N   UNL     1     -12.598   8.104  72.770  1.00  0.00    -0.606 NA 
HETATM    4  H1  UNL     1     -13.196   8.776  72.288  1.00  0.00     0.000 HD 
HETATM    5  C   UNL     1     -10.636   5.118  71.552  1.00  0.00    -0.217 C  
HETATM    6  H2  UNL     1     -11.788   8.532  73.219  1.00  0.00     0.000 HD 
HETATM    7  C   UNL     1     -10.029   5.839  70.350  1.00  0.00    -0.198 C  
HETATM    8  C   UNL     1     -11.682   7.632  70.389  1.00  0.00    -0.059 C  
HETATM    9  O   UNL     1     -10.990   6.633  69.637  1.00  0.00    -0.260 OA 
ENDROOT
BRANCH   7  10
HETATM   10  C   UNL     1      -9.495   4.753  69.376  1.00  0.00    -0.161 C  
HETATM   11  N   UNL     1      -9.814   5.036  67.977  1.00  0.00    -0.153 NA 
HETATM   12  H1  UNL     1      -9.463   4.322  67.338  1.00  0.00     0.000 HD 
HETATM   13  H2  UNL     1      -9.482   5.962  67.707  1.00  0.00     0.000 HD 
ENDBRANCH   7  10
BRANCH   8  14
HETATM   14  O   UNL     1     -10.943   8.837  70.592  1.00  0.00    -0.225 OA 
BRANCH  14  15
HETATM   15  C   UNL     1     -10.293   9.516  69.488  1.00  0.00    -0.217 C  
HETATM   16  C   UNL     1      -8.874   9.802  70.054  1.00  0.00    -0.215 C  
HETATM   17  N   UNL     1      -8.139   8.548  70.311  1.00  0.00    -0.101 NA 
HETATM   18  C   UNL     1      -7.963  10.652  69.191  1.00  0.00    -0.139 C  
HETATM   19  H2  UNL     1      -8.099   7.960  69.479  1.00  0.00     0.000 HD 
HETATM   20  H1  UNL     1      -7.208   8.736  70.682  1.00  0.00     0.000 HD 
HETATM   21  C   UNL     1      -8.615  11.936  68.705  1.00  0.00    -0.037 C  
HETATM   22  N   UNL     1      -7.559  12.617  67.937  1.00  0.00    -0.118 NA 
HETATM   23  C   UNL     1      -9.922  11.573  67.933  1.00  0.00    -0.183 C  
HETATM   24  C   UNL     1     -10.926  10.839  68.918  1.00  0.00    -0.241 C  
HETATM   25  O   UNL     1     -12.140  10.527  68.211  1.00  0.00    -0.797 OA 
HETATM   26  H2  UNL     1      -7.154  12.049  67.193  1.00  0.00     0.000 HD 
HETATM   27  H1  UNL     1      -7.997  13.479  67.610  1.00  0.00     0.000 HD 
HETATM   28  H   UNL     1     -12.523  11.326  67.867  1.00  0.00     0.000 HD 
BRANCH  23  29
HETATM   29  O   UNL     1     -10.528  12.723  67.263  1.00  0.00    -0.231 OA 
BRANCH  29  30
HETATM   30  C   UNL     1      -9.798  13.099  66.060  1.00  0.00    -0.260 C  
HETATM   31  O   UNL     1     -10.395  12.525  64.890  1.00  0.00    -0.288 OA 
HETATM   32  C   UNL     1     -11.686  13.098  64.617  1.00  0.00    -0.361 C  
HETATM   33  C   UNL     1     -11.507  14.561  64.212  1.00  0.00    -0.180 C  
HETATM   34  H   UNL     1      -8.924  16.164  66.940  1.00  0.00     0.000 HD 
HETATM   35  O   UNL     1     -12.753  15.164  63.860  1.00  0.00    -0.840 OA 
HETATM   36  C   UNL     1     -10.856  15.338  65.382  1.00  0.00    -0.387 C  
HETATM   37  H1  UNL     1     -10.164  17.248  65.742  1.00  0.00     0.000 HD 
HETATM   38  H2  UNL     1     -11.434  17.199  64.623  1.00  0.00     0.000 HD 
HETATM   39  C   UNL     1      -9.587  14.624  65.873  1.00  0.00    -0.268 C  
HETATM   40  N   UNL     1     -10.593  16.736  64.971  1.00  0.00    -0.705 NA 
HETATM   41  H   UNL     1     -12.642  16.073  63.608  1.00  0.00     0.000 HD 
HETATM   42  O   UNL     1      -9.053  15.230  67.054  1.00  0.00    -0.201 OA 
BRANCH  32  43
HETATM   43  C   UNL     1     -12.353  12.242  63.539  1.00  0.00    -0.565 C  
HETATM   44  O   UNL     1     -11.370  11.363  62.973  1.00  0.00    -0.841 OA 
HETATM   45  H   UNL     1     -11.785  10.832  62.303  1.00  0.00     0.000 HD 
ENDBRANCH  32  43
ENDBRANCH  29  30
ENDBRANCH  23  29
ENDBRANCH  14  15
ENDBRANCH   8  14
TORSDOF 6
ENDMDL
MODEL       40
REMARK 921   NORMALIZED FREE ENERGY PREDICTED BY IDOCK:   -6.57 KCAL/MOL
REMARK 922        TOTAL FREE ENERGY PREDICTED BY IDOCK:  -10.43 KCAL/MOL
REMARK 923 INTER-LIGAND FREE ENERGY PREDICTED BY IDOCK:   -9.09 KCAL/MOL
REMARK 924 INTRA-LIGAND FREE ENERGY PREDICTED BY IDOCK:   -1.34 KCAL/MOL
REMARK 927      BINDING AFFINITY PREDICTED BY RF-SCORE:    0.00 PKD
ROOT
HETATM    1  C   UNL     1      -9.579  16.161  66.097  1.00  0.00    -0.327 C  
HETATM    2  C   UNL     1      -8.379  17.097  66.280  1.00  0.00    -0.298 C  
HETATM    3  N   UNL     1      -9.018  14.811  65.868  1.00  0.00    -0.412 NA 
HETATM    4  H1  UNL     1      -9.816  14.189  65.746  1.00  0.00     0.000 HD 
HETATM    5  C   UNL     1      -8.759  18.454  66.826  1.00  0.00    -0.284 C  
HETATM    6  H2  UNL     1      -8.376  14.509  66.602  1.00  0.00     0.000 HD 
HETATM    7  C   UNL     1      -9.738  18.353  67.995  1.00  0.00    -0.316 C  
HETATM    8  C   UNL     1     -10.702  16.254  67.215  1.00  0.00    -0.265 C  
HETATM    9  O   UNL     1     -10.911  17.591  67.671  1.00  0.00    -0.343 OA 
ENDROOT
BRANCH   7  10
HETATM   10  C   UNL     1     -10.191  19.796  68.348  1.00  0.00    -0.449 C  
HETATM   11  N   UNL     1      -9.785  20.782  67.347  1.00  0.00    -0.528 NA 
HETATM   12  H1  UNL     1     -10.083  21.730  67.578  1.00  0.00     0.000 HD 
HETATM   13  H2  UNL     1     -10.110  20.514  66.418  1.00  0.00     0.000 HD 
ENDBRANCH   7  10
BRANCH   8  14
HETATM   14  O   UNL     1     -10.460  15.305  68.254  1.00  0.00    -0.237 OA 
BRANCH  14  15
HETATM   15  C   UNL     1     -11.292  14.128  68.407  1.00  0.00    -0.287 C  
HETATM   16  C   UNL     1     -11.383  13.975  69.951  1.00  0.00    -0.145 C  
HETATM   17  N   UNL     1     -12.096  15.115  70.559  1.00  0.00    -0.315 NA 
HETATM   18  C   UNL     1     -12.074  12.728  70.465  1.00  0.00    -0.369 C  
HETATM   19  H2  UNL     1     -13.016  15.248  70.141  1.00  0.00     0.000 HD 
HETATM   20  H1  UNL     1     -12.155  15.014  71.573  1.00  0.00     0.000 HD 
HETATM   21  C   UNL     1     -11.561  11.446  69.829  1.00  0.00    -0.332 C  
HETATM   22  N   UNL     1     -12.323  10.375  70.492  1.00  0.00    -0.346 NA 
HETATM   23  C   UNL     1     -11.714  11.560  68.280  1.00  0.00    -0.301 C  
HETATM   24  C   UNL     1     -10.834  12.771  67.754  1.00  0.00    -0.225 C  
HETATM   25  O   UNL     1     -10.956  12.860  66.323  1.00  0.00    -0.275 OA 
HETATM   26  H2  UNL     1     -13.335  10.489  70.439  1.00  0.00     0.000 HD 
HETATM   27  H1  UNL     1     -11.979   9.514  70.065  1.00  0.00     0.000 HD 
HETATM   28  H   UNL     1     -10.680  12.040  65.928  1.00  0.00     0.000 HD 
BRANCH  23  29
HETATM   29  O   UNL     1     -11.423  10.307  67.583  1.00  0.00    -0.345 OA 
BRANCH  29  30
HETATM   30  C   UNL     1     -10.125   9.764  67.959  1.00  0.00    -0.171 C  
HETATM   31  O   UNL     1     -10.266   8.519  68.655  1.00  0.00    -0.190 OA 
HETATM   32  C   UNL     1     -10.758   7.480  67.791  1.00  0.00    -0.163 C  
HETATM   33  C   UNL     1      -9.691   7.154  66.746  1.00  0.00    -0.192 C  
HETATM   34  H   UNL     1      -8.383  10.754  65.329  1.00  0.00     0.000 HD 
HETATM   35  O   UNL     1     -10.096   6.076  65.901  1.00  0.00    -0.391 OA 
HETATM   36  C   UNL     1      -9.409   8.415  65.895  1.00  0.00    -0.136 C  
HETATM   37  H1  UNL     1      -8.126   8.972  64.377  1.00  0.00     0.000 HD 
HETATM   38  H2  UNL     1      -8.504   7.322  64.360  1.00  0.00     0.000 HD 
HETATM   39  C   UNL     1      -9.111   9.626  66.794  1.00  0.00    -0.146 C  
HETATM   40  N   UNL     1      -8.312   8.140  64.938  1.00  0.00    -0.151 NA 
HETATM   41  H   UNL     1      -9.433   5.873  65.252  1.00  0.00     0.000 HD 
HETATM   42  O   UNL     1      -9.004  10.838  66.043  1.00  0.00    -0.168 OA 
BRANCH  32  43
HETATM   43  C   UNL     1     -11.136   6.287  68.671  1.00  0.00    -0.325 C  
HETATM   44  O   UNL     1     -11.992   6.745  69.727  1.00  0.00    -0.654 OA 
HETATM   45  H   UNL     1     -12.227   6.004  70.274  1.00  0.00     0.000 HD 
ENDBRANCH  32  43
ENDBRANCH  29  30
ENDBRANCH  23  29
ENDBRANCH  14  15
ENDBRANCH   8  14
TORSDOF 6
ENDMDL
MODEL       41
REMARK 921   NORMALIZED FREE ENERGY PREDICTED BY IDOCK:   -6.54 KCAL/MOL
REMARK 922        TOTAL FREE ENERGY PREDICTED BY IDOCK:  -10.38 KCAL/MOL
REMARK 923 INTER-LIGAND FREE ENERGY PREDICTED BY IDOCK:   -9.10 KCAL/MOL
REMARK 924 INTRA-LIGAND FREE ENERGY PREDICTED BY IDOCK:   -1.28 KCAL/MOL
REMARK 927      BINDING AFFINITY PREDICTED BY RF-SCORE:    0.00 PKD
ROOT
HETATM    1  C   UNL     1     -11.127   7.707  71.209  1.00  0.00    -0.246 C  
HETATM    2  C   UNL     1     -10.678   6.248  71.346  1.00  0.00    -0.297 C  
HETATM    3  N   UNL     1     -10.731   8.379  72.466  1.00  0.00    -0.338 NA 
HETATM    4  H1  UNL     1     -11.029   9.349  72.375  1.00  0.00     0.000 HD 
HETATM    5  C   UNL     1     -10.722   5.486  70.041  1.00  0.00    -0.356 C  
HETATM    6  H2  UNL     1      -9.740   8.278  72.686  1.00  0.00     0.000 HD 
HETATM    7  C   UNL     1     -10.123   6.284  68.884  1.00  0.00    -0.168 C  
HETATM    8  C   UNL     1     -10.684   8.441  69.873  1.00  0.00    -0.227 C  
HETATM    9  O   UNL     1     -10.725   7.580  68.735  1.00  0.00    -0.184 OA 
ENDROOT
BRANCH   7  10
HETATM   10  C   UNL     1     -10.388   5.484  67.580  1.00  0.00    -0.214 C  
HETATM   11  N   UNL     1     -11.250   6.199  66.638  1.00  0.00    -0.758 NA 
HETATM   12  H1  UNL     1     -11.424   5.673  65.781  1.00  0.00     0.000 HD 
HETATM   13  H2  UNL     1     -10.872   7.123  66.428  1.00  0.00     0.000 HD 
ENDBRANCH   7  10
BRANCH   8  14
HETATM   14  O   UNL     1      -9.441   9.119  70.057  1.00  0.00    -0.173 OA 
BRANCH  14  15
HETATM   15  C   UNL     1      -8.764   9.764  68.948  1.00  0.00    -0.136 C  
HETATM   16  C   UNL     1      -7.520  10.396  69.631  1.00  0.00    -0.157 C  
HETATM   17  N   UNL     1      -6.620   9.357  70.168  1.00  0.00    -0.054 NA 
HETATM   18  C   UNL     1      -6.656  11.289  68.763  1.00  0.00    -0.062 C  
HETATM   19  H2  UNL     1      -6.353   8.685  69.450  1.00  0.00     0.000 HD 
HETATM   20  H1  UNL     1      -5.803   9.773  70.617  1.00  0.00     0.000 HD 
HETATM   21  C   UNL     1      -7.446  12.345  68.006  1.00  0.00    -0.114 C  
HETATM   22  N   UNL     1      -6.426  13.115  67.276  1.00  0.00    -0.444 NA 
HETATM   23  C   UNL     1      -8.537  11.633  67.147  1.00  0.00    -0.164 C  
HETATM   24  C   UNL     1      -9.530  10.850  68.105  1.00  0.00    -0.165 C  
HETATM   25  O   UNL     1     -10.550  10.214  67.313  1.00  0.00    -0.240 OA 
HETATM   26  H2  UNL     1      -5.819  12.546  66.685  1.00  0.00     0.000 HD 
HETATM   27  H1  UNL     1      -6.956  13.823  66.767  1.00  0.00     0.000 HD 
HETATM   28  H   UNL     1     -11.013  10.870  66.804  1.00  0.00     0.000 HD 
BRANCH  23  29
HETATM   29  O   UNL     1      -9.231  12.542  66.236  1.00  0.00    -0.215 OA 
BRANCH  29  30
HETATM   30  C   UNL     1     -10.209  13.367  66.932  1.00  0.00    -0.252 C  
HETATM   31  O   UNL     1      -9.728  14.706  67.106  1.00  0.00    -0.227 OA 
HETATM   32  C   UNL     1      -9.626  15.402  65.852  1.00  0.00    -0.351 C  
HETATM   33  C   UNL     1     -11.031  15.626  65.291  1.00  0.00    -0.364 C  
HETATM   34  H   UNL     1     -12.967  12.051  65.670  1.00  0.00     0.000 HD 
HETATM   35  O   UNL     1     -10.997  16.378  64.077  1.00  0.00    -1.126 OA 
HETATM   36  C   UNL     1     -11.707  14.256  65.045  1.00  0.00    -0.383 C  
HETATM   37  H1  UNL     1     -13.547  13.556  64.427  1.00  0.00     0.000 HD 
HETATM   38  H2  UNL     1     -13.152  15.065  63.769  1.00  0.00     0.000 HD 
HETATM   39  C   UNL     1     -11.626  13.374  66.301  1.00  0.00    -0.344 C  
HETATM   40  N   UNL     1     -13.101  14.460  64.589  1.00  0.00    -0.264 NA 
HETATM   41  H   UNL     1     -11.869  16.518  63.728  1.00  0.00     0.000 HD 
HETATM   42  O   UNL     1     -12.099  12.047  66.057  1.00  0.00    -0.561 OA 
BRANCH  32  43
HETATM   43  C   UNL     1      -8.854  16.697  66.103  1.00  0.00    -0.288 C  
HETATM   44  O   UNL     1      -7.474  16.377  66.332  1.00  0.00    -0.234 OA 
HETATM   45  H   UNL     1      -6.995  17.182  66.488  1.00  0.00     0.000 HD 
ENDBRANCH  32  43
ENDBRANCH  29  30
ENDBRANCH  23  29
ENDBRANCH  14  15
ENDBRANCH   8  14
TORSDOF 6
ENDMDL
MODEL       42
REMARK 921   NORMALIZED FREE ENERGY PREDICTED BY IDOCK:   -6.53 KCAL/MOL
REMARK 922        TOTAL FREE ENERGY PREDICTED BY IDOCK:  -10.37 KCAL/MOL
REMARK 923 INTER-LIGAND FREE ENERGY PREDICTED BY IDOCK:   -9.75 KCAL/MOL
REMARK 924 INTRA-LIGAND FREE ENERGY PREDICTED BY IDOCK:   -0.62 KCAL/MOL
REMARK 927      BINDING AFFINITY PREDICTED BY RF-SCORE:    0.00 PKD
ROOT
HETATM    1  C   UNL     1     -10.280   7.327  68.285  1.00  0.00    -0.180 C  
HETATM    2  C   UNL     1     -11.202   6.254  68.875  1.00  0.00    -0.387 C  
HETATM    3  N   UNL     1     -10.799   7.615  66.929  1.00  0.00    -0.518 NA 
HETATM    4  H1  UNL     1     -10.185   8.328  66.537  1.00  0.00     0.000 HD 
HETATM    5  C   UNL     1     -11.012   6.057  70.362  1.00  0.00    -0.399 C  
HETATM    6  H2  UNL     1     -11.785   7.877  66.920  1.00  0.00     0.000 HD 
HETATM    7  C   UNL     1     -10.930   7.383  71.115  1.00  0.00    -0.246 C  
HETATM    8  C   UNL     1     -10.024   8.595  69.203  1.00  0.00    -0.192 C  
HETATM    9  O   UNL     1      -9.920   8.258  70.587  1.00  0.00    -0.181 OA 
ENDROOT
BRANCH   7  10
HETATM   10  C   UNL     1     -10.555   7.060  72.587  1.00  0.00    -0.245 C  
HETATM   11  N   UNL     1     -11.386   6.006  73.169  1.00  0.00    -0.477 NA 
HETATM   12  H1  UNL     1     -11.140   5.794  74.135  1.00  0.00     0.000 HD 
HETATM   13  H2  UNL     1     -11.363   5.164  72.593  1.00  0.00     0.000 HD 
ENDBRANCH   7  10
BRANCH   8  14
HETATM   14  O   UNL     1     -10.967   9.627  68.914  1.00  0.00    -0.202 OA 
BRANCH  14  15
HETATM   15  C   UNL     1     -10.806  10.966  69.448  1.00  0.00    -0.240 C  
HETATM   16  C   UNL     1     -12.174  11.225  70.136  1.00  0.00    -0.330 C  
HETATM   17  N   UNL     1     -12.382  10.307  71.273  1.00  0.00    -0.371 NA 
HETATM   18  C   UNL     1     -12.402  12.621  70.680  1.00  0.00    -0.375 C  
HETATM   19  H2  UNL     1     -11.611  10.355  71.939  1.00  0.00     0.000 HD 
HETATM   20  H1  UNL     1     -13.280  10.477  71.725  1.00  0.00     0.000 HD 
HETATM   21  C   UNL     1     -12.091  13.719  69.675  1.00  0.00    -0.336 C  
HETATM   22  N   UNL     1     -12.418  14.969  70.383  1.00  0.00    -0.366 NA 
HETATM   23  C   UNL     1     -10.617  13.552  69.190  1.00  0.00    -0.024 C  
HETATM   24  C   UNL     1     -10.460  12.148  68.467  1.00  0.00    -0.233 C  
HETATM   25  O   UNL     1      -9.106  12.005  67.999  1.00  0.00    -0.175 OA 
HETATM   26  H2  UNL     1     -11.941  15.077  71.278  1.00  0.00     0.000 HD 
HETATM   27  H1  UNL     1     -12.209  15.706  69.709  1.00  0.00     0.000 HD 
HETATM   28  H   UNL     1      -8.897  12.719  67.407  1.00  0.00     0.000 HD 
BRANCH  23  29
HETATM   29  O   UNL     1     -10.157  14.667  68.363  1.00  0.00    -0.224 OA 
BRANCH  29  30
HETATM   30  C   UNL     1     -11.229  15.611  68.078  1.00  0.00    -0.339 C  
HETATM   31  O   UNL     1     -10.922  16.914  68.591  1.00  0.00    -0.330 OA 
HETATM   32  C   UNL     1      -9.827  17.520  67.882  1.00  0.00    -0.293 C  
HETATM   33  C   UNL     1     -10.269  17.824  66.450  1.00  0.00    -0.365 C  
HETATM   34  H   UNL     1     -12.149  14.451  65.122  1.00  0.00     0.000 HD 
HETATM   35  O   UNL     1      -9.243  18.494  65.716  1.00  0.00    -0.418 OA 
HETATM   36  C   UNL     1     -10.649  16.502  65.741  1.00  0.00    -0.296 C  
HETATM   37  H1  UNL     1     -11.415  15.919  63.916  1.00  0.00     0.000 HD 
HETATM   38  H2  UNL     1     -10.509  17.347  63.833  1.00  0.00     0.000 HD 
HETATM   39  C   UNL     1     -11.647  15.696  66.587  1.00  0.00     0.260 C  
HETATM   40  N   UNL     1     -11.165  16.791  64.383  1.00  0.00    -1.107 NA 
HETATM   41  H   UNL     1      -9.517  18.684  64.826  1.00  0.00     0.000 HD 
HETATM   42  O   UNL     1     -11.893  14.400  66.035  1.00  0.00    -0.373 OA 
BRANCH  32  43
HETATM   43  C   UNL     1      -9.398  18.760  68.666  1.00  0.00    -0.351 C  
HETATM   44  O   UNL     1     -10.328  19.820  68.400  1.00  0.00    -0.444 OA 
HETATM   45  H   UNL     1     -10.061  20.591  68.887  1.00  0.00     0.000 HD 
ENDBRANCH  32  43
ENDBRANCH  29  30
ENDBRANCH  23  29
ENDBRANCH  14  15
ENDBRANCH   8  14
TORSDOF 6
ENDMDL
MODEL       43
REMARK 921   NORMALIZED FREE ENERGY PREDICTED BY IDOCK:   -6.46 KCAL/MOL
REMARK 922        TOTAL FREE ENERGY PREDICTED BY IDOCK:  -10.28 KCAL/MOL
REMARK 923 INTER-LIGAND FREE ENERGY PREDICTED BY IDOCK:   -8.53 KCAL/MOL
REMARK 924 INTRA-LIGAND FREE ENERGY PREDICTED BY IDOCK:   -1.74 KCAL/MOL
REMARK 927      BINDING AFFINITY PREDICTED BY RF-SCORE:    0.00 PKD
ROOT
HETATM    1  C   UNL     1     -11.504  14.180  69.359  1.00  0.00    -0.288 C  
HETATM    2  C   UNL     1     -10.910  15.380  70.105  1.00  0.00    -0.328 C  
HETATM    3  N   UNL     1     -10.367  13.503  68.698  1.00  0.00    -0.303 NA 
HETATM    4  H1  UNL     1     -10.762  12.705  68.201  1.00  0.00     0.000 HD 
HETATM    5  C   UNL     1     -11.874  16.009  71.085  1.00  0.00    -0.465 C  
HETATM    6  H2  UNL     1      -9.616  13.249  69.341  1.00  0.00     0.000 HD 
HETATM    7  C   UNL     1     -12.604  14.966  71.929  1.00  0.00    -0.331 C  
HETATM    8  C   UNL     1     -12.457  13.241  70.212  1.00  0.00    -0.185 C  
HETATM    9  O   UNL     1     -13.268  13.974  71.131  1.00  0.00    -0.322 OA 
ENDROOT
BRANCH   7  10
HETATM   10  C   UNL     1     -13.686  15.712  72.757  1.00  0.00    -0.578 C  
HETATM   11  N   UNL     1     -13.216  16.106  74.085  1.00  0.00    -0.913 NA 
HETATM   12  H1  UNL     1     -13.927  16.596  74.629  1.00  0.00     0.000 HD 
HETATM   13  H2  UNL     1     -12.361  16.660  74.020  1.00  0.00     0.000 HD 
ENDBRANCH   7  10
BRANCH   8  14
HETATM   14  O   UNL     1     -11.718  12.170  70.800  1.00  0.00    -0.016 OA 
BRANCH  14  15
HETATM   15  C   UNL     1     -11.942  10.794  70.403  1.00  0.00    -0.357 C  
HETATM   16  C   UNL     1     -12.478  10.147  71.710  1.00  0.00    -0.360 C  
HETATM   17  N   UNL     1     -13.780  10.724  72.096  1.00  0.00    -0.341 NA 
HETATM   18  C   UNL     1     -12.678   8.644  71.685  1.00  0.00    -0.379 C  
HETATM   19  H2  UNL     1     -14.459  10.657  71.339  1.00  0.00     0.000 HD 
HETATM   20  H1  UNL     1     -14.132  10.299  72.954  1.00  0.00     0.000 HD 
HETATM   21  C   UNL     1     -11.470   7.881  71.166  1.00  0.00    -0.273 C  
HETATM   22  N   UNL     1     -11.856   6.465  71.268  1.00  0.00    -0.316 NA 
HETATM   23  C   UNL     1     -11.116   8.412  69.742  1.00  0.00    -0.056 C  
HETATM   24  C   UNL     1     -10.740   9.951  69.834  1.00  0.00    -0.280 C  
HETATM   25  O   UNL     1     -10.391  10.433  68.524  1.00  0.00    -0.161 OA 
HETATM   26  H2  UNL     1     -12.729   6.236  70.791  1.00  0.00     0.000 HD 
HETATM   27  H1  UNL     1     -11.046   5.953  70.920  1.00  0.00     0.000 HD 
HETATM   28  H   UNL     1      -9.665   9.924  68.180  1.00  0.00     0.000 HD 
BRANCH  23  29
HETATM   29  O   UNL     1     -10.084   7.618  69.075  1.00  0.00    -0.187 OA 
BRANCH  29  30
HETATM   30  C   UNL     1     -10.578   7.003  67.851  1.00  0.00    -0.218 C  
HETATM   31  O   UNL     1     -10.479   7.904  66.741  1.00  0.00    -0.327 OA 
HETATM   32  C   UNL     1      -9.110   8.161  66.386  1.00  0.00    -0.183 C  
HETATM   33  C   UNL     1      -8.491   6.880  65.826  1.00  0.00    -0.146 C  
HETATM   34  H   UNL     1      -9.569   3.903  68.405  1.00  0.00     0.000 HD 
HETATM   35  O   UNL     1      -7.148   7.094  65.388  1.00  0.00    -0.061 OA 
HETATM   36  C   UNL     1      -8.523   5.780  66.914  1.00  0.00    -0.108 C  
HETATM   37  H1  UNL     1      -8.032   3.783  67.075  1.00  0.00     0.000 HD 
HETATM   38  H2  UNL     1      -7.082   4.615  65.947  1.00  0.00     0.000 HD 
HETATM   39  C   UNL     1      -9.936   5.635  67.502  1.00  0.00    -0.154 C  
HETATM   40  N   UNL     1      -8.010   4.508  66.357  1.00  0.00    -0.102 NA 
HETATM   41  H   UNL     1      -6.764   6.298  65.040  1.00  0.00     0.000 HD 
HETATM   42  O   UNL     1      -9.963   4.741  68.618  1.00  0.00    -0.155 OA 
BRANCH  32  43
HETATM   43  C   UNL     1      -9.100   9.327  65.396  1.00  0.00    -0.222 C  
HETATM   44  O   UNL     1      -8.892   8.811  64.074  1.00  0.00    -0.420 OA 
HETATM   45  H   UNL     1      -8.886   9.535  63.460  1.00  0.00     0.000 HD 
ENDBRANCH  32  43
ENDBRANCH  29  30
ENDBRANCH  23  29
ENDBRANCH  14  15
ENDBRANCH   8  14
TORSDOF 6
ENDMDL
MODEL       44
REMARK 921   NORMALIZED FREE ENERGY PREDICTED BY IDOCK:   -6.42 KCAL/MOL
REMARK 922        TOTAL FREE ENERGY PREDICTED BY IDOCK:  -10.23 KCAL/MOL
REMARK 923 INTER-LIGAND FREE ENERGY PREDICTED BY IDOCK:   -8.87 KCAL/MOL
REMARK 924 INTRA-LIGAND FREE ENERGY PREDICTED BY IDOCK:   -1.36 KCAL/MOL
REMARK 927      BINDING AFFINITY PREDICTED BY RF-SCORE:    0.00 PKD
ROOT
HETATM    1  C   UNL     1      -8.769  10.213  66.451  1.00  0.00    -0.130 C  
HETATM    2  C   UNL     1      -9.282   9.043  65.603  1.00  0.00    -0.288 C  
HETATM    3  N   UNL     1      -8.809  11.404  65.576  1.00  0.00    -0.382 NA 
HETATM    4  H1  UNL     1      -8.469  12.182  66.140  1.00  0.00     0.000 HD 
HETATM    5  C   UNL     1      -9.600   7.810  66.417  1.00  0.00    -0.235 C  
HETATM    6  H2  UNL     1      -9.727  11.574  65.163  1.00  0.00     0.000 HD 
HETATM    7  C   UNL     1     -10.391   8.141  67.682  1.00  0.00    -0.247 C  
HETATM    8  C   UNL     1      -9.455  10.384  67.872  1.00  0.00    -0.138 C  
HETATM    9  O   UNL     1      -9.745   9.133  68.495  1.00  0.00    -0.150 OA 
ENDROOT
BRANCH   7  10
HETATM   10  C   UNL     1     -10.498   6.836  68.518  1.00  0.00    -0.204 C  
HETATM   11  N   UNL     1     -11.654   6.827  69.414  1.00  0.00    -0.624 NA 
HETATM   12  H1  UNL     1     -11.724   5.971  69.963  1.00  0.00     0.000 HD 
HETATM   13  H2  UNL     1     -12.517   7.001  68.898  1.00  0.00     0.000 HD 
ENDBRANCH   7  10
BRANCH   8  14
HETATM   14  O   UNL     1     -10.567  11.277  67.792  1.00  0.00    -0.185 OA 
BRANCH  14  15
HETATM   15  C   UNL     1     -10.540  12.573  68.441  1.00  0.00    -0.242 C  
HETATM   16  C   UNL     1     -11.775  12.508  69.381  1.00  0.00    -0.322 C  
HETATM   17  N   UNL     1     -11.600  11.477  70.422  1.00  0.00    -0.503 NA 
HETATM   18  C   UNL     1     -12.132  13.786  70.114  1.00  0.00    -0.429 C  
HETATM   19  H2  UNL     1     -10.737  11.617  70.946  1.00  0.00     0.000 HD 
HETATM   20  H1  UNL     1     -12.411  11.435  71.039  1.00  0.00     0.000 HD 
HETATM   21  C   UNL     1     -12.214  15.002  69.206  1.00  0.00    -0.179 C  
HETATM   22  N   UNL     1     -12.609  16.103  70.099  1.00  0.00    -0.492 NA 
HETATM   23  C   UNL     1     -10.853  15.160  68.457  1.00  0.00    -0.247 C  
HETATM   24  C   UNL     1     -10.597  13.877  67.560  1.00  0.00    -0.256 C  
HETATM   25  O   UNL     1      -9.354  14.034  66.851  1.00  0.00    -0.238 OA 
HETATM   26  H2  UNL     1     -11.996  16.226  70.905  1.00  0.00     0.000 HD 
HETATM   27  H1  UNL     1     -12.664  16.920  69.490  1.00  0.00     0.000 HD 
HETATM   28  H   UNL     1      -9.389  14.821  66.319  1.00  0.00     0.000 HD 
BRANCH  23  29
HETATM   29  O   UNL     1     -10.759  16.407  67.698  1.00  0.00    -0.322 OA 
BRANCH  29  30
HETATM   30  C   UNL     1      -9.983  17.416  68.404  1.00  0.00    -0.329 C  
HETATM   31  O   UNL     1      -8.720  16.893  68.833  1.00  0.00    -0.259 OA 
HETATM   32  C   UNL     1      -7.855  16.612  67.719  1.00  0.00    -0.164 C  
HETATM   33  C   UNL     1      -7.457  17.930  67.053  1.00  0.00    -0.199 C  
HETATM   34  H   UNL     1     -10.913  20.072  66.668  1.00  0.00     0.000 HD 
HETATM   35  O   UNL     1      -6.539  17.719  65.979  1.00  0.00    -0.244 OA 
HETATM   36  C   UNL     1      -8.728  18.641  66.528  1.00  0.00    -0.304 C  
HETATM   37  H1  UNL     1      -9.206  20.429  65.616  1.00  0.00     0.000 HD 
HETATM   38  H2  UNL     1      -7.646  19.886  65.244  1.00  0.00     0.000 HD 
HETATM   39  C   UNL     1      -9.789  18.749  67.635  1.00  0.00    -0.324 C  
HETATM   40  N   UNL     1      -8.368  19.960  65.962  1.00  0.00    -0.336 NA 
HETATM   41  H   UNL     1      -6.292  18.537  65.565  1.00  0.00     0.000 HD 
HETATM   42  O   UNL     1     -11.032  19.255  67.139  1.00  0.00    -0.476 OA 
BRANCH  32  43
HETATM   43  C   UNL     1      -6.665  15.811  68.247  1.00  0.00    -0.119 C  
HETATM   44  O   UNL     1      -6.289  14.837  67.263  1.00  0.00    -0.306 OA 
HETATM   45  H   UNL     1      -5.549  14.339  67.592  1.00  0.00     0.000 HD 
ENDBRANCH  32  43
ENDBRANCH  29  30
ENDBRANCH  23  29
ENDBRANCH  14  15
ENDBRANCH   8  14
TORSDOF 6
ENDMDL
MODEL       45
REMARK 921   NORMALIZED FREE ENERGY PREDICTED BY IDOCK:   -6.37 KCAL/MOL
REMARK 922        TOTAL FREE ENERGY PREDICTED BY IDOCK:  -10.16 KCAL/MOL
REMARK 923 INTER-LIGAND FREE ENERGY PREDICTED BY IDOCK:   -8.33 KCAL/MOL
REMARK 924 INTRA-LIGAND FREE ENERGY PREDICTED BY IDOCK:   -1.84 KCAL/MOL
REMARK 927      BINDING AFFINITY PREDICTED BY RF-SCORE:    0.00 PKD
ROOT
HETATM    1  C   UNL     1     -13.209  14.710  70.881  1.00  0.00    -0.337 C  
HETATM    2  C   UNL     1     -13.185  14.061  72.270  1.00  0.00    -0.558 C  
HETATM    3  N   UNL     1     -12.697  16.086  71.061  1.00  0.00    -0.567 NA 
HETATM    4  H1  UNL     1     -12.713  16.517  70.137  1.00  0.00     0.000 HD 
HETATM    5  C   UNL     1     -13.383  12.563  72.231  1.00  0.00    -0.475 C  
HETATM    6  H2  UNL     1     -11.782  16.123  71.510  1.00  0.00     0.000 HD 
HETATM    7  C   UNL     1     -12.540  11.896  71.146  1.00  0.00    -0.288 C  
HETATM    8  C   UNL     1     -12.527  13.873  69.718  1.00  0.00    -0.188 C  
HETATM    9  O   UNL     1     -12.756  12.469  69.846  1.00  0.00     0.149 OA 
ENDROOT
BRANCH   7  10
HETATM   10  C   UNL     1     -12.961  10.402  71.082  1.00  0.00    -0.412 C  
HETATM   11  N   UNL     1     -12.131   9.615  70.169  1.00  0.00    -0.467 NA 
HETATM   12  H1  UNL     1     -12.408   8.634  70.128  1.00  0.00     0.000 HD 
HETATM   13  H2  UNL     1     -11.143   9.706  70.405  1.00  0.00     0.000 HD 
ENDBRANCH   7  10
BRANCH   8  14
HETATM   14  O   UNL     1     -11.154  14.237  69.572  1.00  0.00    -0.245 OA 
BRANCH  14  15
HETATM   15  C   UNL     1     -10.364  13.761  68.453  1.00  0.00    -0.247 C  
HETATM   16  C   UNL     1     -10.779  14.726  67.309  1.00  0.00    -0.294 C  
HETATM   17  N   UNL     1     -10.362  16.111  67.600  1.00  0.00    -0.281 NA 
HETATM   18  C   UNL     1     -10.238  14.408  65.929  1.00  0.00    -0.341 C  
HETATM   19  H2  UNL     1      -9.363  16.168  67.795  1.00  0.00     0.000 HD 
HETATM   20  H1  UNL     1     -10.635  16.744  66.849  1.00  0.00     0.000 HD 
HETATM   21  C   UNL     1     -10.452  12.962  65.514  1.00  0.00    -0.289 C  
HETATM   22  N   UNL     1      -9.902  12.885  64.150  1.00  0.00    -0.666 NA 
HETATM   23  C   UNL     1      -9.803  12.032  66.586  1.00  0.00    -0.204 C  
HETATM   24  C   UNL     1     -10.517  12.266  67.984  1.00  0.00    -0.218 C  
HETATM   25  O   UNL     1      -9.934  11.390  68.966  1.00  0.00    -0.355 OA 
HETATM   26  H2  UNL     1      -8.936  13.201  64.073  1.00  0.00     0.000 HD 
HETATM   27  H1  UNL     1     -10.045  11.914  63.871  1.00  0.00     0.000 HD 
HETATM   28  H   UNL     1     -10.026  10.488  68.683  1.00  0.00     0.000 HD 
BRANCH  23  29
HETATM   29  O   UNL     1      -9.789  10.624  66.189  1.00  0.00    -0.200 OA 
BRANCH  29  30
HETATM   30  C   UNL     1      -8.482  10.014  66.395  1.00  0.00    -0.129 C  
HETATM   31  O   UNL     1      -8.538   8.997  67.403  1.00  0.00    -0.115 OA 
HETATM   32  C   UNL     1      -9.305   7.861  66.969  1.00  0.00    -0.160 C  
HETATM   33  C   UNL     1      -8.559   7.160  65.834  1.00  0.00    -0.148 C  
HETATM   34  H   UNL     1      -7.381  10.120  63.279  1.00  0.00     0.000 HD 
HETATM   35  O   UNL     1      -9.241   5.979  65.409  1.00  0.00    -0.368 OA 
HETATM   36  C   UNL     1      -8.405   8.137  64.644  1.00  0.00    -0.079 C  
HETATM   37  H1  UNL     1      -7.503   8.147  62.789  1.00  0.00     0.000 HD 
HETATM   38  H2  UNL     1      -7.994   6.604  63.283  1.00  0.00     0.000 HD 
HETATM   39  C   UNL     1      -7.803   9.473  65.110  1.00  0.00    -0.113 C  
HETATM   40  N   UNL     1      -7.604   7.502  63.573  1.00  0.00    -0.112 NA 
HETATM   41  H   UNL     1      -8.778   5.543  64.704  1.00  0.00     0.000 HD 
HETATM   42  O   UNL     1      -7.797  10.451  64.067  1.00  0.00    -0.139 OA 
BRANCH  32  43
HETATM   43  C   UNL     1      -9.540   6.969  68.189  1.00  0.00    -0.129 C  
HETATM   44  O   UNL     1     -10.868   7.197  68.681  1.00  0.00    -0.350 OA 
HETATM   45  H   UNL     1     -11.013   6.643  69.439  1.00  0.00     0.000 HD 
ENDBRANCH  32  43
ENDBRANCH  29  30
ENDBRANCH  23  29
ENDBRANCH  14  15
ENDBRANCH   8  14
TORSDOF 6
ENDMDL
MODEL       46
REMARK 921   NORMALIZED FREE ENERGY PREDICTED BY IDOCK:   -6.36 KCAL/MOL
REMARK 922        TOTAL FREE ENERGY PREDICTED BY IDOCK:  -10.15 KCAL/MOL
REMARK 923 INTER-LIGAND FREE ENERGY PREDICTED BY IDOCK:   -8.52 KCAL/MOL
REMARK 924 INTRA-LIGAND FREE ENERGY PREDICTED BY IDOCK:   -1.63 KCAL/MOL
REMARK 927      BINDING AFFINITY PREDICTED BY RF-SCORE:    0.00 PKD
ROOT
HETATM    1  C   UNL     1     -13.246  14.879  71.034  1.00  0.00    -0.399 C  
HETATM    2  C   UNL     1     -13.394  14.279  72.438  1.00  0.00    -0.568 C  
HETATM    3  N   UNL     1     -12.733  16.254  71.227  1.00  0.00    -0.353 NA 
HETATM    4  H1  UNL     1     -12.634  16.653  70.294  1.00  0.00     0.000 HD 
HETATM    5  C   UNL     1     -13.613  12.784  72.426  1.00  0.00    -0.507 C  
HETATM    6  H2  UNL     1     -11.876  16.294  71.778  1.00  0.00     0.000 HD 
HETATM    7  C   UNL     1     -12.661  12.067  71.469  1.00  0.00    -0.255 C  
HETATM    8  C   UNL     1     -12.448  13.993  69.988  1.00  0.00    -0.281 C  
HETATM    9  O   UNL     1     -12.715  12.597  70.135  1.00  0.00     0.044 OA 
ENDROOT
BRANCH   7  10
HETATM   10  C   UNL     1     -13.098  10.578  71.406  1.00  0.00    -0.410 C  
HETATM   11  N   UNL     1     -12.611   9.891  70.210  1.00  0.00    -0.516 NA 
HETATM   12  H1  UNL     1     -12.898   8.913  70.169  1.00  0.00     0.000 HD 
HETATM   13  H2  UNL     1     -11.598   9.978  70.127  1.00  0.00     0.000 HD 
ENDBRANCH   7  10
BRANCH   8  14
HETATM   14  O   UNL     1     -11.061  14.332  69.990  1.00  0.00    -0.159 OA 
BRANCH  14  15
HETATM   15  C   UNL     1     -10.268  14.269  68.778  1.00  0.00    -0.226 C  
HETATM   16  C   UNL     1     -11.191  14.954  67.732  1.00  0.00    -0.321 C  
HETATM   17  N   UNL     1     -11.403  16.377  68.060  1.00  0.00    -0.235 NA 
HETATM   18  C   UNL     1     -10.718  14.923  66.293  1.00  0.00    -0.320 C  
HETATM   19  H2  UNL     1     -10.519  16.874  68.163  1.00  0.00     0.000 HD 
HETATM   20  H1  UNL     1     -12.009  16.827  67.373  1.00  0.00     0.000 HD 
HETATM   21  C   UNL     1     -10.310  13.537  65.820  1.00  0.00    -0.292 C  
HETATM   22  N   UNL     1      -9.934  13.724  64.409  1.00  0.00    -0.728 NA 
HETATM   23  C   UNL     1      -9.203  12.987  66.774  1.00  0.00    -0.228 C  
HETATM   24  C   UNL     1      -9.791  12.867  68.243  1.00  0.00    -0.228 C  
HETATM   25  O   UNL     1      -8.777  12.338  69.117  1.00  0.00    -0.248 OA 
HETATM   26  H2  UNL     1      -9.224  14.440  64.259  1.00  0.00     0.000 HD 
HETATM   27  H1  UNL     1      -9.660  12.794  64.092  1.00  0.00     0.000 HD 
HETATM   28  H   UNL     1      -8.489  11.491  68.794  1.00  0.00     0.000 HD 
BRANCH  23  29
HETATM   29  O   UNL     1      -8.608  11.738  66.300  1.00  0.00    -0.158 OA 
BRANCH  29  30
HETATM   30  C   UNL     1      -9.605  10.691  66.130  1.00  0.00    -0.188 C  
HETATM   31  O   UNL     1      -9.903  10.479  64.744  1.00  0.00    -0.272 OA 
HETATM   32  C   UNL     1      -8.784   9.909  64.042  1.00  0.00    -0.212 C  
HETATM   33  C   UNL     1      -8.549   8.487  64.550  1.00  0.00    -0.029 C  
HETATM   34  H   UNL     1      -8.696   8.720  68.625  1.00  0.00     0.000 HD 
HETATM   35  O   UNL     1      -7.492   7.843  63.837  1.00  0.00    -0.095 OA 
HETATM   36  C   UNL     1      -8.215   8.533  66.061  1.00  0.00    -0.118 C  
HETATM   37  H1  UNL     1      -7.854   7.187  67.582  1.00  0.00     0.000 HD 
HETATM   38  H2  UNL     1      -7.390   6.612  66.059  1.00  0.00     0.000 HD 
HETATM   39  C   UNL     1      -9.268   9.347  66.828  1.00  0.00    -0.143 C  
HETATM   40  N   UNL     1      -8.074   7.156  66.586  1.00  0.00    -0.107 NA 
HETATM   41  H   UNL     1      -7.345   6.959  64.152  1.00  0.00     0.000 HD 
HETATM   42  O   UNL     1      -8.903   9.543  68.197  1.00  0.00    -0.124 OA 
BRANCH  32  43
HETATM   43  C   UNL     1      -9.093   9.980  62.546  1.00  0.00    -0.292 C  
HETATM   44  O   UNL     1     -10.466  10.360  62.374  1.00  0.00    -0.547 OA 
HETATM   45  H   UNL     1     -10.658  10.404  61.445  1.00  0.00     0.000 HD 
ENDBRANCH  32  43
ENDBRANCH  29  30
ENDBRANCH  23  29
ENDBRANCH  14  15
ENDBRANCH   8  14
TORSDOF 6
ENDMDL
MODEL       47
REMARK 921   NORMALIZED FREE ENERGY PREDICTED BY IDOCK:   -6.36 KCAL/MOL
REMARK 922        TOTAL FREE ENERGY PREDICTED BY IDOCK:  -10.14 KCAL/MOL
REMARK 923 INTER-LIGAND FREE ENERGY PREDICTED BY IDOCK:   -8.71 KCAL/MOL
REMARK 924 INTRA-LIGAND FREE ENERGY PREDICTED BY IDOCK:   -1.43 KCAL/MOL
REMARK 927      BINDING AFFINITY PREDICTED BY RF-SCORE:    0.00 PKD
ROOT
HETATM    1  C   UNL     1      -9.151   8.507  66.658  1.00  0.00    -0.165 C  
HETATM    2  C   UNL     1     -10.265   7.531  67.055  1.00  0.00    -0.368 C  
HETATM    3  N   UNL     1      -9.403   8.866  65.245  1.00  0.00    -0.450 NA 
HETATM    4  H1  UNL     1      -8.662   9.514  64.981  1.00  0.00     0.000 HD 
HETATM    5  C   UNL     1     -10.348   7.296  68.546  1.00  0.00    -0.210 C  
HETATM    6  H2  UNL     1     -10.341   9.232  65.080  1.00  0.00     0.000 HD 
HETATM    7  C   UNL     1     -10.257   8.597  69.342  1.00  0.00    -0.210 C  
HETATM    8  C   UNL     1      -8.923   9.729  67.644  1.00  0.00    -0.128 C  
HETATM    9  O   UNL     1      -9.089   9.365  69.015  1.00  0.00    -0.136 OA 
ENDROOT
BRANCH   7  10
HETATM   10  C   UNL     1     -10.170   8.217  70.845  1.00  0.00    -0.191 C  
HETATM   11  N   UNL     1     -10.871   9.162  71.714  1.00  0.00    -0.365 NA 
HETATM   12  H1  UNL     1     -10.814   8.913  72.701  1.00  0.00     0.000 HD 
HETATM   13  H2  UNL     1     -11.843   9.274  71.421  1.00  0.00     0.000 HD 
ENDBRANCH   7  10
BRANCH   8  14
HETATM   14  O   UNL     1      -9.694  10.859  67.234  1.00  0.00    -0.163 OA 
BRANCH  14  15
HETATM   15  C   UNL     1      -9.924  11.977  68.129  1.00  0.00    -0.203 C  
HETATM   16  C   UNL     1     -11.453  12.216  67.986  1.00  0.00    -0.319 C  
HETATM   17  N   UNL     1     -12.223  11.065  68.493  1.00  0.00    -0.781 NA 
HETATM   18  C   UNL     1     -12.013  13.436  68.690  1.00  0.00    -0.362 C  
HETATM   19  H2  UNL     1     -11.968  10.836  69.453  1.00  0.00     0.000 HD 
HETATM   20  H1  UNL     1     -13.227  11.222  68.399  1.00  0.00     0.000 HD 
HETATM   21  C   UNL     1     -11.241  14.712  68.395  1.00  0.00    -0.274 C  
HETATM   22  N   UNL     1     -11.968  15.761  69.130  1.00  0.00    -0.511 NA 
HETATM   23  C   UNL     1      -9.745  14.493  68.782  1.00  0.00    -0.210 C  
HETATM   24  C   UNL     1      -9.141  13.323  67.897  1.00  0.00    -0.203 C  
HETATM   25  O   UNL     1      -7.755  13.138  68.237  1.00  0.00    -0.125 OA 
HETATM   26  H2  UNL     1     -12.086  15.566  70.124  1.00  0.00     0.000 HD 
HETATM   27  H1  UNL     1     -11.450  16.617  68.933  1.00  0.00     0.000 HD 
HETATM   28  H   UNL     1      -7.282  13.951  68.097  1.00  0.00     0.000 HD 
BRANCH  23  29
HETATM   29  O   UNL     1      -8.951  15.720  68.713  1.00  0.00    -0.187 OA 
BRANCH  29  30
HETATM   30  C   UNL     1      -8.957  16.297  67.376  1.00  0.00    -0.187 C  
HETATM   31  O   UNL     1      -9.806  17.449  67.312  1.00  0.00    -0.264 OA 
HETATM   32  C   UNL     1      -9.276  18.543  68.081  1.00  0.00    -0.309 C  
HETATM   33  C   UNL     1      -7.992  19.042  67.417  1.00  0.00    -0.250 C  
HETATM   34  H   UNL     1      -5.809  15.700  66.558  1.00  0.00     0.000 HD 
HETATM   35  O   UNL     1      -7.457  20.178  68.099  1.00  0.00    -0.289 OA 
HETATM   36  C   UNL     1      -6.950  17.899  67.397  1.00  0.00    -0.186 C  
HETATM   37  H1  UNL     1      -5.047  17.586  66.663  1.00  0.00     0.000 HD 
HETATM   38  H2  UNL     1      -5.350  19.203  67.063  1.00  0.00     0.000 HD 
HETATM   39  C   UNL     1      -7.554  16.619  66.797  1.00  0.00    -0.257 C  
HETATM   40  N   UNL     1      -5.734  18.340  66.676  1.00  0.00    -0.138 NA 
HETATM   41  H   UNL     1      -6.660  20.489  67.686  1.00  0.00     0.000 HD 
HETATM   42  O   UNL     1      -6.668  15.503  66.912  1.00  0.00    -0.234 OA 
BRANCH  32  43
HETATM   43  C   UNL     1     -10.367  19.610  68.181  1.00  0.00    -0.438 C  
HETATM   44  O   UNL     1     -10.432  20.081  69.534  1.00  0.00    -0.597 OA 
HETATM   45  H   UNL     1     -11.110  20.743  69.596  1.00  0.00     0.000 HD 
ENDBRANCH  32  43
ENDBRANCH  29  30
ENDBRANCH  23  29
ENDBRANCH  14  15
ENDBRANCH   8  14
TORSDOF 6
ENDMDL
MODEL       48
REMARK 921   NORMALIZED FREE ENERGY PREDICTED BY IDOCK:   -6.34 KCAL/MOL
REMARK 922        TOTAL FREE ENERGY PREDICTED BY IDOCK:  -10.12 KCAL/MOL
REMARK 923 INTER-LIGAND FREE ENERGY PREDICTED BY IDOCK:   -8.61 KCAL/MOL
REMARK 924 INTRA-LIGAND FREE ENERGY PREDICTED BY IDOCK:   -1.51 KCAL/MOL
REMARK 927      BINDING AFFINITY PREDICTED BY RF-SCORE:    0.00 PKD
ROOT
HETATM    1  C   UNL     1     -10.559  14.563  69.269  1.00  0.00    -0.212 C  
HETATM    2  C   UNL     1     -11.606  15.629  68.927  1.00  0.00    -0.392 C  
HETATM    3  N   UNL     1     -11.166  13.710  70.315  1.00  0.00    -0.429 NA 
HETATM    4  H1  UNL     1     -10.470  13.002  70.542  1.00  0.00     0.000 HD 
HETATM    5  C   UNL     1     -11.283  16.399  67.667  1.00  0.00    -0.072 C  
HETATM    6  H2  UNL     1     -12.070  13.320  70.046  1.00  0.00     0.000 HD 
HETATM    7  C   UNL     1     -10.836  15.484  66.528  1.00  0.00    -0.284 C  
HETATM    8  C   UNL     1      -9.935  13.789  68.032  1.00  0.00    -0.246 C  
HETATM    9  O   UNL     1      -9.738  14.635  66.899  1.00  0.00    -0.228 OA 
ENDROOT
BRANCH   7  10
HETATM   10  C   UNL     1     -10.362  16.392  65.361  1.00  0.00    -0.262 C  
HETATM   11  N   UNL     1     -11.317  16.443  64.254  1.00  0.00    -1.293 NA 
HETATM   12  H1  UNL     1     -11.006  17.039  63.488  1.00  0.00     0.000 HD 
HETATM   13  H2  UNL     1     -12.241  16.725  64.583  1.00  0.00     0.000 HD 
ENDBRANCH   7  10
BRANCH   8  14
HETATM   14  O   UNL     1     -10.671  12.597  67.759  1.00  0.00    -0.213 OA 
BRANCH  14  15
HETATM   15  C   UNL     1     -10.024  11.299  67.741  1.00  0.00    -0.176 C  
HETATM   16  C   UNL     1     -10.125  10.890  66.245  1.00  0.00    -0.233 C  
HETATM   17  N   UNL     1      -9.340  11.800  65.389  1.00  0.00    -0.399 NA 
HETATM   18  C   UNL     1      -9.665   9.488  65.898  1.00  0.00    -0.352 C  
HETATM   19  H2  UNL     1      -8.370  11.860  65.696  1.00  0.00     0.000 HD 
HETATM   20  H1  UNL     1      -9.406  11.531  64.407  1.00  0.00     0.000 HD 
HETATM   21  C   UNL     1     -10.269   8.415  66.789  1.00  0.00    -0.306 C  
HETATM   22  N   UNL     1      -9.734   7.151  66.258  1.00  0.00    -0.409 NA 
HETATM   23  C   UNL     1      -9.933   8.751  68.276  1.00  0.00    -0.176 C  
HETATM   24  C   UNL     1     -10.582  10.147  68.657  1.00  0.00    -0.210 C  
HETATM   25  O   UNL     1     -10.291  10.445  70.035  1.00  0.00    -0.381 OA 
HETATM   26  H2  UNL     1      -8.716   7.121  66.202  1.00  0.00     0.000 HD 
HETATM   27  H1  UNL     1     -10.139   6.430  66.856  1.00  0.00     0.000 HD 
HETATM   28  H   UNL     1     -10.628   9.749  70.589  1.00  0.00     0.000 HD 
BRANCH  23  29
HETATM   29  O   UNL     1     -10.307   7.683  69.202  1.00  0.00    -0.206 OA 
BRANCH  29  30
HETATM   30  C   UNL     1      -9.218   7.339  70.105  1.00  0.00    -0.152 C  
HETATM   31  O   UNL     1      -9.580   7.581  71.470  1.00  0.00    -0.155 OA 
HETATM   32  C   UNL     1     -10.603   6.674  71.918  1.00  0.00    -0.211 C  
HETATM   33  C   UNL     1     -10.024   5.260  71.976  1.00  0.00    -0.187 C  
HETATM   34  H   UNL     1      -8.006   4.737  68.464  1.00  0.00     0.000 HD 
HETATM   35  O   UNL     1     -10.977   4.324  72.482  1.00  0.00    -0.066 OA 
HETATM   36  C   UNL     1      -9.570   4.836  70.558  1.00  0.00    -0.187 C  
HETATM   37  H1  UNL     1      -8.625   3.226  69.681  1.00  0.00     0.000 HD 
HETATM   38  H2  UNL     1      -9.526   2.805  71.051  1.00  0.00     0.000 HD 
HETATM   39  C   UNL     1      -8.656   5.904  69.936  1.00  0.00    -0.129 C  
HETATM   40  N   UNL     1      -8.925   3.505  70.615  1.00  0.00    -0.085 NA 
HETATM   41  H   UNL     1     -10.618   3.446  72.519  1.00  0.00     0.000 HD 
HETATM   42  O   UNL     1      -8.350   5.617  68.568  1.00  0.00    -0.105 OA 
BRANCH  32  43
HETATM   43  C   UNL     1     -11.113   7.182  73.267  1.00  0.00    -0.212 C  
HETATM   44  O   UNL     1     -12.141   8.156  73.037  1.00  0.00    -0.640 OA 
HETATM   45  H   UNL     1     -12.457   8.471  73.875  1.00  0.00     0.000 HD 
ENDBRANCH  32  43
ENDBRANCH  29  30
ENDBRANCH  23  29
ENDBRANCH  14  15
ENDBRANCH   8  14
TORSDOF 6
ENDMDL
MODEL       49
REMARK 921   NORMALIZED FREE ENERGY PREDICTED BY IDOCK:   -6.33 KCAL/MOL
REMARK 922        TOTAL FREE ENERGY PREDICTED BY IDOCK:  -10.10 KCAL/MOL
REMARK 923 INTER-LIGAND FREE ENERGY PREDICTED BY IDOCK:   -8.55 KCAL/MOL
REMARK 924 INTRA-LIGAND FREE ENERGY PREDICTED BY IDOCK:   -1.55 KCAL/MOL
REMARK 927      BINDING AFFINITY PREDICTED BY RF-SCORE:    0.00 PKD
ROOT
HETATM    1  C   UNL     1      -9.618  18.721  67.645  1.00  0.00    -0.307 C  
HETATM    2  C   UNL     1      -9.029  19.981  66.999  1.00  0.00    -0.445 C  
HETATM    3  N   UNL     1     -11.081  18.935  67.704  1.00  0.00    -0.215 NA 
HETATM    4  H1  UNL     1     -11.472  18.097  68.133  1.00  0.00     0.000 HD 
HETATM    5  C   UNL     1      -7.587  19.817  66.578  1.00  0.00    -0.295 C  
HETATM    6  H2  UNL     1     -11.495  19.159  66.799  1.00  0.00     0.000 HD 
HETATM    7  C   UNL     1      -7.343  18.495  65.853  1.00  0.00    -0.207 C  
HETATM    8  C   UNL     1      -9.153  17.342  67.012  1.00  0.00    -0.242 C  
HETATM    9  O   UNL     1      -7.782  17.357  66.612  1.00  0.00    -0.212 OA 
ENDROOT
BRANCH   7  10
HETATM   10  C   UNL     1      -5.811  18.358  65.635  1.00  0.00    -0.216 C  
HETATM   11  N   UNL     1      -5.283  17.073  66.093  1.00  0.00    -0.335 NA 
HETATM   12  H1  UNL     1      -4.277  16.984  65.949  1.00  0.00     0.000 HD 
HETATM   13  H2  UNL     1      -5.783  16.298  65.658  1.00  0.00     0.000 HD 
ENDBRANCH   7  10
BRANCH   8  14
HETATM   14  O   UNL     1     -10.061  16.922  65.993  1.00  0.00    -0.344 OA 
BRANCH  14  15
HETATM   15  C   UNL     1      -9.959  15.607  65.390  1.00  0.00    -0.276 C  
HETATM   16  C   UNL     1     -11.399  15.367  64.856  1.00  0.00    -0.363 C  
HETATM   17  N   UNL     1     -11.740  16.328  63.790  1.00  0.00    -1.488 NA 
HETATM   18  C   UNL     1     -11.685  13.992  64.286  1.00  0.00    -0.388 C  
HETATM   19  H2  UNL     1     -11.053  16.312  63.037  1.00  0.00     0.000 HD 
HETATM   20  H1  UNL     1     -12.685  16.170  63.439  1.00  0.00     0.000 HD 
HETATM   21  C   UNL     1     -11.257  12.856  65.201  1.00  0.00    -0.288 C  
HETATM   22  N   UNL     1     -11.661  11.634  64.487  1.00  0.00    -0.214 NA 
HETATM   23  C   UNL     1      -9.736  13.014  65.518  1.00  0.00    -0.052 C  
HETATM   24  C   UNL     1      -9.498  14.389  66.274  1.00  0.00    -0.271 C  
HETATM   25  O   UNL     1      -8.100  14.522  66.586  1.00  0.00    -0.354 OA 
HETATM   26  H2  UNL     1     -11.292  11.566  63.538  1.00  0.00     0.000 HD 
HETATM   27  H1  UNL     1     -11.373  10.872  65.101  1.00  0.00     0.000 HD 
HETATM   28  H   UNL     1      -7.822  13.786  67.120  1.00  0.00     0.000 HD 
BRANCH  23  29
HETATM   29  O   UNL     1      -9.180  11.870  66.239  1.00  0.00    -0.219 OA 
BRANCH  29  30
HETATM   30  C   UNL     1      -9.875  11.630  67.496  1.00  0.00    -0.188 C  
HETATM   31  O   UNL     1     -10.670  10.440  67.430  1.00  0.00    -0.250 OA 
HETATM   32  C   UNL     1      -9.853   9.259  67.339  1.00  0.00    -0.178 C  
HETATM   33  C   UNL     1      -9.094   9.076  68.653  1.00  0.00    -0.137 C  
HETATM   34  H   UNL     1      -7.557  12.746  69.573  1.00  0.00     0.000 HD 
HETATM   35  O   UNL     1      -8.317   7.877  68.648  1.00  0.00    -0.126 OA 
HETATM   36  C   UNL     1      -8.175  10.299  68.886  1.00  0.00    -0.130 C  
HETATM   37  H1  UNL     1      -6.896  10.985  70.353  1.00  0.00     0.000 HD 
HETATM   38  H2  UNL     1      -6.997   9.296  70.292  1.00  0.00     0.000 HD 
HETATM   39  C   UNL     1      -8.966  11.610  68.753  1.00  0.00    -0.009 C  
HETATM   40  N   UNL     1      -7.501  10.178  70.199  1.00  0.00    -0.168 NA 
HETATM   41  H   UNL     1      -7.846   7.763  69.464  1.00  0.00     0.000 HD 
HETATM   42  O   UNL     1      -8.114  12.758  68.804  1.00  0.00    -0.050 OA 
BRANCH  32  43
HETATM   43  C   UNL     1     -10.772   8.086  66.996  1.00  0.00    -0.193 C  
HETATM   44  O   UNL     1      -9.998   7.064  66.352  1.00  0.00    -0.397 OA 
HETATM   45  H   UNL     1     -10.569   6.336  66.139  1.00  0.00     0.000 HD 
ENDBRANCH  32  43
ENDBRANCH  29  30
ENDBRANCH  23  29
ENDBRANCH  14  15
ENDBRANCH   8  14
TORSDOF 6
ENDMDL
MODEL       50
REMARK 921   NORMALIZED FREE ENERGY PREDICTED BY IDOCK:   -6.32 KCAL/MOL
REMARK 922        TOTAL FREE ENERGY PREDICTED BY IDOCK:  -10.09 KCAL/MOL
REMARK 923 INTER-LIGAND FREE ENERGY PREDICTED BY IDOCK:   -8.51 KCAL/MOL
REMARK 924 INTRA-LIGAND FREE ENERGY PREDICTED BY IDOCK:   -1.58 KCAL/MOL
REMARK 927      BINDING AFFINITY PREDICTED BY RF-SCORE:    0.00 PKD
ROOT
HETATM    1  C   UNL     1     -10.578  15.088  69.703  1.00  0.00    -0.238 C  
HETATM    2  C   UNL     1     -11.512  16.261  69.383  1.00  0.00    -0.238 C  
HETATM    3  N   UNL     1     -11.412  14.070  70.379  1.00  0.00    -0.501 NA 
HETATM    4  H1  UNL     1     -10.791  13.291  70.593  1.00  0.00     0.000 HD 
HETATM    5  C   UNL     1     -10.907  17.259  68.422  1.00  0.00    -0.273 C  
HETATM    6  H2  UNL     1     -12.236  13.798  69.842  1.00  0.00     0.000 HD 
HETATM    7  C   UNL     1     -10.224  16.580  67.236  1.00  0.00    -0.287 C  
HETATM    8  C   UNL     1      -9.700  14.557  68.493  1.00  0.00    -0.224 C  
HETATM    9  O   UNL     1      -9.245  15.610  67.642  1.00  0.00    -0.192 OA 
ENDROOT
BRANCH   7  10
HETATM   10  C   UNL     1      -9.491  17.684  66.426  1.00  0.00    -0.259 C  
HETATM   11  N   UNL     1     -10.410  18.626  65.786  1.00  0.00    -0.592 NA 
HETATM   12  H1  UNL     1      -9.928  19.351  65.254  1.00  0.00     0.000 HD 
HETATM   13  H2  UNL     1     -11.046  19.036  66.470  1.00  0.00     0.000 HD 
ENDBRANCH   7  10
BRANCH   8  14
HETATM   14  O   UNL     1     -10.367  13.493  67.812  1.00  0.00    -0.234 OA 
BRANCH  14  15
HETATM   15  C   UNL     1      -9.626  12.393  67.227  1.00  0.00    -0.199 C  
HETATM   16  C   UNL     1     -10.148  12.372  65.764  1.00  0.00    -0.253 C  
HETATM   17  N   UNL     1      -9.771  13.604  65.045  1.00  0.00    -0.576 NA 
HETATM   18  C   UNL     1      -9.678  11.221  64.897  1.00  0.00    -0.297 C  
HETATM   19  H2  UNL     1      -8.765  13.766  65.082  1.00  0.00     0.000 HD 
HETATM   20  H1  UNL     1     -10.114  13.590  64.084  1.00  0.00     0.000 HD 
HETATM   21  C   UNL     1      -9.857   9.860  65.548  1.00  0.00    -0.311 C  
HETATM   22  N   UNL     1      -9.386   8.901  64.535  1.00  0.00    -0.271 NA 
HETATM   23  C   UNL     1      -9.108   9.858  66.918  1.00  0.00    -0.142 C  
HETATM   24  C   UNL     1      -9.745  10.959  67.866  1.00  0.00    -0.165 C  
HETATM   25  O   UNL     1      -9.070  10.940  69.136  1.00  0.00    -0.317 OA 
HETATM   26  H2  UNL     1      -8.440   9.081  64.200  1.00  0.00     0.000 HD 
HETATM   27  H1  UNL     1      -9.506   7.987  64.972  1.00  0.00     0.000 HD 
HETATM   28  H   UNL     1      -9.142  10.074  69.522  1.00  0.00     0.000 HD 
BRANCH  23  29
HETATM   29  O   UNL     1      -9.059   8.536  67.542  1.00  0.00    -0.133 OA 
BRANCH  29  30
HETATM   30  C   UNL     1     -10.391   7.986  67.755  1.00  0.00    -0.231 C  
HETATM   31  O   UNL     1     -10.679   6.944  66.814  1.00  0.00    -0.297 OA 
HETATM   32  C   UNL     1      -9.863   5.782  67.042  1.00  0.00    -0.151 C  
HETATM   33  C   UNL     1     -10.264   5.145  68.373  1.00  0.00    -0.105 C  
HETATM   34  H   UNL     1     -10.509   8.219  71.051  1.00  0.00     0.000 HD 
HETATM   35  O   UNL     1      -9.534   3.942  68.620  1.00  0.00    -0.156 OA 
HETATM   36  C   UNL     1     -10.018   6.157  69.518  1.00  0.00    -0.166 C  
HETATM   37  H1  UNL     1     -10.325   6.254  71.556  1.00  0.00     0.000 HD 
HETATM   38  H2  UNL     1     -10.065   4.678  70.995  1.00  0.00     0.000 HD 
HETATM   39  C   UNL     1     -10.677   7.509  69.203  1.00  0.00    -0.151 C  
HETATM   40  N   UNL     1     -10.488   5.587  70.802  1.00  0.00    -0.256 NA 
HETATM   41  H   UNL     1      -9.784   3.546  69.447  1.00  0.00     0.000 HD 
HETATM   42  O   UNL     1     -10.334   8.511  70.164  1.00  0.00    -0.198 OA 
BRANCH  32  43
HETATM   43  C   UNL     1     -10.038   4.851  65.842  1.00  0.00    -0.211 C  
HETATM   44  O   UNL     1     -11.395   4.937  65.384  1.00  0.00    -0.881 OA 
HETATM   45  H   UNL     1     -11.504   4.358  64.638  1.00  0.00     0.000 HD 
ENDBRANCH  32  43
ENDBRANCH  29  30
ENDBRANCH  23  29
ENDBRANCH  14  15
ENDBRANCH   8  14
TORSDOF 6
ENDMDL
MODEL       51
REMARK 921   NORMALIZED FREE ENERGY PREDICTED BY IDOCK:   -6.31 KCAL/MOL
REMARK 922        TOTAL FREE ENERGY PREDICTED BY IDOCK:  -10.08 KCAL/MOL
REMARK 923 INTER-LIGAND FREE ENERGY PREDICTED BY IDOCK:  -10.23 KCAL/MOL
REMARK 924 INTRA-LIGAND FREE ENERGY PREDICTED BY IDOCK:    0.15 KCAL/MOL
REMARK 927      BINDING AFFINITY PREDICTED BY RF-SCORE:    0.00 PKD
ROOT
HETATM    1  C   UNL     1     -10.750  10.781  64.941  1.00  0.00    -0.096 C  
HETATM    2  C   UNL     1     -10.473  11.479  63.605  1.00  0.00    -0.483 C  
HETATM    3  N   UNL     1      -9.743   9.703  65.059  1.00  0.00    -0.436 NA 
HETATM    4  H1  UNL     1      -9.927   9.239  65.948  1.00  0.00     0.000 HD 
HETATM    5  C   UNL     1     -11.204  12.794  63.456  1.00  0.00    -0.429 C  
HETATM    6  H2  UNL     1      -8.782  10.033  64.965  1.00  0.00     0.000 HD 
HETATM    7  C   UNL     1     -11.106  13.655  64.715  1.00  0.00    -0.370 C  
HETATM    8  C   UNL     1     -10.881  11.735  66.202  1.00  0.00    -0.291 C  
HETATM    9  O   UNL     1     -11.544  12.962  65.895  1.00  0.00    -0.339 OA 
ENDROOT
BRANCH   7  10
HETATM   10  C   UNL     1     -12.036  14.882  64.513  1.00  0.00    -0.410 C  
HETATM   11  N   UNL     1     -11.301  16.109  64.205  1.00  0.00    -1.238 NA 
HETATM   12  H1  UNL     1     -11.912  16.915  64.072  1.00  0.00     0.000 HD 
HETATM   13  H2  UNL     1     -10.691  15.976  63.398  1.00  0.00     0.000 HD 
ENDBRANCH   7  10
BRANCH   8  14
HETATM   14  O   UNL     1      -9.618  11.892  66.850  1.00  0.00    -0.193 OA 
BRANCH  14  15
HETATM   15  C   UNL     1      -9.391  12.957  67.809  1.00  0.00    -0.203 C  
HETATM   16  C   UNL     1     -10.832  13.312  68.269  1.00  0.00    -0.256 C  
HETATM   17  N   UNL     1     -11.457  12.183  68.985  1.00  0.00    -0.274 NA 
HETATM   18  C   UNL     1     -10.971  14.514  69.181  1.00  0.00    -0.286 C  
HETATM   19  H2  UNL     1     -10.881  11.870  69.766  1.00  0.00     0.000 HD 
HETATM   20  H1  UNL     1     -12.403  12.417  69.288  1.00  0.00     0.000 HD 
HETATM   21  C   UNL     1     -10.253  15.751  68.666  1.00  0.00    -0.221 C  
HETATM   22  N   UNL     1     -10.551  16.792  69.663  1.00  0.00    -0.297 NA 
HETATM   23  C   UNL     1      -8.749  15.401  68.444  1.00  0.00    -0.171 C  
HETATM   24  C   UNL     1      -8.633  14.257  67.350  1.00  0.00    -0.213 C  
HETATM   25  O   UNL     1      -7.244  13.952  67.128  1.00  0.00    -0.320 OA 
HETATM   26  H2  UNL     1     -10.303  16.536  70.619  1.00  0.00     0.000 HD 
HETATM   27  H1  UNL     1     -10.069  17.623  69.317  1.00  0.00     0.000 HD 
HETATM   28  H   UNL     1      -6.786  14.738  66.851  1.00  0.00     0.000 HD 
BRANCH  23  29
HETATM   29  O   UNL     1      -7.930  16.570  68.126  1.00  0.00    -0.155 OA 
BRANCH  29  30
HETATM   30  C   UNL     1      -7.956  16.882  66.704  1.00  0.00    -0.265 C  
HETATM   31  O   UNL     1      -9.141  17.607  66.354  1.00  0.00    -0.290 OA 
HETATM   32  C   UNL     1      -9.145  18.928  66.924  1.00  0.00    -0.300 C  
HETATM   33  C   UNL     1      -8.044  19.758  66.265  1.00  0.00    -0.338 C  
HETATM   34  H   UNL     1      -4.721  17.384  66.240  1.00  0.00     0.000 HD 
HETATM   35  O   UNL     1      -8.045  21.105  66.742  1.00  0.00    -0.479 OA 
HETATM   36  C   UNL     1      -6.671  19.100  66.545  1.00  0.00    -0.192 C  
HETATM   37  H1  UNL     1      -4.700  19.409  66.020  1.00  0.00     0.000 HD 
HETATM   38  H2  UNL     1      -5.608  20.836  66.069  1.00  0.00     0.000 HD 
HETATM   39  C   UNL     1      -6.694  17.609  66.171  1.00  0.00    -0.285 C  
HETATM   40  N   UNL     1      -5.604  19.843  65.836  1.00  0.00    -0.169 NA 
HETATM   41  H   UNL     1      -7.361  21.621  66.332  1.00  0.00     0.000 HD 
HETATM   42  O   UNL     1      -5.494  16.939  66.566  1.00  0.00    -0.321 OA 
BRANCH  32  43
HETATM   43  C   UNL     1     -10.546  19.510  66.734  1.00  0.00    -0.488 C  
HETATM   44  O   UNL     1     -10.867  19.497  65.336  1.00  0.00    -0.419 OA 
HETATM   45  H   UNL     1     -11.738  19.859  65.218  1.00  0.00     0.000 HD 
ENDBRANCH  32  43
ENDBRANCH  29  30
ENDBRANCH  23  29
ENDBRANCH  14  15
ENDBRANCH   8  14
TORSDOF 6
ENDMDL
MODEL       52
REMARK 921   NORMALIZED FREE ENERGY PREDICTED BY IDOCK:   -6.30 KCAL/MOL
REMARK 922        TOTAL FREE ENERGY PREDICTED BY IDOCK:  -10.07 KCAL/MOL
REMARK 923 INTER-LIGAND FREE ENERGY PREDICTED BY IDOCK:   -8.97 KCAL/MOL
REMARK 924 INTRA-LIGAND FREE ENERGY PREDICTED BY IDOCK:   -1.10 KCAL/MOL
REMARK 927      BINDING AFFINITY PREDICTED BY RF-SCORE:    0.00 PKD
ROOT
HETATM    1  C   UNL     1      -9.009   5.757  66.955  1.00  0.00    -0.114 C  
HETATM    2  C   UNL     1      -9.844   4.488  67.166  1.00  0.00    -0.225 C  
HETATM    3  N   UNL     1      -9.379   6.274  65.619  1.00  0.00    -0.376 NA 
HETATM    4  H1  UNL     1      -8.824   7.118  65.478  1.00  0.00     0.000 HD 
HETATM    5  C   UNL     1      -9.827   3.995  68.595  1.00  0.00    -0.046 C  
HETATM    6  H2  UNL     1     -10.382   6.425  65.506  1.00  0.00     0.000 HD 
HETATM    7  C   UNL     1     -10.029   5.127  69.601  1.00  0.00    -0.243 C  
HETATM    8  C   UNL     1      -9.055   6.816  68.136  1.00  0.00    -0.123 C  
HETATM    9  O   UNL     1      -9.090   6.199  69.423  1.00  0.00    -0.133 OA 
ENDROOT
BRANCH   7  10
HETATM   10  C   UNL     1      -9.811   4.534  71.019  1.00  0.00    -0.196 C  
HETATM   11  N   UNL     1      -9.662   5.562  72.050  1.00  0.00    -0.158 NA 
HETATM   12  H1  UNL     1      -9.519   5.172  72.981  1.00  0.00     0.000 HD 
HETATM   13  H2  UNL     1     -10.453   6.205  72.041  1.00  0.00     0.000 HD 
ENDBRANCH   7  10
BRANCH   8  14
HETATM   14  O   UNL     1     -10.086   7.778  67.912  1.00  0.00    -0.168 OA 
BRANCH  14  15
HETATM   15  C   UNL     1      -9.933   9.157  68.333  1.00  0.00    -0.181 C  
HETATM   16  C   UNL     1     -10.958   9.273  69.495  1.00  0.00    -0.151 C  
HETATM   17  N   UNL     1     -10.579   8.409  70.630  1.00  0.00    -0.204 NA 
HETATM   18  C   UNL     1     -11.165  10.658  70.075  1.00  0.00    -0.382 C  
HETATM   19  H2  UNL     1      -9.629   8.602  70.947  1.00  0.00     0.000 HD 
HETATM   20  H1  UNL     1     -11.252   8.486  71.392  1.00  0.00     0.000 HD 
HETATM   21  C   UNL     1     -11.426  11.722  69.022  1.00  0.00    -0.297 C  
HETATM   22  N   UNL     1     -11.639  12.959  69.792  1.00  0.00    -0.477 NA 
HETATM   23  C   UNL     1     -10.241  11.724  68.006  1.00  0.00    -0.193 C  
HETATM   24  C   UNL     1     -10.165  10.311  67.288  1.00  0.00    -0.218 C  
HETATM   25  O   UNL     1      -9.088  10.321  66.334  1.00  0.00    -0.149 OA 
HETATM   26  H2  UNL     1     -10.879  13.186  70.433  1.00  0.00     0.000 HD 
HETATM   27  H1  UNL     1     -11.815  13.673  69.085  1.00  0.00     0.000 HD 
HETATM   28  H   UNL     1      -9.228  11.018  65.703  1.00  0.00     0.000 HD 
BRANCH  23  29
HETATM   29  O   UNL     1     -10.301  12.836  67.058  1.00  0.00    -0.232 OA 
BRANCH  29  30
HETATM   30  C   UNL     1     -11.651  13.368  66.929  1.00  0.00    -0.365 C  
HETATM   31  O   UNL     1     -11.683  14.773  67.209  1.00  0.00    -0.379 OA 
HETATM   32  C   UNL     1     -10.992  15.532  66.202  1.00  0.00    -0.247 C  
HETATM   33  C   UNL     1     -11.768  15.440  64.888  1.00  0.00    -0.174 C  
HETATM   34  H   UNL     1     -12.693  11.490  64.415  1.00  0.00     0.000 HD 
HETATM   35  O   UNL     1     -11.165  16.235  63.866  1.00  0.00    -1.264 OA 
HETATM   36  C   UNL     1     -11.834  13.961  64.437  1.00  0.00    -0.429 C  
HETATM   37  H1  UNL     1     -12.704  12.870  62.917  1.00  0.00     0.000 HD 
HETATM   38  H2  UNL     1     -12.331  14.459  62.469  1.00  0.00     0.000 HD 
HETATM   39  C   UNL     1     -12.346  13.065  65.576  1.00  0.00    -0.472 C  
HETATM   40  N   UNL     1     -12.661  13.845  63.214  1.00  0.00    -0.697 NA 
HETATM   41  H   UNL     1     -11.647  16.178  63.050  1.00  0.00     0.000 HD 
HETATM   42  O   UNL     1     -12.267  11.676  65.244  1.00  0.00    -0.130 OA 
BRANCH  32  43
HETATM   43  C   UNL     1     -10.840  16.962  66.724  1.00  0.00     0.001 C  
HETATM   44  O   UNL     1      -9.992  17.694  65.827  1.00  0.00    -0.544 OA 
HETATM   45  H   UNL     1      -9.898  18.582  66.151  1.00  0.00     0.000 HD 
ENDBRANCH  32  43
ENDBRANCH  29  30
ENDBRANCH  23  29
ENDBRANCH  14  15
ENDBRANCH   8  14
TORSDOF 6
ENDMDL
MODEL       53
REMARK 921   NORMALIZED FREE ENERGY PREDICTED BY IDOCK:   -6.30 KCAL/MOL
REMARK 922        TOTAL FREE ENERGY PREDICTED BY IDOCK:  -10.06 KCAL/MOL
REMARK 923 INTER-LIGAND FREE ENERGY PREDICTED BY IDOCK:   -9.32 KCAL/MOL
REMARK 924 INTRA-LIGAND FREE ENERGY PREDICTED BY IDOCK:   -0.74 KCAL/MOL
REMARK 927      BINDING AFFINITY PREDICTED BY RF-SCORE:    0.00 PKD
ROOT
HETATM    1  C   UNL     1     -10.471   6.827  70.126  1.00  0.00    -0.209 C  
HETATM    2  C   UNL     1     -10.332   6.564  71.630  1.00  0.00    -0.232 C  
HETATM    3  N   UNL     1     -11.909   6.674  69.813  1.00  0.00    -0.654 NA 
HETATM    4  H1  UNL     1     -12.002   6.849  68.813  1.00  0.00     0.000 HD 
HETATM    5  C   UNL     1      -8.987   6.975  72.184  1.00  0.00    -0.140 C  
HETATM    6  H2  UNL     1     -12.514   7.263  70.386  1.00  0.00     0.000 HD 
HETATM    7  C   UNL     1      -8.551   8.351  71.684  1.00  0.00    -0.170 C  
HETATM    8  C   UNL     1      -9.795   8.161  69.595  1.00  0.00    -0.184 C  
HETATM    9  O   UNL     1      -8.558   8.447  70.250  1.00  0.00    -0.121 OA 
ENDROOT
BRANCH   7  10
HETATM   10  C   UNL     1      -7.093   8.582  72.167  1.00  0.00    -0.078 C  
HETATM   11  N   UNL     1      -6.976   8.620  73.625  1.00  0.00    -0.328 NA 
HETATM   12  H1  UNL     1      -6.018   8.771  73.942  1.00  0.00     0.000 HD 
HETATM   13  H2  UNL     1      -7.370   7.777  74.044  1.00  0.00     0.000 HD 
ENDBRANCH   7  10
BRANCH   8  14
HETATM   14  O   UNL     1     -10.730   9.240  69.600  1.00  0.00    -0.226 OA 
BRANCH  14  15
HETATM   15  C   UNL     1     -10.897  10.097  68.442  1.00  0.00    -0.242 C  
HETATM   16  C   UNL     1     -10.202   9.284  67.315  1.00  0.00    -0.252 C  
HETATM   17  N   UNL     1     -10.916   8.021  67.049  1.00  0.00    -0.385 NA 
HETATM   18  C   UNL     1     -10.063   9.976  65.973  1.00  0.00    -0.318 C  
HETATM   19  H2  UNL     1     -11.901   8.183  66.842  1.00  0.00     0.000 HD 
HETATM   20  H1  UNL     1     -10.459   7.487  66.309  1.00  0.00     0.000 HD 
HETATM   21  C   UNL     1      -9.470  11.372  66.071  1.00  0.00    -0.223 C  
HETATM   22  N   UNL     1      -9.384  11.834  64.676  1.00  0.00    -0.427 NA 
HETATM   23  C   UNL     1     -10.350  12.223  67.039  1.00  0.00    -0.219 C  
HETATM   24  C   UNL     1     -10.329  11.564  68.482  1.00  0.00    -0.210 C  
HETATM   25  O   UNL     1     -11.121  12.363  69.380  1.00  0.00    -0.404 OA 
HETATM   26  H2  UNL     1     -10.268  11.792  64.168  1.00  0.00     0.000 HD 
HETATM   27  H1  UNL     1      -8.987  12.772  64.741  1.00  0.00     0.000 HD 
HETATM   28  H   UNL     1     -10.778  13.249  69.404  1.00  0.00     0.000 HD 
BRANCH  23  29
HETATM   29  O   UNL     1      -9.976  13.637  67.059  1.00  0.00    -0.239 OA 
BRANCH  29  30
HETATM   30  C   UNL     1     -11.116  14.505  66.800  1.00  0.00    -0.325 C  
HETATM   31  O   UNL     1     -11.759  14.895  68.020  1.00  0.00    -0.333 OA 
HETATM   32  C   UNL     1     -10.925  15.765  68.805  1.00  0.00    -0.291 C  
HETATM   33  C   UNL     1     -10.768  17.099  68.074  1.00  0.00    -0.372 C  
HETATM   34  H   UNL     1      -9.915  16.149  64.195  1.00  0.00     0.000 HD 
HETATM   35  O   UNL     1     -10.005  18.031  68.842  1.00  0.00    -0.370 OA 
HETATM   36  C   UNL     1     -10.083  16.854  66.708  1.00  0.00    -0.294 C  
HETATM   37  H1  UNL     1      -9.555  17.962  65.049  1.00  0.00     0.000 HD 
HETATM   38  H2  UNL     1      -9.547  18.862  66.483  1.00  0.00     0.000 HD 
HETATM   39  C   UNL     1     -10.807  15.747  65.924  1.00  0.00    -0.268 C  
HETATM   40  N   UNL     1     -10.007  18.124  65.950  1.00  0.00    -0.564 NA 
HETATM   41  H   UNL     1      -9.908  18.860  68.388  1.00  0.00     0.000 HD 
HETATM   42  O   UNL     1     -10.105  15.388  64.731  1.00  0.00    -0.268 OA 
BRANCH  32  43
HETATM   43  C   UNL     1     -11.567  15.898  70.187  1.00  0.00    -0.351 C  
HETATM   44  O   UNL     1     -12.970  15.622  70.074  1.00  0.00    -0.624 OA 
HETATM   45  H   UNL     1     -13.368  15.704  70.932  1.00  0.00     0.000 HD 
ENDBRANCH  32  43
ENDBRANCH  29  30
ENDBRANCH  23  29
ENDBRANCH  14  15
ENDBRANCH   8  14
TORSDOF 6
ENDMDL
MODEL       54
REMARK 921   NORMALIZED FREE ENERGY PREDICTED BY IDOCK:   -6.29 KCAL/MOL
REMARK 922        TOTAL FREE ENERGY PREDICTED BY IDOCK:  -10.05 KCAL/MOL
REMARK 923 INTER-LIGAND FREE ENERGY PREDICTED BY IDOCK:   -9.05 KCAL/MOL
REMARK 924 INTRA-LIGAND FREE ENERGY PREDICTED BY IDOCK:   -1.00 KCAL/MOL
REMARK 927      BINDING AFFINITY PREDICTED BY RF-SCORE:    0.00 PKD
ROOT
HETATM    1  C   UNL     1      -9.923   8.800  66.378  1.00  0.00    -0.275 C  
HETATM    2  C   UNL     1      -8.879   8.955  65.266  1.00  0.00    -0.227 C  
HETATM    3  N   UNL     1      -9.315   7.908  67.391  1.00  0.00    -0.139 NA 
HETATM    4  H1  UNL     1     -10.009   7.805  68.130  1.00  0.00     0.000 HD 
HETATM    5  C   UNL     1      -9.201  10.071  64.298  1.00  0.00    -0.318 C  
HETATM    6  H2  UNL     1      -8.409   8.234  67.727  1.00  0.00     0.000 HD 
HETATM    7  C   UNL     1      -9.638  11.348  65.013  1.00  0.00    -0.221 C  
HETATM    8  C   UNL     1     -10.537  10.152  66.939  1.00  0.00    -0.200 C  
HETATM    9  O   UNL     1     -10.734  11.130  65.916  1.00  0.00    -0.254 OA 
ENDROOT
BRANCH   7  10
HETATM   10  C   UNL     1     -10.112  12.351  63.926  1.00  0.00    -0.322 C  
HETATM   11  N   UNL     1     -10.041  13.745  64.366  1.00  0.00    -0.752 NA 
HETATM   12  H1  UNL     1     -10.352  14.403  63.652  1.00  0.00     0.000 HD 
HETATM   13  H2  UNL     1      -9.102  13.976  64.692  1.00  0.00     0.000 HD 
ENDBRANCH   7  10
BRANCH   8  14
HETATM   14  O   UNL     1      -9.794  10.616  68.066  1.00  0.00    -0.156 OA 
BRANCH  14  15
HETATM   15  C   UNL     1     -10.109  11.878  68.707  1.00  0.00    -0.120 C  
HETATM   16  C   UNL     1     -11.636  12.014  68.458  1.00  0.00    -0.309 C  
HETATM   17  N   UNL     1     -12.388  10.953  69.155  1.00  0.00    -0.693 NA 
HETATM   18  C   UNL     1     -12.274  13.323  68.879  1.00  0.00    -0.133 C  
HETATM   19  H2  UNL     1     -12.171  10.932  70.151  1.00  0.00     0.000 HD 
HETATM   20  H1  UNL     1     -13.391  11.042  68.991  1.00  0.00     0.000 HD 
HETATM   21  C   UNL     1     -11.536  14.549  68.365  1.00  0.00    -0.326 C  
HETATM   22  N   UNL     1     -12.336  15.688  68.843  1.00  0.00    -0.559 NA 
HETATM   23  C   UNL     1     -10.053  14.480  68.847  1.00  0.00    -0.224 C  
HETATM   24  C   UNL     1      -9.365  13.185  68.241  1.00  0.00    -0.201 C  
HETATM   25  O   UNL     1      -7.991  13.135  68.667  1.00  0.00    -0.243 OA 
HETATM   26  H2  UNL     1     -12.495  15.691  69.851  1.00  0.00     0.000 HD 
HETATM   27  H1  UNL     1     -11.841  16.511  68.499  1.00  0.00     0.000 HD 
HETATM   28  H   UNL     1      -7.542  13.924  68.386  1.00  0.00     0.000 HD 
BRANCH  23  29
HETATM   29  O   UNL     1      -9.302  15.702  68.565  1.00  0.00    -0.187 OA 
BRANCH  29  30
HETATM   30  C   UNL     1      -9.215  15.969  67.136  1.00  0.00    -0.207 C  
HETATM   31  O   UNL     1     -10.122  17.008  66.747  1.00  0.00    -0.280 OA 
HETATM   32  C   UNL     1      -9.735  18.283  67.288  1.00  0.00    -0.297 C  
HETATM   33  C   UNL     1      -8.426  18.725  66.633  1.00  0.00    -0.294 C  
HETATM   34  H   UNL     1      -5.974  15.461  66.727  1.00  0.00     0.000 HD 
HETATM   35  O   UNL     1      -8.028  20.022  67.081  1.00  0.00    -0.290 OA 
HETATM   36  C   UNL     1      -7.320  17.692  66.955  1.00  0.00    -0.201 C  
HETATM   37  H1  UNL     1      -5.340  17.379  66.464  1.00  0.00     0.000 HD 
HETATM   38  H2  UNL     1      -5.777  19.015  66.463  1.00  0.00     0.000 HD 
HETATM   39  C   UNL     1      -7.786  16.268  66.613  1.00  0.00    -0.275 C  
HETATM   40  N   UNL     1      -6.070  18.060  66.251  1.00  0.00    -0.179 NA 
HETATM   41  H   UNL     1      -7.215  20.297  66.674  1.00  0.00     0.000 HD 
HETATM   42  O   UNL     1      -6.850  15.279  67.047  1.00  0.00    -0.242 OA 
BRANCH  32  43
HETATM   43  C   UNL     1     -10.893  19.255  67.057  1.00  0.00    -0.414 C  
HETATM   44  O   UNL     1     -10.768  19.820  65.744  1.00  0.00    -0.512 OA 
HETATM   45  H   UNL     1     -11.488  20.424  65.601  1.00  0.00     0.000 HD 
ENDBRANCH  32  43
ENDBRANCH  29  30
ENDBRANCH  23  29
ENDBRANCH  14  15
ENDBRANCH   8  14
TORSDOF 6
ENDMDL
MODEL       55
REMARK 921   NORMALIZED FREE ENERGY PREDICTED BY IDOCK:   -6.28 KCAL/MOL
REMARK 922        TOTAL FREE ENERGY PREDICTED BY IDOCK:  -10.04 KCAL/MOL
REMARK 923 INTER-LIGAND FREE ENERGY PREDICTED BY IDOCK:   -8.53 KCAL/MOL
REMARK 924 INTRA-LIGAND FREE ENERGY PREDICTED BY IDOCK:   -1.51 KCAL/MOL
REMARK 927      BINDING AFFINITY PREDICTED BY RF-SCORE:    0.00 PKD
ROOT
HETATM    1  C   UNL     1      -9.757  14.453  67.794  1.00  0.00    -0.221 C  
HETATM    2  C   UNL     1     -10.537  15.468  66.949  1.00  0.00    -0.307 C  
HETATM    3  N   UNL     1      -9.332  15.174  69.014  1.00  0.00    -0.210 NA 
HETATM    4  H1  UNL     1      -8.813  14.499  69.575  1.00  0.00     0.000 HD 
HETATM    5  C   UNL     1     -11.307  14.833  65.815  1.00  0.00    -0.336 C  
HETATM    6  H2  UNL     1     -10.104  15.611  69.517  1.00  0.00     0.000 HD 
HETATM    7  C   UNL     1     -12.063  13.581  66.258  1.00  0.00    -0.428 C  
HETATM    8  C   UNL     1     -10.479  13.061  68.038  1.00  0.00    -0.228 C  
HETATM    9  O   UNL     1     -11.210  12.616  66.895  1.00  0.00    -0.272 OA 
ENDROOT
BRANCH   7  10
HETATM   10  C   UNL     1     -12.659  12.921  64.985  1.00  0.00    -0.472 C  
HETATM   11  N   UNL     1     -12.386  13.685  63.767  1.00  0.00    -0.793 NA 
HETATM   12  H1  UNL     1     -12.777  13.251  62.931  1.00  0.00     0.000 HD 
HETATM   13  H2  UNL     1     -11.386  13.851  63.657  1.00  0.00     0.000 HD 
ENDBRANCH   7  10
BRANCH   8  14
HETATM   14  O   UNL     1     -11.233  13.089  69.249  1.00  0.00    -0.250 OA 
BRANCH  14  15
HETATM   15  C   UNL     1     -12.023  11.948  69.670  1.00  0.00    -0.298 C  
HETATM   16  C   UNL     1     -12.477  12.357  71.098  1.00  0.00    -0.222 C  
HETATM   17  N   UNL     1     -13.367  13.533  71.059  1.00  0.00    -0.079 NA 
HETATM   18  C   UNL     1     -13.214  11.302  71.900  1.00  0.00    -0.491 C  
HETATM   19  H2  UNL     1     -14.164  13.380  70.442  1.00  0.00     0.000 HD 
HETATM   20  H1  UNL     1     -13.665  13.802  71.997  1.00  0.00     0.000 HD 
HETATM   21  C   UNL     1     -12.504   9.958  71.928  1.00  0.00    -0.347 C  
HETATM   22  N   UNL     1     -13.353   9.111  72.781  1.00  0.00    -0.722 NA 
HETATM   23  C   UNL     1     -12.283   9.478  70.459  1.00  0.00    -0.034 C  
HETATM   24  C   UNL     1     -11.359  10.521  69.700  1.00  0.00    -0.281 C  
HETATM   25  O   UNL     1     -11.136  10.064  68.354  1.00  0.00    -0.373 OA 
HETATM   26  H2  UNL     1     -14.327   9.061  72.480  1.00  0.00     0.000 HD 
HETATM   27  H1  UNL     1     -12.877   8.208  72.800  1.00  0.00     0.000 HD 
HETATM   28  H   UNL     1     -10.735   9.203  68.372  1.00  0.00     0.000 HD 
BRANCH  23  29
HETATM   29  O   UNL     1     -11.775   8.109  70.375  1.00  0.00    -0.153 OA 
BRANCH  29  30
HETATM   30  C   UNL     1     -10.508   7.955  71.076  1.00  0.00    -0.203 C  
HETATM   31  O   UNL     1     -10.666   7.179  72.270  1.00  0.00    -0.209 OA 
HETATM   32  C   UNL     1     -10.985   5.808  71.976  1.00  0.00    -0.260 C  
HETATM   33  C   UNL     1      -9.776   5.148  71.312  1.00  0.00    -0.169 C  
HETATM   34  H   UNL     1      -8.503   7.771  68.453  1.00  0.00     0.000 HD 
HETATM   35  O   UNL     1     -10.009   3.761  71.059  1.00  0.00    -0.167 OA 
HETATM   36  C   UNL     1      -9.459   5.880  69.986  1.00  0.00    -0.159 C  
HETATM   37  H1  UNL     1      -8.027   5.792  68.503  1.00  0.00     0.000 HD 
HETATM   38  H2  UNL     1      -8.306   4.299  69.251  1.00  0.00     0.000 HD 
HETATM   39  C   UNL     1      -9.347   7.396  70.212  1.00  0.00    -0.162 C  
HETATM   40  N   UNL     1      -8.236   5.309  69.377  1.00  0.00    -0.094 NA 
HETATM   41  H   UNL     1      -9.259   3.350  70.647  1.00  0.00     0.000 HD 
HETATM   42  O   UNL     1      -9.214   8.114  68.983  1.00  0.00    -0.148 OA 
BRANCH  32  43
HETATM   43  C   UNL     1     -11.404   5.139  73.285  1.00  0.00    -0.290 C  
HETATM   44  O   UNL     1     -10.334   4.299  73.739  1.00  0.00    -0.151 OA 
HETATM   45  H   UNL     1     -10.595   3.883  74.553  1.00  0.00     0.000 HD 
ENDBRANCH  32  43
ENDBRANCH  29  30
ENDBRANCH  23  29
ENDBRANCH  14  15
ENDBRANCH   8  14
TORSDOF 6
ENDMDL
MODEL       56
REMARK 921   NORMALIZED FREE ENERGY PREDICTED BY IDOCK:   -6.28 KCAL/MOL
REMARK 922        TOTAL FREE ENERGY PREDICTED BY IDOCK:  -10.04 KCAL/MOL
REMARK 923 INTER-LIGAND FREE ENERGY PREDICTED BY IDOCK:   -8.34 KCAL/MOL
REMARK 924 INTRA-LIGAND FREE ENERGY PREDICTED BY IDOCK:   -1.69 KCAL/MOL
REMARK 927      BINDING AFFINITY PREDICTED BY RF-SCORE:    0.00 PKD
ROOT
HETATM    1  C   UNL     1      -9.300  15.620  66.241  1.00  0.00    -0.323 C  
HETATM    2  C   UNL     1     -10.453  16.420  65.624  1.00  0.00    -0.364 C  
HETATM    3  N   UNL     1      -8.905  16.347  67.468  1.00  0.00    -0.179 NA 
HETATM    4  H1  UNL     1      -8.138  15.815  67.878  1.00  0.00     0.000 HD 
HETATM    5  C   UNL     1     -11.186  15.668  64.537  1.00  0.00    -0.337 C  
HETATM    6  H2  UNL     1      -9.679  16.506  68.113  1.00  0.00     0.000 HD 
HETATM    7  C   UNL     1     -11.486  14.223  64.935  1.00  0.00    -0.378 C  
HETATM    8  C   UNL     1      -9.561  14.065  66.423  1.00  0.00    -0.283 C  
HETATM    9  O   UNL     1     -10.311  13.506  65.344  1.00  0.00    -0.299 OA 
ENDROOT
BRANCH   7  10
HETATM   10  C   UNL     1     -12.068  13.508  63.685  1.00  0.00    -0.400 C  
HETATM   11  N   UNL     1     -11.176  12.481  63.149  1.00  0.00    -0.738 NA 
HETATM   12  H1  UNL     1     -11.559  12.011  62.328  1.00  0.00     0.000 HD 
HETATM   13  H2  UNL     1     -10.922  11.805  63.870  1.00  0.00     0.000 HD 
ENDBRANCH   7  10
BRANCH   8  14
HETATM   14  O   UNL     1     -10.093  13.789  67.718  1.00  0.00    -0.236 OA 
BRANCH  14  15
HETATM   15  C   UNL     1     -10.733  12.522  68.015  1.00  0.00    -0.221 C  
HETATM   16  C   UNL     1     -11.313  12.760  69.437  1.00  0.00    -0.202 C  
HETATM   17  N   UNL     1     -12.358  13.801  69.420  1.00  0.00    -0.340 NA 
HETATM   18  C   UNL     1     -11.932  11.557  70.122  1.00  0.00    -0.452 C  
HETATM   19  H2  UNL     1     -13.092  13.584  68.747  1.00  0.00     0.000 HD 
HETATM   20  H1  UNL     1     -12.739  13.956  70.354  1.00  0.00     0.000 HD 
HETATM   21  C   UNL     1     -11.040  10.326  70.106  1.00  0.00    -0.319 C  
HETATM   22  N   UNL     1     -11.802   9.309  70.849  1.00  0.00    -0.309 NA 
HETATM   23  C   UNL     1     -10.678   9.989  68.625  1.00  0.00    -0.226 C  
HETATM   24  C   UNL     1      -9.874  11.203  67.993  1.00  0.00    -0.174 C  
HETATM   25  O   UNL     1      -9.520  10.881  66.636  1.00  0.00    -0.174 OA 
HETATM   26  H2  UNL     1     -12.742   9.147  70.487  1.00  0.00     0.000 HD 
HETATM   27  H1  UNL     1     -11.204   8.483  70.838  1.00  0.00     0.000 HD 
HETATM   28  H   UNL     1      -9.001  10.084  66.623  1.00  0.00     0.000 HD 
BRANCH  23  29
HETATM   29  O   UNL     1      -9.976   8.714  68.484  1.00  0.00    -0.172 OA 
BRANCH  29  30
HETATM   30  C   UNL     1     -10.651   7.823  67.550  1.00  0.00    -0.248 C  
HETATM   31  O   UNL     1     -10.023   7.850  66.262  1.00  0.00    -0.166 OA 
HETATM   32  C   UNL     1      -8.709   7.265  66.299  1.00  0.00    -0.149 C  
HETATM   33  C   UNL     1      -8.840   5.766  66.571  1.00  0.00    -0.126 C  
HETATM   34  H   UNL     1     -11.487   5.420  69.661  1.00  0.00     0.000 HD 
HETATM   35  O   UNL     1      -7.567   5.116  66.549  1.00  0.00    -0.086 OA 
HETATM   36  C   UNL     1      -9.516   5.554  67.947  1.00  0.00    -0.116 C  
HETATM   37  H1  UNL     1     -10.178   3.969  69.090  1.00  0.00     0.000 HD 
HETATM   38  H2  UNL     1      -8.868   3.572  68.094  1.00  0.00     0.000 HD 
HETATM   39  C   UNL     1     -10.820   6.363  68.044  1.00  0.00    -0.316 C  
HETATM   40  N   UNL     1      -9.731   4.108  68.183  1.00  0.00    -0.128 NA 
HETATM   41  H   UNL     1      -7.648   4.185  66.718  1.00  0.00     0.000 HD 
HETATM   42  O   UNL     1     -11.384   6.314  69.358  1.00  0.00    -0.412 OA 
BRANCH  32  43
HETATM   43  C   UNL     1      -8.022   7.587  64.972  1.00  0.00    -0.132 C  
HETATM   44  O   UNL     1      -8.427   6.620  63.993  1.00  0.00    -0.337 OA 
HETATM   45  H   UNL     1      -8.000   6.820  63.169  1.00  0.00     0.000 HD 
ENDBRANCH  32  43
ENDBRANCH  29  30
ENDBRANCH  23  29
ENDBRANCH  14  15
ENDBRANCH   8  14
TORSDOF 6
ENDMDL
MODEL       57
REMARK 921   NORMALIZED FREE ENERGY PREDICTED BY IDOCK:   -6.27 KCAL/MOL
REMARK 922        TOTAL FREE ENERGY PREDICTED BY IDOCK:  -10.03 KCAL/MOL
REMARK 923 INTER-LIGAND FREE ENERGY PREDICTED BY IDOCK:   -8.18 KCAL/MOL
REMARK 924 INTRA-LIGAND FREE ENERGY PREDICTED BY IDOCK:   -1.85 KCAL/MOL
REMARK 927      BINDING AFFINITY PREDICTED BY RF-SCORE:    0.00 PKD
ROOT
HETATM    1  C   UNL     1     -11.932  14.309  68.489  1.00  0.00    -0.317 C  
HETATM    2  C   UNL     1     -12.071  14.878  69.906  1.00  0.00    -0.379 C  
HETATM    3  N   UNL     1     -11.005  15.213  67.773  1.00  0.00    -0.296 NA 
HETATM    4  H1  UNL     1     -10.912  14.835  66.831  1.00  0.00     0.000 HD 
HETATM    5  C   UNL     1     -12.734  13.921  70.870  1.00  0.00    -0.410 C  
HETATM    6  H2  UNL     1     -10.111  15.339  68.249  1.00  0.00     0.000 HD 
HETATM    7  C   UNL     1     -12.180  12.502  70.749  1.00  0.00    -0.240 C  
HETATM    8  C   UNL     1     -11.586  12.763  68.399  1.00  0.00    -0.325 C  
HETATM    9  O   UNL     1     -12.244  11.995  69.407  1.00  0.00    -0.216 OA 
ENDROOT
BRANCH   7  10
HETATM   10  C   UNL     1     -13.053  11.583  71.647  1.00  0.00    -0.373 C  
HETATM   11  N   UNL     1     -12.555  10.209  71.711  1.00  0.00    -0.412 NA 
HETATM   12  H1  UNL     1     -13.129   9.606  72.300  1.00  0.00     0.000 HD 
HETATM   13  H2  UNL     1     -11.579  10.189  72.009  1.00  0.00     0.000 HD 
ENDBRANCH   7  10
BRANCH   8  14
HETATM   14  O   UNL     1     -10.174  12.564  68.331  1.00  0.00    -0.225 OA 
BRANCH  14  15
HETATM   15  C   UNL     1      -9.610  11.255  68.062  1.00  0.00    -0.180 C  
HETATM   16  C   UNL     1      -9.790  11.118  66.525  1.00  0.00    -0.208 C  
HETATM   17  N   UNL     1      -8.980  12.116  65.801  1.00  0.00    -0.423 NA 
HETATM   18  C   UNL     1      -9.433   9.773  65.922  1.00  0.00    -0.285 C  
HETATM   19  H2  UNL     1      -7.998  12.068  66.069  1.00  0.00     0.000 HD 
HETATM   20  H1  UNL     1      -9.098  12.025  64.791  1.00  0.00     0.000 HD 
HETATM   21  C   UNL     1     -10.071   8.598  66.643  1.00  0.00    -0.294 C  
HETATM   22  N   UNL     1      -9.636   7.416  65.881  1.00  0.00    -0.397 NA 
HETATM   23  C   UNL     1      -9.662   8.651  68.149  1.00  0.00    -0.158 C  
HETATM   24  C   UNL     1     -10.207   9.995  68.792  1.00  0.00    -0.186 C  
HETATM   25  O   UNL     1      -9.850  10.033  70.186  1.00  0.00    -0.330 OA 
HETATM   26  H2  UNL     1      -8.625   7.339  65.774  1.00  0.00     0.000 HD 
HETATM   27  H1  UNL     1     -10.065   6.627  66.365  1.00  0.00     0.000 HD 
HETATM   28  H   UNL     1     -10.211   9.272  70.627  1.00  0.00     0.000 HD 
BRANCH  23  29
HETATM   29  O   UNL     1     -10.071   7.462  68.895  1.00  0.00    -0.175 OA 
BRANCH  29  30
HETATM   30  C   UNL     1      -8.961   6.877  69.635  1.00  0.00    -0.144 C  
HETATM   31  O   UNL     1      -8.919   7.368  70.981  1.00  0.00    -0.149 OA 
HETATM   32  C   UNL     1     -10.040   6.900  71.752  1.00  0.00    -0.185 C  
HETATM   33  C   UNL     1      -9.914   5.389  71.948  1.00  0.00    -0.184 C  
HETATM   34  H   UNL     1      -8.985   3.863  68.276  1.00  0.00     0.000 HD 
HETATM   35  O   UNL     1     -10.965   4.878  72.770  1.00  0.00    -0.230 OA 
HETATM   36  C   UNL     1      -9.937   4.692  70.567  1.00  0.00    -0.225 C  
HETATM   37  H1  UNL     1      -9.740   2.777  69.825  1.00  0.00     0.000 HD 
HETATM   38  H2  UNL     1     -10.395   2.824  71.385  1.00  0.00     0.000 HD 
HETATM   39  C   UNL     1      -8.909   5.327  69.617  1.00  0.00    -0.107 C  
HETATM   40  N   UNL     1      -9.725   3.236  70.736  1.00  0.00    -0.158 NA 
HETATM   41  H   UNL     1     -10.887   3.939  72.892  1.00  0.00     0.000 HD 
HETATM   42  O   UNL     1      -9.017   4.812  68.288  1.00  0.00    -0.106 OA 
BRANCH  32  43
HETATM   43  C   UNL     1     -10.059   7.687  73.064  1.00  0.00    -0.304 C  
HETATM   44  O   UNL     1     -11.330   7.496  73.700  1.00  0.00    -0.561 OA 
HETATM   45  H   UNL     1     -11.342   7.985  74.514  1.00  0.00     0.000 HD 
ENDBRANCH  32  43
ENDBRANCH  29  30
ENDBRANCH  23  29
ENDBRANCH  14  15
ENDBRANCH   8  14
TORSDOF 6
ENDMDL
MODEL       58
REMARK 921   NORMALIZED FREE ENERGY PREDICTED BY IDOCK:   -6.26 KCAL/MOL
REMARK 922        TOTAL FREE ENERGY PREDICTED BY IDOCK:  -10.01 KCAL/MOL
REMARK 923 INTER-LIGAND FREE ENERGY PREDICTED BY IDOCK:   -8.18 KCAL/MOL
REMARK 924 INTRA-LIGAND FREE ENERGY PREDICTED BY IDOCK:   -1.84 KCAL/MOL
REMARK 927      BINDING AFFINITY PREDICTED BY RF-SCORE:    0.00 PKD
ROOT
HETATM    1  C   UNL     1     -12.181  14.317  64.732  1.00  0.00    -0.443 C  
HETATM    2  C   UNL     1     -10.900  15.153  64.838  1.00  0.00    -0.437 C  
HETATM    3  N   UNL     1     -12.371  14.036  63.292  1.00  0.00    -1.145 NA 
HETATM    4  H1  UNL     1     -13.223  13.480  63.221  1.00  0.00     0.000 HD 
HETATM    5  C   UNL     1     -10.383  15.274  66.253  1.00  0.00    -0.303 C  
HETATM    6  H2  UNL     1     -11.562  13.595  62.854  1.00  0.00     0.000 HD 
HETATM    7  C   UNL     1     -10.394  13.935  66.989  1.00  0.00    -0.267 C  
HETATM    8  C   UNL     1     -12.262  13.056  65.691  1.00  0.00    -0.466 C  
HETATM    9  O   UNL     1     -11.685  13.305  66.974  1.00  0.00    -0.347 OA 
ENDROOT
BRANCH   7  10
HETATM   10  C   UNL     1     -10.020  14.215  68.470  1.00  0.00    -0.235 C  
HETATM   11  N   UNL     1      -8.973  13.325  68.972  1.00  0.00    -0.268 NA 
HETATM   12  H1  UNL     1      -8.728  13.510  69.944  1.00  0.00     0.000 HD 
HETATM   13  H2  UNL     1      -8.147  13.361  68.374  1.00  0.00     0.000 HD 
ENDBRANCH   7  10
BRANCH   8  14
HETATM   14  O   UNL     1     -11.764  11.889  65.036  1.00  0.00    -0.290 OA 
BRANCH  14  15
HETATM   15  C   UNL     1     -10.533  11.254  65.462  1.00  0.00    -0.265 C  
HETATM   16  C   UNL     1      -9.843  10.910  64.113  1.00  0.00    -0.314 C  
HETATM   17  N   UNL     1      -9.486  12.133  63.369  1.00  0.00    -0.671 NA 
HETATM   18  C   UNL     1      -8.573  10.086  64.196  1.00  0.00    -0.195 C  
HETATM   19  H2  UNL     1      -8.915  12.762  63.933  1.00  0.00     0.000 HD 
HETATM   20  H1  UNL     1      -9.033  11.907  62.483  1.00  0.00     0.000 HD 
HETATM   21  C   UNL     1      -8.714   8.842  65.058  1.00  0.00    -0.166 C  
HETATM   22  N   UNL     1      -7.403   8.179  64.965  1.00  0.00    -0.079 NA 
HETATM   23  C   UNL     1      -9.185   9.271  66.483  1.00  0.00    -0.161 C  
HETATM   24  C   UNL     1     -10.603   9.974  66.377  1.00  0.00    -0.068 C  
HETATM   25  O   UNL     1     -11.047  10.347  67.694  1.00  0.00    -0.310 OA 
HETATM   26  H2  UNL     1      -6.616   8.775  65.221  1.00  0.00     0.000 HD 
HETATM   27  H1  UNL     1      -7.497   7.344  65.544  1.00  0.00     0.000 HD 
HETATM   28  H   UNL     1     -11.090   9.575  68.246  1.00  0.00     0.000 HD 
BRANCH  23  29
HETATM   29  O   UNL     1      -9.173   8.169  67.445  1.00  0.00    -0.135 OA 
BRANCH  29  30
HETATM   30  C   UNL     1      -8.076   8.289  68.395  1.00  0.00    -0.127 C  
HETATM   31  O   UNL     1      -8.524   8.847  69.637  1.00  0.00    -0.121 OA 
HETATM   32  C   UNL     1      -9.397   7.946  70.339  1.00  0.00    -0.159 C  
HETATM   33  C   UNL     1      -8.594   6.727  70.796  1.00  0.00    -0.141 C  
HETATM   34  H   UNL     1      -6.387   5.572  67.560  1.00  0.00     0.000 HD 
HETATM   35  O   UNL     1      -9.396   5.828  71.563  1.00  0.00    -0.146 OA 
HETATM   36  C   UNL     1      -8.023   5.999  69.555  1.00  0.00    -0.106 C  
HETATM   37  H1  UNL     1      -6.791   4.390  69.168  1.00  0.00     0.000 HD 
HETATM   38  H2  UNL     1      -7.660   4.232  70.612  1.00  0.00     0.000 HD 
HETATM   39  C   UNL     1      -7.277   6.983  68.640  1.00  0.00    -0.094 C  
HETATM   40  N   UNL     1      -7.167   4.870  69.986  1.00  0.00    -0.053 NA 
HETATM   41  H   UNL     1      -8.897   5.071  71.847  1.00  0.00     0.000 HD 
HETATM   42  O   UNL     1      -6.876   6.373  67.410  1.00  0.00    -0.064 OA 
BRANCH  32  43
HETATM   43  C   UNL     1     -10.035   8.724  71.491  1.00  0.00    -0.300 C  
HETATM   44  O   UNL     1      -9.190   8.616  72.646  1.00  0.00    -0.299 OA 
HETATM   45  H   UNL     1      -9.587   9.099  73.361  1.00  0.00     0.000 HD 
ENDBRANCH  32  43
ENDBRANCH  29  30
ENDBRANCH  23  29
ENDBRANCH  14  15
ENDBRANCH   8  14
TORSDOF 6
ENDMDL
MODEL       59
REMARK 921   NORMALIZED FREE ENERGY PREDICTED BY IDOCK:   -6.26 KCAL/MOL
REMARK 922        TOTAL FREE ENERGY PREDICTED BY IDOCK:  -10.01 KCAL/MOL
REMARK 923 INTER-LIGAND FREE ENERGY PREDICTED BY IDOCK:   -9.07 KCAL/MOL
REMARK 924 INTRA-LIGAND FREE ENERGY PREDICTED BY IDOCK:   -0.93 KCAL/MOL
REMARK 927      BINDING AFFINITY PREDICTED BY RF-SCORE:    0.00 PKD
ROOT
HETATM    1  C   UNL     1      -9.977  19.123  67.767  1.00  0.00    -0.357 C  
HETATM    2  C   UNL     1      -8.710  19.436  66.962  1.00  0.00    -0.328 C  
HETATM    3  N   UNL     1     -11.115  19.579  66.937  1.00  0.00    -0.308 NA 
HETATM    4  H1  UNL     1     -11.957  19.371  67.472  1.00  0.00     0.000 HD 
HETATM    5  C   UNL     1      -7.473  18.766  67.513  1.00  0.00    -0.241 C  
HETATM    6  H2  UNL     1     -11.120  19.176  65.999  1.00  0.00     0.000 HD 
HETATM    7  C   UNL     1      -7.719  17.300  67.867  1.00  0.00    -0.193 C  
HETATM    8  C   UNL     1     -10.089  17.643  68.326  1.00  0.00    -0.362 C  
HETATM    9  O   UNL     1      -8.831  17.124  68.759  1.00  0.00    -0.267 OA 
ENDROOT
BRANCH   7  10
HETATM   10  C   UNL     1      -6.446  16.774  68.585  1.00  0.00    -0.165 C  
HETATM   11  N   UNL     1      -6.746  15.814  69.647  1.00  0.00    -0.187 NA 
HETATM   12  H1  UNL     1      -5.910  15.469  70.118  1.00  0.00     0.000 HD 
HETATM   13  H2  UNL     1      -7.309  15.041  69.291  1.00  0.00     0.000 HD 
ENDBRANCH   7  10
BRANCH   8  14
HETATM   14  O   UNL     1     -10.788  16.805  67.405  1.00  0.00    -0.283 OA 
BRANCH  14  15
HETATM   15  C   UNL     1     -10.311  15.473  67.087  1.00  0.00    -0.272 C  
HETATM   16  C   UNL     1     -11.116  15.121  65.805  1.00  0.00    -0.330 C  
HETATM   17  N   UNL     1     -10.753  16.011  64.686  1.00  0.00    -0.815 NA 
HETATM   18  C   UNL     1     -10.964  13.707  65.281  1.00  0.00    -0.314 C  
HETATM   19  H2  UNL     1      -9.749  16.003  64.512  1.00  0.00     0.000 HD 
HETATM   20  H1  UNL     1     -11.282  15.780  63.844  1.00  0.00     0.000 HD 
HETATM   21  C   UNL     1     -11.163  12.642  66.348  1.00  0.00    -0.305 C  
HETATM   22  N   UNL     1     -11.018  11.367  65.627  1.00  0.00    -0.235 NA 
HETATM   23  C   UNL     1     -10.158  12.907  67.513  1.00  0.00    -0.214 C  
HETATM   24  C   UNL     1     -10.462  14.326  68.154  1.00  0.00    -0.246 C  
HETATM   25  O   UNL     1      -9.552  14.559  69.244  1.00  0.00    -0.393 OA 
HETATM   26  H2  UNL     1     -10.145  11.278  65.108  1.00  0.00     0.000 HD 
HETATM   27  H1  UNL     1     -11.151  10.652  66.342  1.00  0.00     0.000 HD 
HETATM   28  H   UNL     1      -9.643  13.866  69.889  1.00  0.00     0.000 HD 
BRANCH  23  29
HETATM   29  O   UNL     1     -10.137  11.833  68.505  1.00  0.00    -0.206 OA 
BRANCH  29  30
HETATM   30  C   UNL     1     -11.384  11.081  68.520  1.00  0.00    -0.287 C  
HETATM   31  O   UNL     1     -11.189   9.744  68.042  1.00  0.00    -0.174 OA 
HETATM   32  C   UNL     1     -10.390   8.966  68.951  1.00  0.00    -0.212 C  
HETATM   33  C   UNL     1     -11.177   8.744  70.242  1.00  0.00    -0.195 C  
HETATM   34  H   UNL     1     -12.726  12.387  71.245  1.00  0.00     0.000 HD 
HETATM   35  O   UNL     1     -10.459   7.915  71.158  1.00  0.00    -0.204 OA 
HETATM   36  C   UNL     1     -11.482  10.113  70.896  1.00  0.00    -0.360 C  
HETATM   37  H1  UNL     1     -12.523  10.821  72.531  1.00  0.00     0.000 HD 
HETATM   38  H2  UNL     1     -11.902   9.263  72.759  1.00  0.00     0.000 HD 
HETATM   39  C   UNL     1     -12.126  11.071  69.882  1.00  0.00    -0.361 C  
HETATM   40  N   UNL     1     -12.322   9.918  72.100  1.00  0.00    -0.205 NA 
HETATM   41  H   UNL     1     -10.948   7.776  71.960  1.00  0.00     0.000 HD 
HETATM   42  O   UNL     1     -12.272  12.392  70.410  1.00  0.00    -0.346 OA 
BRANCH  32  43
HETATM   43  C   UNL     1     -10.008   7.669  68.236  1.00  0.00    -0.176 C  
HETATM   44  O   UNL     1     -11.203   7.034  67.760  1.00  0.00    -0.532 OA 
HETATM   45  H   UNL     1     -10.966   6.228  67.317  1.00  0.00     0.000 HD 
ENDBRANCH  32  43
ENDBRANCH  29  30
ENDBRANCH  23  29
ENDBRANCH  14  15
ENDBRANCH   8  14
TORSDOF 6
ENDMDL
MODEL       60
REMARK 921   NORMALIZED FREE ENERGY PREDICTED BY IDOCK:   -6.24 KCAL/MOL
REMARK 922        TOTAL FREE ENERGY PREDICTED BY IDOCK:   -9.99 KCAL/MOL
REMARK 923 INTER-LIGAND FREE ENERGY PREDICTED BY IDOCK:   -7.92 KCAL/MOL
REMARK 924 INTRA-LIGAND FREE ENERGY PREDICTED BY IDOCK:   -2.06 KCAL/MOL
REMARK 927      BINDING AFFINITY PREDICTED BY RF-SCORE:    0.00 PKD
ROOT
HETATM    1  C   UNL     1      -6.856  20.667  66.673  1.00  0.00    -0.271 C  
HETATM    2  C   UNL     1      -7.896  21.001  67.750  1.00  0.00     0.048 C  
HETATM    3  N   UNL     1      -5.533  20.909  67.291  1.00  0.00    -0.193 NA 
HETATM    4  H1  UNL     1      -4.842  20.687  66.575  1.00  0.00     0.000 HD 
HETATM    5  C   UNL     1      -9.287  20.523  67.403  1.00  0.00    -0.511 C  
HETATM    6  H2  UNL     1      -5.393  20.397  68.162  1.00  0.00     0.000 HD 
HETATM    7  C   UNL     1      -9.290  19.093  66.863  1.00  0.00    -0.319 C  
HETATM    8  C   UNL     1      -7.031  19.261  65.959  1.00  0.00    -0.261 C  
HETATM    9  O   UNL     1      -8.402  18.922  65.747  1.00  0.00    -0.443 OA 
ENDROOT
BRANCH   7  10
HETATM   10  C   UNL     1     -10.732  18.783  66.376  1.00  0.00    -0.257 C  
HETATM   11  N   UNL     1     -10.775  17.732  65.359  1.00  0.00    -0.569 NA 
HETATM   12  H1  UNL     1     -11.722  17.528  65.039  1.00  0.00     0.000 HD 
HETATM   13  H2  UNL     1     -10.312  16.885  65.689  1.00  0.00     0.000 HD 
ENDBRANCH   7  10
BRANCH   8  14
HETATM   14  O   UNL     1      -6.270  18.256  66.628  1.00  0.00    -0.163 OA 
BRANCH  14  15
HETATM   15  C   UNL     1      -6.906  17.276  67.486  1.00  0.00    -0.151 C  
HETATM   16  C   UNL     1      -5.882  17.122  68.645  1.00  0.00    -0.144 C  
HETATM   17  N   UNL     1      -5.751  18.376  69.411  1.00  0.00    -0.223 NA 
HETATM   18  C   UNL     1      -6.175  16.039  69.664  1.00  0.00    -0.182 C  
HETATM   19  H2  UNL     1      -6.654  18.705  69.750  1.00  0.00     0.000 HD 
HETATM   20  H1  UNL     1      -5.078  18.275  70.171  1.00  0.00     0.000 HD 
HETATM   21  C   UNL     1      -6.483  14.688  69.039  1.00  0.00    -0.097 C  
HETATM   22  N   UNL     1      -6.689  13.789  70.186  1.00  0.00    -0.381 NA 
HETATM   23  C   UNL     1      -7.683  14.854  68.054  1.00  0.00    -0.122 C  
HETATM   24  C   UNL     1      -7.276  15.863  66.899  1.00  0.00    -0.138 C  
HETATM   25  O   UNL     1      -8.374  15.996  65.978  1.00  0.00    -0.262 OA 
HETATM   26  H2  UNL     1      -7.395  14.113  70.847  1.00  0.00     0.000 HD 
HETATM   27  H1  UNL     1      -6.896  12.882  69.767  1.00  0.00     0.000 HD 
HETATM   28  H   UNL     1      -8.597  15.143  65.623  1.00  0.00     0.000 HD 
BRANCH  23  29
HETATM   29  O   UNL     1      -8.181  13.579  67.539  1.00  0.00    -0.160 OA 
BRANCH  29  30
HETATM   30  C   UNL     1      -9.528  13.290  68.013  1.00  0.00    -0.219 C  
HETATM   31  O   UNL     1     -10.514  13.925  67.189  1.00  0.00    -0.266 OA 
HETATM   32  C   UNL     1     -10.557  13.349  65.872  1.00  0.00    -0.283 C  
HETATM   33  C   UNL     1     -11.083  11.917  65.972  1.00  0.00    -0.322 C  
HETATM   34  H   UNL     1      -9.040  10.191  69.058  1.00  0.00     0.000 HD 
HETATM   35  O   UNL     1     -11.216  11.317  64.682  1.00  0.00    -0.219 OA 
HETATM   36  C   UNL     1     -10.121  11.080  66.848  1.00  0.00    -0.210 C  
HETATM   37  H1  UNL     1     -10.031   9.163  67.606  1.00  0.00     0.000 HD 
HETATM   38  H2  UNL     1     -10.865   9.261  66.136  1.00  0.00     0.000 HD 
HETATM   39  C   UNL     1      -9.851  11.783  68.188  1.00  0.00    -0.190 C  
HETATM   40  N   UNL     1     -10.665   9.715  67.028  1.00  0.00    -0.200 NA 
HETATM   41  H   UNL     1     -11.543  10.427  64.744  1.00  0.00     0.000 HD 
HETATM   42  O   UNL     1      -8.843  11.115  68.951  1.00  0.00    -0.153 OA 
BRANCH  32  43
HETATM   43  C   UNL     1     -11.422  14.259  64.998  1.00  0.00    -0.364 C  
HETATM   44  O   UNL     1     -12.799  13.893  65.170  1.00  0.00    -0.695 OA 
HETATM   45  H   UNL     1     -13.336  14.458  64.626  1.00  0.00     0.000 HD 
ENDBRANCH  32  43
ENDBRANCH  29  30
ENDBRANCH  23  29
ENDBRANCH  14  15
ENDBRANCH   8  14
TORSDOF 6
ENDMDL
MODEL       61
REMARK 921   NORMALIZED FREE ENERGY PREDICTED BY IDOCK:   -6.22 KCAL/MOL
REMARK 922        TOTAL FREE ENERGY PREDICTED BY IDOCK:   -9.95 KCAL/MOL
REMARK 923 INTER-LIGAND FREE ENERGY PREDICTED BY IDOCK:   -8.19 KCAL/MOL
REMARK 924 INTRA-LIGAND FREE ENERGY PREDICTED BY IDOCK:   -1.76 KCAL/MOL
REMARK 927      BINDING AFFINITY PREDICTED BY RF-SCORE:    0.00 PKD
ROOT
HETATM    1  C   UNL     1     -10.928  12.883  67.649  1.00  0.00    -0.247 C  
HETATM    2  C   UNL     1     -12.286  13.496  67.284  1.00  0.00    -0.305 C  
HETATM    3  N   UNL     1     -11.006  12.536  69.085  1.00  0.00    -0.408 NA 
HETATM    4  H1  UNL     1     -10.104  12.129  69.328  1.00  0.00     0.000 HD 
HETATM    5  C   UNL     1     -12.499  13.628  65.794  1.00  0.00    -0.524 C  
HETATM    6  H2  UNL     1     -11.798  11.935  69.315  1.00  0.00     0.000 HD 
HETATM    7  C   UNL     1     -12.088  12.366  65.037  1.00  0.00    -0.407 C  
HETATM    8  C   UNL     1     -10.417  11.725  66.692  1.00  0.00    -0.224 C  
HETATM    9  O   UNL     1     -10.739  11.964  65.322  1.00  0.00    -0.267 OA 
ENDROOT
BRANCH   7  10
HETATM   10  C   UNL     1     -12.178  12.684  63.519  1.00  0.00    -0.547 C  
HETATM   11  N   UNL     1     -12.361  14.109  63.245  1.00  0.00    -1.133 NA 
HETATM   12  H1  UNL     1     -12.420  14.317  62.248  1.00  0.00     0.000 HD 
HETATM   13  H2  UNL     1     -11.629  14.662  63.690  1.00  0.00     0.000 HD 
ENDBRANCH   7  10
BRANCH   8  14
HETATM   14  O   UNL     1     -10.825  10.447  67.182  1.00  0.00    -0.273 OA 
BRANCH  14  15
HETATM   15  C   UNL     1      -9.853   9.430  67.533  1.00  0.00    -0.173 C  
HETATM   16  C   UNL     1      -9.990   8.412  66.367  1.00  0.00    -0.221 C  
HETATM   17  N   UNL     1      -9.575   9.011  65.084  1.00  0.00    -0.421 NA 
HETATM   18  C   UNL     1      -9.204   7.124  66.501  1.00  0.00    -0.199 C  
HETATM   19  H2  UNL     1      -8.632   9.395  65.138  1.00  0.00     0.000 HD 
HETATM   20  H1  UNL     1      -9.665   8.343  64.319  1.00  0.00     0.000 HD 
HETATM   21  C   UNL     1      -9.398   6.432  67.841  1.00  0.00    -0.114 C  
HETATM   22  N   UNL     1      -8.595   5.203  67.741  1.00  0.00    -0.104 NA 
HETATM   23  C   UNL     1      -9.017   7.430  68.979  1.00  0.00    -0.131 C  
HETATM   24  C   UNL     1      -9.980   8.690  68.917  1.00  0.00    -0.189 C  
HETATM   25  O   UNL     1      -9.643   9.597  69.981  1.00  0.00    -0.214 OA 
HETATM   26  H2  UNL     1      -7.619   5.363  67.494  1.00  0.00     0.000 HD 
HETATM   27  H1  UNL     1      -8.725   4.739  68.641  1.00  0.00     0.000 HD 
HETATM   28  H   UNL     1      -9.719   9.150  70.817  1.00  0.00     0.000 HD 
BRANCH  23  29
HETATM   29  O   UNL     1      -8.990   6.806  70.302  1.00  0.00    -0.151 OA 
BRANCH  29  30
HETATM   30  C   UNL     1     -10.295   6.286  70.684  1.00  0.00    -0.203 C  
HETATM   31  O   UNL     1     -10.402   4.887  70.394  1.00  0.00    -0.246 OA 
HETATM   32  C   UNL     1      -9.537   4.102  71.233  1.00  0.00    -0.172 C  
HETATM   33  C   UNL     1     -10.040   4.179  72.675  1.00  0.00    -0.165 C  
HETATM   34  H   UNL     1     -10.798   8.129  73.384  1.00  0.00     0.000 HD 
HETATM   35  O   UNL     1      -9.260   3.359  73.547  1.00  0.00    -0.095 OA 
HETATM   36  C   UNL     1      -9.995   5.650  73.154  1.00  0.00    -0.175 C  
HETATM   37  H1  UNL     1     -10.535   6.722  74.832  1.00  0.00     0.000 HD 
HETATM   38  H2  UNL     1     -10.104   5.121  75.174  1.00  0.00     0.000 HD 
HETATM   39  C   UNL     1     -10.708   6.572  72.152  1.00  0.00    -0.221 C  
HETATM   40  N   UNL     1     -10.564   5.752  74.517  1.00  0.00    -0.205 NA 
HETATM   41  H   UNL     1      -9.572   3.406  74.443  1.00  0.00     0.000 HD 
HETATM   42  O   UNL     1     -10.545   7.953  72.485  1.00  0.00    -0.262 OA 
BRANCH  32  43
HETATM   43  C   UNL     1      -9.511   2.681  70.670  1.00  0.00    -0.135 C  
HETATM   44  O   UNL     1      -8.590   2.636  69.571  1.00  0.00    -0.059 OA 
HETATM   45  H   UNL     1      -8.574   1.753  69.221  1.00  0.00     0.000 HD 
ENDBRANCH  32  43
ENDBRANCH  29  30
ENDBRANCH  23  29
ENDBRANCH  14  15
ENDBRANCH   8  14
TORSDOF 6
ENDMDL
MODEL       62
REMARK 921   NORMALIZED FREE ENERGY PREDICTED BY IDOCK:   -6.20 KCAL/MOL
REMARK 922        TOTAL FREE ENERGY PREDICTED BY IDOCK:   -9.94 KCAL/MOL
REMARK 923 INTER-LIGAND FREE ENERGY PREDICTED BY IDOCK:   -8.90 KCAL/MOL
REMARK 924 INTRA-LIGAND FREE ENERGY PREDICTED BY IDOCK:   -1.03 KCAL/MOL
REMARK 927      BINDING AFFINITY PREDICTED BY RF-SCORE:    0.00 PKD
ROOT
HETATM    1  C   UNL     1      -9.959  19.094  67.022  1.00  0.00    -0.347 C  
HETATM    2  C   UNL     1      -9.266  19.133  68.389  1.00  0.00    -0.406 C  
HETATM    3  N   UNL     1      -9.012  19.705  66.063  1.00  0.00    -0.406 NA 
HETATM    4  H1  UNL     1      -9.472  19.680  65.154  1.00  0.00     0.000 HD 
HETATM    5  C   UNL     1      -9.953  18.278  69.430  1.00  0.00     0.055 C  
HETATM    6  H2  UNL     1      -8.092  19.265  66.065  1.00  0.00     0.000 HD 
HETATM    7  C   UNL     1     -10.330  16.900  68.889  1.00  0.00    -0.333 C  
HETATM    8  C   UNL     1     -10.554  17.687  66.592  1.00  0.00    -0.211 C  
HETATM    9  O   UNL     1     -11.119  16.973  67.691  1.00  0.00    -0.224 OA 
ENDROOT
BRANCH   7  10
HETATM   10  C   UNL     1     -11.181  16.190  69.977  1.00  0.00    -0.357 C  
HETATM   11  N   UNL     1     -12.607  16.161  69.655  1.00  0.00    -0.461 NA 
HETATM   12  H1  UNL     1     -13.166  15.695  70.370  1.00  0.00     0.000 HD 
HETATM   13  H2  UNL     1     -12.766  15.744  68.738  1.00  0.00     0.000 HD 
ENDBRANCH   7  10
BRANCH   8  14
HETATM   14  O   UNL     1      -9.600  16.945  65.832  1.00  0.00    -0.469 OA 
BRANCH  14  15
HETATM   15  C   UNL     1      -9.833  15.559  65.478  1.00  0.00    -0.313 C  
HETATM   16  C   UNL     1     -11.266  15.599  64.877  1.00  0.00    -0.369 C  
HETATM   17  N   UNL     1     -11.302  16.395  63.636  1.00  0.00    -1.046 NA 
HETATM   18  C   UNL     1     -11.890  14.260  64.534  1.00  0.00    -0.456 C  
HETATM   19  H2  UNL     1     -10.619  16.060  62.956  1.00  0.00     0.000 HD 
HETATM   20  H1  UNL     1     -12.242  16.420  63.241  1.00  0.00     0.000 HD 
HETATM   21  C   UNL     1     -11.812  13.248  65.666  1.00  0.00    -0.380 C  
HETATM   22  N   UNL     1     -12.504  12.058  65.144  1.00  0.00    -0.340 NA 
HETATM   23  C   UNL     1     -10.316  13.068  66.074  1.00  0.00    -0.285 C  
HETATM   24  C   UNL     1      -9.745  14.454  66.596  1.00  0.00    -0.278 C  
HETATM   25  O   UNL     1      -8.373  14.281  66.994  1.00  0.00    -0.290 OA 
HETATM   26  H2  UNL     1     -12.135  11.718  64.256  1.00  0.00     0.000 HD 
HETATM   27  H1  UNL     1     -12.451  11.379  65.903  1.00  0.00     0.000 HD 
HETATM   28  H   UNL     1      -8.319  13.613  67.669  1.00  0.00     0.000 HD 
BRANCH  23  29
HETATM   29  O   UNL     1     -10.110  11.978  67.027  1.00  0.00    -0.202 OA 
BRANCH  29  30
HETATM   30  C   UNL     1      -9.060  11.068  66.593  1.00  0.00    -0.166 C  
HETATM   31  O   UNL     1      -7.777  11.491  67.070  1.00  0.00    -0.144 OA 
HETATM   32  C   UNL     1      -7.673  11.368  68.499  1.00  0.00    -0.133 C  
HETATM   33  C   UNL     1      -7.691   9.886  68.874  1.00  0.00    -0.085 C  
HETATM   34  H   UNL     1     -10.758   8.234  66.743  1.00  0.00     0.000 HD 
HETATM   35  O   UNL     1      -7.520   9.699  70.280  1.00  0.00    -0.126 OA 
HETATM   36  C   UNL     1      -9.031   9.261  68.418  1.00  0.00    -0.129 C  
HETATM   37  H1  UNL     1      -9.909   7.393  68.392  1.00  0.00     0.000 HD 
HETATM   38  H2  UNL     1      -8.820   7.601  69.671  1.00  0.00     0.000 HD 
HETATM   39  C   UNL     1      -9.305   9.575  66.939  1.00  0.00    -0.146 C  
HETATM   40  N   UNL     1      -9.025   7.806  68.693  1.00  0.00    -0.134 NA 
HETATM   41  H   UNL     1      -7.530   8.778  70.513  1.00  0.00     0.000 HD 
HETATM   42  O   UNL     1     -10.608   9.148  66.531  1.00  0.00    -0.174 OA 
BRANCH  32  43
HETATM   43  C   UNL     1      -6.399  12.094  68.935  1.00  0.00    -0.083 C  
HETATM   44  O   UNL     1      -6.481  12.368  70.341  1.00  0.00    -0.466 OA 
HETATM   45  H   UNL     1      -5.689  12.818  70.611  1.00  0.00     0.000 HD 
ENDBRANCH  32  43
ENDBRANCH  29  30
ENDBRANCH  23  29
ENDBRANCH  14  15
ENDBRANCH   8  14
TORSDOF 6
ENDMDL
MODEL       63
REMARK 921   NORMALIZED FREE ENERGY PREDICTED BY IDOCK:   -6.20 KCAL/MOL
REMARK 922        TOTAL FREE ENERGY PREDICTED BY IDOCK:   -9.93 KCAL/MOL
REMARK 923 INTER-LIGAND FREE ENERGY PREDICTED BY IDOCK:   -8.17 KCAL/MOL
REMARK 924 INTRA-LIGAND FREE ENERGY PREDICTED BY IDOCK:   -1.77 KCAL/MOL
REMARK 927      BINDING AFFINITY PREDICTED BY RF-SCORE:    0.00 PKD
ROOT
HETATM    1  C   UNL     1      -7.966  16.074  66.383  1.00  0.00    -0.162 C  
HETATM    2  C   UNL     1      -7.386  17.367  66.967  1.00  0.00    -0.220 C  
HETATM    3  N   UNL     1      -7.144  14.971  66.930  1.00  0.00    -0.291 NA 
HETATM    4  H1  UNL     1      -7.529  14.111  66.541  1.00  0.00     0.000 HD 
HETATM    5  C   UNL     1      -8.283  18.567  66.765  1.00  0.00    -0.268 C  
HETATM    6  H2  UNL     1      -7.093  14.969  67.948  1.00  0.00     0.000 HD 
HETATM    7  C   UNL     1      -9.744  18.258  67.092  1.00  0.00    -0.304 C  
HETATM    8  C   UNL     1      -9.536  15.894  66.531  1.00  0.00    -0.273 C  
HETATM    9  O   UNL     1     -10.245  17.123  66.368  1.00  0.00    -0.311 OA 
ENDROOT
BRANCH   7  10
HETATM   10  C   UNL     1     -10.585  19.496  66.676  1.00  0.00    -0.478 C  
HETATM   11  N   UNL     1      -9.910  20.763  66.952  1.00  0.00    -0.604 NA 
HETATM   12  H1  UNL     1     -10.462  21.576  66.679  1.00  0.00     0.000 HD 
HETATM   13  H2  UNL     1      -8.987  20.787  66.517  1.00  0.00     0.000 HD 
ENDBRANCH   7  10
BRANCH   8  14
HETATM   14  O   UNL     1      -9.853  15.182  67.727  1.00  0.00    -0.221 OA 
BRANCH  14  15
HETATM   15  C   UNL     1     -10.503  13.887  67.682  1.00  0.00    -0.245 C  
HETATM   16  C   UNL     1     -11.361  13.893  68.977  1.00  0.00    -0.283 C  
HETATM   17  N   UNL     1     -12.411  14.928  68.917  1.00  0.00    -0.588 NA 
HETATM   18  C   UNL     1     -12.071  12.598  69.321  1.00  0.00    -0.218 C  
HETATM   19  H2  UNL     1     -12.990  14.827  68.084  1.00  0.00     0.000 HD 
HETATM   20  H1  UNL     1     -12.974  14.931  69.768  1.00  0.00     0.000 HD 
HETATM   21  C   UNL     1     -11.160  11.381  69.288  1.00  0.00    -0.254 C  
HETATM   22  N   UNL     1     -12.026  10.261  69.689  1.00  0.00    -0.481 NA 
HETATM   23  C   UNL     1     -10.500  11.288  67.876  1.00  0.00    -0.188 C  
HETATM   24  C   UNL     1      -9.621  12.584  67.622  1.00  0.00    -0.190 C  
HETATM   25  O   UNL     1      -8.994  12.486  66.330  1.00  0.00    -0.396 OA 
HETATM   26  H2  UNL     1     -12.870  10.164  69.124  1.00  0.00     0.000 HD 
HETATM   27  H1  UNL     1     -11.415   9.444  69.667  1.00  0.00     0.000 HD 
HETATM   28  H   UNL     1      -8.461  11.699  66.294  1.00  0.00     0.000 HD 
BRANCH  23  29
HETATM   29  O   UNL     1      -9.749  10.049  67.676  1.00  0.00    -0.153 OA 
BRANCH  29  30
HETATM   30  C   UNL     1     -10.389   9.177  66.701  1.00  0.00    -0.218 C  
HETATM   31  O   UNL     1      -9.902   9.434  65.378  1.00  0.00    -0.270 OA 
HETATM   32  C   UNL     1      -8.525   9.043  65.233  1.00  0.00    -0.166 C  
HETATM   33  C   UNL     1      -8.426   7.521  65.331  1.00  0.00    -0.094 C  
HETATM   34  H   UNL     1     -10.682   6.464  68.567  1.00  0.00     0.000 HD 
HETATM   35  O   UNL     1      -7.088   7.068  65.124  1.00  0.00    -0.057 OA 
HETATM   36  C   UNL     1      -8.928   7.065  66.723  1.00  0.00    -0.132 C  
HETATM   37  H1  UNL     1      -9.255   5.287  67.716  1.00  0.00     0.000 HD 
HETATM   38  H2  UNL     1      -8.009   5.194  66.573  1.00  0.00     0.000 HD 
HETATM   39  C   UNL     1     -10.311   7.663  67.027  1.00  0.00    -0.330 C  
HETATM   40  N   UNL     1      -8.924   5.587  66.799  1.00  0.00    -0.113 NA 
HETATM   41  H   UNL     1      -7.026   6.122  65.184  1.00  0.00     0.000 HD 
HETATM   42  O   UNL     1     -10.730   7.392  68.367  1.00  0.00    -0.180 OA 
BRANCH  32  43
HETATM   43  C   UNL     1      -8.023   9.604  63.902  1.00  0.00    -0.143 C  
HETATM   44  O   UNL     1      -8.010  11.036  63.978  1.00  0.00    -0.335 OA 
HETATM   45  H   UNL     1      -7.698  11.384  63.151  1.00  0.00     0.000 HD 
ENDBRANCH  32  43
ENDBRANCH  29  30
ENDBRANCH  23  29
ENDBRANCH  14  15
ENDBRANCH   8  14
TORSDOF 6
ENDMDL
MODEL       64
REMARK 921   NORMALIZED FREE ENERGY PREDICTED BY IDOCK:   -6.20 KCAL/MOL
REMARK 922        TOTAL FREE ENERGY PREDICTED BY IDOCK:   -9.93 KCAL/MOL
REMARK 923 INTER-LIGAND FREE ENERGY PREDICTED BY IDOCK:   -8.13 KCAL/MOL
REMARK 924 INTRA-LIGAND FREE ENERGY PREDICTED BY IDOCK:   -1.80 KCAL/MOL
REMARK 927      BINDING AFFINITY PREDICTED BY RF-SCORE:    0.00 PKD
ROOT
HETATM    1  C   UNL     1      -7.494   7.151  67.313  1.00  0.00    -0.099 C  
HETATM    2  C   UNL     1      -7.660   6.085  68.402  1.00  0.00    -0.091 C  
HETATM    3  N   UNL     1      -7.640   6.446  66.021  1.00  0.00    -0.085 NA 
HETATM    4  H1  UNL     1      -7.529   7.155  65.297  1.00  0.00     0.000 HD 
HETATM    5  C   UNL     1      -7.847   6.668  69.784  1.00  0.00    -0.115 C  
HETATM    6  H2  UNL     1      -8.510   5.919  65.943  1.00  0.00     0.000 HD 
HETATM    7  C   UNL     1      -8.846   7.824  69.794  1.00  0.00    -0.139 C  
HETATM    8  C   UNL     1      -8.381   8.455  67.485  1.00  0.00    -0.129 C  
HETATM    9  O   UNL     1      -8.511   8.854  68.851  1.00  0.00    -0.127 OA 
ENDROOT
BRANCH   7  10
HETATM   10  C   UNL     1      -8.816   8.453  71.214  1.00  0.00    -0.167 C  
HETATM   11  N   UNL     1      -7.564   9.152  71.501  1.00  0.00    -0.341 NA 
HETATM   12  H1  UNL     1      -7.545   9.565  72.434  1.00  0.00     0.000 HD 
HETATM   13  H2  UNL     1      -7.366   9.854  70.787  1.00  0.00     0.000 HD 
ENDBRANCH   7  10
BRANCH   8  14
HETATM   14  O   UNL     1      -9.620   8.319  66.789  1.00  0.00    -0.187 OA 
BRANCH  14  15
HETATM   15  C   UNL     1     -10.262   9.460  66.165  1.00  0.00    -0.194 C  
HETATM   16  C   UNL     1      -9.250   9.855  65.055  1.00  0.00    -0.240 C  
HETATM   17  N   UNL     1      -9.131   8.792  64.038  1.00  0.00    -0.271 NA 
HETATM   18  C   UNL     1      -9.550  11.130  64.292  1.00  0.00    -0.288 C  
HETATM   19  H2  UNL     1     -10.040   8.544  63.647  1.00  0.00     0.000 HD 
HETATM   20  H1  UNL     1      -8.467   9.051  63.309  1.00  0.00     0.000 HD 
HETATM   21  C   UNL     1      -9.847  12.318  65.193  1.00  0.00    -0.158 C  
HETATM   22  N   UNL     1     -10.061  13.440  64.264  1.00  0.00    -0.748 NA 
HETATM   23  C   UNL     1     -11.036  11.948  66.133  1.00  0.00    -0.326 C  
HETATM   24  C   UNL     1     -10.621  10.716  67.043  1.00  0.00    -0.262 C  
HETATM   25  O   UNL     1     -11.709  10.392  67.927  1.00  0.00    -0.714 OA 
HETATM   26  H2  UNL     1     -10.776  13.265  63.558  1.00  0.00     0.000 HD 
HETATM   27  H1  UNL     1     -10.261  14.237  64.868  1.00  0.00     0.000 HD 
HETATM   28  H   UNL     1     -11.926  11.150  68.458  1.00  0.00     0.000 HD 
BRANCH  23  29
HETATM   29  O   UNL     1     -11.524  13.086  66.912  1.00  0.00    -0.305 OA 
BRANCH  29  30
HETATM   30  C   UNL     1     -10.537  13.548  67.877  1.00  0.00    -0.248 C  
HETATM   31  O   UNL     1      -9.700  14.567  67.316  1.00  0.00    -0.225 OA 
HETATM   32  C   UNL     1     -10.433  15.780  67.070  1.00  0.00    -0.309 C  
HETATM   33  C   UNL     1     -10.845  16.393  68.410  1.00  0.00    -0.342 C  
HETATM   34  H   UNL     1     -12.367  13.316  70.621  1.00  0.00     0.000 HD 
HETATM   35  O   UNL     1     -11.516  17.641  68.231  1.00  0.00     0.161 OA 
HETATM   36  C   UNL     1     -11.764  15.401  69.163  1.00  0.00    -0.345 C  
HETATM   37  H1  UNL     1     -12.703  15.289  70.997  1.00  0.00     0.000 HD 
HETATM   38  H2  UNL     1     -12.503  16.877  70.446  1.00  0.00     0.000 HD 
HETATM   39  C   UNL     1     -11.119  14.009  69.239  1.00  0.00    -0.232 C  
HETATM   40  N   UNL     1     -12.097  15.943  70.500  1.00  0.00    -0.361 NA 
HETATM   41  H   UNL     1     -11.772  18.022  69.063  1.00  0.00     0.000 HD 
HETATM   42  O   UNL     1     -12.010  13.034  69.787  1.00  0.00    -0.316 OA 
BRANCH  32  43
HETATM   43  C   UNL     1      -9.543  16.695  66.228  1.00  0.00    -0.299 C  
HETATM   44  O   UNL     1     -10.376  17.621  65.514  1.00  0.00    -0.627 OA 
HETATM   45  H   UNL     1      -9.823  18.189  64.991  1.00  0.00     0.000 HD 
ENDBRANCH  32  43
ENDBRANCH  29  30
ENDBRANCH  23  29
ENDBRANCH  14  15
ENDBRANCH   8  14
TORSDOF 6
ENDMDL
MODEL       65
REMARK 921   NORMALIZED FREE ENERGY PREDICTED BY IDOCK:   -6.20 KCAL/MOL
REMARK 922        TOTAL FREE ENERGY PREDICTED BY IDOCK:   -9.93 KCAL/MOL
REMARK 923 INTER-LIGAND FREE ENERGY PREDICTED BY IDOCK:   -8.99 KCAL/MOL
REMARK 924 INTRA-LIGAND FREE ENERGY PREDICTED BY IDOCK:   -0.94 KCAL/MOL
REMARK 927      BINDING AFFINITY PREDICTED BY RF-SCORE:    0.00 PKD
ROOT
HETATM    1  C   UNL     1     -11.061   6.300  68.448  1.00  0.00    -0.279 C  
HETATM    2  C   UNL     1     -10.264   5.010  68.220  1.00  0.00    -0.143 C  
HETATM    3  N   UNL     1     -11.378   6.338  69.893  1.00  0.00    -0.427 NA 
HETATM    4  H1  UNL     1     -11.908   7.195  70.044  1.00  0.00     0.000 HD 
HETATM    5  C   UNL     1      -9.593   4.956  66.867  1.00  0.00    -0.171 C  
HETATM    6  H2  UNL     1     -10.556   6.258  70.491  1.00  0.00     0.000 HD 
HETATM    7  C   UNL     1      -8.893   6.268  66.514  1.00  0.00    -0.138 C  
HETATM    8  C   UNL     1     -10.414   7.623  67.855  1.00  0.00    -0.207 C  
HETATM    9  O   UNL     1      -9.770   7.402  66.600  1.00  0.00    -0.197 OA 
ENDROOT
BRANCH   7  10
HETATM   10  C   UNL     1      -8.405   6.155  65.045  1.00  0.00    -0.112 C  
HETATM   11  N   UNL     1      -7.000   5.760  64.940  1.00  0.00    -0.051 NA 
HETATM   12  H1  UNL     1      -6.680   5.686  63.974  1.00  0.00     0.000 HD 
HETATM   13  H2  UNL     1      -6.826   4.894  65.450  1.00  0.00     0.000 HD 
ENDBRANCH   7  10
BRANCH   8  14
HETATM   14  O   UNL     1      -9.599   8.269  68.833  1.00  0.00    -0.151 OA 
BRANCH  14  15
HETATM   15  C   UNL     1      -9.717   9.691  69.090  1.00  0.00    -0.178 C  
HETATM   16  C   UNL     1     -10.962   9.767  70.017  1.00  0.00    -0.277 C  
HETATM   17  N   UNL     1     -10.709   9.094  71.306  1.00  0.00    -0.302 NA 
HETATM   18  C   UNL     1     -11.462  11.156  70.362  1.00  0.00    -0.265 C  
HETATM   19  H2  UNL     1      -9.877   9.463  71.764  1.00  0.00     0.000 HD 
HETATM   20  H1  UNL     1     -11.526   9.144  71.914  1.00  0.00     0.000 HD 
HETATM   21  C   UNL     1     -11.643  12.052  69.148  1.00  0.00    -0.312 C  
HETATM   22  N   UNL     1     -12.168  13.314  69.696  1.00  0.00    -0.248 NA 
HETATM   23  C   UNL     1     -10.288  12.132  68.377  1.00  0.00    -0.229 C  
HETATM   24  C   UNL     1      -9.883  10.681  67.877  1.00  0.00    -0.161 C  
HETATM   25  O   UNL     1      -8.646  10.760  67.146  1.00  0.00    -0.127 OA 
HETATM   26  H2  UNL     1     -11.589  13.720  70.431  1.00  0.00     0.000 HD 
HETATM   27  H1  UNL     1     -12.289  13.916  68.882  1.00  0.00     0.000 HD 
HETATM   28  H   UNL     1      -8.747  11.358  66.414  1.00  0.00     0.000 HD 
BRANCH  23  29
HETATM   29  O   UNL     1     -10.301  13.118  67.297  1.00  0.00    -0.240 OA 
BRANCH  29  30
HETATM   30  C   UNL     1     -11.619  13.712  67.120  1.00  0.00    -0.361 C  
HETATM   31  O   UNL     1     -11.580  15.130  67.325  1.00  0.00    -0.323 OA 
HETATM   32  C   UNL     1     -10.837  15.797  66.290  1.00  0.00    -0.232 C  
HETATM   33  C   UNL     1     -11.600  15.676  64.971  1.00  0.00    -0.079 C  
HETATM   34  H   UNL     1     -12.728  11.761  64.692  1.00  0.00     0.000 HD 
HETATM   35  O   UNL     1     -10.943  16.382  63.918  1.00  0.00    -0.999 OA 
HETATM   36  C   UNL     1     -11.739  14.180  64.597  1.00  0.00    -0.417 C  
HETATM   37  H1  UNL     1     -12.647  13.057  63.124  1.00  0.00     0.000 HD 
HETATM   38  H2  UNL     1     -12.184  14.599  62.598  1.00  0.00     0.000 HD 
HETATM   39  C   UNL     1     -12.313  13.374  65.774  1.00  0.00    -0.460 C  
HETATM   40  N   UNL     1     -12.556  14.043  63.370  1.00  0.00    -0.736 NA 
HETATM   41  H   UNL     1     -11.417  16.307  63.098  1.00  0.00     0.000 HD 
HETATM   42  O   UNL     1     -12.303  11.968  65.516  1.00  0.00    -0.460 OA 
BRANCH  32  43
HETATM   43  C   UNL     1     -10.615  17.242  66.738  1.00  0.00    -0.192 C  
HETATM   44  O   UNL     1      -9.576  17.821  65.936  1.00  0.00    -0.517 OA 
HETATM   45  H   UNL     1      -9.439  18.719  66.215  1.00  0.00     0.000 HD 
ENDBRANCH  32  43
ENDBRANCH  29  30
ENDBRANCH  23  29
ENDBRANCH  14  15
ENDBRANCH   8  14
TORSDOF 6
ENDMDL
MODEL       66
REMARK 921   NORMALIZED FREE ENERGY PREDICTED BY IDOCK:   -6.19 KCAL/MOL
REMARK 922        TOTAL FREE ENERGY PREDICTED BY IDOCK:   -9.92 KCAL/MOL
REMARK 923 INTER-LIGAND FREE ENERGY PREDICTED BY IDOCK:   -7.70 KCAL/MOL
REMARK 924 INTRA-LIGAND FREE ENERGY PREDICTED BY IDOCK:   -2.22 KCAL/MOL
REMARK 927      BINDING AFFINITY PREDICTED BY RF-SCORE:    0.00 PKD
ROOT
HETATM    1  C   UNL     1      -7.629   6.005  70.817  1.00  0.00    -0.093 C  
HETATM    2  C   UNL     1      -6.651   7.100  71.256  1.00  0.00    -0.044 C  
HETATM    3  N   UNL     1      -8.428   5.663  72.015  1.00  0.00    -0.126 NA 
HETATM    4  H1  UNL     1      -9.079   4.934  71.723  1.00  0.00     0.000 HD 
HETATM    5  C   UNL     1      -5.966   7.787  70.097  1.00  0.00    -0.023 C  
HETATM    6  H2  UNL     1      -8.886   6.469  72.441  1.00  0.00     0.000 HD 
HETATM    7  C   UNL     1      -6.943   8.145  68.978  1.00  0.00    -0.061 C  
HETATM    8  C   UNL     1      -8.464   6.313  69.504  1.00  0.00    -0.129 C  
HETATM    9  O   UNL     1      -7.700   7.013  68.521  1.00  0.00    -0.114 OA 
ENDROOT
BRANCH   7  10
HETATM   10  C   UNL     1      -6.106   8.672  67.780  1.00  0.00    -0.048 C  
HETATM   11  N   UNL     1      -6.885   8.789  66.548  1.00  0.00    -0.071 NA 
HETATM   12  H1  UNL     1      -6.335   9.135  65.762  1.00  0.00     0.000 HD 
HETATM   13  H2  UNL     1      -7.714   9.365  66.695  1.00  0.00     0.000 HD 
ENDBRANCH   7  10
BRANCH   8  14
HETATM   14  O   UNL     1      -9.712   6.926  69.829  1.00  0.00    -0.164 OA 
BRANCH  14  15
HETATM   15  C   UNL     1      -9.904   8.357  69.698  1.00  0.00    -0.184 C  
HETATM   16  C   UNL     1     -10.704   8.712  70.982  1.00  0.00    -0.228 C  
HETATM   17  N   UNL     1      -9.898   8.474  72.195  1.00  0.00    -0.298 NA 
HETATM   18  C   UNL     1     -11.209  10.137  71.089  1.00  0.00    -0.244 C  
HETATM   19  H2  UNL     1      -9.008   8.971  72.157  1.00  0.00     0.000 HD 
HETATM   20  H1  UNL     1     -10.422   8.707  73.038  1.00  0.00     0.000 HD 
HETATM   21  C   UNL     1     -11.950  10.610  69.849  1.00  0.00    -0.310 C  
HETATM   22  N   UNL     1     -12.385  11.977  70.180  1.00  0.00    -0.204 NA 
HETATM   23  C   UNL     1     -11.011  10.452  68.613  1.00  0.00    -0.243 C  
HETATM   24  C   UNL     1     -10.643   8.920  68.427  1.00  0.00    -0.143 C  
HETATM   25  O   UNL     1      -9.796   8.773  67.272  1.00  0.00    -0.172 OA 
HETATM   26  H2  UNL     1     -11.629  12.595  70.474  1.00  0.00     0.000 HD 
HETATM   27  H1  UNL     1     -12.883  12.296  69.348  1.00  0.00     0.000 HD 
HETATM   28  H   UNL     1     -10.243   9.113  66.505  1.00  0.00     0.000 HD 
BRANCH  23  29
HETATM   29  O   UNL     1     -11.559  11.053  67.397  1.00  0.00    -0.525 OA 
BRANCH  29  30
HETATM   30  C   UNL     1     -10.726  12.143  66.907  1.00  0.00    -0.236 C  
HETATM   31  O   UNL     1      -9.845  11.695  65.869  1.00  0.00    -0.219 OA 
HETATM   32  C   UNL     1     -10.566  11.342  64.675  1.00  0.00    -0.327 C  
HETATM   33  C   UNL     1     -11.175  12.606  64.069  1.00  0.00    -0.406 C  
HETATM   34  H   UNL     1     -12.914  14.607  67.175  1.00  0.00     0.000 HD 
HETATM   35  O   UNL     1     -11.846  12.327  62.839  1.00  0.00    -0.626 OA 
HETATM   36  C   UNL     1     -12.166  13.231  65.080  1.00  0.00    -0.432 C  
HETATM   37  H1  UNL     1     -13.347  14.918  65.209  1.00  0.00     0.000 HD 
HETATM   38  H2  UNL     1     -13.112  14.388  63.618  1.00  0.00     0.000 HD 
HETATM   39  C   UNL     1     -11.503  13.407  66.456  1.00  0.00    -0.341 C  
HETATM   40  N   UNL     1     -12.695  14.506  64.542  1.00  0.00    -0.612 NA 
HETATM   41  H   UNL     1     -12.224  13.112  62.461  1.00  0.00     0.000 HD 
HETATM   42  O   UNL     1     -12.438  13.833  67.451  1.00  0.00    -0.208 OA 
BRANCH  32  43
HETATM   43  C   UNL     1      -9.591  10.624  63.741  1.00  0.00    -0.306 C  
HETATM   44  O   UNL     1      -8.873  11.605  62.979  1.00  0.00    -0.560 OA 
HETATM   45  H   UNL     1      -8.268  11.159  62.399  1.00  0.00     0.000 HD 
ENDBRANCH  32  43
ENDBRANCH  29  30
ENDBRANCH  23  29
ENDBRANCH  14  15
ENDBRANCH   8  14
TORSDOF 6
ENDMDL
MODEL       67
REMARK 921   NORMALIZED FREE ENERGY PREDICTED BY IDOCK:   -6.19 KCAL/MOL
REMARK 922        TOTAL FREE ENERGY PREDICTED BY IDOCK:   -9.91 KCAL/MOL
REMARK 923 INTER-LIGAND FREE ENERGY PREDICTED BY IDOCK:   -8.48 KCAL/MOL
REMARK 924 INTRA-LIGAND FREE ENERGY PREDICTED BY IDOCK:   -1.43 KCAL/MOL
REMARK 927      BINDING AFFINITY PREDICTED BY RF-SCORE:    0.00 PKD
ROOT
HETATM    1  C   UNL     1      -9.035  15.121  68.146  1.00  0.00    -0.174 C  
HETATM    2  C   UNL     1     -10.059  16.226  68.435  1.00  0.00    -0.237 C  
HETATM    3  N   UNL     1      -8.932  14.322  69.387  1.00  0.00    -0.289 NA 
HETATM    4  H1  UNL     1      -8.252  13.587  69.195  1.00  0.00     0.000 HD 
HETATM    5  C   UNL     1     -10.520  16.951  67.191  1.00  0.00    -0.296 C  
HETATM    6  H2  UNL     1      -9.830  13.967  69.717  1.00  0.00     0.000 HD 
HETATM    7  C   UNL     1     -10.849  15.990  66.050  1.00  0.00    -0.190 C  
HETATM    8  C   UNL     1      -9.277  14.291  66.815  1.00  0.00    -0.264 C  
HETATM    9  O   UNL     1      -9.764  15.100  65.745  1.00  0.00    -0.324 OA 
ENDROOT
BRANCH   7  10
HETATM   10  C   UNL     1     -11.131  16.847  64.786  1.00  0.00     0.102 C  
HETATM   11  N   UNL     1     -11.856  16.112  63.749  1.00  0.00    -1.368 NA 
HETATM   12  H1  UNL     1     -12.040  16.676  62.919  1.00  0.00     0.000 HD 
HETATM   13  H2  UNL     1     -12.719  15.714  64.120  1.00  0.00     0.000 HD 
ENDBRANCH   7  10
BRANCH   8  14
HETATM   14  O   UNL     1     -10.061  13.127  67.081  1.00  0.00    -0.237 OA 
BRANCH  14  15
HETATM   15  C   UNL     1      -9.479  11.800  67.030  1.00  0.00    -0.185 C  
HETATM   16  C   UNL     1     -10.132  11.192  65.757  1.00  0.00    -0.249 C  
HETATM   17  N   UNL     1      -9.711  11.917  64.543  1.00  0.00    -0.428 NA 
HETATM   18  C   UNL     1      -9.849   9.727  65.489  1.00  0.00    -0.378 C  
HETATM   19  H2  UNL     1      -8.695  11.955  64.462  1.00  0.00     0.000 HD 
HETATM   20  H1  UNL     1     -10.140  11.518  63.708  1.00  0.00     0.000 HD 
HETATM   21  C   UNL     1     -10.090   8.833  66.694  1.00  0.00    -0.288 C  
HETATM   22  N   UNL     1      -9.803   7.474  66.208  1.00  0.00    -0.447 NA 
HETATM   23  C   UNL     1      -9.223   9.351  67.884  1.00  0.00    -0.129 C  
HETATM   24  C   UNL     1      -9.670  10.828  68.254  1.00  0.00    -0.164 C  
HETATM   25  O   UNL     1      -8.886  11.296  69.367  1.00  0.00    -0.368 OA 
HETATM   26  H2  UNL     1      -8.878   7.368  65.790  1.00  0.00     0.000 HD 
HETATM   27  H1  UNL     1      -9.965   6.873  67.016  1.00  0.00     0.000 HD 
HETATM   28  H   UNL     1      -9.002  10.709  70.106  1.00  0.00     0.000 HD 
BRANCH  23  29
HETATM   29  O   UNL     1      -9.239   8.452  69.037  1.00  0.00    -0.147 OA 
BRANCH  29  30
HETATM   30  C   UNL     1     -10.579   7.961  69.326  1.00  0.00    -0.188 C  
HETATM   31  O   UNL     1     -10.697   6.565  69.023  1.00  0.00    -0.225 OA 
HETATM   32  C   UNL     1      -9.911   5.759  69.918  1.00  0.00    -0.194 C  
HETATM   33  C   UNL     1     -10.511   5.844  71.322  1.00  0.00    -0.233 C  
HETATM   34  H   UNL     1     -11.228   9.808  71.990  1.00  0.00     0.000 HD 
HETATM   35  O   UNL     1      -9.813   5.004  72.242  1.00  0.00    -0.157 OA 
HETATM   36  C   UNL     1     -10.467   7.312  71.808  1.00  0.00    -0.197 C  
HETATM   37  H1  UNL     1     -11.099   8.393  73.448  1.00  0.00     0.000 HD 
HETATM   38  H2  UNL     1     -10.729   6.781  73.813  1.00  0.00     0.000 HD 
HETATM   39  C   UNL     1     -11.087   8.253  70.762  1.00  0.00    -0.258 C  
HETATM   40  N   UNL     1     -11.128   7.424  73.128  1.00  0.00    -0.348 NA 
HETATM   41  H   UNL     1     -10.185   5.057  73.114  1.00  0.00     0.000 HD 
HETATM   42  O   UNL     1     -10.917   9.629  71.110  1.00  0.00    -0.336 OA 
BRANCH  32  43
HETATM   43  C   UNL     1      -9.877   4.339  69.352  1.00  0.00    -0.135 C  
HETATM   44  O   UNL     1      -9.646   4.409  67.938  1.00  0.00    -0.152 OA 
HETATM   45  H   UNL     1      -9.625   3.527  67.587  1.00  0.00     0.000 HD 
ENDBRANCH  32  43
ENDBRANCH  29  30
ENDBRANCH  23  29
ENDBRANCH  14  15
ENDBRANCH   8  14
TORSDOF 6
ENDMDL
MODEL       68
REMARK 921   NORMALIZED FREE ENERGY PREDICTED BY IDOCK:   -6.16 KCAL/MOL
REMARK 922        TOTAL FREE ENERGY PREDICTED BY IDOCK:   -9.88 KCAL/MOL
REMARK 923 INTER-LIGAND FREE ENERGY PREDICTED BY IDOCK:   -8.81 KCAL/MOL
REMARK 924 INTRA-LIGAND FREE ENERGY PREDICTED BY IDOCK:   -1.07 KCAL/MOL
REMARK 927      BINDING AFFINITY PREDICTED BY RF-SCORE:    0.00 PKD
ROOT
HETATM    1  C   UNL     1      -8.386   8.274  72.745  1.00  0.00    -0.171 C  
HETATM    2  C   UNL     1      -8.128   7.073  73.662  1.00  0.00    -0.127 C  
HETATM    3  N   UNL     1      -7.055   8.762  72.323  1.00  0.00    -0.299 NA 
HETATM    4  H1  UNL     1      -7.226   9.561  71.713  1.00  0.00     0.000 HD 
HETATM    5  C   UNL     1      -9.371   6.259  73.942  1.00  0.00    -0.150 C  
HETATM    6  H2  UNL     1      -6.475   8.041  71.894  1.00  0.00     0.000 HD 
HETATM    7  C   UNL     1     -10.187   5.996  72.678  1.00  0.00    -0.183 C  
HETATM    8  C   UNL     1      -9.429   8.034  71.573  1.00  0.00    -0.160 C  
HETATM    9  O   UNL     1     -10.519   7.202  71.972  1.00  0.00    -0.205 OA 
ENDROOT
BRANCH   7  10
HETATM   10  C   UNL     1     -11.515   5.319  73.113  1.00  0.00    -0.246 C  
HETATM   11  N   UNL     1     -12.699   5.995  72.584  1.00  0.00    -0.345 NA 
HETATM   12  H1  UNL     1     -13.572   5.550  72.870  1.00  0.00     0.000 HD 
HETATM   13  H2  UNL     1     -12.649   6.078  71.569  1.00  0.00     0.000 HD 
ENDBRANCH   7  10
BRANCH   8  14
HETATM   14  O   UNL     1      -8.764   7.607  70.384  1.00  0.00    -0.140 OA 
BRANCH  14  15
HETATM   15  C   UNL     1      -9.397   7.722  69.085  1.00  0.00    -0.151 C  
HETATM   16  C   UNL     1      -8.214   7.481  68.108  1.00  0.00    -0.125 C  
HETATM   17  N   UNL     1      -7.689   6.108  68.234  1.00  0.00    -0.101 NA 
HETATM   18  C   UNL     1      -8.505   7.682  66.634  1.00  0.00    -0.130 C  
HETATM   19  H2  UNL     1      -8.424   5.412  68.112  1.00  0.00     0.000 HD 
HETATM   20  H1  UNL     1      -6.912   5.949  67.592  1.00  0.00     0.000 HD 
HETATM   21  C   UNL     1      -9.191   9.004  66.328  1.00  0.00    -0.206 C  
HETATM   22  N   UNL     1      -9.337   9.013  64.863  1.00  0.00    -0.435 NA 
HETATM   23  C   UNL     1     -10.506   9.091  67.164  1.00  0.00    -0.263 C  
HETATM   24  C   UNL     1     -10.147   9.055  68.710  1.00  0.00    -0.199 C  
HETATM   25  O   UNL     1     -11.358   9.159  69.480  1.00  0.00    -0.438 OA 
HETATM   26  H2  UNL     1      -9.820   8.197  64.487  1.00  0.00     0.000 HD 
HETATM   27  H1  UNL     1      -9.797   9.900  64.657  1.00  0.00     0.000 HD 
HETATM   28  H   UNL     1     -11.811   9.964  69.254  1.00  0.00     0.000 HD 
BRANCH  23  29
HETATM   29  O   UNL     1     -11.338  10.239  66.805  1.00  0.00    -0.033 OA 
BRANCH  29  30
HETATM   30  C   UNL     1     -10.536  11.415  66.494  1.00  0.00    -0.263 C  
HETATM   31  O   UNL     1     -10.736  11.834  65.138  1.00  0.00    -0.275 OA 
HETATM   32  C   UNL     1     -12.064  12.344  64.930  1.00  0.00    -0.407 C  
HETATM   33  C   UNL     1     -12.222  13.652  65.706  1.00  0.00    -0.464 C  
HETATM   34  H   UNL     1     -10.704  12.931  69.427  1.00  0.00     0.000 HD 
HETATM   35  O   UNL     1     -13.502  14.245  65.480  1.00  0.00    -0.683 OA 
HETATM   36  C   UNL     1     -12.028  13.376  67.216  1.00  0.00    -0.347 C  
HETATM   37  H1  UNL     1     -11.959  14.466  68.966  1.00  0.00     0.000 HD 
HETATM   38  H2  UNL     1     -12.947  15.166  67.783  1.00  0.00     0.000 HD 
HETATM   39  C   UNL     1     -10.720  12.609  67.467  1.00  0.00    -0.225 C  
HETATM   40  N   UNL     1     -12.088  14.649  67.971  1.00  0.00    -0.240 NA 
HETATM   41  H   UNL     1     -13.601  15.057  65.961  1.00  0.00     0.000 HD 
HETATM   42  O   UNL     1     -10.591  12.200  68.831  1.00  0.00    -0.212 OA 
BRANCH  32  43
HETATM   43  C   UNL     1     -12.269  12.500  63.422  1.00  0.00    -0.517 C  
HETATM   44  O   UNL     1     -12.284  13.897  63.099  1.00  0.00    -1.071 OA 
HETATM   45  H   UNL     1     -12.411  13.994  62.162  1.00  0.00     0.000 HD 
ENDBRANCH  32  43
ENDBRANCH  29  30
ENDBRANCH  23  29
ENDBRANCH  14  15
ENDBRANCH   8  14
TORSDOF 6
ENDMDL
MODEL       69
REMARK 921   NORMALIZED FREE ENERGY PREDICTED BY IDOCK:   -6.11 KCAL/MOL
REMARK 922        TOTAL FREE ENERGY PREDICTED BY IDOCK:   -9.81 KCAL/MOL
REMARK 923 INTER-LIGAND FREE ENERGY PREDICTED BY IDOCK:   -9.49 KCAL/MOL
REMARK 924 INTRA-LIGAND FREE ENERGY PREDICTED BY IDOCK:   -0.32 KCAL/MOL
REMARK 927      BINDING AFFINITY PREDICTED BY RF-SCORE:    0.00 PKD
ROOT
HETATM    1  C   UNL     1      -8.975   9.240  64.244  1.00  0.00    -0.096 C  
HETATM    2  C   UNL     1      -8.530  10.152  63.094  1.00  0.00    -0.182 C  
HETATM    3  N   UNL     1      -7.752   8.562  64.727  1.00  0.00    -0.101 NA 
HETATM    4  H1  UNL     1      -8.047   7.956  65.492  1.00  0.00     0.000 HD 
HETATM    5  C   UNL     1      -9.589  11.148  62.681  1.00  0.00    -0.271 C  
HETATM    6  H2  UNL     1      -7.005   9.208  64.987  1.00  0.00     0.000 HD 
HETATM    7  C   UNL     1     -10.245  11.826  63.882  1.00  0.00    -0.373 C  
HETATM    8  C   UNL     1      -9.863   9.928  65.364  1.00  0.00    -0.313 C  
HETATM    9  O   UNL     1     -10.778  10.885  64.827  1.00  0.00    -0.292 OA 
ENDROOT
BRANCH   7  10
HETATM   10  C   UNL     1     -11.427  12.681  63.346  1.00  0.00    -0.435 C  
HETATM   11  N   UNL     1     -12.678  11.929  63.255  1.00  0.00    -0.893 NA 
HETATM   12  H1  UNL     1     -13.454  12.491  62.903  1.00  0.00     0.000 HD 
HETATM   13  H2  UNL     1     -12.914  11.503  64.151  1.00  0.00     0.000 HD 
ENDBRANCH   7  10
BRANCH   8  14
HETATM   14  O   UNL     1      -9.046  10.422  66.425  1.00  0.00    -0.152 OA 
BRANCH  14  15
HETATM   15  C   UNL     1      -9.483  11.522  67.262  1.00  0.00    -0.169 C  
HETATM   16  C   UNL     1     -10.995  11.220  67.458  1.00  0.00    -0.265 C  
HETATM   17  N   UNL     1     -11.196   9.969  68.213  1.00  0.00    -0.502 NA 
HETATM   18  C   UNL     1     -11.806  12.279  68.178  1.00  0.00    -0.372 C  
HETATM   19  H2  UNL     1     -10.699   9.985  69.103  1.00  0.00     0.000 HD 
HETATM   20  H1  UNL     1     -12.189   9.771  68.341  1.00  0.00     0.000 HD 
HETATM   21  C   UNL     1     -11.607  13.678  67.619  1.00  0.00    -0.346 C  
HETATM   22  N   UNL     1     -12.505  14.526  68.421  1.00  0.00    -0.531 NA 
HETATM   23  C   UNL     1     -10.086  14.025  67.666  1.00  0.00    -0.241 C  
HETATM   24  C   UNL     1      -9.287  13.000  66.757  1.00  0.00    -0.244 C  
HETATM   25  O   UNL     1      -7.887  13.335  66.782  1.00  0.00    -0.382 OA 
HETATM   26  H2  UNL     1     -12.356  14.455  69.427  1.00  0.00     0.000 HD 
HETATM   27  H1  UNL     1     -12.371  15.466  68.046  1.00  0.00     0.000 HD 
HETATM   28  H   UNL     1      -7.768  14.228  66.476  1.00  0.00     0.000 HD 
BRANCH  23  29
HETATM   29  O   UNL     1      -9.806  15.419  67.325  1.00  0.00    -0.216 OA 
BRANCH  29  30
HETATM   30  C   UNL     1      -8.998  16.076  68.342  1.00  0.00    -0.188 C  
HETATM   31  O   UNL     1      -7.727  16.478  67.815  1.00  0.00    -0.147 OA 
HETATM   32  C   UNL     1      -7.862  17.533  66.848  1.00  0.00    -0.228 C  
HETATM   33  C   UNL     1      -8.339  18.801  67.557  1.00  0.00    -0.265 C  
HETATM   34  H   UNL     1     -11.414  17.632  69.978  1.00  0.00     0.000 HD 
HETATM   35  O   UNL     1      -8.424  19.906  66.656  1.00  0.00    -0.309 OA 
HETATM   36  C   UNL     1      -9.722  18.536  68.199  1.00  0.00    -0.339 C  
HETATM   37  H1  UNL     1     -11.067  19.551  69.390  1.00  0.00     0.000 HD 
HETATM   38  H2  UNL     1     -10.153  20.572  68.397  1.00  0.00     0.000 HD 
HETATM   39  C   UNL     1      -9.690  17.264  69.061  1.00  0.00    -0.201 C  
HETATM   40  N   UNL     1     -10.155  19.726  68.967  1.00  0.00    -0.416 NA 
HETATM   41  H   UNL     1      -8.720  20.693  67.097  1.00  0.00     0.000 HD 
HETATM   42  O   UNL     1     -10.989  16.905  69.538  1.00  0.00    -0.251 OA 
BRANCH  32  43
HETATM   43  C   UNL     1      -6.511  17.696  66.149  1.00  0.00    -0.249 C  
HETATM   44  O   UNL     1      -6.697  18.474  64.958  1.00  0.00    -0.515 OA 
HETATM   45  H   UNL     1      -5.858  18.575  64.524  1.00  0.00     0.000 HD 
ENDBRANCH  32  43
ENDBRANCH  29  30
ENDBRANCH  23  29
ENDBRANCH  14  15
ENDBRANCH   8  14
TORSDOF 6
ENDMDL
MODEL       70
REMARK 921   NORMALIZED FREE ENERGY PREDICTED BY IDOCK:   -6.11 KCAL/MOL
REMARK 922        TOTAL FREE ENERGY PREDICTED BY IDOCK:   -9.80 KCAL/MOL
REMARK 923 INTER-LIGAND FREE ENERGY PREDICTED BY IDOCK:   -8.09 KCAL/MOL
REMARK 924 INTRA-LIGAND FREE ENERGY PREDICTED BY IDOCK:   -1.71 KCAL/MOL
REMARK 927      BINDING AFFINITY PREDICTED BY RF-SCORE:    0.00 PKD
ROOT
HETATM    1  C   UNL     1     -12.167   6.689  71.565  1.00  0.00    -0.340 C  
HETATM    2  C   UNL     1     -11.582   5.807  72.674  1.00  0.00    -0.304 C  
HETATM    3  N   UNL     1     -13.292   7.429  72.178  1.00  0.00    -0.519 NA 
HETATM    4  H1  UNL     1     -13.682   8.015  71.440  1.00  0.00     0.000 HD 
HETATM    5  C   UNL     1     -10.239   5.212  72.316  1.00  0.00    -0.255 C  
HETATM    6  H2  UNL     1     -13.027   7.951  73.014  1.00  0.00     0.000 HD 
HETATM    7  C   UNL     1      -9.300   6.240  71.687  1.00  0.00    -0.147 C  
HETATM    8  C   UNL     1     -11.121   7.574  70.765  1.00  0.00    -0.265 C  
HETATM    9  O   UNL     1      -9.882   6.898  70.550  1.00  0.00    -0.179 OA 
ENDROOT
BRANCH   7  10
HETATM   10  C   UNL     1      -8.037   5.480  71.200  1.00  0.00    -0.112 C  
HETATM   11  N   UNL     1      -8.329   4.120  70.748  1.00  0.00    -0.070 NA 
HETATM   12  H1  UNL     1      -7.499   3.620  70.428  1.00  0.00     0.000 HD 
HETATM   13  H2  UNL     1      -9.053   4.122  70.029  1.00  0.00     0.000 HD 
ENDBRANCH   7  10
BRANCH   8  14
HETATM   14  O   UNL     1     -10.995   8.867  71.358  1.00  0.00    -0.259 OA 
BRANCH  14  15
HETATM   15  C   UNL     1     -10.785  10.050  70.547  1.00  0.00    -0.285 C  
HETATM   16  C   UNL     1     -12.228  10.600  70.370  1.00  0.00    -0.345 C  
HETATM   17  N   UNL     1     -12.796  11.032  71.662  1.00  0.00    -0.443 NA 
HETATM   18  C   UNL     1     -12.390  11.777  69.428  1.00  0.00    -0.097 C  
HETATM   19  H2  UNL     1     -12.192  11.707  72.130  1.00  0.00     0.000 HD 
HETATM   20  H1  UNL     1     -13.743  11.393  71.545  1.00  0.00     0.000 HD 
HETATM   21  C   UNL     1     -11.728  11.565  68.076  1.00  0.00    -0.273 C  
HETATM   22  N   UNL     1     -12.040  12.787  67.317  1.00  0.00    -0.417 NA 
HETATM   23  C   UNL     1     -10.217  11.246  68.303  1.00  0.00    -0.186 C  
HETATM   24  C   UNL     1     -10.084   9.908  69.145  1.00  0.00    -0.200 C  
HETATM   25  O   UNL     1      -8.690   9.602  69.333  1.00  0.00    -0.145 OA 
HETATM   26  H2  UNL     1     -11.763  13.650  67.785  1.00  0.00     0.000 HD 
HETATM   27  H1  UNL     1     -11.596  12.645  66.410  1.00  0.00     0.000 HD 
HETATM   28  H   UNL     1      -8.266   9.516  68.486  1.00  0.00     0.000 HD 
BRANCH  23  29
HETATM   29  O   UNL     1      -9.447  11.209  67.059  1.00  0.00    -0.174 OA 
BRANCH  29  30
HETATM   30  C   UNL     1      -9.909  10.157  66.165  1.00  0.00    -0.237 C  
HETATM   31  O   UNL     1     -10.785  10.679  65.159  1.00  0.00    -0.186 OA 
HETATM   32  C   UNL     1     -10.086  11.534  64.238  1.00  0.00    -0.291 C  
HETATM   33  C   UNL     1      -9.109  10.691  63.418  1.00  0.00    -0.241 C  
HETATM   34  H   UNL     1      -7.169   8.307  66.108  1.00  0.00     0.000 HD 
HETATM   35  O   UNL     1      -8.435  11.477  62.434  1.00  0.00    -0.600 OA 
HETATM   36  C   UNL     1      -8.078  10.037  64.370  1.00  0.00    -0.156 C  
HETATM   37  H1  UNL     1      -6.501   8.714  64.228  1.00  0.00     0.000 HD 
HETATM   38  H2  UNL     1      -6.732   9.630  62.823  1.00  0.00     0.000 HD 
HETATM   39  C   UNL     1      -8.784   9.305  65.521  1.00  0.00    -0.175 C  
HETATM   40  N   UNL     1      -7.180   9.145  63.600  1.00  0.00    -0.092 NA 
HETATM   41  H   UNL     1      -7.828  10.953  61.925  1.00  0.00     0.000 HD 
HETATM   42  O   UNL     1      -7.859   8.828  66.502  1.00  0.00    -0.100 OA 
BRANCH  32  43
HETATM   43  C   UNL     1     -11.135  12.253  63.387  1.00  0.00    -0.418 C  
HETATM   44  O   UNL     1     -11.245  13.610  63.838  1.00  0.00    -0.580 OA 
HETATM   45  H   UNL     1     -11.897  14.057  63.310  1.00  0.00     0.000 HD 
ENDBRANCH  32  43
ENDBRANCH  29  30
ENDBRANCH  23  29
ENDBRANCH  14  15
ENDBRANCH   8  14
TORSDOF 6
ENDMDL
MODEL       71
REMARK 921   NORMALIZED FREE ENERGY PREDICTED BY IDOCK:   -6.10 KCAL/MOL
REMARK 922        TOTAL FREE ENERGY PREDICTED BY IDOCK:   -9.80 KCAL/MOL
REMARK 923 INTER-LIGAND FREE ENERGY PREDICTED BY IDOCK:   -8.14 KCAL/MOL
REMARK 924 INTRA-LIGAND FREE ENERGY PREDICTED BY IDOCK:   -1.66 KCAL/MOL
REMARK 927      BINDING AFFINITY PREDICTED BY RF-SCORE:    0.00 PKD
ROOT
HETATM    1  C   UNL     1     -11.074   8.209  71.289  1.00  0.00    -0.248 C  
HETATM    2  C   UNL     1     -11.149   7.852  72.778  1.00  0.00    -0.462 C  
HETATM    3  N   UNL     1     -11.688   9.548  71.155  1.00  0.00    -0.333 NA 
HETATM    4  H1  UNL     1     -11.638   9.786  70.165  1.00  0.00     0.000 HD 
HETATM    5  C   UNL     1     -10.299   6.659  73.149  1.00  0.00    -0.256 C  
HETATM    6  H2  UNL     1     -11.266  10.251  71.762  1.00  0.00     0.000 HD 
HETATM    7  C   UNL     1      -8.904   6.727  72.527  1.00  0.00    -0.126 C  
HETATM    8  C   UNL     1      -9.649   8.039  70.611  1.00  0.00    -0.166 C  
HETATM    9  O   UNL     1      -8.942   6.900  71.102  1.00  0.00    -0.142 OA 
ENDROOT
BRANCH   7  10
HETATM   10  C   UNL     1      -8.196   5.378  72.824  1.00  0.00    -0.109 C  
HETATM   11  N   UNL     1      -9.085   4.390  73.435  1.00  0.00    -0.110 NA 
HETATM   12  H1  UNL     1      -8.619   3.503  73.630  1.00  0.00     0.000 HD 
HETATM   13  H2  UNL     1      -9.918   4.246  72.864  1.00  0.00     0.000 HD 
ENDBRANCH   7  10
BRANCH   8  14
HETATM   14  O   UNL     1      -8.914   9.262  70.668  1.00  0.00    -0.218 OA 
BRANCH  14  15
HETATM   15  C   UNL     1      -8.384   9.878  69.467  1.00  0.00    -0.168 C  
HETATM   16  C   UNL     1      -7.173  10.688  70.007  1.00  0.00    -0.033 C  
HETATM   17  N   UNL     1      -6.134   9.795  70.553  1.00  0.00    -0.068 NA 
HETATM   18  C   UNL     1      -6.469  11.590  69.013  1.00  0.00    -0.076 C  
HETATM   19  H2  UNL     1      -5.843   9.096  69.870  1.00  0.00     0.000 HD 
HETATM   20  H1  UNL     1      -5.339  10.327  70.908  1.00  0.00     0.000 HD 
HETATM   21  C   UNL     1      -7.415  12.494  68.239  1.00  0.00    -0.122 C  
HETATM   22  N   UNL     1      -6.534  13.301  67.380  1.00  0.00    -0.370 NA 
HETATM   23  C   UNL     1      -8.478  11.606  67.519  1.00  0.00    -0.150 C  
HETATM   24  C   UNL     1      -9.316  10.807  68.604  1.00  0.00    -0.184 C  
HETATM   25  O   UNL     1     -10.311  10.007  67.939  1.00  0.00    -0.180 OA 
HETATM   26  H2  UNL     1      -5.910  12.751  66.791  1.00  0.00     0.000 HD 
HETATM   27  H1  UNL     1      -7.169  13.907  66.860  1.00  0.00     0.000 HD 
HETATM   28  H   UNL     1     -10.874  10.568  67.418  1.00  0.00     0.000 HD 
BRANCH  23  29
HETATM   29  O   UNL     1      -9.324  12.361  66.596  1.00  0.00    -0.218 OA 
BRANCH  29  30
HETATM   30  C   UNL     1     -10.195  13.294  67.297  1.00  0.00    -0.240 C  
HETATM   31  O   UNL     1      -9.619  14.606  67.343  1.00  0.00    -0.210 OA 
HETATM   32  C   UNL     1      -9.565  15.209  66.039  1.00  0.00    -0.330 C  
HETATM   33  C   UNL     1     -10.989  15.491  65.561  1.00  0.00    -0.324 C  
HETATM   34  H   UNL     1     -13.114  12.088  66.322  1.00  0.00     0.000 HD 
HETATM   35  O   UNL     1     -10.996  16.157  64.297  1.00  0.00    -1.016 OA 
HETATM   36  C   UNL     1     -11.767  14.157  65.459  1.00  0.00    -0.344 C  
HETATM   37  H1  UNL     1     -13.687  13.544  65.018  1.00  0.00     0.000 HD 
HETATM   38  H2  UNL     1     -13.246  14.976  64.230  1.00  0.00     0.000 HD 
HETATM   39  C   UNL     1     -11.651  13.356  66.765  1.00  0.00    -0.365 C  
HETATM   40  N   UNL     1     -13.174  14.424  65.085  1.00  0.00    -0.481 NA 
HETATM   41  H   UNL     1     -11.881  16.332  64.000  1.00  0.00     0.000 HD 
HETATM   42  O   UNL     1     -12.223  12.051  66.648  1.00  0.00    -0.550 OA 
BRANCH  32  43
HETATM   43  C   UNL     1      -8.696  16.463  66.145  1.00  0.00    -0.312 C  
HETATM   44  O   UNL     1      -7.427  16.101  66.707  1.00  0.00    -0.225 OA 
HETATM   45  H   UNL     1      -6.887  16.880  66.773  1.00  0.00     0.000 HD 
ENDBRANCH  32  43
ENDBRANCH  29  30
ENDBRANCH  23  29
ENDBRANCH  14  15
ENDBRANCH   8  14
TORSDOF 6
ENDMDL
MODEL       72
REMARK 921   NORMALIZED FREE ENERGY PREDICTED BY IDOCK:   -6.10 KCAL/MOL
REMARK 922        TOTAL FREE ENERGY PREDICTED BY IDOCK:   -9.80 KCAL/MOL
REMARK 923 INTER-LIGAND FREE ENERGY PREDICTED BY IDOCK:   -8.47 KCAL/MOL
REMARK 924 INTRA-LIGAND FREE ENERGY PREDICTED BY IDOCK:   -1.33 KCAL/MOL
REMARK 927      BINDING AFFINITY PREDICTED BY RF-SCORE:    0.00 PKD
ROOT
HETATM    1  C   UNL     1     -11.863  13.656  66.855  1.00  0.00    -0.411 C  
HETATM    2  C   UNL     1     -10.644  14.280  66.166  1.00  0.00    -0.293 C  
HETATM    3  N   UNL     1     -11.825  12.213  66.530  1.00  0.00    -0.615 NA 
HETATM    4  H1  UNL     1     -12.636  11.798  66.988  1.00  0.00     0.000 HD 
HETATM    5  C   UNL     1     -10.349  15.686  66.636  1.00  0.00    -0.290 C  
HETATM    6  H2  UNL     1     -10.944  11.764  66.780  1.00  0.00     0.000 HD 
HETATM    7  C   UNL     1     -10.420  15.814  68.156  1.00  0.00    -0.263 C  
HETATM    8  C   UNL     1     -12.039  14.007  68.392  1.00  0.00    -0.283 C  
HETATM    9  O   UNL     1     -11.670  15.353  68.693  1.00  0.00    -0.353 OA 
ENDROOT
BRANCH   7  10
HETATM   10  C   UNL     1     -10.281  17.322  68.503  1.00  0.00    -0.358 C  
HETATM   11  N   UNL     1     -10.836  18.198  67.471  1.00  0.00    -0.335 NA 
HETATM   12  H1  UNL     1     -10.745  19.188  67.699  1.00  0.00     0.000 HD 
HETATM   13  H2  UNL     1     -11.807  17.957  67.272  1.00  0.00     0.000 HD 
ENDBRANCH   7  10
BRANCH   8  14
HETATM   14  O   UNL     1     -11.407  13.023  69.211  1.00  0.00    -0.267 OA 
BRANCH  14  15
HETATM   15  C   UNL     1     -12.131  11.860  69.685  1.00  0.00    -0.239 C  
HETATM   16  C   UNL     1     -12.459  12.240  71.156  1.00  0.00    -0.226 C  
HETATM   17  N   UNL     1     -13.372  13.397  71.216  1.00  0.00    -0.179 NA 
HETATM   18  C   UNL     1     -13.097  11.159  72.005  1.00  0.00    -0.433 C  
HETATM   19  H2  UNL     1     -14.220  13.235  70.673  1.00  0.00     0.000 HD 
HETATM   20  H1  UNL     1     -13.588  13.647  72.182  1.00  0.00     0.000 HD 
HETATM   21  C   UNL     1     -12.360   9.831  71.948  1.00  0.00    -0.335 C  
HETATM   22  N   UNL     1     -13.110   8.954  72.862  1.00  0.00    -0.749 NA 
HETATM   23  C   UNL     1     -12.266   9.375  70.458  1.00  0.00     0.011 C  
HETATM   24  C   UNL     1     -11.438  10.447  69.633  1.00  0.00    -0.262 C  
HETATM   25  O   UNL     1     -11.331  10.014  68.265  1.00  0.00    -0.506 OA 
HETATM   26  H2  UNL     1     -14.106   8.887  72.652  1.00  0.00     0.000 HD 
HETATM   27  H1  UNL     1     -12.616   8.062  72.824  1.00  0.00     0.000 HD 
HETATM   28  H   UNL     1     -10.912   9.161  68.233  1.00  0.00     0.000 HD 
BRANCH  23  29
HETATM   29  O   UNL     1     -11.741   8.018  70.307  1.00  0.00    -0.096 OA 
BRANCH  29  30
HETATM   30  C   UNL     1     -10.458   7.855  70.976  1.00  0.00    -0.203 C  
HETATM   31  O   UNL     1     -10.590   7.064  72.164  1.00  0.00    -0.208 OA 
HETATM   32  C   UNL     1     -10.916   5.697  71.860  1.00  0.00    -0.235 C  
HETATM   33  C   UNL     1      -9.723   5.044  71.160  1.00  0.00    -0.178 C  
HETATM   34  H   UNL     1      -8.513   7.703  68.307  1.00  0.00     0.000 HD 
HETATM   35  O   UNL     1      -9.963   3.661  70.895  1.00  0.00    -0.149 OA 
HETATM   36  C   UNL     1      -9.436   5.793  69.836  1.00  0.00    -0.150 C  
HETATM   37  H1  UNL     1      -8.038   5.723  68.321  1.00  0.00     0.000 HD 
HETATM   38  H2  UNL     1      -8.301   4.221  69.055  1.00  0.00     0.000 HD 
HETATM   39  C   UNL     1      -9.317   7.306  70.080  1.00  0.00    -0.154 C  
HETATM   40  N   UNL     1      -8.227   5.229  69.193  1.00  0.00    -0.091 NA 
HETATM   41  H   UNL     1      -9.223   3.255  70.461  1.00  0.00     0.000 HD 
HETATM   42  O   UNL     1      -9.211   8.039  68.857  1.00  0.00    -0.147 OA 
BRANCH  32  43
HETATM   43  C   UNL     1     -11.306   5.011  73.170  1.00  0.00    -0.321 C  
HETATM   44  O   UNL     1     -10.121   4.501  73.796  1.00  0.00    -0.148 OA 
HETATM   45  H   UNL     1     -10.363   4.075  74.609  1.00  0.00     0.000 HD 
ENDBRANCH  32  43
ENDBRANCH  29  30
ENDBRANCH  23  29
ENDBRANCH  14  15
ENDBRANCH   8  14
TORSDOF 6
ENDMDL
MODEL       73
REMARK 921   NORMALIZED FREE ENERGY PREDICTED BY IDOCK:   -6.07 KCAL/MOL
REMARK 922        TOTAL FREE ENERGY PREDICTED BY IDOCK:   -9.76 KCAL/MOL
REMARK 923 INTER-LIGAND FREE ENERGY PREDICTED BY IDOCK:   -8.09 KCAL/MOL
REMARK 924 INTRA-LIGAND FREE ENERGY PREDICTED BY IDOCK:   -1.67 KCAL/MOL
REMARK 927      BINDING AFFINITY PREDICTED BY RF-SCORE:    0.00 PKD
ROOT
HETATM    1  C   UNL     1      -6.734  16.718  66.696  1.00  0.00    -0.206 C  
HETATM    2  C   UNL     1      -6.605  17.996  67.534  1.00  0.00    -0.190 C  
HETATM    3  N   UNL     1      -5.770  15.752  67.268  1.00  0.00    -0.336 NA 
HETATM    4  H1  UNL     1      -5.856  14.902  66.711  1.00  0.00     0.000 HD 
HETATM    5  C   UNL     1      -7.724  18.982  67.293  1.00  0.00    -0.254 C  
HETATM    6  H2  UNL     1      -5.896  15.596  68.268  1.00  0.00     0.000 HD 
HETATM    7  C   UNL     1      -9.095  18.308  67.274  1.00  0.00    -0.256 C  
HETATM    8  C   UNL     1      -8.211  16.172  66.497  1.00  0.00    -0.308 C  
HETATM    9  O   UNL     1      -9.165  17.222  66.336  1.00  0.00    -0.255 OA 
ENDROOT
BRANCH   7  10
HETATM   10  C   UNL     1     -10.134  19.378  66.842  1.00  0.00    -0.388 C  
HETATM   11  N   UNL     1      -9.600  20.739  66.880  1.00  0.00    -0.678 NA 
HETATM   12  H1  UNL     1     -10.283  21.441  66.595  1.00  0.00     0.000 HD 
HETATM   13  H2  UNL     1      -8.748  20.812  66.323  1.00  0.00     0.000 HD 
ENDBRANCH   7  10
BRANCH   8  14
HETATM   14  O   UNL     1      -8.541  15.223  67.511  1.00  0.00    -0.162 OA 
BRANCH  14  15
HETATM   15  C   UNL     1      -9.322  14.039  67.208  1.00  0.00    -0.230 C  
HETATM   16  C   UNL     1     -10.671  14.332  67.921  1.00  0.00    -0.240 C  
HETATM   17  N   UNL     1     -11.354  15.492  67.315  1.00  0.00    -0.232 NA 
HETATM   18  C   UNL     1     -11.687  13.207  67.930  1.00  0.00    -0.398 C  
HETATM   19  H2  UNL     1     -11.479  15.370  66.311  1.00  0.00     0.000 HD 
HETATM   20  H1  UNL     1     -12.240  15.684  67.783  1.00  0.00     0.000 HD 
HETATM   21  C   UNL     1     -11.114  11.878  68.394  1.00  0.00    -0.244 C  
HETATM   22  N   UNL     1     -12.259  10.953  68.369  1.00  0.00    -0.810 NA 
HETATM   23  C   UNL     1      -9.897  11.513  67.486  1.00  0.00    -0.190 C  
HETATM   24  C   UNL     1      -8.777  12.627  67.639  1.00  0.00    -0.179 C  
HETATM   25  O   UNL     1      -7.646  12.277  66.821  1.00  0.00    -0.360 OA 
HETATM   26  H2  UNL     1     -12.738  10.908  67.469  1.00  0.00     0.000 HD 
HETATM   27  H1  UNL     1     -11.874  10.061  68.680  1.00  0.00     0.000 HD 
HETATM   28  H   UNL     1      -7.317  11.423  67.081  1.00  0.00     0.000 HD 
BRANCH  23  29
HETATM   29  O   UNL     1      -9.387  10.163  67.728  1.00  0.00    -0.140 OA 
BRANCH  29  30
HETATM   30  C   UNL     1      -8.825  10.026  69.064  1.00  0.00    -0.159 C  
HETATM   31  O   UNL     1      -9.794   9.508  69.984  1.00  0.00    -0.202 OA 
HETATM   32  C   UNL     1     -10.132   8.142  69.687  1.00  0.00    -0.199 C  
HETATM   33  C   UNL     1      -8.914   7.258  69.958  1.00  0.00    -0.142 C  
HETATM   34  H   UNL     1      -5.745   9.164  68.227  1.00  0.00     0.000 HD 
HETATM   35  O   UNL     1      -9.212   5.877  69.748  1.00  0.00    -0.141 OA 
HETATM   36  C   UNL     1      -7.751   7.694  69.035  1.00  0.00    -0.117 C  
HETATM   37  H1  UNL     1      -5.771   7.194  68.741  1.00  0.00     0.000 HD 
HETATM   38  H2  UNL     1      -6.710   5.901  69.303  1.00  0.00     0.000 HD 
HETATM   39  C   UNL     1      -7.509   9.208  69.139  1.00  0.00    -0.072 C  
HETATM   40  N   UNL     1      -6.538   6.906  69.350  1.00  0.00    -0.047 NA 
HETATM   41  H   UNL     1      -8.456   5.327  69.916  1.00  0.00     0.000 HD 
HETATM   42  O   UNL     1      -6.551   9.665  68.182  1.00  0.00    -0.060 OA 
BRANCH  32  43
HETATM   43  C   UNL     1     -11.354   7.774  70.530  1.00  0.00    -0.241 C  
HETATM   44  O   UNL     1     -12.021   6.662  69.917  1.00  0.00    -0.652 OA 
HETATM   45  H   UNL     1     -12.780   6.434  70.440  1.00  0.00     0.000 HD 
ENDBRANCH  32  43
ENDBRANCH  29  30
ENDBRANCH  23  29
ENDBRANCH  14  15
ENDBRANCH   8  14
TORSDOF 6
ENDMDL
MODEL       74
REMARK 921   NORMALIZED FREE ENERGY PREDICTED BY IDOCK:   -6.06 KCAL/MOL
REMARK 922        TOTAL FREE ENERGY PREDICTED BY IDOCK:   -9.73 KCAL/MOL
REMARK 923 INTER-LIGAND FREE ENERGY PREDICTED BY IDOCK:   -7.93 KCAL/MOL
REMARK 924 INTRA-LIGAND FREE ENERGY PREDICTED BY IDOCK:   -1.81 KCAL/MOL
REMARK 927      BINDING AFFINITY PREDICTED BY RF-SCORE:    0.00 PKD
ROOT
HETATM    1  C   UNL     1     -10.001  12.845  66.271  1.00  0.00    -0.270 C  
HETATM    2  C   UNL     1      -9.206  14.117  66.587  1.00  0.00    -0.272 C  
HETATM    3  N   UNL     1      -9.002  11.816  65.908  1.00  0.00    -0.380 NA 
HETATM    4  H1  UNL     1      -9.531  10.970  65.698  1.00  0.00     0.000 HD 
HETATM    5  C   UNL     1     -10.032  15.182  67.272  1.00  0.00    -0.230 C  
HETATM    6  H2  UNL     1      -8.283  11.679  66.619  1.00  0.00     0.000 HD 
HETATM    7  C   UNL     1     -10.893  14.611  68.398  1.00  0.00    -0.245 C  
HETATM    8  C   UNL     1     -11.065  12.409  67.365  1.00  0.00    -0.272 C  
HETATM    9  O   UNL     1     -11.726  13.525  67.962  1.00  0.00    -0.318 OA 
ENDROOT
BRANCH   7  10
HETATM   10  C   UNL     1     -11.822  15.751  68.897  1.00  0.00    -0.341 C  
HETATM   11  N   UNL     1     -12.870  15.278  69.801  1.00  0.00    -0.608 NA 
HETATM   12  H1  UNL     1     -13.479  16.027  70.129  1.00  0.00     0.000 HD 
HETATM   13  H2  UNL     1     -12.469  14.763  70.586  1.00  0.00     0.000 HD 
ENDBRANCH   7  10
BRANCH   8  14
HETATM   14  O   UNL     1     -10.487  11.496  68.298  1.00  0.00    -0.183 OA 
BRANCH  14  15
HETATM   15  C   UNL     1     -11.287  10.476  68.948  1.00  0.00    -0.251 C  
HETATM   16  C   UNL     1     -11.401  11.011  70.403  1.00  0.00    -0.132 C  
HETATM   17  N   UNL     1     -12.157  12.277  70.449  1.00  0.00    -0.434 NA 
HETATM   18  C   UNL     1     -12.064  10.091  71.408  1.00  0.00    -0.498 C  
HETATM   19  H2  UNL     1     -13.073  12.182  70.011  1.00  0.00     0.000 HD 
HETATM   20  H1  UNL     1     -12.232  12.627  71.404  1.00  0.00     0.000 HD 
HETATM   21  C   UNL     1     -11.502   8.678  71.399  1.00  0.00    -0.289 C  
HETATM   22  N   UNL     1     -12.243   7.980  72.462  1.00  0.00    -0.560 NA 
HETATM   23  C   UNL     1     -11.630   8.098  69.956  1.00  0.00     0.189 C  
HETATM   24  C   UNL     1     -10.777   8.987  68.956  1.00  0.00    -0.141 C  
HETATM   25  O   UNL     1     -10.876   8.437  67.630  1.00  0.00    -0.483 OA 
HETATM   26  H2  UNL     1     -13.257   8.025  72.361  1.00  0.00     0.000 HD 
HETATM   27  H1  UNL     1     -11.866   7.032  72.456  1.00  0.00     0.000 HD 
HETATM   28  H   UNL     1     -10.568   7.537  67.635  1.00  0.00     0.000 HD 
BRANCH  23  29
HETATM   29  O   UNL     1     -11.290   6.678  69.878  1.00  0.00    -0.335 OA 
BRANCH  29  30
HETATM   30  C   UNL     1      -9.887   6.437  70.188  1.00  0.00    -0.167 C  
HETATM   31  O   UNL     1      -9.724   5.994  71.541  1.00  0.00    -0.163 OA 
HETATM   32  C   UNL     1     -10.278   4.682  71.742  1.00  0.00    -0.172 C  
HETATM   33  C   UNL     1      -9.447   3.665  70.960  1.00  0.00    -0.164 C  
HETATM   34  H   UNL     1      -8.915   5.280  67.247  1.00  0.00     0.000 HD 
HETATM   35  O   UNL     1      -9.909   2.331  71.179  1.00  0.00    -0.138 OA 
HETATM   36  C   UNL     1      -9.512   4.006  69.451  1.00  0.00    -0.189 C  
HETATM   37  H1  UNL     1      -8.681   3.308  67.696  1.00  0.00     0.000 HD 
HETATM   38  H2  UNL     1      -8.862   2.105  68.873  1.00  0.00     0.000 HD 
HETATM   39  C   UNL     1      -9.156   5.481  69.209  1.00  0.00    -0.112 C  
HETATM   40  N   UNL     1      -8.638   3.083  68.691  1.00  0.00    -0.072 NA 
HETATM   41  H   UNL     1      -9.393   1.699  70.693  1.00  0.00     0.000 HD 
HETATM   42  O   UNL     1      -9.362   5.866  67.847  1.00  0.00    -0.109 OA 
BRANCH  32  43
HETATM   43  C   UNL     1     -10.307   4.419  73.248  1.00  0.00    -0.173 C  
HETATM   44  O   UNL     1     -11.175   5.378  73.869  1.00  0.00    -0.415 OA 
HETATM   45  H   UNL     1     -11.193   5.214  74.805  1.00  0.00     0.000 HD 
ENDBRANCH  32  43
ENDBRANCH  29  30
ENDBRANCH  23  29
ENDBRANCH  14  15
ENDBRANCH   8  14
TORSDOF 6
ENDMDL
MODEL       75
REMARK 921   NORMALIZED FREE ENERGY PREDICTED BY IDOCK:   -6.03 KCAL/MOL
REMARK 922        TOTAL FREE ENERGY PREDICTED BY IDOCK:   -9.70 KCAL/MOL
REMARK 923 INTER-LIGAND FREE ENERGY PREDICTED BY IDOCK:   -8.49 KCAL/MOL
REMARK 924 INTRA-LIGAND FREE ENERGY PREDICTED BY IDOCK:   -1.21 KCAL/MOL
REMARK 927      BINDING AFFINITY PREDICTED BY RF-SCORE:    0.00 PKD
ROOT
HETATM    1  C   UNL     1      -5.265  10.679  71.267  1.00  0.00    -0.085 C  
HETATM    2  C   UNL     1      -5.210  12.184  71.559  1.00  0.00    -0.007 C  
HETATM    3  N   UNL     1      -5.367  10.010  72.583  1.00  0.00    -0.301 NA 
HETATM    4  H1  UNL     1      -5.404   9.009  72.389  1.00  0.00     0.000 HD 
HETATM    5  C   UNL     1      -5.412  13.037  70.327  1.00  0.00    -0.132 C  
HETATM    6  H2  UNL     1      -6.149  10.342  73.148  1.00  0.00     0.000 HD 
HETATM    7  C   UNL     1      -6.576  12.545  69.468  1.00  0.00    -0.039 C  
HETATM    8  C   UNL     1      -6.333  10.227  70.185  1.00  0.00    -0.117 C  
HETATM    9  O   UNL     1      -6.453  11.160  69.110  1.00  0.00    -0.059 OA 
ENDROOT
BRANCH   7  10
HETATM   10  C   UNL     1      -6.571  13.377  68.157  1.00  0.00    -0.118 C  
HETATM   11  N   UNL     1      -7.334  12.747  67.079  1.00  0.00    -0.374 NA 
HETATM   12  H1  UNL     1      -7.330  13.294  66.218  1.00  0.00     0.000 HD 
HETATM   13  H2  UNL     1      -8.288  12.544  67.379  1.00  0.00     0.000 HD 
ENDBRANCH   7  10
BRANCH   8  14
HETATM   14  O   UNL     1      -7.571   9.882  70.809  1.00  0.00    -0.305 OA 
BRANCH  14  15
HETATM   15  C   UNL     1      -8.663   9.307  70.048  1.00  0.00    -0.195 C  
HETATM   16  C   UNL     1      -7.998   8.072  69.380  1.00  0.00    -0.116 C  
HETATM   17  N   UNL     1      -7.579   7.080  70.389  1.00  0.00    -0.089 NA 
HETATM   18  C   UNL     1      -8.842   7.314  68.374  1.00  0.00    -0.128 C  
HETATM   19  H2  UNL     1      -8.355   6.808  70.992  1.00  0.00     0.000 HD 
HETATM   20  H1  UNL     1      -7.143   6.269  69.950  1.00  0.00     0.000 HD 
HETATM   21  C   UNL     1      -9.484   8.208  67.326  1.00  0.00    -0.155 C  
HETATM   22  N   UNL     1     -10.207   7.280  66.442  1.00  0.00    -0.475 NA 
HETATM   23  C   UNL     1     -10.337   9.295  68.051  1.00  0.00    -0.221 C  
HETATM   24  C   UNL     1      -9.390  10.185  68.962  1.00  0.00    -0.188 C  
HETATM   25  O   UNL     1     -10.174  11.202  69.611  1.00  0.00    -0.438 OA 
HETATM   26  H2  UNL     1     -10.865   6.670  66.927  1.00  0.00     0.000 HD 
HETATM   27  H1  UNL     1     -10.638   7.880  65.738  1.00  0.00     0.000 HD 
HETATM   28  H   UNL     1     -10.613  11.732  68.955  1.00  0.00     0.000 HD 
BRANCH  23  29
HETATM   29  O   UNL     1     -11.148  10.094  67.132  1.00  0.00    -0.213 OA 
BRANCH  29  30
HETATM   30  C   UNL     1     -10.493  11.345  66.776  1.00  0.00    -0.244 C  
HETATM   31  O   UNL     1      -9.745  11.212  65.561  1.00  0.00    -0.208 OA 
HETATM   32  C   UNL     1     -10.607  11.022  64.425  1.00  0.00    -0.325 C  
HETATM   33  C   UNL     1     -11.404  12.304  64.184  1.00  0.00    -0.376 C  
HETATM   34  H   UNL     1     -12.811  13.447  67.843  1.00  0.00     0.000 HD 
HETATM   35  O   UNL     1     -12.228  12.199  63.022  1.00  0.00    -0.707 OA 
HETATM   36  C   UNL     1     -12.278  12.603  65.426  1.00  0.00    -0.459 C  
HETATM   37  H1  UNL     1     -13.562  14.088  66.062  1.00  0.00     0.000 HD 
HETATM   38  H2  UNL     1     -13.528  13.911  64.379  1.00  0.00     0.000 HD 
HETATM   39  C   UNL     1     -11.431  12.578  66.708  1.00  0.00    -0.362 C  
HETATM   40  N   UNL     1     -12.986  13.891  65.243  1.00  0.00    -0.774 NA 
HETATM   41  H   UNL     1     -12.723  12.995  62.872  1.00  0.00     0.000 HD 
HETATM   42  O   UNL     1     -12.236  12.692  67.885  1.00  0.00    -0.311 OA 
BRANCH  32  43
HETATM   43  C   UNL     1      -9.729  10.616  63.241  1.00  0.00    -0.340 C  
HETATM   44  O   UNL     1      -8.961  11.753  62.823  1.00  0.00    -0.629 OA 
HETATM   45  H   UNL     1      -8.415  11.501  62.087  1.00  0.00     0.000 HD 
ENDBRANCH  32  43
ENDBRANCH  29  30
ENDBRANCH  23  29
ENDBRANCH  14  15
ENDBRANCH   8  14
TORSDOF 6
ENDMDL
MODEL       76
REMARK 921   NORMALIZED FREE ENERGY PREDICTED BY IDOCK:   -6.02 KCAL/MOL
REMARK 922        TOTAL FREE ENERGY PREDICTED BY IDOCK:   -9.69 KCAL/MOL
REMARK 923 INTER-LIGAND FREE ENERGY PREDICTED BY IDOCK:   -8.60 KCAL/MOL
REMARK 924 INTRA-LIGAND FREE ENERGY PREDICTED BY IDOCK:   -1.09 KCAL/MOL
REMARK 927      BINDING AFFINITY PREDICTED BY RF-SCORE:    0.00 PKD
ROOT
HETATM    1  C   UNL     1     -10.775   9.036  66.971  1.00  0.00    -0.114 C  
HETATM    2  C   UNL     1      -9.638   8.584  66.047  1.00  0.00    -0.236 C  
HETATM    3  N   UNL     1     -10.595   8.293  68.238  1.00  0.00    -0.387 NA 
HETATM    4  H1  UNL     1     -11.351   8.594  68.853  1.00  0.00     0.000 HD 
HETATM    5  C   UNL     1      -9.480   9.459  64.825  1.00  0.00    -0.088 C  
HETATM    6  H2  UNL     1      -9.669   8.409  68.648  1.00  0.00     0.000 HD 
HETATM    7  C   UNL     1      -9.538  10.947  65.167  1.00  0.00    -0.243 C  
HETATM    8  C   UNL     1     -10.959  10.605  67.119  1.00  0.00    -0.247 C  
HETATM    9  O   UNL     1     -10.724  11.302  65.894  1.00  0.00    -0.265 OA 
ENDROOT
BRANCH   7  10
HETATM   10  C   UNL     1      -9.549  11.732  63.827  1.00  0.00    -0.155 C  
HETATM   11  N   UNL     1     -10.091  13.084  63.964  1.00  0.00    -0.717 NA 
HETATM   12  H1  UNL     1     -10.098  13.600  63.084  1.00  0.00     0.000 HD 
HETATM   13  H2  UNL     1      -9.595  13.604  64.688  1.00  0.00     0.000 HD 
ENDBRANCH   7  10
BRANCH   8  14
HETATM   14  O   UNL     1     -10.215  11.099  68.232  1.00  0.00    -0.170 OA 
BRANCH  14  15
HETATM   15  C   UNL     1     -10.336  12.477  68.667  1.00  0.00    -0.177 C  
HETATM   16  C   UNL     1     -11.673  12.467  69.459  1.00  0.00    -0.322 C  
HETATM   17  N   UNL     1     -11.575  11.620  70.663  1.00  0.00    -0.368 NA 
HETATM   18  C   UNL     1     -12.185  13.812  69.935  1.00  0.00    -0.383 C  
HETATM   19  H2  UNL     1     -10.791  11.898  71.253  1.00  0.00     0.000 HD 
HETATM   20  H1  UNL     1     -12.453  11.613  71.182  1.00  0.00     0.000 HD 
HETATM   21  C   UNL     1     -12.217  14.869  68.842  1.00  0.00    -0.108 C  
HETATM   22  N   UNL     1     -12.778  16.061  69.499  1.00  0.00    -0.467 NA 
HETATM   23  C   UNL     1     -10.785  15.008  68.238  1.00  0.00    -0.253 C  
HETATM   24  C   UNL     1     -10.352  13.625  67.590  1.00  0.00    -0.239 C  
HETATM   25  O   UNL     1      -9.041  13.762  67.012  1.00  0.00    -0.228 OA 
HETATM   26  H2  UNL     1     -12.276  16.347  70.340  1.00  0.00     0.000 HD 
HETATM   27  H1  UNL     1     -12.799  16.770  68.766  1.00  0.00     0.000 HD 
HETATM   28  H   UNL     1      -9.051  14.455  66.362  1.00  0.00     0.000 HD 
BRANCH  23  29
HETATM   29  O   UNL     1     -10.663  16.129  67.307  1.00  0.00    -0.311 OA 
BRANCH  29  30
HETATM   30  C   UNL     1     -10.205  17.341  67.972  1.00  0.00    -0.332 C  
HETATM   31  O   UNL     1      -9.220  17.044  68.970  1.00  0.00    -0.243 OA 
HETATM   32  C   UNL     1      -7.994  16.572  68.383  1.00  0.00    -0.194 C  
HETATM   33  C   UNL     1      -7.341  17.715  67.606  1.00  0.00    -0.194 C  
HETATM   34  H   UNL     1     -10.328  19.407  65.394  1.00  0.00     0.000 HD 
HETATM   35  O   UNL     1      -6.081  17.325  67.059  1.00  0.00    -0.134 OA 
HETATM   36  C   UNL     1      -8.292  18.170  66.473  1.00  0.00    -0.265 C  
HETATM   37  H1  UNL     1      -8.339  19.636  65.022  1.00  0.00     0.000 HD 
HETATM   38  H2  UNL     1      -6.769  19.149  65.427  1.00  0.00     0.000 HD 
HETATM   39  C   UNL     1      -9.698  18.457  67.021  1.00  0.00    -0.310 C  
HETATM   40  N   UNL     1      -7.712  19.337  65.769  1.00  0.00    -0.451 NA 
HETATM   41  H   UNL     1      -5.675  18.035  66.577  1.00  0.00     0.000 HD 
HETATM   42  O   UNL     1     -10.638  18.724  65.976  1.00  0.00    -0.459 OA 
BRANCH  32  43
HETATM   43  C   UNL     1      -7.122  16.024  69.514  1.00  0.00    -0.181 C  
HETATM   44  O   UNL     1      -7.490  14.660  69.763  1.00  0.00    -0.360 OA 
HETATM   45  H   UNL     1      -6.948  14.320  70.465  1.00  0.00     0.000 HD 
ENDBRANCH  32  43
ENDBRANCH  29  30
ENDBRANCH  23  29
ENDBRANCH  14  15
ENDBRANCH   8  14
TORSDOF 6
ENDMDL
MODEL       77
REMARK 921   NORMALIZED FREE ENERGY PREDICTED BY IDOCK:   -6.02 KCAL/MOL
REMARK 922        TOTAL FREE ENERGY PREDICTED BY IDOCK:   -9.69 KCAL/MOL
REMARK 923 INTER-LIGAND FREE ENERGY PREDICTED BY IDOCK:   -8.24 KCAL/MOL
REMARK 924 INTRA-LIGAND FREE ENERGY PREDICTED BY IDOCK:   -1.45 KCAL/MOL
REMARK 927      BINDING AFFINITY PREDICTED BY RF-SCORE:    0.00 PKD
ROOT
HETATM    1  C   UNL     1     -12.493   9.629  72.235  1.00  0.00    -0.174 C  
HETATM    2  C   UNL     1     -13.225  10.822  71.608  1.00  0.00    -0.487 C  
HETATM    3  N   UNL     1     -13.523   8.851  72.959  1.00  0.00    -0.952 NA 
HETATM    4  H1  UNL     1     -13.036   8.058  73.377  1.00  0.00     0.000 HD 
HETATM    5  C   UNL     1     -12.394  11.556  70.580  1.00  0.00    -0.457 C  
HETATM    6  H2  UNL     1     -14.313   8.580  72.374  1.00  0.00     0.000 HD 
HETATM    7  C   UNL     1     -11.685  10.602  69.621  1.00  0.00    -0.296 C  
HETATM    8  C   UNL     1     -11.570   8.794  71.253  1.00  0.00    -0.292 C  
HETATM    9  O   UNL     1     -10.892   9.618  70.304  1.00  0.00    -0.242 OA 
ENDROOT
BRANCH   7  10
HETATM   10  C   UNL     1     -10.731  11.453  68.739  1.00  0.00    -0.203 C  
HETATM   11  N   UNL     1     -10.683  12.858  69.142  1.00  0.00    -0.439 NA 
HETATM   12  H1  UNL     1     -10.056  13.416  68.563  1.00  0.00     0.000 HD 
HETATM   13  H2  UNL     1     -10.442  12.946  70.130  1.00  0.00     0.000 HD 
ENDBRANCH   7  10
BRANCH   8  14
HETATM   14  O   UNL     1     -12.295   7.706  70.679  1.00  0.00    -0.106 OA 
BRANCH  14  15
HETATM   15  C   UNL     1     -11.660   6.427  70.427  1.00  0.00    -0.373 C  
HETATM   16  C   UNL     1     -11.006   6.097  71.797  1.00  0.00    -0.264 C  
HETATM   17  N   UNL     1     -12.028   5.896  72.842  1.00  0.00    -0.515 NA 
HETATM   18  C   UNL     1     -10.117   4.870  71.841  1.00  0.00    -0.262 C  
HETATM   19  H2  UNL     1     -12.708   5.186  72.570  1.00  0.00     0.000 HD 
HETATM   20  H1  UNL     1     -11.599   5.679  73.741  1.00  0.00     0.000 HD 
HETATM   21  C   UNL     1      -9.080   4.834  70.730  1.00  0.00    -0.130 C  
HETATM   22  N   UNL     1      -8.310   3.605  70.983  1.00  0.00    -0.066 NA 
HETATM   23  C   UNL     1      -9.815   4.931  69.356  1.00  0.00    -0.211 C  
HETATM   24  C   UNL     1     -10.594   6.311  69.275  1.00  0.00    -0.273 C  
HETATM   25  O   UNL     1     -11.251   6.411  67.998  1.00  0.00    -0.471 OA 
HETATM   26  H2  UNL     1      -8.881   2.762  71.047  1.00  0.00     0.000 HD 
HETATM   27  H1  UNL     1      -7.615   3.581  70.238  1.00  0.00     0.000 HD 
HETATM   28  H   UNL     1     -10.606   6.341  67.302  1.00  0.00     0.000 HD 
BRANCH  23  29
HETATM   29  O   UNL     1      -8.925   4.718  68.215  1.00  0.00    -0.106 OA 
BRANCH  29  30
HETATM   30  C   UNL     1      -8.980   3.346  67.731  1.00  0.00    -0.145 C  
HETATM   31  O   UNL     1      -9.848   3.231  66.596  1.00  0.00     0.002 OA 
HETATM   32  C   UNL     1      -9.310   3.906  65.445  1.00  0.00    -0.159 C  
HETATM   33  C   UNL     1      -8.055   3.168  64.977  1.00  0.00    -0.086 C  
HETATM   34  H   UNL     1      -5.852   2.469  68.344  1.00  0.00     0.000 HD 
HETATM   35  O   UNL     1      -7.514   3.753  63.791  1.00  0.00    -0.057 OA 
HETATM   36  C   UNL     1      -6.997   3.193  66.107  1.00  0.00    -0.057 C  
HETATM   37  H1  UNL     1      -5.114   2.421  66.447  1.00  0.00     0.000 HD 
HETATM   38  H2  UNL     1      -5.427   2.719  64.810  1.00  0.00     0.000 HD 
HETATM   39  C   UNL     1      -7.602   2.701  67.432  1.00  0.00    -0.061 C  
HETATM   40  N   UNL     1      -5.811   2.404  65.702  1.00  0.00    -0.018 NA 
HETATM   41  H   UNL     1      -6.735   3.295  63.500  1.00  0.00     0.000 HD 
HETATM   42  O   UNL     1      -6.697   2.863  68.527  1.00  0.00    -0.039 OA 
BRANCH  32  43
HETATM   43  C   UNL     1     -10.412   3.968  64.388  1.00  0.00    -0.197 C  
HETATM   44  O   UNL     1     -11.602   4.497  64.990  1.00  0.00    -1.101 OA 
HETATM   45  H   UNL     1     -12.287   4.535  64.333  1.00  0.00     0.000 HD 
ENDBRANCH  32  43
ENDBRANCH  29  30
ENDBRANCH  23  29
ENDBRANCH  14  15
ENDBRANCH   8  14
TORSDOF 6
ENDMDL
MODEL       78
REMARK 921   NORMALIZED FREE ENERGY PREDICTED BY IDOCK:   -6.02 KCAL/MOL
REMARK 922        TOTAL FREE ENERGY PREDICTED BY IDOCK:   -9.68 KCAL/MOL
REMARK 923 INTER-LIGAND FREE ENERGY PREDICTED BY IDOCK:   -7.79 KCAL/MOL
REMARK 924 INTRA-LIGAND FREE ENERGY PREDICTED BY IDOCK:   -1.89 KCAL/MOL
REMARK 927      BINDING AFFINITY PREDICTED BY RF-SCORE:    0.00 PKD
ROOT
HETATM    1  C   UNL     1     -11.352  14.190  69.345  1.00  0.00    -0.272 C  
HETATM    2  C   UNL     1     -10.806  15.363  70.168  1.00  0.00    -0.328 C  
HETATM    3  N   UNL     1     -10.174  13.527  68.742  1.00  0.00    -0.383 NA 
HETATM    4  H1  UNL     1     -10.537  12.747  68.195  1.00  0.00     0.000 HD 
HETATM    5  C   UNL     1     -11.833  15.966  71.099  1.00  0.00    -0.483 C  
HETATM    6  H2  UNL     1      -9.470  13.250  69.426  1.00  0.00     0.000 HD 
HETATM    7  C   UNL     1     -12.621  14.900  71.859  1.00  0.00    -0.331 C  
HETATM    8  C   UNL     1     -12.363  13.229  70.102  1.00  0.00    -0.236 C  
HETATM    9  O   UNL     1     -13.233  13.937  70.987  1.00  0.00    -0.284 OA 
ENDROOT
BRANCH   7  10
HETATM   10  C   UNL     1     -13.755  15.625  72.635  1.00  0.00    -0.579 C  
HETATM   11  N   UNL     1     -13.311  16.163  73.921  1.00  0.00    -0.918 NA 
HETATM   12  H1  UNL     1     -14.056  16.639  74.430  1.00  0.00     0.000 HD 
HETATM   13  H2  UNL     1     -12.503  16.774  73.801  1.00  0.00     0.000 HD 
ENDBRANCH   7  10
BRANCH   8  14
HETATM   14  O   UNL     1     -11.668  12.137  70.704  1.00  0.00    -0.127 OA 
BRANCH  14  15
HETATM   15  C   UNL     1     -11.923  10.768  70.300  1.00  0.00    -0.351 C  
HETATM   16  C   UNL     1     -12.316  10.086  71.640  1.00  0.00    -0.394 C  
HETATM   17  N   UNL     1     -13.575  10.642  72.173  1.00  0.00    -0.453 NA 
HETATM   18  C   UNL     1     -12.507   8.583  71.601  1.00  0.00    -0.370 C  
HETATM   19  H2  UNL     1     -14.328  10.587  71.489  1.00  0.00     0.000 HD 
HETATM   20  H1  UNL     1     -13.833  10.195  73.053  1.00  0.00     0.000 HD 
HETATM   21  C   UNL     1     -11.354   7.843  70.942  1.00  0.00    -0.277 C  
HETATM   22  N   UNL     1     -11.719   6.421  71.049  1.00  0.00    -0.331 NA 
HETATM   23  C   UNL     1     -11.154   8.410  69.501  1.00  0.00     0.053 C  
HETATM   24  C   UNL     1     -10.781   9.949  69.590  1.00  0.00    -0.252 C  
HETATM   25  O   UNL     1     -10.573  10.465  68.263  1.00  0.00    -0.185 OA 
HETATM   26  H2  UNL     1     -12.635   6.196  70.660  1.00  0.00     0.000 HD 
HETATM   27  H1  UNL     1     -10.945   5.925  70.607  1.00  0.00     0.000 HD 
HETATM   28  H   UNL     1      -9.884   9.970  67.834  1.00  0.00     0.000 HD 
BRANCH  23  29
HETATM   29  O   UNL     1     -10.192   7.641  68.713  1.00  0.00    -0.190 OA 
BRANCH  29  30
HETATM   30  C   UNL     1      -8.884   7.589  69.351  1.00  0.00    -0.136 C  
HETATM   31  O   UNL     1      -8.697   6.351  70.049  1.00  0.00    -0.139 OA 
HETATM   32  C   UNL     1      -8.604   5.238  69.142  1.00  0.00    -0.101 C  
HETATM   33  C   UNL     1      -7.311   5.361  68.335  1.00  0.00    -0.072 C  
HETATM   34  H   UNL     1      -7.147   9.242  67.075  1.00  0.00     0.000 HD 
HETATM   35  O   UNL     1      -7.129   4.242  67.465  1.00  0.00    -0.062 OA 
HETATM   36  C   UNL     1      -7.346   6.670  67.511  1.00  0.00    -0.095 C  
HETATM   37  H1  UNL     1      -6.085   7.711  66.252  1.00  0.00     0.000 HD 
HETATM   38  H2  UNL     1      -5.830   6.038  66.219  1.00  0.00     0.000 HD 
HETATM   39  C   UNL     1      -7.685   7.871  68.409  1.00  0.00    -0.114 C  
HETATM   40  N   UNL     1      -6.062   6.847  66.795  1.00  0.00    -0.035 NA 
HETATM   41  H   UNL     1      -6.326   4.318  66.963  1.00  0.00     0.000 HD 
HETATM   42  O   UNL     1      -7.881   9.068  67.653  1.00  0.00    -0.099 OA 
BRANCH  32  43
HETATM   43  C   UNL     1      -8.687   3.957  69.973  1.00  0.00    -0.068 C  
HETATM   44  O   UNL     1      -9.754   4.089  70.923  1.00  0.00    -0.174 OA 
HETATM   45  H   UNL     1      -9.805   3.293  71.439  1.00  0.00     0.000 HD 
ENDBRANCH  32  43
ENDBRANCH  29  30
ENDBRANCH  23  29
ENDBRANCH  14  15
ENDBRANCH   8  14
TORSDOF 6
ENDMDL
MODEL       79
REMARK 921   NORMALIZED FREE ENERGY PREDICTED BY IDOCK:   -6.01 KCAL/MOL
REMARK 922        TOTAL FREE ENERGY PREDICTED BY IDOCK:   -9.68 KCAL/MOL
REMARK 923 INTER-LIGAND FREE ENERGY PREDICTED BY IDOCK:   -7.76 KCAL/MOL
REMARK 924 INTRA-LIGAND FREE ENERGY PREDICTED BY IDOCK:   -1.92 KCAL/MOL
REMARK 927      BINDING AFFINITY PREDICTED BY RF-SCORE:    0.00 PKD
ROOT
HETATM    1  C   UNL     1     -10.838  13.224  66.341  1.00  0.00    -0.288 C  
HETATM    2  C   UNL     1     -11.312  13.542  64.918  1.00  0.00    -0.347 C  
HETATM    3  N   UNL     1     -11.791  13.895  67.252  1.00  0.00    -0.386 NA 
HETATM    4  H1  UNL     1     -11.475  13.683  68.198  1.00  0.00     0.000 HD 
HETATM    5  C   UNL     1     -10.643  12.692  63.863  1.00  0.00    -0.460 C  
HETATM    6  H2  UNL     1     -12.764  13.639  67.082  1.00  0.00     0.000 HD 
HETATM    7  C   UNL     1     -10.591  11.217  64.257  1.00  0.00    -0.357 C  
HETATM    8  C   UNL     1     -10.562  11.692  66.648  1.00  0.00    -0.243 C  
HETATM    9  O   UNL     1      -9.978  11.007  65.539  1.00  0.00    -0.230 OA 
ENDROOT
BRANCH   7  10
HETATM   10  C   UNL     1      -9.730  10.481  63.193  1.00  0.00    -0.305 C  
HETATM   11  N   UNL     1      -8.754  11.357  62.545  1.00  0.00    -0.560 NA 
HETATM   12  H1  UNL     1      -8.189  10.874  61.847  1.00  0.00     0.000 HD 
HETATM   13  H2  UNL     1      -8.163  11.819  63.237  1.00  0.00     0.000 HD 
ENDBRANCH   7  10
BRANCH   8  14
HETATM   14  O   UNL     1     -11.728  11.065  67.183  1.00  0.00    -0.456 OA 
BRANCH  14  15
HETATM   15  C   UNL     1     -11.637  10.098  68.260  1.00  0.00     0.165 C  
HETATM   16  C   UNL     1     -11.418  10.999  69.506  1.00  0.00    -0.299 C  
HETATM   17  N   UNL     1     -12.594  11.852  69.763  1.00  0.00     0.090 NA 
HETATM   18  C   UNL     1     -11.127  10.284  70.811  1.00  0.00    -0.303 C  
HETATM   19  H2  UNL     1     -13.447  11.299  69.845  1.00  0.00     0.000 HD 
HETATM   20  H1  UNL     1     -12.450  12.443  70.582  1.00  0.00     0.000 HD 
HETATM   21  C   UNL     1     -10.023   9.246  70.700  1.00  0.00    -0.273 C  
HETATM   22  N   UNL     1      -9.876   8.715  72.065  1.00  0.00    -0.308 NA 
HETATM   23  C   UNL     1     -10.409   8.222  69.587  1.00  0.00    -0.218 C  
HETATM   24  C   UNL     1     -10.532   8.979  68.198  1.00  0.00    -0.207 C  
HETATM   25  O   UNL     1     -10.864   8.030  67.168  1.00  0.00    -0.475 OA 
HETATM   26  H2  UNL     1     -10.743   8.359  72.469  1.00  0.00     0.000 HD 
HETATM   27  H1  UNL     1      -9.135   8.018  71.990  1.00  0.00     0.000 HD 
HETATM   28  H   UNL     1     -10.196   7.355  67.130  1.00  0.00     0.000 HD 
BRANCH  23  29
HETATM   29  O   UNL     1      -9.503   7.075  69.525  1.00  0.00    -0.148 OA 
BRANCH  29  30
HETATM   30  C   UNL     1     -10.203   5.818  69.750  1.00  0.00    -0.236 C  
HETATM   31  O   UNL     1     -10.649   5.244  68.514  1.00  0.00    -0.131 OA 
HETATM   32  C   UNL     1      -9.545   4.803  67.704  1.00  0.00    -0.155 C  
HETATM   33  C   UNL     1      -8.865   3.618  68.391  1.00  0.00    -0.114 C  
HETATM   34  H   UNL     1      -8.425   4.701  72.304  1.00  0.00     0.000 HD 
HETATM   35  O   UNL     1      -7.802   3.091  67.596  1.00  0.00    -0.070 OA 
HETATM   36  C   UNL     1      -8.322   4.070  69.768  1.00  0.00    -0.060 C  
HETATM   37  H1  UNL     1      -7.383   3.209  71.391  1.00  0.00     0.000 HD 
HETATM   38  H2  UNL     1      -7.031   2.434  69.928  1.00  0.00     0.000 HD 
HETATM   39  C   UNL     1      -9.418   4.772  70.584  1.00  0.00    -0.171 C  
HETATM   40  N   UNL     1      -7.741   2.911  70.483  1.00  0.00    -0.043 NA 
HETATM   41  H   UNL     1      -7.380   2.355  68.022  1.00  0.00     0.000 HD 
HETATM   42  O   UNL     1      -8.906   5.341  71.792  1.00  0.00    -0.133 OA 
BRANCH  32  43
HETATM   43  C   UNL     1     -10.093   4.473  66.315  1.00  0.00    -0.254 C  
HETATM   44  O   UNL     1     -11.243   5.293  66.065  1.00  0.00    -0.780 OA 
HETATM   45  H   UNL     1     -11.584   5.087  65.202  1.00  0.00     0.000 HD 
ENDBRANCH  32  43
ENDBRANCH  29  30
ENDBRANCH  23  29
ENDBRANCH  14  15
ENDBRANCH   8  14
TORSDOF 6
ENDMDL
MODEL       80
REMARK 921   NORMALIZED FREE ENERGY PREDICTED BY IDOCK:   -6.01 KCAL/MOL
REMARK 922        TOTAL FREE ENERGY PREDICTED BY IDOCK:   -9.67 KCAL/MOL
REMARK 923 INTER-LIGAND FREE ENERGY PREDICTED BY IDOCK:   -8.73 KCAL/MOL
REMARK 924 INTRA-LIGAND FREE ENERGY PREDICTED BY IDOCK:   -0.93 KCAL/MOL
REMARK 927      BINDING AFFINITY PREDICTED BY RF-SCORE:    0.00 PKD
ROOT
HETATM    1  C   UNL     1      -9.807  14.932  65.821  1.00  0.00    -0.348 C  
HETATM    2  C   UNL     1     -11.155  15.354  65.224  1.00  0.00    -0.367 C  
HETATM    3  N   UNL     1      -9.456  15.969  66.817  1.00  0.00    -0.221 NA 
HETATM    4  H1  UNL     1      -8.559  15.689  67.213  1.00  0.00     0.000 HD 
HETATM    5  C   UNL     1     -11.816  14.262  64.415  1.00  0.00    -0.444 C  
HETATM    6  H2  UNL     1     -10.181  16.120  67.518  1.00  0.00     0.000 HD 
HETATM    7  C   UNL     1     -11.770  12.909  65.123  1.00  0.00    -0.349 C  
HETATM    8  C   UNL     1      -9.720  13.433  66.335  1.00  0.00    -0.277 C  
HETATM    9  O   UNL     1     -10.438  12.525  65.498  1.00  0.00    -0.268 OA 
ENDROOT
BRANCH   7  10
HETATM   10  C   UNL     1     -12.308  11.844  64.128  1.00  0.00    -0.267 C  
HETATM   11  N   UNL     1     -11.316  11.442  63.131  1.00  0.00    -0.864 NA 
HETATM   12  H1  UNL     1     -11.669  10.743  62.478  1.00  0.00     0.000 HD 
HETATM   13  H2  UNL     1     -10.458  11.121  63.580  1.00  0.00     0.000 HD 
ENDBRANCH   7  10
BRANCH   8  14
HETATM   14  O   UNL     1     -10.057  13.353  67.720  1.00  0.00    -0.223 OA 
BRANCH  14  15
HETATM   15  C   UNL     1     -10.794  12.223  68.251  1.00  0.00    -0.225 C  
HETATM   16  C   UNL     1     -11.512  12.836  69.486  1.00  0.00    -0.225 C  
HETATM   17  N   UNL     1     -12.490  13.863  69.079  1.00  0.00    -0.381 NA 
HETATM   18  C   UNL     1     -12.267  11.869  70.375  1.00  0.00    -0.399 C  
HETATM   19  H2  UNL     1     -13.157  13.497  68.400  1.00  0.00     0.000 HD 
HETATM   20  H1  UNL     1     -12.961  14.265  69.889  1.00  0.00     0.000 HD 
HETATM   21  C   UNL     1     -11.447  10.654  70.781  1.00  0.00    -0.214 C  
HETATM   22  N   UNL     1     -12.341   9.884  71.662  1.00  0.00    -0.395 NA 
HETATM   23  C   UNL     1     -10.945   9.935  69.490  1.00  0.00    -0.242 C  
HETATM   24  C   UNL     1     -10.012  10.923  68.670  1.00  0.00    -0.189 C  
HETATM   25  O   UNL     1      -9.529  10.251  67.492  1.00  0.00    -0.150 OA 
HETATM   26  H2  UNL     1     -13.243   9.657  71.244  1.00  0.00     0.000 HD 
HETATM   27  H1  UNL     1     -11.791   9.069  71.934  1.00  0.00     0.000 HD 
HETATM   28  H   UNL     1      -9.057   9.465  67.744  1.00  0.00     0.000 HD 
BRANCH  23  29
HETATM   29  O   UNL     1     -10.303   8.650  69.763  1.00  0.00    -0.202 OA 
BRANCH  29  30
HETATM   30  C   UNL     1     -11.278   7.580  69.927  1.00  0.00    -0.108 C  
HETATM   31  O   UNL     1     -11.326   6.741  68.766  1.00  0.00    -0.151 OA 
HETATM   32  C   UNL     1     -10.113   5.985  68.606  1.00  0.00    -0.168 C  
HETATM   33  C   UNL     1     -10.006   4.968  69.743  1.00  0.00    -0.249 C  
HETATM   34  H   UNL     1     -10.877   7.025  73.162  1.00  0.00     0.000 HD 
HETATM   35  O   UNL     1      -8.852   4.138  69.597  1.00  0.00    -0.075 OA 
HETATM   36  C   UNL     1      -9.947   5.720  71.095  1.00  0.00    -0.192 C  
HETATM   37  H1  UNL     1      -9.896   5.242  73.101  1.00  0.00     0.000 HD 
HETATM   38  H2  UNL     1      -9.180   4.065  72.117  1.00  0.00     0.000 HD 
HETATM   39  C   UNL     1     -11.103   6.727  71.210  1.00  0.00    -0.262 C  
HETATM   40  N   UNL     1      -9.934   4.746  72.210  1.00  0.00    -0.172 NA 
HETATM   41  H   UNL     1      -8.785   3.506  70.303  1.00  0.00     0.000 HD 
HETATM   42  O   UNL     1     -10.984   7.548  72.375  1.00  0.00    -0.246 OA 
BRANCH  32  43
HETATM   43  C   UNL     1     -10.147   5.346  67.216  1.00  0.00    -0.193 C  
HETATM   44  O   UNL     1     -11.342   5.766  66.543  1.00  0.00    -0.669 OA 
HETATM   45  H   UNL     1     -11.363   5.369  65.680  1.00  0.00     0.000 HD 
ENDBRANCH  32  43
ENDBRANCH  29  30
ENDBRANCH  23  29
ENDBRANCH  14  15
ENDBRANCH   8  14
TORSDOF 6
ENDMDL
MODEL       81
REMARK 921   NORMALIZED FREE ENERGY PREDICTED BY IDOCK:   -6.00 KCAL/MOL
REMARK 922        TOTAL FREE ENERGY PREDICTED BY IDOCK:   -9.66 KCAL/MOL
REMARK 923 INTER-LIGAND FREE ENERGY PREDICTED BY IDOCK:   -8.70 KCAL/MOL
REMARK 924 INTRA-LIGAND FREE ENERGY PREDICTED BY IDOCK:   -0.95 KCAL/MOL
REMARK 927      BINDING AFFINITY PREDICTED BY RF-SCORE:    0.00 PKD
ROOT
HETATM    1  C   UNL     1     -12.721  10.832  71.510  1.00  0.00    -0.431 C  
HETATM    2  C   UNL     1     -13.923  11.531  72.156  1.00  0.00     0.489 C  
HETATM    3  N   UNL     1     -13.190   9.482  71.123  1.00  0.00    -0.523 NA 
HETATM    4  H1  UNL     1     -12.390   9.018  70.693  1.00  0.00     0.000 HD 
HETATM    5  C   UNL     1     -13.722  13.018  72.336  1.00  0.00    -0.593 C  
HETATM    6  H2  UNL     1     -14.019   9.496  70.529  1.00  0.00     0.000 HD 
HETATM    7  C   UNL     1     -13.132  13.676  71.089  1.00  0.00    -0.234 C  
HETATM    8  C   UNL     1     -11.979  11.651  70.371  1.00  0.00    -0.358 C  
HETATM    9  O   UNL     1     -11.915  13.049  70.655  1.00  0.00    -0.302 OA 
ENDROOT
BRANCH   7  10
HETATM   10  C   UNL     1     -12.804  15.150  71.452  1.00  0.00    -0.385 C  
HETATM   11  N   UNL     1     -11.644  15.670  70.729  1.00  0.00    -0.345 NA 
HETATM   12  H1  UNL     1     -11.428  16.638  70.968  1.00  0.00     0.000 HD 
HETATM   13  H2  UNL     1     -11.762  15.560  69.722  1.00  0.00     0.000 HD 
ENDBRANCH   7  10
BRANCH   8  14
HETATM   14  O   UNL     1     -12.517  11.332  69.087  1.00  0.00    -0.378 OA 
BRANCH  14  15
HETATM   15  C   UNL     1     -11.718  11.461  67.884  1.00  0.00    -0.228 C  
HETATM   16  C   UNL     1     -10.587  10.421  68.115  1.00  0.00    -0.211 C  
HETATM   17  N   UNL     1     -11.124   9.048  68.156  1.00  0.00    -0.470 NA 
HETATM   18  C   UNL     1      -9.470  10.403  67.090  1.00  0.00    -0.183 C  
HETATM   19  H2  UNL     1     -11.667   8.832  67.320  1.00  0.00     0.000 HD 
HETATM   20  H1  UNL     1     -10.381   8.366  68.308  1.00  0.00     0.000 HD 
HETATM   21  C   UNL     1      -8.885  11.777  66.807  1.00  0.00    -0.191 C  
HETATM   22  N   UNL     1      -7.807  11.526  65.837  1.00  0.00    -0.354 NA 
HETATM   23  C   UNL     1     -10.036  12.726  66.347  1.00  0.00    -0.265 C  
HETATM   24  C   UNL     1     -11.101  12.862  67.516  1.00  0.00    -0.269 C  
HETATM   25  O   UNL     1     -12.149  13.756  67.100  1.00  0.00    -0.398 OA 
HETATM   26  H2  UNL     1      -8.107  11.021  65.002  1.00  0.00     0.000 HD 
HETATM   27  H1  UNL     1      -7.414  12.448  65.646  1.00  0.00     0.000 HD 
HETATM   28  H   UNL     1     -11.777  14.602  66.878  1.00  0.00     0.000 HD 
BRANCH  23  29
HETATM   29  O   UNL     1      -9.553  14.022  65.871  1.00  0.00    -0.252 OA 
BRANCH  29  30
HETATM   30  C   UNL     1      -9.553  15.024  66.927  1.00  0.00    -0.239 C  
HETATM   31  O   UNL     1      -8.528  14.759  67.893  1.00  0.00    -0.144 OA 
HETATM   32  C   UNL     1      -7.214  14.946  67.338  1.00  0.00    -0.183 C  
HETATM   33  C   UNL     1      -7.007  16.430  67.036  1.00  0.00    -0.219 C  
HETATM   34  H   UNL     1     -10.397  17.660  65.119  1.00  0.00     0.000 HD 
HETATM   35  O   UNL     1      -5.690  16.687  66.547  1.00  0.00    -0.333 OA 
HETATM   36  C   UNL     1      -8.056  16.890  65.995  1.00  0.00    -0.129 C  
HETATM   37  H1  UNL     1      -8.617  18.649  65.074  1.00  0.00     0.000 HD 
HETATM   38  H2  UNL     1      -6.977  18.608  65.491  1.00  0.00     0.000 HD 
HETATM   39  C   UNL     1      -9.474  16.493  66.435  1.00  0.00    -0.288 C  
HETATM   40  N   UNL     1      -7.925  18.346  65.761  1.00  0.00    -0.493 NA 
HETATM   41  H   UNL     1      -5.561  17.609  66.360  1.00  0.00     0.000 HD 
HETATM   42  O   UNL     1     -10.446  16.761  65.421  1.00  0.00    -0.592 OA 
BRANCH  32  43
HETATM   43  C   UNL     1      -6.205  14.379  68.338  1.00  0.00    -0.103 C  
HETATM   44  O   UNL     1      -5.833  13.057  67.921  1.00  0.00    -0.101 OA 
HETATM   45  H   UNL     1      -5.207  12.705  68.543  1.00  0.00     0.000 HD 
ENDBRANCH  32  43
ENDBRANCH  29  30
ENDBRANCH  23  29
ENDBRANCH  14  15
ENDBRANCH   8  14
TORSDOF 6
ENDMDL
MODEL       82
REMARK 921   NORMALIZED FREE ENERGY PREDICTED BY IDOCK:   -6.00 KCAL/MOL
REMARK 922        TOTAL FREE ENERGY PREDICTED BY IDOCK:   -9.66 KCAL/MOL
REMARK 923 INTER-LIGAND FREE ENERGY PREDICTED BY IDOCK:   -7.75 KCAL/MOL
REMARK 924 INTRA-LIGAND FREE ENERGY PREDICTED BY IDOCK:   -1.90 KCAL/MOL
REMARK 927      BINDING AFFINITY PREDICTED BY RF-SCORE:    0.00 PKD
ROOT
HETATM    1  C   UNL     1     -12.502  14.198  69.867  1.00  0.00    -0.260 C  
HETATM    2  C   UNL     1     -12.690  14.119  71.387  1.00  0.00    -0.439 C  
HETATM    3  N   UNL     1     -11.772  15.459  69.608  1.00  0.00    -0.315 NA 
HETATM    4  H1  UNL     1     -11.647  15.512  68.598  1.00  0.00     0.000 HD 
HETATM    5  C   UNL     1     -13.143  12.757  71.861  1.00  0.00    -0.474 C  
HETATM    6  H2  UNL     1     -10.898  15.536  70.129  1.00  0.00     0.000 HD 
HETATM    7  C   UNL     1     -12.355  11.624  71.205  1.00  0.00    -0.246 C  
HETATM    8  C   UNL     1     -11.896  12.903  69.179  1.00  0.00    -0.303 C  
HETATM    9  O   UNL     1     -12.375  11.694  69.770  1.00  0.00    -0.227 OA 
ENDROOT
BRANCH   7  10
HETATM   10  C   UNL     1     -13.024  10.287  71.625  1.00  0.00    -0.465 C  
HETATM   11  N   UNL     1     -12.594   9.153  70.807  1.00  0.00    -0.501 NA 
HETATM   12  H1  UNL     1     -13.034   8.275  71.083  1.00  0.00     0.000 HD 
HETATM   13  H2  UNL     1     -11.577   9.068  70.807  1.00  0.00     0.000 HD 
ENDBRANCH   7  10
BRANCH   8  14
HETATM   14  O   UNL     1     -10.474  12.995  69.092  1.00  0.00    -0.064 OA 
BRANCH  14  15
HETATM   15  C   UNL     1      -9.712  12.097  68.246  1.00  0.00    -0.216 C  
HETATM   16  C   UNL     1     -10.362  12.311  66.851  1.00  0.00    -0.216 C  
HETATM   17  N   UNL     1     -10.141  13.686  66.365  1.00  0.00    -0.287 NA 
HETATM   18  C   UNL     1      -9.890  11.394  65.741  1.00  0.00    -0.270 C  
HETATM   19  H2  UNL     1      -9.150  13.927  66.358  1.00  0.00     0.000 HD 
HETATM   20  H1  UNL     1     -10.568  13.826  65.449  1.00  0.00     0.000 HD 
HETATM   21  C   UNL     1      -9.910   9.922  66.121  1.00  0.00    -0.260 C  
HETATM   22  N   UNL     1      -9.466   9.221  64.905  1.00  0.00    -0.449 NA 
HETATM   23  C   UNL     1      -9.042   9.724  67.403  1.00  0.00    -0.134 C  
HETATM   24  C   UNL     1      -9.669  10.563  68.595  1.00  0.00    -0.173 C  
HETATM   25  O   UNL     1      -8.882  10.360  69.783  1.00  0.00    -0.369 OA 
HETATM   26  H2  UNL     1      -8.569   9.545  64.543  1.00  0.00     0.000 HD 
HETATM   27  H1  UNL     1      -9.479   8.233  65.161  1.00  0.00     0.000 HD 
HETATM   28  H   UNL     1      -8.856   9.434  69.993  1.00  0.00     0.000 HD 
BRANCH  23  29
HETATM   29  O   UNL     1      -8.842   8.317  67.747  1.00  0.00    -0.136 OA 
BRANCH  29  30
HETATM   30  C   UNL     1     -10.106   7.624  67.956  1.00  0.00    -0.187 C  
HETATM   31  O   UNL     1     -10.418   6.769  66.849  1.00  0.00    -0.251 OA 
HETATM   32  C   UNL     1      -9.507   5.660  66.760  1.00  0.00    -0.141 C  
HETATM   33  C   UNL     1      -9.728   4.738  67.960  1.00  0.00    -0.147 C  
HETATM   34  H   UNL     1      -9.902   7.183  71.226  1.00  0.00     0.000 HD 
HETATM   35  O   UNL     1      -8.898   3.577  67.889  1.00  0.00    -0.101 OA 
HETATM   36  C   UNL     1      -9.434   5.518  69.264  1.00  0.00    -0.129 C  
HETATM   37  H1  UNL     1      -9.538   5.180  71.296  1.00  0.00     0.000 HD 
HETATM   38  H2  UNL     1      -9.232   3.776  70.401  1.00  0.00     0.000 HD 
HETATM   39  C   UNL     1     -10.210   6.844  69.293  1.00  0.00    -0.186 C  
HETATM   40  N   UNL     1      -9.731   4.665  70.437  1.00  0.00    -0.203 NA 
HETATM   41  H   UNL     1      -9.035   3.004  68.634  1.00  0.00     0.000 HD 
HETATM   42  O   UNL     1      -9.838   7.660  70.407  1.00  0.00    -0.183 OA 
BRANCH  32  43
HETATM   43  C   UNL     1      -9.742   4.975  65.413  1.00  0.00    -0.017 C  
HETATM   44  O   UNL     1     -10.360   3.701  65.642  1.00  0.00    -0.405 OA 
HETATM   45  H   UNL     1     -10.505   3.276  64.805  1.00  0.00     0.000 HD 
ENDBRANCH  32  43
ENDBRANCH  29  30
ENDBRANCH  23  29
ENDBRANCH  14  15
ENDBRANCH   8  14
TORSDOF 6
ENDMDL
MODEL       83
REMARK 921   NORMALIZED FREE ENERGY PREDICTED BY IDOCK:   -5.99 KCAL/MOL
REMARK 922        TOTAL FREE ENERGY PREDICTED BY IDOCK:   -9.65 KCAL/MOL
REMARK 923 INTER-LIGAND FREE ENERGY PREDICTED BY IDOCK:   -7.84 KCAL/MOL
REMARK 924 INTRA-LIGAND FREE ENERGY PREDICTED BY IDOCK:   -1.81 KCAL/MOL
REMARK 927      BINDING AFFINITY PREDICTED BY RF-SCORE:    0.00 PKD
ROOT
HETATM    1  C   UNL     1     -11.292   6.833  72.579  1.00  0.00    -0.254 C  
HETATM    2  C   UNL     1     -10.368   6.362  73.708  1.00  0.00    -0.326 C  
HETATM    3  N   UNL     1     -11.327   8.309  72.664  1.00  0.00    -0.386 NA 
HETATM    4  H1  UNL     1     -11.941   8.622  71.913  1.00  0.00     0.000 HD 
HETATM    5  C   UNL     1      -9.970   4.909  73.586  1.00  0.00    -0.186 C  
HETATM    6  H2  UNL     1     -10.402   8.739  72.637  1.00  0.00     0.000 HD 
HETATM    7  C   UNL     1      -9.559   4.539  72.161  1.00  0.00    -0.153 C  
HETATM    8  C   UNL     1     -10.980   6.238  71.141  1.00  0.00    -0.280 C  
HETATM    9  O   UNL     1     -10.564   4.873  71.191  1.00  0.00    -0.151 OA 
ENDROOT
BRANCH   7  10
HETATM   10  C   UNL     1      -9.352   3.001  72.121  1.00  0.00    -0.118 C  
HETATM   11  N   UNL     1      -8.876   2.456  73.393  1.00  0.00    -0.070 NA 
HETATM   12  H1  UNL     1      -8.740   1.446  73.366  1.00  0.00     0.000 HD 
HETATM   13  H2  UNL     1      -9.498   2.721  74.158  1.00  0.00     0.000 HD 
ENDBRANCH   7  10
BRANCH   8  14
HETATM   14  O   UNL     1     -10.099   7.098  70.418  1.00  0.00    -0.190 OA 
BRANCH  14  15
HETATM   15  C   UNL     1     -10.533   7.781  69.214  1.00  0.00    -0.217 C  
HETATM   16  C   UNL     1      -9.834   6.966  68.091  1.00  0.00    -0.136 C  
HETATM   17  N   UNL     1     -10.347   5.583  68.037  1.00  0.00    -0.188 NA 
HETATM   18  C   UNL     1      -9.960   7.513  66.683  1.00  0.00    -0.270 C  
HETATM   19  H2  UNL     1     -11.362   5.563  67.939  1.00  0.00     0.000 HD 
HETATM   20  H1  UNL     1      -9.888   5.048  67.300  1.00  0.00     0.000 HD 
HETATM   21  C   UNL     1      -9.607   8.988  66.574  1.00  0.00    -0.223 C  
HETATM   22  N   UNL     1      -9.750   9.296  65.142  1.00  0.00    -0.439 NA 
HETATM   23  C   UNL     1     -10.510   9.793  67.560  1.00  0.00    -0.251 C  
HETATM   24  C   UNL     1     -10.222   9.315  69.045  1.00  0.00    -0.206 C  
HETATM   25  O   UNL     1     -11.038  10.075  69.955  1.00  0.00    -0.253 OA 
HETATM   26  H2  UNL     1     -10.663   9.057  64.754  1.00  0.00     0.000 HD 
HETATM   27  H1  UNL     1      -9.514  10.286  65.068  1.00  0.00     0.000 HD 
HETATM   28  H   UNL     1     -10.850  11.001  69.852  1.00  0.00     0.000 HD 
BRANCH  23  29
HETATM   29  O   UNL     1     -10.382  11.242  67.399  1.00  0.00    -0.190 OA 
BRANCH  29  30
HETATM   30  C   UNL     1     -11.631  11.853  66.967  1.00  0.00    -0.291 C  
HETATM   31  O   UNL     1     -12.363  12.379  68.081  1.00  0.00    -0.200 OA 
HETATM   32  C   UNL     1     -11.695  13.507  68.672  1.00  0.00    -0.354 C  
HETATM   33  C   UNL     1     -11.718  14.673  67.683  1.00  0.00    -0.363 C  
HETATM   34  H   UNL     1     -10.607  13.101  64.081  1.00  0.00     0.000 HD 
HETATM   35  O   UNL     1     -11.129  15.848  68.244  1.00  0.00    -0.314 OA 
HETATM   36  C   UNL     1     -10.960  14.266  66.397  1.00  0.00    -0.311 C  
HETATM   37  H1  UNL     1     -10.553  15.083  64.546  1.00  0.00     0.000 HD 
HETATM   38  H2  UNL     1     -10.726  16.245  65.766  1.00  0.00     0.000 HD 
HETATM   39  C   UNL     1     -11.484  12.925  65.856  1.00  0.00    -0.346 C  
HETATM   40  N   UNL     1     -11.052  15.352  65.395  1.00  0.00    -0.342 NA 
HETATM   41  H   UNL     1     -11.143  16.572  67.630  1.00  0.00     0.000 HD 
HETATM   42  O   UNL     1     -10.698  12.445  64.762  1.00  0.00    -0.276 OA 
BRANCH  32  43
HETATM   43  C   UNL     1     -12.394  13.816  69.997  1.00  0.00    -0.300 C  
HETATM   44  O   UNL     1     -12.645  12.583  70.686  1.00  0.00    -0.258 OA 
HETATM   45  H   UNL     1     -13.079  12.775  71.509  1.00  0.00     0.000 HD 
ENDBRANCH  32  43
ENDBRANCH  29  30
ENDBRANCH  23  29
ENDBRANCH  14  15
ENDBRANCH   8  14
TORSDOF 6
ENDMDL
MODEL       84
REMARK 921   NORMALIZED FREE ENERGY PREDICTED BY IDOCK:   -5.99 KCAL/MOL
REMARK 922        TOTAL FREE ENERGY PREDICTED BY IDOCK:   -9.64 KCAL/MOL
REMARK 923 INTER-LIGAND FREE ENERGY PREDICTED BY IDOCK:   -8.43 KCAL/MOL
REMARK 924 INTRA-LIGAND FREE ENERGY PREDICTED BY IDOCK:   -1.21 KCAL/MOL
REMARK 927      BINDING AFFINITY PREDICTED BY RF-SCORE:    0.00 PKD
ROOT
HETATM    1  C   UNL     1     -10.187  13.666  67.356  1.00  0.00    -0.241 C  
HETATM    2  C   UNL     1     -11.615  14.206  67.212  1.00  0.00    -0.399 C  
HETATM    3  N   UNL     1      -9.868  13.727  68.799  1.00  0.00    -0.393 NA 
HETATM    4  H1  UNL     1      -8.918  13.368  68.895  1.00  0.00     0.000 HD 
HETATM    5  C   UNL     1     -12.221  13.935  65.855  1.00  0.00    -0.497 C  
HETATM    6  H2  UNL     1     -10.546  13.241  69.386  1.00  0.00     0.000 HD 
HETATM    7  C   UNL     1     -11.979  12.500  65.390  1.00  0.00    -0.437 C  
HETATM    8  C   UNL     1      -9.904  12.272  66.652  1.00  0.00    -0.220 C  
HETATM    9  O   UNL     1     -10.588  12.140  65.405  1.00  0.00    -0.255 OA 
ENDROOT
BRANCH   7  10
HETATM   10  C   UNL     1     -12.481  12.394  63.924  1.00  0.00    -0.476 C  
HETATM   11  N   UNL     1     -12.474  13.679  63.225  1.00  0.00    -1.048 NA 
HETATM   12  H1  UNL     1     -12.804  13.610  62.262  1.00  0.00     0.000 HD 
HETATM   13  H2  UNL     1     -11.550  14.111  63.264  1.00  0.00     0.000 HD 
ENDBRANCH   7  10
BRANCH   8  14
HETATM   14  O   UNL     1     -10.120  11.193  67.561  1.00  0.00    -0.179 OA 
BRANCH  14  15
HETATM   15  C   UNL     1      -9.255  10.029  67.566  1.00  0.00    -0.137 C  
HETATM   16  C   UNL     1      -7.902  10.613  68.058  1.00  0.00    -0.105 C  
HETATM   17  N   UNL     1      -8.006  11.104  69.445  1.00  0.00    -0.373 NA 
HETATM   18  C   UNL     1      -6.714   9.672  68.036  1.00  0.00    -0.062 C  
HETATM   19  H2  UNL     1      -8.353  10.381  70.074  1.00  0.00     0.000 HD 
HETATM   20  H1  UNL     1      -7.117  11.488  69.769  1.00  0.00     0.000 HD 
HETATM   21  C   UNL     1      -6.536   8.953  66.709  1.00  0.00    -0.064 C  
HETATM   22  N   UNL     1      -5.322   8.140  66.890  1.00  0.00    -0.031 NA 
HETATM   23  C   UNL     1      -7.852   8.184  66.375  1.00  0.00    -0.093 C  
HETATM   24  C   UNL     1      -9.044   9.222  66.231  1.00  0.00    -0.171 C  
HETATM   25  O   UNL     1     -10.252   8.514  65.899  1.00  0.00    -0.367 OA 
HETATM   26  H2  UNL     1      -5.354   7.519  67.698  1.00  0.00     0.000 HD 
HETATM   27  H1  UNL     1      -5.202   7.657  65.999  1.00  0.00     0.000 HD 
HETATM   28  H   UNL     1     -10.125   8.027  65.093  1.00  0.00     0.000 HD 
BRANCH  23  29
HETATM   29  O   UNL     1      -7.724   7.308  65.211  1.00  0.00    -0.098 OA 
BRANCH  29  30
HETATM   30  C   UNL     1      -7.543   5.915  65.596  1.00  0.00    -0.084 C  
HETATM   31  O   UNL     1      -8.376   5.573  66.711  1.00  0.00    -0.108 OA 
HETATM   32  C   UNL     1      -9.770   5.581  66.356  1.00  0.00    -0.163 C  
HETATM   33  C   UNL     1     -10.041   4.436  65.379  1.00  0.00    -0.223 C  
HETATM   34  H   UNL     1      -7.062   4.621  62.592  1.00  0.00     0.000 HD 
HETATM   35  O   UNL     1     -11.427   4.350  65.044  1.00  0.00    -1.090 OA 
HETATM   36  C   UNL     1      -9.201   4.650  64.097  1.00  0.00    -0.065 C  
HETATM   37  H1  UNL     1      -8.829   3.643  62.335  1.00  0.00     0.000 HD 
HETATM   38  H2  UNL     1     -10.368   3.332  62.969  1.00  0.00     0.000 HD 
HETATM   39  C   UNL     1      -7.723   4.890  64.446  1.00  0.00    -0.083 C  
HETATM   40  N   UNL     1      -9.384   3.502  63.179  1.00  0.00    -0.099 NA 
HETATM   41  H   UNL     1     -11.596   3.639  64.437  1.00  0.00     0.000 HD 
HETATM   42  O   UNL     1      -6.951   5.248  63.297  1.00  0.00    -0.040 OA 
BRANCH  32  43
HETATM   43  C   UNL     1     -10.578   5.483  67.651  1.00  0.00    -0.164 C  
HETATM   44  O   UNL     1     -11.621   6.467  67.620  1.00  0.00    -0.670 OA 
HETATM   45  H   UNL     1     -12.123   6.407  68.425  1.00  0.00     0.000 HD 
ENDBRANCH  32  43
ENDBRANCH  29  30
ENDBRANCH  23  29
ENDBRANCH  14  15
ENDBRANCH   8  14
TORSDOF 6
ENDMDL
MODEL       85
REMARK 921   NORMALIZED FREE ENERGY PREDICTED BY IDOCK:   -5.96 KCAL/MOL
REMARK 922        TOTAL FREE ENERGY PREDICTED BY IDOCK:   -9.61 KCAL/MOL
REMARK 923 INTER-LIGAND FREE ENERGY PREDICTED BY IDOCK:   -8.16 KCAL/MOL
REMARK 924 INTRA-LIGAND FREE ENERGY PREDICTED BY IDOCK:   -1.45 KCAL/MOL
REMARK 927      BINDING AFFINITY PREDICTED BY RF-SCORE:    0.00 PKD
ROOT
HETATM    1  C   UNL     1     -11.109  14.494  69.260  1.00  0.00    -0.270 C  
HETATM    2  C   UNL     1     -10.654  15.536  70.289  1.00  0.00    -0.324 C  
HETATM    3  N   UNL     1      -9.874  13.896  68.708  1.00  0.00    -0.379 NA 
HETATM    4  H1  UNL     1     -10.176  13.203  68.023  1.00  0.00     0.000 HD 
HETATM    5  C   UNL     1     -11.777  16.029  71.174  1.00  0.00    -0.487 C  
HETATM    6  H2  UNL     1      -9.251  13.517  69.421  1.00  0.00     0.000 HD 
HETATM    7  C   UNL     1     -12.649  14.887  71.691  1.00  0.00    -0.329 C  
HETATM    8  C   UNL     1     -12.203  13.460  69.765  1.00  0.00    -0.245 C  
HETATM    9  O   UNL     1     -13.163  14.060  70.635  1.00  0.00    -0.210 OA 
ENDROOT
BRANCH   7  10
HETATM   10  C   UNL     1     -13.860  15.523  72.428  1.00  0.00    -0.568 C  
HETATM   11  N   UNL     1     -13.488  16.161  73.690  1.00  0.00    -0.894 NA 
HETATM   12  H1  UNL     1     -14.283  16.579  74.174  1.00  0.00     0.000 HD 
HETATM   13  H2  UNL     1     -12.746  16.847  73.547  1.00  0.00     0.000 HD 
ENDBRANCH   7  10
BRANCH   8  14
HETATM   14  O   UNL     1     -11.584  12.285  70.287  1.00  0.00    -0.196 OA 
BRANCH  14  15
HETATM   15  C   UNL     1     -11.644  11.023  69.575  1.00  0.00    -0.313 C  
HETATM   16  C   UNL     1     -10.989  10.035  70.580  1.00  0.00    -0.326 C  
HETATM   17  N   UNL     1     -11.801   9.902  71.804  1.00  0.00    -0.299 NA 
HETATM   18  C   UNL     1     -10.753   8.623  70.080  1.00  0.00    -0.233 C  
HETATM   19  H2  UNL     1     -12.762   9.637  71.589  1.00  0.00     0.000 HD 
HETATM   20  H1  UNL     1     -11.371   9.253  72.463  1.00  0.00     0.000 HD 
HETATM   21  C   UNL     1     -10.045   8.568  68.735  1.00  0.00    -0.196 C  
HETATM   22  N   UNL     1      -9.880   7.130  68.465  1.00  0.00    -0.150 NA 
HETATM   23  C   UNL     1     -10.876   9.386  67.698  1.00  0.00    -0.154 C  
HETATM   24  C   UNL     1     -10.953  10.901  68.166  1.00  0.00    -0.249 C  
HETATM   25  O   UNL     1     -11.698  11.659  67.196  1.00  0.00    -0.566 OA 
HETATM   26  H2  UNL     1     -10.749   6.598  68.500  1.00  0.00     0.000 HD 
HETATM   27  H1  UNL     1      -9.405   7.093  67.563  1.00  0.00     0.000 HD 
HETATM   28  H   UNL     1     -11.281  11.586  66.345  1.00  0.00     0.000 HD 
BRANCH  23  29
HETATM   29  O   UNL     1     -10.382   9.243  66.329  1.00  0.00    -0.240 OA 
BRANCH  29  30
HETATM   30  C   UNL     1      -8.996   9.674  66.203  1.00  0.00    -0.154 C  
HETATM   31  O   UNL     1      -8.105   8.553  66.168  1.00  0.00    -0.099 OA 
HETATM   32  C   UNL     1      -8.264   7.785  64.963  1.00  0.00    -0.120 C  
HETATM   33  C   UNL     1      -7.789   8.620  63.774  1.00  0.00    -0.148 C  
HETATM   34  H   UNL     1      -9.464  12.312  64.264  1.00  0.00     0.000 HD 
HETATM   35  O   UNL     1      -7.856   7.881  62.553  1.00  0.00    -0.126 OA 
HETATM   36  C   UNL     1      -8.657   9.897  63.667  1.00  0.00    -0.200 C  
HETATM   37  H1  UNL     1      -8.722  11.601  62.506  1.00  0.00     0.000 HD 
HETATM   38  H2  UNL     1      -8.091  10.260  61.688  1.00  0.00     0.000 HD 
HETATM   39  C   UNL     1      -8.715  10.632  65.016  1.00  0.00    -0.176 C  
HETATM   40  N   UNL     1      -8.150  10.759  62.576  1.00  0.00    -0.175 NA 
HETATM   41  H   UNL     1      -7.561   8.400  61.814  1.00  0.00     0.000 HD 
HETATM   42  O   UNL     1      -9.636  11.725  64.992  1.00  0.00    -0.218 OA 
BRANCH  32  43
HETATM   43  C   UNL     1      -7.489   6.478  65.141  1.00  0.00    -0.083 C  
HETATM   44  O   UNL     1      -6.245   6.579  64.434  1.00  0.00    -0.035 OA 
HETATM   45  H   UNL     1      -5.763   5.767  64.544  1.00  0.00     0.000 HD 
ENDBRANCH  32  43
ENDBRANCH  29  30
ENDBRANCH  23  29
ENDBRANCH  14  15
ENDBRANCH   8  14
TORSDOF 6
ENDMDL
MODEL       86
REMARK 921   NORMALIZED FREE ENERGY PREDICTED BY IDOCK:   -5.95 KCAL/MOL
REMARK 922        TOTAL FREE ENERGY PREDICTED BY IDOCK:   -9.59 KCAL/MOL
REMARK 923 INTER-LIGAND FREE ENERGY PREDICTED BY IDOCK:   -7.69 KCAL/MOL
REMARK 924 INTRA-LIGAND FREE ENERGY PREDICTED BY IDOCK:   -1.90 KCAL/MOL
REMARK 927      BINDING AFFINITY PREDICTED BY RF-SCORE:    0.00 PKD
ROOT
HETATM    1  C   UNL     1     -11.110  11.388  63.810  1.00  0.00    -0.334 C  
HETATM    2  C   UNL     1     -11.349  12.797  63.254  1.00  0.00    -0.242 C  
HETATM    3  N   UNL     1     -10.194  10.721  62.858  1.00  0.00    -0.751 NA 
HETATM    4  H1  UNL     1     -10.035   9.784  63.227  1.00  0.00     0.000 HD 
HETATM    5  C   UNL     1     -12.011  13.724  64.248  1.00  0.00    -0.481 C  
HETATM    6  H2  UNL     1      -9.333  11.243  62.689  1.00  0.00     0.000 HD 
HETATM    7  C   UNL     1     -11.381  13.630  65.636  1.00  0.00    -0.299 C  
HETATM    8  C   UNL     1     -10.682  11.313  65.336  1.00  0.00    -0.227 C  
HETATM    9  O   UNL     1     -11.351  12.286  66.140  1.00  0.00    -0.318 OA 
ENDROOT
BRANCH   7  10
HETATM   10  C   UNL     1     -12.251  14.480  66.601  1.00  0.00    -0.223 C  
HETATM   11  N   UNL     1     -12.243  13.973  67.973  1.00  0.00    -0.528 NA 
HETATM   12  H1  UNL     1     -12.814  14.531  68.607  1.00  0.00     0.000 HD 
HETATM   13  H2  UNL     1     -11.289  13.886  68.324  1.00  0.00     0.000 HD 
ENDBRANCH   7  10
BRANCH   8  14
HETATM   14  O   UNL     1      -9.260  11.317  65.464  1.00  0.00    -0.215 OA 
BRANCH  14  15
HETATM   15  C   UNL     1      -8.598  10.588  66.527  1.00  0.00    -0.137 C  
HETATM   16  C   UNL     1      -8.066   9.326  65.794  1.00  0.00    -0.115 C  
HETATM   17  N   UNL     1      -7.047   9.682  64.788  1.00  0.00    -0.109 NA 
HETATM   18  C   UNL     1      -7.437   8.255  66.664  1.00  0.00    -0.086 C  
HETATM   19  H2  UNL     1      -6.288  10.225  65.200  1.00  0.00     0.000 HD 
HETATM   20  H1  UNL     1      -6.698   8.854  64.306  1.00  0.00     0.000 HD 
HETATM   21  C   UNL     1      -8.297   7.860  67.853  1.00  0.00    -0.126 C  
HETATM   22  N   UNL     1      -7.532   6.797  68.524  1.00  0.00    -0.090 NA 
HETATM   23  C   UNL     1      -8.607   9.139  68.693  1.00  0.00    -0.128 C  
HETATM   24  C   UNL     1      -9.422  10.167  67.801  1.00  0.00    -0.144 C  
HETATM   25  O   UNL     1      -9.728  11.335  68.584  1.00  0.00    -0.196 OA 
HETATM   26  H2  UNL     1      -6.578   7.062  68.770  1.00  0.00     0.000 HD 
HETATM   27  H1  UNL     1      -8.108   6.532  69.323  1.00  0.00     0.000 HD 
HETATM   28  H   UNL     1     -10.226  11.081  69.353  1.00  0.00     0.000 HD 
BRANCH  23  29
HETATM   29  O   UNL     1      -9.272   8.842  69.962  1.00  0.00    -0.159 OA 
BRANCH  29  30
HETATM   30  C   UNL     1     -10.610   8.304  69.762  1.00  0.00    -0.228 C  
HETATM   31  O   UNL     1     -10.614   6.874  69.865  1.00  0.00    -0.211 OA 
HETATM   32  C   UNL     1     -10.341   6.438  71.208  1.00  0.00    -0.207 C  
HETATM   33  C   UNL     1     -11.509   6.837  72.109  1.00  0.00    -0.282 C  
HETATM   34  H   UNL     1     -12.346  10.727  71.192  1.00  0.00     0.000 HD 
HETATM   35  O   UNL     1     -11.326   6.366  73.445  1.00  0.00    -0.452 OA 
HETATM   36  C   UNL     1     -11.652   8.378  72.108  1.00  0.00    -0.374 C  
HETATM   37  H1  UNL     1     -12.929   9.790  72.903  1.00  0.00     0.000 HD 
HETATM   38  H2  UNL     1     -12.807   8.392  73.850  1.00  0.00     0.000 HD 
HETATM   39  C   UNL     1     -11.705   8.920  70.671  1.00  0.00    -0.179 C  
HETATM   40  N   UNL     1     -12.836   8.774  72.904  1.00  0.00    -0.242 NA 
HETATM   41  H   UNL     1     -12.052   6.613  74.006  1.00  0.00     0.000 HD 
HETATM   42  O   UNL     1     -11.675  10.349  70.635  1.00  0.00    -0.300 OA 
BRANCH  32  43
HETATM   43  C   UNL     1     -10.092   4.929  71.162  1.00  0.00    -0.207 C  
HETATM   44  O   UNL     1      -8.819   4.689  70.546  1.00  0.00    -0.098 OA 
HETATM   45  H   UNL     1      -8.664   3.752  70.517  1.00  0.00     0.000 HD 
ENDBRANCH  32  43
ENDBRANCH  29  30
ENDBRANCH  23  29
ENDBRANCH  14  15
ENDBRANCH   8  14
TORSDOF 6
ENDMDL
MODEL       87
REMARK 921   NORMALIZED FREE ENERGY PREDICTED BY IDOCK:   -5.94 KCAL/MOL
REMARK 922        TOTAL FREE ENERGY PREDICTED BY IDOCK:   -9.58 KCAL/MOL
REMARK 923 INTER-LIGAND FREE ENERGY PREDICTED BY IDOCK:   -7.73 KCAL/MOL
REMARK 924 INTRA-LIGAND FREE ENERGY PREDICTED BY IDOCK:   -1.84 KCAL/MOL
REMARK 927      BINDING AFFINITY PREDICTED BY RF-SCORE:    0.00 PKD
ROOT
HETATM    1  C   UNL     1     -12.024  12.157  64.288  1.00  0.00    -0.380 C  
HETATM    2  C   UNL     1     -12.130  13.623  63.851  1.00  0.00    -0.462 C  
HETATM    3  N   UNL     1     -11.666  11.390  63.074  1.00  0.00    -0.866 NA 
HETATM    4  H1  UNL     1     -11.596  10.416  63.365  1.00  0.00     0.000 HD 
HETATM    5  C   UNL     1     -12.186  14.588  65.012  1.00  0.00    -0.376 C  
HETATM    6  H2  UNL     1     -10.826  11.736  62.609  1.00  0.00     0.000 HD 
HETATM    7  C   UNL     1     -11.148  14.264  66.085  1.00  0.00    -0.324 C  
HETATM    8  C   UNL     1     -11.119  11.882  65.562  1.00  0.00    -0.304 C  
HETATM    9  O   UNL     1     -11.238  12.907  66.549  1.00  0.00    -0.282 OA 
ENDROOT
BRANCH   7  10
HETATM   10  C   UNL     1     -11.421  15.198  67.295  1.00  0.00    -0.279 C  
HETATM   11  N   UNL     1     -10.634  16.430  67.253  1.00  0.00    -0.313 NA 
HETATM   12  H1  UNL     1     -10.814  17.044  68.047  1.00  0.00     0.000 HD 
HETATM   13  H2  UNL     1     -10.776  16.924  66.371  1.00  0.00     0.000 HD 
ENDBRANCH   7  10
BRANCH   8  14
HETATM   14  O   UNL     1      -9.777  11.586  65.175  1.00  0.00    -0.236 OA 
BRANCH  14  15
HETATM   15  C   UNL     1      -9.011  10.554  65.846  1.00  0.00    -0.166 C  
HETATM   16  C   UNL     1      -8.974   9.416  64.788  1.00  0.00    -0.194 C  
HETATM   17  N   UNL     1      -8.222   9.829  63.587  1.00  0.00    -0.145 NA 
HETATM   18  C   UNL     1      -8.362   8.102  65.232  1.00  0.00    -0.160 C  
HETATM   19  H2  UNL     1      -7.285  10.152  63.824  1.00  0.00     0.000 HD 
HETATM   20  H1  UNL     1      -8.198   9.082  62.892  1.00  0.00     0.000 HD 
HETATM   21  C   UNL     1      -8.921   7.590  66.550  1.00  0.00    -0.162 C  
HETATM   22  N   UNL     1      -8.235   6.306  66.766  1.00  0.00    -0.109 NA 
HETATM   23  C   UNL     1      -8.717   8.687  67.641  1.00  0.00    -0.136 C  
HETATM   24  C   UNL     1      -9.518   9.993  67.227  1.00  0.00    -0.154 C  
HETATM   25  O   UNL     1      -9.349  10.996  68.245  1.00  0.00    -0.159 OA 
HETATM   26  H2  UNL     1      -7.217   6.368  66.742  1.00  0.00     0.000 HD 
HETATM   27  H1  UNL     1      -8.610   5.961  67.651  1.00  0.00     0.000 HD 
HETATM   28  H   UNL     1      -9.656  10.657  69.079  1.00  0.00     0.000 HD 
BRANCH  23  29
HETATM   29  O   UNL     1      -9.051   8.224  68.987  1.00  0.00    -0.147 OA 
BRANCH  29  30
HETATM   30  C   UNL     1     -10.439   7.797  69.087  1.00  0.00    -0.211 C  
HETATM   31  O   UNL     1     -10.546   6.368  69.064  1.00  0.00    -0.205 OA 
HETATM   32  C   UNL     1      -9.990   5.775  70.250  1.00  0.00    -0.198 C  
HETATM   33  C   UNL     1     -10.861   6.151  71.450  1.00  0.00    -0.265 C  
HETATM   34  H   UNL     1     -11.548  10.162  71.115  1.00  0.00     0.000 HD 
HETATM   35  O   UNL     1     -10.397   5.529  72.650  1.00  0.00    -0.184 OA 
HETATM   36  C   UNL     1     -10.862   7.689  71.618  1.00  0.00    -0.227 C  
HETATM   37  H1  UNL     1     -11.774   9.088  72.830  1.00  0.00     0.000 HD 
HETATM   38  H2  UNL     1     -11.547   7.592  73.590  1.00  0.00     0.000 HD 
HETATM   39  C   UNL     1     -11.219   8.383  70.294  1.00  0.00    -0.173 C  
HETATM   40  N   UNL     1     -11.773   8.073  72.719  1.00  0.00    -0.368 NA 
HETATM   41  H   UNL     1     -10.938   5.762  73.395  1.00  0.00     0.000 HD 
HETATM   42  O   UNL     1     -11.071   9.803  70.375  1.00  0.00    -0.260 OA 
BRANCH  32  43
HETATM   43  C   UNL     1      -9.896   4.267  70.012  1.00  0.00    -0.205 C  
HETATM   44  O   UNL     1      -8.996   3.702  70.976  1.00  0.00    -0.084 OA 
HETATM   45  H   UNL     1      -8.937   2.766  70.828  1.00  0.00     0.000 HD 
ENDBRANCH  32  43
ENDBRANCH  29  30
ENDBRANCH  23  29
ENDBRANCH  14  15
ENDBRANCH   8  14
TORSDOF 6
ENDMDL
MODEL       88
REMARK 921   NORMALIZED FREE ENERGY PREDICTED BY IDOCK:   -5.93 KCAL/MOL
REMARK 922        TOTAL FREE ENERGY PREDICTED BY IDOCK:   -9.57 KCAL/MOL
REMARK 923 INTER-LIGAND FREE ENERGY PREDICTED BY IDOCK:   -7.73 KCAL/MOL
REMARK 924 INTRA-LIGAND FREE ENERGY PREDICTED BY IDOCK:   -1.84 KCAL/MOL
REMARK 927      BINDING AFFINITY PREDICTED BY RF-SCORE:    0.00 PKD
ROOT
HETATM    1  C   UNL     1     -10.517   5.479  69.109  1.00  0.00    -0.244 C  
HETATM    2  C   UNL     1      -9.083   4.960  68.953  1.00  0.00    -0.149 C  
HETATM    3  N   UNL     1     -10.732   5.663  70.562  1.00  0.00    -0.285 NA 
HETATM    4  H1  UNL     1     -11.685   6.008  70.666  1.00  0.00     0.000 HD 
HETATM    5  C   UNL     1      -8.585   5.006  67.526  1.00  0.00    -0.104 C  
HETATM    6  H2  UNL     1     -10.033   6.262  71.003  1.00  0.00     0.000 HD 
HETATM    7  C   UNL     1      -8.916   6.331  66.840  1.00  0.00    -0.120 C  
HETATM    8  C   UNL     1     -10.903   6.720  68.198  1.00  0.00    -0.228 C  
HETATM    9  O   UNL     1     -10.315   6.650  66.899  1.00  0.00    -0.219 OA 
ENDROOT
BRANCH   7  10
HETATM   10  C   UNL     1      -8.523   6.191  65.344  1.00  0.00    -0.138 C  
HETATM   11  N   UNL     1      -8.707   7.430  64.589  1.00  0.00    -0.315 NA 
HETATM   12  H1  UNL     1      -8.449   7.338  63.606  1.00  0.00     0.000 HD 
HETATM   13  H2  UNL     1      -8.205   8.202  65.027  1.00  0.00     0.000 HD 
ENDBRANCH   7  10
BRANCH   8  14
HETATM   14  O   UNL     1     -10.667   7.947  68.889  1.00  0.00    -0.179 OA 
BRANCH  14  15
HETATM   15  C   UNL     1      -9.765   8.949  68.356  1.00  0.00    -0.161 C  
HETATM   16  C   UNL     1      -9.103   9.526  69.638  1.00  0.00    -0.196 C  
HETATM   17  N   UNL     1      -8.290   8.505  70.325  1.00  0.00    -0.119 NA 
HETATM   18  C   UNL     1      -8.194  10.724  69.447  1.00  0.00    -0.035 C  
HETATM   19  H2  UNL     1      -7.598   8.093  69.699  1.00  0.00     0.000 HD 
HETATM   20  H1  UNL     1      -7.855   8.883  71.167  1.00  0.00     0.000 HD 
HETATM   21  C   UNL     1      -8.824  11.836  68.623  1.00  0.00    -0.060 C  
HETATM   22  N   UNL     1      -7.806  12.899  68.599  1.00  0.00    -0.278 NA 
HETATM   23  C   UNL     1      -9.259  11.251  67.243  1.00  0.00    -0.166 C  
HETATM   24  C   UNL     1     -10.345  10.116  67.474  1.00  0.00    -0.230 C  
HETATM   25  O   UNL     1     -10.764   9.594  66.199  1.00  0.00    -0.002 OA 
HETATM   26  H2  UNL     1      -6.894  12.595  68.259  1.00  0.00     0.000 HD 
HETATM   27  H1  UNL     1      -8.228  13.645  68.046  1.00  0.00     0.000 HD 
HETATM   28  H   UNL     1     -11.114  10.299  65.666  1.00  0.00     0.000 HD 
BRANCH  23  29
HETATM   29  O   UNL     1      -9.707  12.277  66.302  1.00  0.00    -0.235 OA 
BRANCH  29  30
HETATM   30  C   UNL     1     -10.800  13.071  66.844  1.00  0.00    -0.264 C  
HETATM   31  O   UNL     1     -10.330  14.331  67.340  1.00  0.00    -0.256 OA 
HETATM   32  C   UNL     1      -9.871  15.184  66.277  1.00  0.00    -0.295 C  
HETATM   33  C   UNL     1     -11.067  15.594  65.417  1.00  0.00    -0.267 C  
HETATM   34  H   UNL     1     -13.176  12.165  64.730  1.00  0.00     0.000 HD 
HETATM   35  O   UNL     1     -10.683  16.502  64.383  1.00  0.00    -0.892 OA 
HETATM   36  C   UNL     1     -11.709  14.330  64.798  1.00  0.00    -0.415 C  
HETATM   37  H1  UNL     1     -13.345  13.870  63.628  1.00  0.00     0.000 HD 
HETATM   38  H2  UNL     1     -12.730  15.419  63.335  1.00  0.00     0.000 HD 
HETATM   39  C   UNL     1     -11.998  13.278  65.880  1.00  0.00    -0.419 C  
HETATM   40  N   UNL     1     -12.923  14.704  64.036  1.00  0.00    -0.298 NA 
HETATM   41  H   UNL     1     -11.426  16.758  63.849  1.00  0.00     0.000 HD 
HETATM   42  O   UNL     1     -12.442  12.039  65.320  1.00  0.00    -0.427 OA 
BRANCH  32  43
HETATM   43  C   UNL     1      -9.142  16.367  66.914  1.00  0.00    -0.216 C  
HETATM   44  O   UNL     1      -8.353  17.020  65.910  1.00  0.00    -0.515 OA 
HETATM   45  H   UNL     1      -7.900  17.755  66.306  1.00  0.00     0.000 HD 
ENDBRANCH  32  43
ENDBRANCH  29  30
ENDBRANCH  23  29
ENDBRANCH  14  15
ENDBRANCH   8  14
TORSDOF 6
ENDMDL
MODEL       89
REMARK 921   NORMALIZED FREE ENERGY PREDICTED BY IDOCK:   -5.89 KCAL/MOL
REMARK 922        TOTAL FREE ENERGY PREDICTED BY IDOCK:   -9.51 KCAL/MOL
REMARK 923 INTER-LIGAND FREE ENERGY PREDICTED BY IDOCK:   -8.17 KCAL/MOL
REMARK 924 INTRA-LIGAND FREE ENERGY PREDICTED BY IDOCK:   -1.34 KCAL/MOL
REMARK 927      BINDING AFFINITY PREDICTED BY RF-SCORE:    0.00 PKD
ROOT
HETATM    1  C   UNL     1     -10.718  12.705  67.662  1.00  0.00    -0.218 C  
HETATM    2  C   UNL     1     -12.029  13.487  67.511  1.00  0.00    -0.385 C  
HETATM    3  N   UNL     1     -10.795  12.024  68.973  1.00  0.00    -0.335 NA 
HETATM    4  H1  UNL     1      -9.923  11.504  69.073  1.00  0.00     0.000 HD 
HETATM    5  C   UNL     1     -12.262  13.996  66.107  1.00  0.00    -0.494 C  
HETATM    6  H2  UNL     1     -11.627  11.444  69.081  1.00  0.00     0.000 HD 
HETATM    7  C   UNL     1     -11.970  12.931  65.050  1.00  0.00    -0.405 C  
HETATM    8  C   UNL     1     -10.322  11.782  66.433  1.00  0.00    -0.222 C  
HETATM    9  O   UNL     1     -10.653  12.373  65.176  1.00  0.00    -0.276 OA 
ENDROOT
BRANCH   7  10
HETATM   10  C   UNL     1     -12.066  13.617  63.660  1.00  0.00    -0.342 C  
HETATM   11  N   UNL     1     -12.564  14.990  63.735  1.00  0.00    -0.965 NA 
HETATM   12  H1  UNL     1     -12.627  15.440  62.822  1.00  0.00     0.000 HD 
HETATM   13  H2  UNL     1     -12.002  15.547  64.378  1.00  0.00     0.000 HD 
ENDBRANCH   7  10
BRANCH   8  14
HETATM   14  O   UNL     1     -10.823  10.458  66.614  1.00  0.00    -0.176 OA 
BRANCH  14  15
HETATM   15  C   UNL     1      -9.960   9.382  67.063  1.00  0.00    -0.221 C  
HETATM   16  C   UNL     1      -9.475   8.756  65.726  1.00  0.00    -0.169 C  
HETATM   17  N   UNL     1      -8.648   9.708  64.960  1.00  0.00    -0.151 NA 
HETATM   18  C   UNL     1      -8.655   7.485  65.836  1.00  0.00    -0.165 C  
HETATM   19  H2  UNL     1      -7.868  10.059  65.515  1.00  0.00     0.000 HD 
HETATM   20  H1  UNL     1      -8.329   9.297  64.083  1.00  0.00     0.000 HD 
HETATM   21  C   UNL     1      -9.294   6.428  66.722  1.00  0.00    -0.147 C  
HETATM   22  N   UNL     1      -8.371   5.283  66.653  1.00  0.00    -0.108 NA 
HETATM   23  C   UNL     1      -9.545   7.043  68.134  1.00  0.00    -0.129 C  
HETATM   24  C   UNL     1     -10.549   8.264  68.003  1.00  0.00    -0.127 C  
HETATM   25  O   UNL     1     -10.799   8.815  69.308  1.00  0.00    -0.361 OA 
HETATM   26  H2  UNL     1      -7.408   5.509  66.902  1.00  0.00     0.000 HD 
HETATM   27  H1  UNL     1      -8.799   4.573  67.247  1.00  0.00     0.000 HD 
HETATM   28  H   UNL     1     -11.155   8.140  69.876  1.00  0.00     0.000 HD 
BRANCH  23  29
HETATM   29  O   UNL     1      -9.985   6.054  69.118  1.00  0.00    -0.147 OA 
BRANCH  29  30
HETATM   30  C   UNL     1      -9.131   6.045  70.298  1.00  0.00    -0.151 C  
HETATM   31  O   UNL     1      -9.588   6.988  71.276  1.00  0.00    -0.165 OA 
HETATM   32  C   UNL     1     -10.848   6.594  71.846  1.00  0.00    -0.236 C  
HETATM   33  C   UNL     1     -10.644   5.328  72.679  1.00  0.00    -0.228 C  
HETATM   34  H   UNL     1      -8.400   2.821  70.365  1.00  0.00     0.000 HD 
HETATM   35  O   UNL     1     -11.852   4.928  73.330  1.00  0.00    -0.467 OA 
HETATM   36  C   UNL     1     -10.137   4.190  71.761  1.00  0.00    -0.142 C  
HETATM   37  H1  UNL     1      -9.514   2.234  71.965  1.00  0.00     0.000 HD 
HETATM   38  H2  UNL     1     -10.652   2.696  73.130  1.00  0.00     0.000 HD 
HETATM   39  C   UNL     1      -8.921   4.650  70.942  1.00  0.00    -0.120 C  
HETATM   40  N   UNL     1      -9.849   2.984  72.570  1.00  0.00    -0.141 NA 
HETATM   41  H   UNL     1     -11.725   4.142  73.847  1.00  0.00     0.000 HD 
HETATM   42  O   UNL     1      -8.529   3.676  69.971  1.00  0.00    -0.058 OA 
BRANCH  32  43
HETATM   43  C   UNL     1     -11.381   7.778  72.654  1.00  0.00    -0.393 C  
HETATM   44  O   UNL     1     -12.813   7.788  72.572  1.00  0.00    -0.522 OA 
HETATM   45  H   UNL     1     -13.143   8.524  73.074  1.00  0.00     0.000 HD 
ENDBRANCH  32  43
ENDBRANCH  29  30
ENDBRANCH  23  29
ENDBRANCH  14  15
ENDBRANCH   8  14
TORSDOF 6
ENDMDL
MODEL       90
REMARK 921   NORMALIZED FREE ENERGY PREDICTED BY IDOCK:   -5.88 KCAL/MOL
REMARK 922        TOTAL FREE ENERGY PREDICTED BY IDOCK:   -9.50 KCAL/MOL
REMARK 923 INTER-LIGAND FREE ENERGY PREDICTED BY IDOCK:   -8.28 KCAL/MOL
REMARK 924 INTRA-LIGAND FREE ENERGY PREDICTED BY IDOCK:   -1.21 KCAL/MOL
REMARK 927      BINDING AFFINITY PREDICTED BY RF-SCORE:    0.00 PKD
ROOT
HETATM    1  C   UNL     1     -11.271  12.447  67.333  1.00  0.00    -0.297 C  
HETATM    2  C   UNL     1     -10.435  13.724  67.192  1.00  0.00    -0.272 C  
HETATM    3  N   UNL     1     -10.444  11.351  66.782  1.00  0.00    -0.234 NA 
HETATM    4  H1  UNL     1     -11.000  10.502  66.876  1.00  0.00     0.000 HD 
HETATM    5  C   UNL     1     -10.990  14.890  67.978  1.00  0.00    -0.282 C  
HETATM    6  H2  UNL     1      -9.522  11.282  67.213  1.00  0.00     0.000 HD 
HETATM    7  C   UNL     1     -11.401  14.489  69.394  1.00  0.00    -0.279 C  
HETATM    8  C   UNL     1     -11.886  12.182  68.772  1.00  0.00    -0.303 C  
HETATM    9  O   UNL     1     -12.317  13.383  69.413  1.00  0.00    -0.236 OA 
ENDROOT
BRANCH   7  10
HETATM   10  C   UNL     1     -12.117  15.710  70.034  1.00  0.00    -0.359 C  
HETATM   11  N   UNL     1     -13.483  15.410  70.461  1.00  0.00    -0.793 NA 
HETATM   12  H1  UNL     1     -13.953  16.212  70.882  1.00  0.00     0.000 HD 
HETATM   13  H2  UNL     1     -13.500  14.606  71.090  1.00  0.00     0.000 HD 
ENDBRANCH   7  10
BRANCH   8  14
HETATM   14  O   UNL     1     -11.007  11.375  69.557  1.00  0.00    -0.232 OA 
BRANCH  14  15
HETATM   15  C   UNL     1     -11.335  10.000  69.880  1.00  0.00    -0.250 C  
HETATM   16  C   UNL     1     -11.877  10.112  71.331  1.00  0.00    -0.328 C  
HETATM   17  N   UNL     1     -13.126  10.897  71.375  1.00  0.00    -0.388 NA 
HETATM   18  C   UNL     1     -12.179   8.807  72.041  1.00  0.00    -0.447 C  
HETATM   19  H2  UNL     1     -13.828  10.519  70.740  1.00  0.00     0.000 HD 
HETATM   20  H1  UNL     1     -13.482  10.970  72.328  1.00  0.00     0.000 HD 
HETATM   21  C   UNL     1     -11.039   7.803  71.971  1.00  0.00    -0.269 C  
HETATM   22  N   UNL     1     -11.518   6.648  72.747  1.00  0.00    -0.457 NA 
HETATM   23  C   UNL     1     -10.690   7.546  70.472  1.00  0.00    -0.235 C  
HETATM   24  C   UNL     1     -10.208   8.903  69.805  1.00  0.00    -0.202 C  
HETATM   25  O   UNL     1      -9.863   8.659  68.429  1.00  0.00    -0.162 OA 
HETATM   26  H2  UNL     1     -12.416   6.280  72.434  1.00  0.00     0.000 HD 
HETATM   27  H1  UNL     1     -10.754   5.974  72.700  1.00  0.00     0.000 HD 
HETATM   28  H   UNL     1      -9.183   7.996  68.384  1.00  0.00     0.000 HD 
BRANCH  23  29
HETATM   29  O   UNL     1      -9.733   6.455  70.286  1.00  0.00    -0.166 OA 
BRANCH  29  30
HETATM   30  C   UNL     1     -10.386   5.225  69.862  1.00  0.00    -0.304 C  
HETATM   31  O   UNL     1     -10.657   5.241  68.455  1.00  0.00    -0.124 OA 
HETATM   32  C   UNL     1      -9.447   5.190  67.679  1.00  0.00    -0.127 C  
HETATM   33  C   UNL     1      -8.788   3.824  67.873  1.00  0.00    -0.114 C  
HETATM   34  H   UNL     1      -8.852   3.115  71.894  1.00  0.00     0.000 HD 
HETATM   35  O   UNL     1      -7.615   3.690  67.069  1.00  0.00    -0.078 OA 
HETATM   36  C   UNL     1      -8.428   3.638  69.367  1.00  0.00    -0.065 C  
HETATM   37  H1  UNL     1      -7.636   2.161  70.569  1.00  0.00     0.000 HD 
HETATM   38  H2  UNL     1      -7.079   2.091  68.972  1.00  0.00     0.000 HD 
HETATM   39  C   UNL     1      -9.646   3.921  70.261  1.00  0.00    -0.201 C  
HETATM   40  N   UNL     1      -7.872   2.283  69.584  1.00  0.00    -0.042 NA 
HETATM   41  H   UNL     1      -7.205   2.841  67.188  1.00  0.00     0.000 HD 
HETATM   42  O   UNL     1      -9.306   3.914  71.649  1.00  0.00    -0.119 OA 
BRANCH  32  43
HETATM   43  C   UNL     1      -9.816   5.491  66.226  1.00  0.00    -0.145 C  
HETATM   44  O   UNL     1     -11.245   5.473  66.098  1.00  0.00    -0.774 OA 
HETATM   45  H   UNL     1     -11.474   5.659  65.195  1.00  0.00     0.000 HD 
ENDBRANCH  32  43
ENDBRANCH  29  30
ENDBRANCH  23  29
ENDBRANCH  14  15
ENDBRANCH   8  14
TORSDOF 6
ENDMDL
MODEL       91
REMARK 921   NORMALIZED FREE ENERGY PREDICTED BY IDOCK:   -5.85 KCAL/MOL
REMARK 922        TOTAL FREE ENERGY PREDICTED BY IDOCK:   -9.46 KCAL/MOL
REMARK 923 INTER-LIGAND FREE ENERGY PREDICTED BY IDOCK:   -8.05 KCAL/MOL
REMARK 924 INTRA-LIGAND FREE ENERGY PREDICTED BY IDOCK:   -1.42 KCAL/MOL
REMARK 927      BINDING AFFINITY PREDICTED BY RF-SCORE:    0.00 PKD
ROOT
HETATM    1  C   UNL     1     -11.676  10.732  70.618  1.00  0.00    -0.342 C  
HETATM    2  C   UNL     1     -12.958  10.756  71.460  1.00  0.00    -0.562 C  
HETATM    3  N   UNL     1     -11.667   9.427  69.921  1.00  0.00    -0.445 NA 
HETATM    4  H1  UNL     1     -10.814   9.411  69.361  1.00  0.00     0.000 HD 
HETATM    5  C   UNL     1     -13.291  12.128  72.000  1.00  0.00    -0.470 C  
HETATM    6  H2  UNL     1     -12.512   9.251  69.377  1.00  0.00     0.000 HD 
HETATM    7  C   UNL     1     -13.144  13.218  70.940  1.00  0.00    -0.004 C  
HETATM    8  C   UNL     1     -11.434  12.001  69.698  1.00  0.00    -0.252 C  
HETATM    9  O   UNL     1     -11.847  13.218  70.322  1.00  0.00    -0.307 OA 
ENDROOT
BRANCH   7  10
HETATM   10  C   UNL     1     -13.331  14.586  71.650  1.00  0.00    -0.363 C  
HETATM   11  N   UNL     1     -13.686  15.664  70.727  1.00  0.00    -0.799 NA 
HETATM   12  H1  UNL     1     -13.809  16.562  71.194  1.00  0.00     0.000 HD 
HETATM   13  H2  UNL     1     -14.513  15.420  70.182  1.00  0.00     0.000 HD 
ENDBRANCH   7  10
BRANCH   8  14
HETATM   14  O   UNL     1     -11.976  11.791  68.394  1.00  0.00    -0.443 OA 
BRANCH  14  15
HETATM   15  C   UNL     1     -11.126  11.768  67.219  1.00  0.00    -0.287 C  
HETATM   16  C   UNL     1     -12.009  12.466  66.148  1.00  0.00    -0.327 C  
HETATM   17  N   UNL     1     -12.258  13.878  66.498  1.00  0.00    -0.450 NA 
HETATM   18  C   UNL     1     -11.468  12.476  64.732  1.00  0.00    -0.369 C  
HETATM   19  H2  UNL     1     -11.387  14.384  66.655  1.00  0.00     0.000 HD 
HETATM   20  H1  UNL     1     -12.837  14.336  65.794  1.00  0.00     0.000 HD 
HETATM   21  C   UNL     1     -11.017  11.108  64.246  1.00  0.00    -0.205 C  
HETATM   22  N   UNL     1     -10.578  11.335  62.860  1.00  0.00    -0.769 NA 
HETATM   23  C   UNL     1      -9.949  10.551  65.239  1.00  0.00    -0.299 C  
HETATM   24  C   UNL     1     -10.603  10.387  66.675  1.00  0.00    -0.178 C  
HETATM   25  O   UNL     1      -9.624   9.851  67.584  1.00  0.00    -0.146 OA 
HETATM   26  H2  UNL     1      -9.872  12.065  62.761  1.00  0.00     0.000 HD 
HETATM   27  H1  UNL     1     -10.275  10.417  62.534  1.00  0.00     0.000 HD 
HETATM   28  H   UNL     1      -9.308   9.017  67.255  1.00  0.00     0.000 HD 
BRANCH  23  29
HETATM   29  O   UNL     1      -9.313   9.323  64.765  1.00  0.00    -0.183 OA 
BRANCH  29  30
HETATM   30  C   UNL     1      -8.043   9.588  64.103  1.00  0.00    -0.147 C  
HETATM   31  O   UNL     1      -7.159  10.328  64.955  1.00  0.00    -0.136 OA 
HETATM   32  C   UNL     1      -6.724   9.544  66.079  1.00  0.00    -0.082 C  
HETATM   33  C   UNL     1      -5.828   8.411  65.579  1.00  0.00    -0.044 C  
HETATM   34  H   UNL     1      -7.775   6.777  62.383  1.00  0.00     0.000 HD 
HETATM   35  O   UNL     1      -5.306   7.638  66.661  1.00  0.00    -0.023 OA 
HETATM   36  C   UNL     1      -6.639   7.502  64.624  1.00  0.00    -0.040 C  
HETATM   37  H1  UNL     1      -6.294   5.854  63.431  1.00  0.00     0.000 HD 
HETATM   38  H2  UNL     1      -5.285   5.918  64.789  1.00  0.00     0.000 HD 
HETATM   39  C   UNL     1      -7.329   8.335  63.532  1.00  0.00    -0.108 C  
HETATM   40  N   UNL     1      -5.758   6.453  64.061  1.00  0.00    -0.022 NA 
HETATM   41  H   UNL     1      -4.749   6.934  66.351  1.00  0.00     0.000 HD 
HETATM   42  O   UNL     1      -8.212   7.545  62.732  1.00  0.00    -0.121 OA 
BRANCH  32  43
HETATM   43  C   UNL     1      -6.026  10.488  67.059  1.00  0.00    -0.053 C  
HETATM   44  O   UNL     1      -7.018  11.287  67.718  1.00  0.00    -0.071 OA 
HETATM   45  H   UNL     1      -6.585  11.874  68.327  1.00  0.00     0.000 HD 
ENDBRANCH  32  43
ENDBRANCH  29  30
ENDBRANCH  23  29
ENDBRANCH  14  15
ENDBRANCH   8  14
TORSDOF 6
ENDMDL
MODEL       92
REMARK 921   NORMALIZED FREE ENERGY PREDICTED BY IDOCK:   -5.84 KCAL/MOL
REMARK 922        TOTAL FREE ENERGY PREDICTED BY IDOCK:   -9.44 KCAL/MOL
REMARK 923 INTER-LIGAND FREE ENERGY PREDICTED BY IDOCK:   -7.01 KCAL/MOL
REMARK 924 INTRA-LIGAND FREE ENERGY PREDICTED BY IDOCK:   -2.43 KCAL/MOL
REMARK 927      BINDING AFFINITY PREDICTED BY RF-SCORE:    0.00 PKD
ROOT
HETATM    1  C   UNL     1      -9.579   5.230  72.051  1.00  0.00    -0.153 C  
HETATM    2  C   UNL     1      -8.722   6.047  73.024  1.00  0.00    -0.122 C  
HETATM    3  N   UNL     1     -10.792   4.836  72.801  1.00  0.00    -0.219 NA 
HETATM    4  H1  UNL     1     -11.362   4.292  72.154  1.00  0.00     0.000 HD 
HETATM    5  C   UNL     1      -7.594   6.790  72.346  1.00  0.00    -0.093 C  
HETATM    6  H2  UNL     1     -11.289   5.625  73.214  1.00  0.00     0.000 HD 
HETATM    7  C   UNL     1      -8.051   7.497  71.071  1.00  0.00    -0.100 C  
HETATM    8  C   UNL     1      -9.838   5.897  70.634  1.00  0.00    -0.183 C  
HETATM    9  O   UNL     1      -8.700   6.609  70.148  1.00  0.00    -0.138 OA 
ENDROOT
BRANCH   7  10
HETATM   10  C   UNL     1      -6.785   8.065  70.374  1.00  0.00    -0.037 C  
HETATM   11  N   UNL     1      -7.079   9.184  69.480  1.00  0.00    -0.057 NA 
HETATM   12  H1  UNL     1      -6.247   9.556  69.022  1.00  0.00     0.000 HD 
HETATM   13  H2  UNL     1      -7.585   9.920  69.972  1.00  0.00     0.000 HD 
ENDBRANCH   7  10
BRANCH   8  14
HETATM   14  O   UNL     1     -11.049   6.654  70.646  1.00  0.00    -0.259 OA 
BRANCH  14  15
HETATM   15  C   UNL     1     -11.032   8.098  70.778  1.00  0.00    -0.244 C  
HETATM   16  C   UNL     1     -12.175   8.359  71.797  1.00  0.00    -0.330 C  
HETATM   17  N   UNL     1     -11.856   7.781  73.117  1.00  0.00    -0.634 NA 
HETATM   18  C   UNL     1     -12.533   9.810  72.052  1.00  0.00    -0.390 C  
HETATM   19  H2  UNL     1     -10.959   8.116  73.465  1.00  0.00     0.000 HD 
HETATM   20  H1  UNL     1     -12.607   7.953  73.786  1.00  0.00     0.000 HD 
HETATM   21  C   UNL     1     -12.757  10.611  70.779  1.00  0.00    -0.378 C  
HETATM   22  N   UNL     1     -13.129  11.955  71.250  1.00  0.00    -0.233 NA 
HETATM   23  C   UNL     1     -11.477  10.508  69.891  1.00  0.00    -0.310 C  
HETATM   24  C   UNL     1     -11.234   8.990  69.496  1.00  0.00     0.070 C  
HETATM   25  O   UNL     1     -10.068   8.899  68.657  1.00  0.00    -0.177 OA 
HETATM   26  H2  UNL     1     -12.455  12.373  71.891  1.00  0.00     0.000 HD 
HETATM   27  H1  UNL     1     -13.280  12.492  70.396  1.00  0.00     0.000 HD 
HETATM   28  H   UNL     1     -10.190   9.438  67.883  1.00  0.00     0.000 HD 
BRANCH  23  29
HETATM   29  O   UNL     1     -11.516  11.394  68.728  1.00  0.00    -0.235 OA 
BRANCH  29  30
HETATM   30  C   UNL     1     -10.362  12.281  68.683  1.00  0.00    -0.188 C  
HETATM   31  O   UNL     1      -9.314  11.729  67.877  1.00  0.00    -0.172 OA 
HETATM   32  C   UNL     1      -9.679  11.684  66.487  1.00  0.00    -0.206 C  
HETATM   33  C   UNL     1      -9.787  13.113  65.953  1.00  0.00    -0.233 C  
HETATM   34  H   UNL     1     -11.956  15.178  68.729  1.00  0.00     0.000 HD 
HETATM   35  O   UNL     1     -10.080  13.130  64.555  1.00  0.00    -0.561 OA 
HETATM   36  C   UNL     1     -10.892  13.866  66.733  1.00  0.00    -0.286 C  
HETATM   37  H1  UNL     1     -11.673  15.775  66.803  1.00  0.00     0.000 HD 
HETATM   38  H2  UNL     1     -11.065  15.358  65.279  1.00  0.00     0.000 HD 
HETATM   39  C   UNL     1     -10.675  13.738  68.249  1.00  0.00    -0.253 C  
HETATM   40  N   UNL     1     -10.945  15.278  66.289  1.00  0.00    -0.320 NA 
HETATM   41  H   UNL     1     -10.146  14.017  64.223  1.00  0.00     0.000 HD 
HETATM   42  O   UNL     1     -11.764  14.286  68.995  1.00  0.00    -0.278 OA 
BRANCH  32  43
HETATM   43  C   UNL     1      -8.633  10.838  65.760  1.00  0.00    -0.183 C  
HETATM   44  O   UNL     1      -7.945  10.026  66.723  1.00  0.00    -0.112 OA 
HETATM   45  H   UNL     1      -7.295   9.500  66.272  1.00  0.00     0.000 HD 
ENDBRANCH  32  43
ENDBRANCH  29  30
ENDBRANCH  23  29
ENDBRANCH  14  15
ENDBRANCH   8  14
TORSDOF 6
ENDMDL
MODEL       93
REMARK 921   NORMALIZED FREE ENERGY PREDICTED BY IDOCK:   -5.83 KCAL/MOL
REMARK 922        TOTAL FREE ENERGY PREDICTED BY IDOCK:   -9.43 KCAL/MOL
REMARK 923 INTER-LIGAND FREE ENERGY PREDICTED BY IDOCK:   -8.02 KCAL/MOL
REMARK 924 INTRA-LIGAND FREE ENERGY PREDICTED BY IDOCK:   -1.41 KCAL/MOL
REMARK 927      BINDING AFFINITY PREDICTED BY RF-SCORE:    0.00 PKD
ROOT
HETATM    1  C   UNL     1     -11.624  13.774  66.996  1.00  0.00    -0.365 C  
HETATM    2  C   UNL     1     -12.459  14.110  65.755  1.00  0.00    -0.490 C  
HETATM    3  N   UNL     1     -12.421  14.220  68.161  1.00  0.00    -0.500 NA 
HETATM    4  H1  UNL     1     -11.866  13.996  68.986  1.00  0.00     0.000 HD 
HETATM    5  C   UNL     1     -11.944  13.452  64.495  1.00  0.00    -0.452 C  
HETATM    6  H2  UNL     1     -13.361  13.824  68.184  1.00  0.00     0.000 HD 
HETATM    7  C   UNL     1     -11.595  11.981  64.712  1.00  0.00    -0.281 C  
HETATM    8  C   UNL     1     -11.073  12.288  67.074  1.00  0.00    -0.287 C  
HETATM    9  O   UNL     1     -10.676  11.784  65.798  1.00  0.00    -0.264 OA 
ENDROOT
BRANCH   7  10
HETATM   10  C   UNL     1     -10.914  11.468  63.414  1.00  0.00    -0.315 C  
HETATM   11  N   UNL     1      -9.680  12.186  63.096  1.00  0.00    -0.572 NA 
HETATM   12  H1  UNL     1      -9.233  11.849  62.243  1.00  0.00     0.000 HD 
HETATM   13  H2  UNL     1      -9.031  12.163  63.882  1.00  0.00     0.000 HD 
ENDBRANCH   7  10
BRANCH   8  14
HETATM   14  O   UNL     1     -11.982  11.448  67.785  1.00  0.00    -0.637 OA 
BRANCH  14  15
HETATM   15  C   UNL     1     -11.515  10.301  68.540  1.00  0.00    -0.100 C  
HETATM   16  C   UNL     1     -11.530  10.827  70.002  1.00  0.00    -0.331 C  
HETATM   17  N   UNL     1     -12.905  11.131  70.445  1.00  0.00    -0.165 NA 
HETATM   18  C   UNL     1     -10.945   9.908  71.055  1.00  0.00    -0.360 C  
HETATM   19  H2  UNL     1     -13.522  10.327  70.329  1.00  0.00     0.000 HD 
HETATM   20  H1  UNL     1     -12.915  11.476  71.405  1.00  0.00     0.000 HD 
HETATM   21  C   UNL     1      -9.569   9.373  70.693  1.00  0.00    -0.268 C  
HETATM   22  N   UNL     1      -9.175   8.554  71.852  1.00  0.00    -0.233 NA 
HETATM   23  C   UNL     1      -9.661   8.642  69.317  1.00  0.00    -0.173 C  
HETATM   24  C   UNL     1     -10.108   9.680  68.202  1.00  0.00    -0.175 C  
HETATM   25  O   UNL     1     -10.170   9.011  66.929  1.00  0.00    -0.238 OA 
HETATM   26  H2  UNL     1      -9.851   7.832  72.100  1.00  0.00     0.000 HD 
HETATM   27  H1  UNL     1      -8.252   8.195  71.609  1.00  0.00     0.000 HD 
HETATM   28  H   UNL     1      -9.321   8.635  66.726  1.00  0.00     0.000 HD 
BRANCH  23  29
HETATM   29  O   UNL     1      -8.434   7.929  68.964  1.00  0.00    -0.129 OA 
BRANCH  29  30
HETATM   30  C   UNL     1      -8.488   6.528  69.357  1.00  0.00    -0.127 C  
HETATM   31  O   UNL     1      -9.542   5.838  68.674  1.00  0.00    -0.120 OA 
HETATM   32  C   UNL     1      -9.274   5.717  67.266  1.00  0.00    -0.110 C  
HETATM   33  C   UNL     1      -8.082   4.781  67.064  1.00  0.00    -0.106 C  
HETATM   34  H   UNL     1      -5.249   5.990  69.745  1.00  0.00     0.000 HD 
HETATM   35  O   UNL     1      -7.813   4.567  65.678  1.00  0.00    -0.093 OA 
HETATM   36  C   UNL     1      -6.837   5.384  67.757  1.00  0.00    -0.060 C  
HETATM   37  H1  UNL     1      -4.876   4.842  68.105  1.00  0.00     0.000 HD 
HETATM   38  H2  UNL     1      -5.509   4.182  66.680  1.00  0.00     0.000 HD 
HETATM   39  C   UNL     1      -7.150   5.757  69.215  1.00  0.00    -0.065 C  
HETATM   40  N   UNL     1      -5.697   4.445  67.648  1.00  0.00    -0.021 NA 
HETATM   41  H   UNL     1      -7.073   3.985  65.552  1.00  0.00     0.000 HD 
HETATM   42  O   UNL     1      -6.069   6.462  69.832  1.00  0.00    -0.028 OA 
BRANCH  32  43
HETATM   43  C   UNL     1     -10.557   5.229  66.591  1.00  0.00    -0.270 C  
HETATM   44  O   UNL     1     -11.461   6.335  66.460  1.00  0.00    -0.680 OA 
HETATM   45  H   UNL     1     -12.257   6.031  66.041  1.00  0.00     0.000 HD 
ENDBRANCH  32  43
ENDBRANCH  29  30
ENDBRANCH  23  29
ENDBRANCH  14  15
ENDBRANCH   8  14
TORSDOF 6
ENDMDL
MODEL       94
REMARK 921   NORMALIZED FREE ENERGY PREDICTED BY IDOCK:   -5.80 KCAL/MOL
REMARK 922        TOTAL FREE ENERGY PREDICTED BY IDOCK:   -9.39 KCAL/MOL
REMARK 923 INTER-LIGAND FREE ENERGY PREDICTED BY IDOCK:   -9.30 KCAL/MOL
REMARK 924 INTRA-LIGAND FREE ENERGY PREDICTED BY IDOCK:   -0.09 KCAL/MOL
REMARK 927      BINDING AFFINITY PREDICTED BY RF-SCORE:    0.00 PKD
ROOT
HETATM    1  C   UNL     1      -9.510   8.365  66.889  1.00  0.00    -0.185 C  
HETATM    2  C   UNL     1      -8.623   8.375  68.140  1.00  0.00    -0.139 C  
HETATM    3  N   UNL     1     -10.808   7.794  67.309  1.00  0.00    -0.528 NA 
HETATM    4  H1  UNL     1     -11.398   7.787  66.477  1.00  0.00     0.000 HD 
HETATM    5  C   UNL     1      -7.370   9.203  67.976  1.00  0.00    -0.083 C  
HETATM    6  H2  UNL     1     -11.229   8.281  68.100  1.00  0.00     0.000 HD 
HETATM    7  C   UNL     1      -7.651  10.554  67.322  1.00  0.00    -0.096 C  
HETATM    8  C   UNL     1      -9.591   9.735  66.092  1.00  0.00    -0.227 C  
HETATM    9  O   UNL     1      -8.343  10.430  66.069  1.00  0.00    -0.137 OA 
ENDROOT
BRANCH   7  10
HETATM   10  C   UNL     1      -6.281  11.230  67.042  1.00  0.00    -0.108 C  
HETATM   11  N   UNL     1      -6.389  12.674  66.833  1.00  0.00    -0.481 NA 
HETATM   12  H1  UNL     1      -5.489  13.117  66.649  1.00  0.00     0.000 HD 
HETATM   13  H2  UNL     1      -6.863  13.121  67.618  1.00  0.00     0.000 HD 
ENDBRANCH   7  10
BRANCH   8  14
HETATM   14  O   UNL     1     -10.696  10.518  66.544  1.00  0.00    -0.205 OA 
BRANCH  14  15
HETATM   15  C   UNL     1     -10.505  11.852  67.079  1.00  0.00    -0.224 C  
HETATM   16  C   UNL     1     -11.427  11.852  68.329  1.00  0.00    -0.311 C  
HETATM   17  N   UNL     1     -10.956  10.886  69.341  1.00  0.00    -0.237 NA 
HETATM   18  C   UNL     1     -11.581  13.174  69.053  1.00  0.00    -0.360 C  
HETATM   19  H2  UNL     1      -9.982  11.054  69.593  1.00  0.00     0.000 HD 
HETATM   20  H1  UNL     1     -11.562  10.887  70.161  1.00  0.00     0.000 HD 
HETATM   21  C   UNL     1     -11.928  14.332  68.132  1.00  0.00    -0.308 C  
HETATM   22  N   UNL     1     -12.073  15.489  69.031  1.00  0.00    -0.583 NA 
HETATM   23  C   UNL     1     -10.833  14.436  67.024  1.00  0.00    -0.297 C  
HETATM   24  C   UNL     1     -10.822  13.098  66.171  1.00  0.00    -0.279 C  
HETATM   25  O   UNL     1      -9.828  13.205  65.135  1.00  0.00    -0.494 OA 
HETATM   26  H2  UNL     1     -11.261  15.658  69.624  1.00  0.00     0.000 HD 
HETATM   27  H1  UNL     1     -12.305  16.266  68.412  1.00  0.00     0.000 HD 
HETATM   28  H   UNL     1     -10.020  13.958  64.587  1.00  0.00     0.000 HD 
BRANCH  23  29
HETATM   29  O   UNL     1     -10.971  15.633  66.194  1.00  0.00    -0.298 OA 
BRANCH  29  30
HETATM   30  C   UNL     1      -9.686  16.269  65.941  1.00  0.00    -0.321 C  
HETATM   31  O   UNL     1      -9.837  17.678  65.729  1.00  0.00    -0.539 OA 
HETATM   32  C   UNL     1     -10.245  18.355  66.930  1.00  0.00    -0.380 C  
HETATM   33  C   UNL     1      -9.106  18.295  67.947  1.00  0.00    -0.279 C  
HETATM   34  H   UNL     1      -7.808  14.423  67.941  1.00  0.00     0.000 HD 
HETATM   35  O   UNL     1      -9.428  19.015  69.139  1.00  0.00    -0.295 OA 
HETATM   36  C   UNL     1      -8.804  16.816  68.289  1.00  0.00    -0.228 C  
HETATM   37  H1  UNL     1      -7.443  15.765  69.429  1.00  0.00     0.000 HD 
HETATM   38  H2  UNL     1      -7.775  17.308  70.041  1.00  0.00     0.000 HD 
HETATM   39  C   UNL     1      -8.596  15.991  67.009  1.00  0.00    -0.210 C  
HETATM   40  N   UNL     1      -7.642  16.740  69.204  1.00  0.00    -0.221 NA 
HETATM   41  H   UNL     1      -8.720  18.978  69.771  1.00  0.00     0.000 HD 
HETATM   42  O   UNL     1      -8.475  14.594  67.286  1.00  0.00    -0.189 OA 
BRANCH  32  43
HETATM   43  C   UNL     1     -10.646  19.780  66.544  1.00  0.00    -0.467 C  
HETATM   44  O   UNL     1      -9.624  20.337  65.705  1.00  0.00    -0.592 OA 
HETATM   45  H   UNL     1      -9.873  21.222  65.466  1.00  0.00     0.000 HD 
ENDBRANCH  32  43
ENDBRANCH  29  30
ENDBRANCH  23  29
ENDBRANCH  14  15
ENDBRANCH   8  14
TORSDOF 6
ENDMDL
MODEL       95
REMARK 921   NORMALIZED FREE ENERGY PREDICTED BY IDOCK:   -5.73 KCAL/MOL
REMARK 922        TOTAL FREE ENERGY PREDICTED BY IDOCK:   -9.30 KCAL/MOL
REMARK 923 INTER-LIGAND FREE ENERGY PREDICTED BY IDOCK:   -8.14 KCAL/MOL
REMARK 924 INTRA-LIGAND FREE ENERGY PREDICTED BY IDOCK:   -1.15 KCAL/MOL
REMARK 927      BINDING AFFINITY PREDICTED BY RF-SCORE:    0.00 PKD
ROOT
HETATM    1  C   UNL     1      -9.220  13.464  67.458  1.00  0.00    -0.219 C  
HETATM    2  C   UNL     1      -9.641  14.852  66.960  1.00  0.00    -0.245 C  
HETATM    3  N   UNL     1      -8.484  13.687  68.722  1.00  0.00    -0.351 NA 
HETATM    4  H1  UNL     1      -8.204  12.764  69.053  1.00  0.00     0.000 HD 
HETATM    5  C   UNL     1     -10.663  14.800  65.847  1.00  0.00    -0.320 C  
HETATM    6  H2  UNL     1      -9.014  14.221  69.411  1.00  0.00     0.000 HD 
HETATM    7  C   UNL     1     -11.784  13.803  66.136  1.00  0.00    -0.370 C  
HETATM    8  C   UNL     1     -10.373  12.375  67.520  1.00  0.00    -0.215 C  
HETATM    9  O   UNL     1     -11.291  12.487  66.432  1.00  0.00    -0.293 OA 
ENDROOT
BRANCH   7  10
HETATM   10  C   UNL     1     -12.661  13.705  64.857  1.00  0.00    -0.336 C  
HETATM   11  N   UNL     1     -12.558  14.889  64.004  1.00  0.00    -0.925 NA 
HETATM   12  H1  UNL     1     -13.134  14.824  63.164  1.00  0.00     0.000 HD 
HETATM   13  H2  UNL     1     -11.585  15.082  63.765  1.00  0.00     0.000 HD 
ENDBRANCH   7  10
BRANCH   8  14
HETATM   14  O   UNL     1     -10.984  12.360  68.811  1.00  0.00    -0.232 OA 
BRANCH  14  15
HETATM   15  C   UNL     1     -11.522  11.137  69.374  1.00  0.00    -0.298 C  
HETATM   16  C   UNL     1     -12.147  11.625  70.710  1.00  0.00    -0.283 C  
HETATM   17  N   UNL     1     -13.275  12.544  70.467  1.00  0.00     0.502 NA 
HETATM   18  C   UNL     1     -12.677  10.550  71.638  1.00  0.00    -0.550 C  
HETATM   19  H2  UNL     1     -13.975  12.126  69.856  1.00  0.00     0.000 HD 
HETATM   20  H1  UNL     1     -13.685  12.865  71.344  1.00  0.00     0.000 HD 
HETATM   21  C   UNL     1     -11.686   9.425  71.890  1.00  0.00    -0.306 C  
HETATM   22  N   UNL     1     -12.376   8.531  72.835  1.00  0.00    -0.540 NA 
HETATM   23  C   UNL     1     -11.268   8.809  70.518  1.00  0.00    -0.247 C  
HETATM   24  C   UNL     1     -10.556   9.922  69.639  1.00  0.00    -0.250 C  
HETATM   25  O   UNL     1     -10.150   9.347  68.384  1.00  0.00    -0.171 OA 
HETATM   26  H2  UNL     1     -13.291   8.214  72.516  1.00  0.00     0.000 HD 
HETATM   27  H1  UNL     1     -11.711   7.776  73.004  1.00  0.00     0.000 HD 
HETATM   28  H   UNL     1      -9.567   8.613  68.544  1.00  0.00     0.000 HD 
BRANCH  23  29
HETATM   29  O   UNL     1     -10.461   7.597  70.657  1.00  0.00    -0.212 OA 
BRANCH  29  30
HETATM   30  C   UNL     1     -11.229   6.396  70.363  1.00  0.00    -0.372 C  
HETATM   31  O   UNL     1     -11.450   6.253  68.954  1.00  0.00    -0.331 OA 
HETATM   32  C   UNL     1     -10.227   5.976  68.250  1.00  0.00    -0.181 C  
HETATM   33  C   UNL     1      -9.727   4.587  68.647  1.00  0.00    -0.134 C  
HETATM   34  H   UNL     1     -10.001   4.427  72.718  1.00  0.00     0.000 HD 
HETATM   35  O   UNL     1      -8.549   4.227  67.923  1.00  0.00    -0.097 OA 
HETATM   36  C   UNL     1      -9.439   4.564  70.168  1.00  0.00    -0.167 C  
HETATM   37  H1  UNL     1      -8.852   3.185  71.585  1.00  0.00     0.000 HD 
HETATM   38  H2  UNL     1      -8.253   2.848  70.038  1.00  0.00     0.000 HD 
HETATM   39  C   UNL     1     -10.648   5.087  70.960  1.00  0.00    -0.076 C  
HETATM   40  N   UNL     1      -9.041   3.200  70.582  1.00  0.00    -0.108 NA 
HETATM   41  H   UNL     1      -8.238   3.364  68.169  1.00  0.00     0.000 HD 
HETATM   42  O   UNL     1     -10.357   5.228  72.353  1.00  0.00    -0.194 OA 
BRANCH  32  43
HETATM   43  C   UNL     1     -10.513   6.118  66.754  1.00  0.00    -0.252 C  
HETATM   44  O   UNL     1     -10.902   7.472  66.483  1.00  0.00    -0.371 OA 
HETATM   45  H   UNL     1     -11.080   7.560  65.554  1.00  0.00     0.000 HD 
ENDBRANCH  32  43
ENDBRANCH  29  30
ENDBRANCH  23  29
ENDBRANCH  14  15
ENDBRANCH   8  14
TORSDOF 6
ENDMDL
MODEL       96
REMARK 921   NORMALIZED FREE ENERGY PREDICTED BY IDOCK:   -5.72 KCAL/MOL
REMARK 922        TOTAL FREE ENERGY PREDICTED BY IDOCK:   -9.28 KCAL/MOL
REMARK 923 INTER-LIGAND FREE ENERGY PREDICTED BY IDOCK:   -9.23 KCAL/MOL
REMARK 924 INTRA-LIGAND FREE ENERGY PREDICTED BY IDOCK:   -0.05 KCAL/MOL
REMARK 927      BINDING AFFINITY PREDICTED BY RF-SCORE:    0.00 PKD
ROOT
HETATM    1  C   UNL     1      -8.667   8.941  66.496  1.00  0.00    -0.130 C  
HETATM    2  C   UNL     1      -9.207   7.658  65.853  1.00  0.00    -0.053 C  
HETATM    3  N   UNL     1      -8.541   9.928  65.401  1.00  0.00    -0.144 NA 
HETATM    4  H1  UNL     1      -8.182  10.781  65.828  1.00  0.00     0.000 HD 
HETATM    5  C   UNL     1      -9.687   6.642  66.864  1.00  0.00    -0.209 C  
HETATM    6  H2  UNL     1      -9.407  10.069  64.880  1.00  0.00     0.000 HD 
HETATM    7  C   UNL     1     -10.543   7.276  67.960  1.00  0.00    -0.189 C  
HETATM    8  C   UNL     1      -9.443   9.446  67.785  1.00  0.00    -0.132 C  
HETATM    9  O   UNL     1      -9.882   8.370  68.615  1.00  0.00    -0.162 OA 
ENDROOT
BRANCH   7  10
HETATM   10  C   UNL     1     -10.821   6.182  69.026  1.00  0.00    -0.350 C  
HETATM   11  N   UNL     1     -11.745   6.624  70.070  1.00  0.00    -0.610 NA 
HETATM   12  H1  UNL     1     -11.927   5.905  70.769  1.00  0.00     0.000 HD 
HETATM   13  H2  UNL     1     -12.616   6.967  69.664  1.00  0.00     0.000 HD 
ENDBRANCH   7  10
BRANCH   8  14
HETATM   14  O   UNL     1     -10.468  10.373  67.427  1.00  0.00    -0.216 OA 
BRANCH  14  15
HETATM   15  C   UNL     1     -10.389  11.768  67.815  1.00  0.00    -0.194 C  
HETATM   16  C   UNL     1     -11.395  11.850  68.996  1.00  0.00    -0.279 C  
HETATM   17  N   UNL     1     -10.942  11.037  70.140  1.00  0.00    -0.467 NA 
HETATM   18  C   UNL     1     -11.672  13.234  69.550  1.00  0.00    -0.384 C  
HETATM   19  H2  UNL     1      -9.999  11.293  70.432  1.00  0.00     0.000 HD 
HETATM   20  H1  UNL     1     -11.603  11.091  70.916  1.00  0.00     0.000 HD 
HETATM   21  C   UNL     1     -12.018  14.256  68.479  1.00  0.00    -0.317 C  
HETATM   22  N   UNL     1     -12.289  15.495  69.227  1.00  0.00    -0.606 NA 
HETATM   23  C   UNL     1     -10.856  14.304  67.439  1.00  0.00    -0.285 C  
HETATM   24  C   UNL     1     -10.710  12.882  66.750  1.00  0.00    -0.261 C  
HETATM   25  O   UNL     1      -9.654  12.934  65.773  1.00  0.00    -0.422 OA 
HETATM   26  H2  UNL     1     -11.531  15.782  69.847  1.00  0.00     0.000 HD 
HETATM   27  H1  UNL     1     -12.521  16.182  68.509  1.00  0.00     0.000 HD 
HETATM   28  H   UNL     1      -9.849  13.607  65.130  1.00  0.00     0.000 HD 
BRANCH  23  29
HETATM   29  O   UNL     1     -11.001  15.389  66.468  1.00  0.00    -0.315 OA 
BRANCH  29  30
HETATM   30  C   UNL     1      -9.717  15.978  66.115  1.00  0.00    -0.324 C  
HETATM   31  O   UNL     1      -9.885  17.280  65.540  1.00  0.00    -0.541 OA 
HETATM   32  C   UNL     1     -10.366  18.230  66.507  1.00  0.00    -0.392 C  
HETATM   33  C   UNL     1      -9.279  18.470  67.554  1.00  0.00    -0.279 C  
HETATM   34  H   UNL     1      -7.908  14.770  68.605  1.00  0.00     0.000 HD 
HETATM   35  O   UNL     1      -9.674  19.461  68.504  1.00  0.00    -0.368 OA 
HETATM   36  C   UNL     1      -8.966  17.139  68.279  1.00  0.00    -0.248 C  
HETATM   37  H1  UNL     1      -7.645  16.459  69.711  1.00  0.00     0.000 HD 
HETATM   38  H2  UNL     1      -8.037  18.097  69.888  1.00  0.00     0.000 HD 
HETATM   39  C   UNL     1      -8.678  16.020  67.266  1.00  0.00    -0.185 C  
HETATM   40  N   UNL     1      -7.851  17.337  69.233  1.00  0.00    -0.030 NA 
HETATM   41  H   UNL     1      -8.999  19.611  69.154  1.00  0.00     0.000 HD 
HETATM   42  O   UNL     1      -8.544  14.744  67.899  1.00  0.00    -0.155 OA 
BRANCH  32  43
HETATM   43  C   UNL     1     -10.775  19.494  65.749  1.00  0.00    -0.393 C  
HETATM   44  O   UNL     1      -9.628  20.347  65.619  1.00  0.00    -0.589 OA 
HETATM   45  H   UNL     1      -9.882  21.132  65.149  1.00  0.00     0.000 HD 
ENDBRANCH  32  43
ENDBRANCH  29  30
ENDBRANCH  23  29
ENDBRANCH  14  15
ENDBRANCH   8  14
TORSDOF 6
ENDMDL
MODEL       97
REMARK 921   NORMALIZED FREE ENERGY PREDICTED BY IDOCK:   -5.71 KCAL/MOL
REMARK 922        TOTAL FREE ENERGY PREDICTED BY IDOCK:   -9.27 KCAL/MOL
REMARK 923 INTER-LIGAND FREE ENERGY PREDICTED BY IDOCK:   -8.03 KCAL/MOL
REMARK 924 INTRA-LIGAND FREE ENERGY PREDICTED BY IDOCK:   -1.24 KCAL/MOL
REMARK 927      BINDING AFFINITY PREDICTED BY RF-SCORE:    0.00 PKD
ROOT
HETATM    1  C   UNL     1      -9.446   6.590  67.280  1.00  0.00    -0.125 C  
HETATM    2  C   UNL     1      -8.392   6.723  68.386  1.00  0.00    -0.123 C  
HETATM    3  N   UNL     1     -10.695   6.167  67.950  1.00  0.00    -0.270 NA 
HETATM    4  H1  UNL     1     -11.395   6.078  67.215  1.00  0.00     0.000 HD 
HETATM    5  C   UNL     1      -7.141   7.440  67.934  1.00  0.00    -0.085 C  
HETATM    6  H2  UNL     1     -10.979   6.787  68.709  1.00  0.00     0.000 HD 
HETATM    7  C   UNL     1      -7.455   8.700  67.128  1.00  0.00    -0.088 C  
HETATM    8  C   UNL     1      -9.581   7.835  66.305  1.00  0.00    -0.108 C  
HETATM    9  O   UNL     1      -8.322   8.442  66.012  1.00  0.00    -0.112 OA 
ENDROOT
BRANCH   7  10
HETATM   10  C   UNL     1      -6.111   9.243  66.570  1.00  0.00    -0.064 C  
HETATM   11  N   UNL     1      -6.265  10.498  65.834  1.00  0.00    -0.118 NA 
HETATM   12  H1  UNL     1      -5.382  10.854  65.468  1.00  0.00     0.000 HD 
HETATM   13  H2  UNL     1      -6.732  11.201  66.407  1.00  0.00     0.000 HD 
ENDBRANCH   7  10
BRANCH   8  14
HETATM   14  O   UNL     1     -10.578   8.742  66.778  1.00  0.00    -0.258 OA 
BRANCH  14  15
HETATM   15  C   UNL     1     -10.229   9.878  67.608  1.00  0.00    -0.208 C  
HETATM   16  C   UNL     1     -11.340   9.860  68.693  1.00  0.00     0.012 C  
HETATM   17  N   UNL     1     -11.252   8.647  69.528  1.00  0.00    -0.438 NA 
HETATM   18  C   UNL     1     -11.360  11.030  69.657  1.00  0.00    -0.363 C  
HETATM   19  H2  UNL     1     -10.324   8.541  69.939  1.00  0.00     0.000 HD 
HETATM   20  H1  UNL     1     -11.981   8.635  70.241  1.00  0.00     0.000 HD 
HETATM   21  C   UNL     1     -11.307  12.384  68.967  1.00  0.00    -0.283 C  
HETATM   22  N   UNL     1     -11.381  13.360  70.066  1.00  0.00    -0.497 NA 
HETATM   23  C   UNL     1     -10.035  12.436  68.065  1.00  0.00    -0.207 C  
HETATM   24  C   UNL     1     -10.133  11.307  66.954  1.00  0.00    -0.212 C  
HETATM   25  O   UNL     1      -8.970  11.373  66.108  1.00  0.00    -0.198 OA 
HETATM   26  H2  UNL     1     -10.669  13.232  70.786  1.00  0.00     0.000 HD 
HETATM   27  H1  UNL     1     -11.345  14.269  69.604  1.00  0.00     0.000 HD 
HETATM   28  H   UNL     1      -8.912  12.236  65.714  1.00  0.00     0.000 HD 
BRANCH  23  29
HETATM   29  O   UNL     1      -9.788  13.763  67.501  1.00  0.00    -0.223 OA 
BRANCH  29  30
HETATM   30  C   UNL     1     -10.993  14.581  67.489  1.00  0.00    -0.293 C  
HETATM   31  O   UNL     1     -10.811  15.783  68.249  1.00  0.00    -0.278 OA 
HETATM   32  C   UNL     1      -9.870  16.671  67.622  1.00  0.00    -0.256 C  
HETATM   33  C   UNL     1     -10.472  17.194  66.318  1.00  0.00    -0.260 C  
HETATM   34  H   UNL     1     -12.015  13.928  64.413  1.00  0.00     0.000 HD 
HETATM   35  O   UNL     1      -9.609  18.140  65.684  1.00  0.00    -0.419 OA 
HETATM   36  C   UNL     1     -10.741  16.004  65.366  1.00  0.00    -0.383 C  
HETATM   37  H1  UNL     1     -11.585  15.701  63.508  1.00  0.00     0.000 HD 
HETATM   38  H2  UNL     1     -10.879  17.230  63.679  1.00  0.00     0.000 HD 
HETATM   39  C   UNL     1     -11.548  14.907  66.078  1.00  0.00    -0.226 C  
HETATM   40  N   UNL     1     -11.408  16.486  64.135  1.00  0.00    -1.047 NA 
HETATM   41  H   UNL     1      -9.982  18.465  64.874  1.00  0.00     0.000 HD 
HETATM   42  O   UNL     1     -11.675  13.729  65.278  1.00  0.00    -0.319 OA 
BRANCH  32  43
HETATM   43  C   UNL     1      -9.535  17.774  68.627  1.00  0.00    -0.283 C  
HETATM   44  O   UNL     1      -8.147  18.112  68.499  1.00  0.00    -0.294 OA 
HETATM   45  H   UNL     1      -7.939  18.797  69.123  1.00  0.00     0.000 HD 
ENDBRANCH  32  43
ENDBRANCH  29  30
ENDBRANCH  23  29
ENDBRANCH  14  15
ENDBRANCH   8  14
TORSDOF 6
ENDMDL
MODEL       98
REMARK 921   NORMALIZED FREE ENERGY PREDICTED BY IDOCK:   -5.71 KCAL/MOL
REMARK 922        TOTAL FREE ENERGY PREDICTED BY IDOCK:   -9.27 KCAL/MOL
REMARK 923 INTER-LIGAND FREE ENERGY PREDICTED BY IDOCK:   -8.50 KCAL/MOL
REMARK 924 INTRA-LIGAND FREE ENERGY PREDICTED BY IDOCK:   -0.77 KCAL/MOL
REMARK 927      BINDING AFFINITY PREDICTED BY RF-SCORE:    0.00 PKD
ROOT
HETATM    1  C   UNL     1     -11.735   7.475  70.904  1.00  0.00    -0.283 C  
HETATM    2  C   UNL     1     -10.953   6.917  72.099  1.00  0.00    -0.268 C  
HETATM    3  N   UNL     1     -11.805   8.939  71.106  1.00  0.00    -0.291 NA 
HETATM    4  H1  UNL     1     -12.325   9.311  70.311  1.00  0.00     0.000 HD 
HETATM    5  C   UNL     1     -10.519   5.482  71.908  1.00  0.00    -0.282 C  
HETATM    6  H2  UNL     1     -10.892   9.376  71.233  1.00  0.00     0.000 HD 
HETATM    7  C   UNL     1      -9.925   5.236  70.522  1.00  0.00    -0.229 C  
HETATM    8  C   UNL     1     -11.233   7.006  69.473  1.00  0.00    -0.145 C  
HETATM    9  O   UNL     1     -10.804   5.644  69.463  1.00  0.00    -0.324 OA 
ENDROOT
BRANCH   7  10
HETATM   10  C   UNL     1      -9.688   3.708  70.381  1.00  0.00    -0.131 C  
HETATM   11  N   UNL     1      -8.517   3.241  71.124  1.00  0.00    -0.066 NA 
HETATM   12  H1  UNL     1      -8.362   2.238  71.031  1.00  0.00     0.000 HD 
HETATM   13  H2  UNL     1      -8.576   3.512  72.106  1.00  0.00     0.000 HD 
ENDBRANCH   7  10
BRANCH   8  14
HETATM   14  O   UNL     1     -10.282   7.930  68.943  1.00  0.00    -0.197 OA 
BRANCH  14  15
HETATM   15  C   UNL     1     -10.589   8.743  67.782  1.00  0.00    -0.191 C  
HETATM   16  C   UNL     1      -9.447   8.373  66.796  1.00  0.00    -0.197 C  
HETATM   17  N   UNL     1      -9.529   6.957  66.391  1.00  0.00    -0.295 NA 
HETATM   18  C   UNL     1      -9.381   9.173  65.510  1.00  0.00    -0.287 C  
HETATM   19  H2  UNL     1     -10.445   6.730  66.005  1.00  0.00     0.000 HD 
HETATM   20  H1  UNL     1      -8.779   6.714  65.744  1.00  0.00     0.000 HD 
HETATM   21  C   UNL     1      -9.433  10.676  65.730  1.00  0.00    -0.200 C  
HETATM   22  N   UNL     1      -9.312  11.250  64.379  1.00  0.00    -0.371 NA 
HETATM   23  C   UNL     1     -10.731  11.021  66.525  1.00  0.00    -0.241 C  
HETATM   24  C   UNL     1     -10.683  10.306  67.941  1.00  0.00    -0.264 C  
HETATM   25  O   UNL     1     -11.869  10.645  68.683  1.00  0.00    -0.612 OA 
HETATM   26  H2  UNL     1     -10.004  10.902  63.716  1.00  0.00     0.000 HD 
HETATM   27  H1  UNL     1      -9.348  12.259  64.526  1.00  0.00     0.000 HD 
HETATM   28  H   UNL     1     -11.926  11.589  68.779  1.00  0.00     0.000 HD 
BRANCH  23  29
HETATM   29  O   UNL     1     -10.974  12.460  66.628  1.00  0.00    -0.249 OA 
BRANCH  29  30
HETATM   30  C   UNL     1      -9.778  13.236  66.328  1.00  0.00    -0.268 C  
HETATM   31  O   UNL     1     -10.032  14.204  65.303  1.00  0.00    -0.333 OA 
HETATM   32  C   UNL     1     -10.923  15.238  65.757  1.00  0.00    -0.338 C  
HETATM   33  C   UNL     1     -10.217  16.069  66.828  1.00  0.00    -0.274 C  
HETATM   34  H   UNL     1      -8.496  13.378  69.372  1.00  0.00     0.000 HD 
HETATM   35  O   UNL     1     -11.030  17.158  67.268  1.00  0.00    -0.177 OA 
HETATM   36  C   UNL     1      -9.860  15.159  68.028  1.00  0.00    -0.213 C  
HETATM   37  H1  UNL     1      -8.860  15.330  69.825  1.00  0.00     0.000 HD 
HETATM   38  H2  UNL     1      -9.588  16.775  69.326  1.00  0.00     0.000 HD 
HETATM   39  C   UNL     1      -9.108  13.904  67.557  1.00  0.00    -0.201 C  
HETATM   40  N   UNL     1      -9.095  15.930  69.034  1.00  0.00    -0.225 NA 
HETATM   41  H   UNL     1     -10.592  17.675  67.933  1.00  0.00     0.000 HD 
HETATM   42  O   UNL     1      -8.906  12.969  68.619  1.00  0.00    -0.082 OA 
BRANCH  32  43
HETATM   43  C   UNL     1     -11.349  16.052  64.534  1.00  0.00    -0.295 C  
HETATM   44  O   UNL     1     -12.334  15.308  63.803  1.00  0.00    -0.969 OA 
HETATM   45  H   UNL     1     -12.598  15.813  63.044  1.00  0.00     0.000 HD 
ENDBRANCH  32  43
ENDBRANCH  29  30
ENDBRANCH  23  29
ENDBRANCH  14  15
ENDBRANCH   8  14
TORSDOF 6
ENDMDL
MODEL       99
REMARK 921   NORMALIZED FREE ENERGY PREDICTED BY IDOCK:   -5.68 KCAL/MOL
REMARK 922        TOTAL FREE ENERGY PREDICTED BY IDOCK:   -9.23 KCAL/MOL
REMARK 923 INTER-LIGAND FREE ENERGY PREDICTED BY IDOCK:   -9.38 KCAL/MOL
REMARK 924 INTRA-LIGAND FREE ENERGY PREDICTED BY IDOCK:    0.15 KCAL/MOL
REMARK 927      BINDING AFFINITY PREDICTED BY RF-SCORE:    0.00 PKD
ROOT
HETATM    1  C   UNL     1     -11.010   6.623  67.997  1.00  0.00    -0.249 C  
HETATM    2  C   UNL     1     -10.118   5.402  67.740  1.00  0.00    -0.215 C  
HETATM    3  N   UNL     1     -11.597   6.428  69.342  1.00  0.00    -0.618 NA 
HETATM    4  H1  UNL     1     -12.190   7.239  69.512  1.00  0.00     0.000 HD 
HETATM    5  C   UNL     1      -9.201   5.574  66.551  1.00  0.00    -0.144 C  
HETATM    6  H2  UNL     1     -10.900   6.274  70.070  1.00  0.00     0.000 HD 
HETATM    7  C   UNL     1      -8.517   6.940  66.541  1.00  0.00    -0.125 C  
HETATM    8  C   UNL     1     -10.333   8.035  67.745  1.00  0.00    -0.231 C  
HETATM    9  O   UNL     1      -9.452   8.028  66.621  1.00  0.00    -0.183 OA 
ENDROOT
BRANCH   7  10
HETATM   10  C   UNL     1      -7.754   7.068  65.195  1.00  0.00    -0.113 C  
HETATM   11  N   UNL     1      -8.515   6.554  64.057  1.00  0.00    -0.329 NA 
HETATM   12  H1  UNL     1      -8.013   6.639  63.173  1.00  0.00     0.000 HD 
HETATM   13  H2  UNL     1      -9.431   7.000  64.000  1.00  0.00     0.000 HD 
ENDBRANCH   7  10
BRANCH   8  14
HETATM   14  O   UNL     1      -9.752   8.539  68.949  1.00  0.00    -0.164 OA 
BRANCH  14  15
HETATM   15  C   UNL     1      -9.992   9.900  69.387  1.00  0.00    -0.212 C  
HETATM   16  C   UNL     1     -11.234   9.747  70.308  1.00  0.00    -0.288 C  
HETATM   17  N   UNL     1     -10.918   8.936  71.500  1.00  0.00    -0.300 NA 
HETATM   18  C   UNL     1     -11.852  11.030  70.827  1.00  0.00    -0.383 C  
HETATM   19  H2  UNL     1     -10.119   9.313  72.008  1.00  0.00     0.000 HD 
HETATM   20  H1  UNL     1     -11.734   8.836  72.104  1.00  0.00     0.000 HD 
HETATM   21  C   UNL     1     -12.116  12.058  69.738  1.00  0.00    -0.248 C  
HETATM   22  N   UNL     1     -12.746  13.187  70.442  1.00  0.00    -0.087 NA 
HETATM   23  C   UNL     1     -10.776  12.354  68.994  1.00  0.00    -0.098 C  
HETATM   24  C   UNL     1     -10.249  11.022  68.312  1.00  0.00    -0.176 C  
HETATM   25  O   UNL     1      -9.027  11.301  67.606  1.00  0.00    -0.138 OA 
HETATM   26  H2  UNL     1     -12.202  13.543  71.228  1.00  0.00     0.000 HD 
HETATM   27  H1  UNL     1     -12.923  13.877  69.712  1.00  0.00     0.000 HD 
HETATM   28  H   UNL     1      -9.182  11.978  66.957  1.00  0.00     0.000 HD 
BRANCH  23  29
HETATM   29  O   UNL     1     -10.880  13.467  68.050  1.00  0.00    -0.240 OA 
BRANCH  29  30
HETATM   30  C   UNL     1      -9.868  13.391  67.007  1.00  0.00    -0.250 C  
HETATM   31  O   UNL     1     -10.435  12.957  65.764  1.00  0.00    -0.269 OA 
HETATM   32  C   UNL     1     -11.324  13.944  65.213  1.00  0.00    -0.314 C  
HETATM   33  C   UNL     1     -10.511  15.168  64.793  1.00  0.00    -0.209 C  
HETATM   34  H   UNL     1      -8.009  15.968  67.920  1.00  0.00     0.000 HD 
HETATM   35  O   UNL     1     -11.334  16.157  64.171  1.00  0.00    -1.085 OA 
HETATM   36  C   UNL     1      -9.814  15.769  66.038  1.00  0.00    -0.337 C  
HETATM   37  H1  UNL     1      -8.490  17.296  66.453  1.00  0.00     0.000 HD 
HETATM   38  H2  UNL     1      -9.464  17.606  65.103  1.00  0.00     0.000 HD 
HETATM   39  C   UNL     1      -9.038  14.686  66.805  1.00  0.00    -0.264 C  
HETATM   40  N   UNL     1      -8.950  16.901  65.632  1.00  0.00    -0.416 NA 
HETATM   41  H   UNL     1     -10.828  16.918  63.911  1.00  0.00     0.000 HD 
HETATM   42  O   UNL     1      -8.517  15.175  68.043  1.00  0.00    -0.143 OA 
BRANCH  32  43
HETATM   43  C   UNL     1     -12.082  13.289  64.057  1.00  0.00    -0.447 C  
HETATM   44  O   UNL     1     -12.411  14.296  63.090  1.00  0.00    -1.102 OA 
HETATM   45  H   UNL     1     -12.882  13.889  62.372  1.00  0.00     0.000 HD 
ENDBRANCH  32  43
ENDBRANCH  29  30
ENDBRANCH  23  29
ENDBRANCH  14  15
ENDBRANCH   8  14
TORSDOF 6
ENDMDL
MODEL      100
REMARK 921   NORMALIZED FREE ENERGY PREDICTED BY IDOCK:   -5.67 KCAL/MOL
REMARK 922        TOTAL FREE ENERGY PREDICTED BY IDOCK:   -9.22 KCAL/MOL
REMARK 923 INTER-LIGAND FREE ENERGY PREDICTED BY IDOCK:   -7.54 KCAL/MOL
REMARK 924 INTRA-LIGAND FREE ENERGY PREDICTED BY IDOCK:   -1.68 KCAL/MOL
REMARK 927      BINDING AFFINITY PREDICTED BY RF-SCORE:    0.00 PKD
ROOT
HETATM    1  C   UNL     1      -9.228   2.930  68.080  1.00  0.00    -0.198 C  
HETATM    2  C   UNL     1      -8.586   2.158  66.920  1.00  0.00    -0.117 C  
HETATM    3  N   UNL     1      -8.359   2.703  69.256  1.00  0.00    -0.057 NA 
HETATM    4  H1  UNL     1      -8.787   3.216  70.027  1.00  0.00     0.000 HD 
HETATM    5  C   UNL     1      -9.163   2.521  65.571  1.00  0.00    -0.081 C  
HETATM    6  H2  UNL     1      -7.384   2.952  69.094  1.00  0.00     0.000 HD 
HETATM    7  C   UNL     1      -9.312   4.031  65.393  1.00  0.00    -0.162 C  
HETATM    8  C   UNL     1      -9.592   4.445  67.780  1.00  0.00    -0.160 C  
HETATM    9  O   UNL     1     -10.072   4.640  66.450  1.00  0.00    -0.220 OA 
ENDROOT
BRANCH   7  10
HETATM   10  C   UNL     1     -10.075   4.270  64.062  1.00  0.00    -0.007 C  
HETATM   11  N   UNL     1     -11.507   3.992  64.167  1.00  0.00    -0.475 NA 
HETATM   12  H1  UNL     1     -12.007   4.149  63.292  1.00  0.00     0.000 HD 
HETATM   13  H2  UNL     1     -11.927   4.527  64.928  1.00  0.00     0.000 HD 
ENDBRANCH   7  10
BRANCH   8  14
HETATM   14  O   UNL     1      -8.517   5.306  68.154  1.00  0.00    -0.098 OA 
BRANCH  14  15
HETATM   15  C   UNL     1      -8.741   6.711  68.436  1.00  0.00    -0.122 C  
HETATM   16  C   UNL     1      -9.222   6.688  69.913  1.00  0.00    -0.146 C  
HETATM   17  N   UNL     1      -8.156   6.210  70.815  1.00  0.00    -0.121 NA 
HETATM   18  C   UNL     1      -9.695   8.008  70.489  1.00  0.00    -0.179 C  
HETATM   19  H2  UNL     1      -7.301   6.755  70.707  1.00  0.00     0.000 HD 
HETATM   20  H1  UNL     1      -8.472   6.195  71.784  1.00  0.00     0.000 HD 
HETATM   21  C   UNL     1     -10.705   8.725  69.608  1.00  0.00    -0.208 C  
HETATM   22  N   UNL     1     -11.057   9.938  70.363  1.00  0.00    -0.294 NA 
HETATM   23  C   UNL     1     -10.076   8.935  68.195  1.00  0.00    -0.189 C  
HETATM   24  C   UNL     1      -9.756   7.522  67.548  1.00  0.00    -0.150 C  
HETATM   25  O   UNL     1      -9.199   7.717  66.235  1.00  0.00    -0.174 OA 
HETATM   26  H2  UNL     1     -10.255  10.511  70.628  1.00  0.00     0.000 HD 
HETATM   27  H1  UNL     1     -11.735  10.420  69.772  1.00  0.00     0.000 HD 
HETATM   28  H   UNL     1      -9.812   8.207  65.699  1.00  0.00     0.000 HD 
BRANCH  23  29
HETATM   29  O   UNL     1     -10.893   9.781  67.325  1.00  0.00    -0.265 OA 
BRANCH  29  30
HETATM   30  C   UNL     1     -10.214  11.022  66.979  1.00  0.00    -0.211 C  
HETATM   31  O   UNL     1      -9.293  10.824  65.899  1.00  0.00    -0.175 OA 
HETATM   32  C   UNL     1      -9.973  10.531  64.666  1.00  0.00    -0.347 C  
HETATM   33  C   UNL     1     -10.747  11.772  64.218  1.00  0.00    -0.342 C  
HETATM   34  H   UNL     1     -12.699  13.130  67.537  1.00  0.00     0.000 HD 
HETATM   35  O   UNL     1     -11.388  11.562  62.958  1.00  0.00    -0.807 OA 
HETATM   36  C   UNL     1     -11.800  12.133  65.292  1.00  0.00    -0.295 C  
HETATM   37  H1  UNL     1     -13.188  13.623  65.623  1.00  0.00     0.000 HD 
HETATM   38  H2  UNL     1     -12.902  13.330  63.980  1.00  0.00     0.000 HD 
HETATM   39  C   UNL     1     -11.152  12.221  66.684  1.00  0.00    -0.297 C  
HETATM   40  N   UNL     1     -12.494  13.385  64.914  1.00  0.00    -0.556 NA 
HETATM   41  H   UNL     1     -11.868  12.333  62.679  1.00  0.00     0.000 HD 
HETATM   42  O   UNL     1     -12.124  12.395  67.718  1.00  0.00    -0.447 OA 
BRANCH  32  43
HETATM   43  C   UNL     1      -8.923  10.067  63.657  1.00  0.00    -0.255 C  
HETATM   44  O   UNL     1      -9.547   9.188  62.711  1.00  0.00    -0.379 OA 
HETATM   45  H   UNL     1      -8.894   8.900  62.083  1.00  0.00     0.000 HD 
ENDBRANCH  32  43
ENDBRANCH  29  30
ENDBRANCH  23  29
ENDBRANCH  14  15
ENDBRANCH   8  14
TORSDOF 6
ENDMDL
MODEL      101
REMARK 921   NORMALIZED FREE ENERGY PREDICTED BY IDOCK:   -5.67 KCAL/MOL
REMARK 922        TOTAL FREE ENERGY PREDICTED BY IDOCK:   -9.21 KCAL/MOL
REMARK 923 INTER-LIGAND FREE ENERGY PREDICTED BY IDOCK:   -8.20 KCAL/MOL
REMARK 924 INTRA-LIGAND FREE ENERGY PREDICTED BY IDOCK:   -1.01 KCAL/MOL
REMARK 927      BINDING AFFINITY PREDICTED BY RF-SCORE:    0.00 PKD
ROOT
HETATM    1  C   UNL     1     -11.747  15.358  68.530  1.00  0.00    -0.338 C  
HETATM    2  C   UNL     1     -11.913  15.374  70.055  1.00  0.00    -0.383 C  
HETATM    3  N   UNL     1     -10.943  16.553  68.191  1.00  0.00    -0.351 NA 
HETATM    4  H1  UNL     1     -10.833  16.542  67.178  1.00  0.00     0.000 HD 
HETATM    5  C   UNL     1     -12.442  14.072  70.610  1.00  0.00    -0.435 C  
HETATM    6  H2  UNL     1     -10.057  16.602  68.695  1.00  0.00     0.000 HD 
HETATM    7  C   UNL     1     -11.739  12.857  70.008  1.00  0.00    -0.212 C  
HETATM    8  C   UNL     1     -11.235  13.991  67.908  1.00  0.00    -0.273 C  
HETATM    9  O   UNL     1     -11.780  12.849  68.572  1.00  0.00    -0.300 OA 
ENDROOT
BRANCH   7  10
HETATM   10  C   UNL     1     -12.483  11.591  70.511  1.00  0.00    -0.280 C  
HETATM   11  N   UNL     1     -12.267  10.425  69.655  1.00  0.00    -0.529 NA 
HETATM   12  H1  UNL     1     -12.756   9.593  69.986  1.00  0.00     0.000 HD 
HETATM   13  H2  UNL     1     -11.271  10.239  69.537  1.00  0.00     0.000 HD 
ENDBRANCH   7  10
BRANCH   8  14
HETATM   14  O   UNL     1      -9.812  13.987  67.796  1.00  0.00    -0.223 OA 
BRANCH  14  15
HETATM   15  C   UNL     1      -9.098  12.824  67.307  1.00  0.00    -0.200 C  
HETATM   16  C   UNL     1      -9.916  12.430  66.045  1.00  0.00    -0.255 C  
HETATM   17  N   UNL     1      -9.837  13.478  65.010  1.00  0.00    -0.590 NA 
HETATM   18  C   UNL     1      -9.519  11.136  65.362  1.00  0.00    -0.253 C  
HETATM   19  H2  UNL     1      -8.870  13.701  64.775  1.00  0.00     0.000 HD 
HETATM   20  H1  UNL     1     -10.374  13.219  64.182  1.00  0.00     0.000 HD 
HETATM   21  C   UNL     1      -9.406   9.958  66.316  1.00  0.00    -0.176 C  
HETATM   22  N   UNL     1      -9.061   8.817  65.452  1.00  0.00    -0.376 NA 
HETATM   23  C   UNL     1      -8.385  10.321  67.440  1.00  0.00    -0.118 C  
HETATM   24  C   UNL     1      -8.922  11.576  68.250  1.00  0.00    -0.177 C  
HETATM   25  O   UNL     1      -7.992  11.894  69.302  1.00  0.00    -0.339 OA 
HETATM   26  H2  UNL     1      -8.234   8.966  64.875  1.00  0.00     0.000 HD 
HETATM   27  H1  UNL     1      -8.985   8.026  66.092  1.00  0.00     0.000 HD 
HETATM   28  H   UNL     1      -7.886  11.140  69.871  1.00  0.00     0.000 HD 
BRANCH  23  29
HETATM   29  O   UNL     1      -8.062   9.187  68.306  1.00  0.00    -0.103 OA 
BRANCH  29  30
HETATM   30  C   UNL     1      -8.906   9.151  69.492  1.00  0.00    -0.149 C  
HETATM   31  O   UNL     1     -10.017   8.264  69.310  1.00  0.00    -0.182 OA 
HETATM   32  C   UNL     1      -9.594   6.891  69.232  1.00  0.00    -0.149 C  
HETATM   33  C   UNL     1      -9.047   6.460  70.593  1.00  0.00    -0.148 C  
HETATM   34  H   UNL     1      -6.553   9.462  71.794  1.00  0.00     0.000 HD 
HETATM   35  O   UNL     1      -8.676   5.081  70.596  1.00  0.00    -0.117 OA 
HETATM   36  C   UNL     1      -7.823   7.337  70.952  1.00  0.00    -0.094 C  
HETATM   37  H1  UNL     1      -6.533   7.569  72.545  1.00  0.00     0.000 HD 
HETATM   38  H2  UNL     1      -7.138   5.995  72.402  1.00  0.00     0.000 HD 
HETATM   39  C   UNL     1      -8.162   8.830  70.815  1.00  0.00    -0.156 C  
HETATM   40  N   UNL     1      -7.339   6.991  72.308  1.00  0.00    -0.084 NA 
HETATM   41  H   UNL     1      -8.337   4.812  71.441  1.00  0.00     0.000 HD 
HETATM   42  O   UNL     1      -7.009   9.659  70.984  1.00  0.00    -0.277 OA 
BRANCH  32  43
HETATM   43  C   UNL     1     -10.793   6.064  68.765  1.00  0.00    -0.322 C  
HETATM   44  O   UNL     1     -11.986   6.611  69.345  1.00  0.00    -0.611 OA 
HETATM   45  H   UNL     1     -12.730   6.096  69.055  1.00  0.00     0.000 HD 
ENDBRANCH  32  43
ENDBRANCH  29  30
ENDBRANCH  23  29
ENDBRANCH  14  15
ENDBRANCH   8  14
TORSDOF 6
ENDMDL
MODEL      102
REMARK 921   NORMALIZED FREE ENERGY PREDICTED BY IDOCK:   -5.66 KCAL/MOL
REMARK 922        TOTAL FREE ENERGY PREDICTED BY IDOCK:   -9.20 KCAL/MOL
REMARK 923 INTER-LIGAND FREE ENERGY PREDICTED BY IDOCK:   -7.79 KCAL/MOL
REMARK 924 INTRA-LIGAND FREE ENERGY PREDICTED BY IDOCK:   -1.41 KCAL/MOL
REMARK 927      BINDING AFFINITY PREDICTED BY RF-SCORE:    0.00 PKD
ROOT
HETATM    1  C   UNL     1      -9.755   8.656  66.864  1.00  0.00    -0.214 C  
HETATM    2  C   UNL     1      -8.831   8.709  68.086  1.00  0.00    -0.142 C  
HETATM    3  N   UNL     1     -11.085   8.251  67.371  1.00  0.00    -0.368 NA 
HETATM    4  H1  UNL     1     -11.699   8.215  66.558  1.00  0.00     0.000 HD 
HETATM    5  C   UNL     1      -7.515   9.398  67.809  1.00  0.00    -0.087 C  
HETATM    6  H2  UNL     1     -11.434   8.851  68.118  1.00  0.00     0.000 HD 
HETATM    7  C   UNL     1      -7.696  10.698  67.027  1.00  0.00    -0.117 C  
HETATM    8  C   UNL     1      -9.741   9.941  65.934  1.00  0.00    -0.262 C  
HETATM    9  O   UNL     1      -8.438  10.514  65.811  1.00  0.00    -0.162 OA 
ENDROOT
BRANCH   7  10
HETATM   10  C   UNL     1      -6.282  11.215  66.647  1.00  0.00    -0.136 C  
HETATM   11  N   UNL     1      -6.124  12.653  66.859  1.00  0.00    -0.484 NA 
HETATM   12  H1  UNL     1      -5.195  12.992  66.610  1.00  0.00     0.000 HD 
HETATM   13  H2  UNL     1      -6.360  12.908  67.819  1.00  0.00     0.000 HD 
ENDBRANCH   7  10
BRANCH   8  14
HETATM   14  O   UNL     1     -10.757  10.863  66.330  1.00  0.00    -0.243 OA 
BRANCH  14  15
HETATM   15  C   UNL     1     -10.480  11.928  67.274  1.00  0.00    -0.222 C  
HETATM   16  C   UNL     1     -11.761  11.944  68.153  1.00  0.00    -0.320 C  
HETATM   17  N   UNL     1     -11.901  10.689  68.915  1.00  0.00    -0.603 NA 
HETATM   18  C   UNL     1     -11.868  13.064  69.168  1.00  0.00    -0.360 C  
HETATM   19  H2  UNL     1     -11.068  10.493  69.470  1.00  0.00     0.000 HD 
HETATM   20  H1  UNL     1     -12.742  10.699  69.493  1.00  0.00     0.000 HD 
HETATM   21  C   UNL     1     -11.605  14.441  68.580  1.00  0.00    -0.314 C  
HETATM   22  N   UNL     1     -11.801  15.367  69.708  1.00  0.00    -0.325 NA 
HETATM   23  C   UNL     1     -10.195  14.439  67.911  1.00  0.00    -0.232 C  
HETATM   24  C   UNL     1     -10.176  13.376  66.734  1.00  0.00    -0.259 C  
HETATM   25  O   UNL     1      -8.883  13.392  66.102  1.00  0.00    -0.430 OA 
HETATM   26  H2  UNL     1     -11.235  15.150  70.528  1.00  0.00     0.000 HD 
HETATM   27  H1  UNL     1     -11.625  16.291  69.314  1.00  0.00     0.000 HD 
HETATM   28  H   UNL     1      -8.699  14.266  65.776  1.00  0.00     0.000 HD 
BRANCH  23  29
HETATM   29  O   UNL     1      -9.766  15.768  67.478  1.00  0.00    -0.224 OA 
BRANCH  29  30
HETATM   30  C   UNL     1      -9.253  16.562  68.586  1.00  0.00    -0.238 C  
HETATM   31  O   UNL     1      -7.825  16.478  68.667  1.00  0.00    -0.201 OA 
HETATM   32  C   UNL     1      -7.190  17.124  67.550  1.00  0.00    -0.157 C  
HETATM   33  C   UNL     1      -7.437  18.630  67.640  1.00  0.00    -0.229 C  
HETATM   34  H   UNL     1     -11.415  19.061  68.457  1.00  0.00     0.000 HD 
HETATM   35  O   UNL     1      -6.768  19.334  66.592  1.00  0.00    -0.189 OA 
HETATM   36  C   UNL     1      -8.959  18.903  67.571  1.00  0.00    -0.284 C  
HETATM   37  H1  UNL     1     -10.221  20.529  67.704  1.00  0.00     0.000 HD 
HETATM   38  H2  UNL     1      -8.696  20.918  67.080  1.00  0.00     0.000 HD 
HETATM   39  C   UNL     1      -9.714  18.043  68.597  1.00  0.00    -0.350 C  
HETATM   40  N   UNL     1      -9.218  20.350  67.748  1.00  0.00    -0.274 NA 
HETATM   41  H   UNL     1      -6.921  20.270  66.647  1.00  0.00     0.000 HD 
HETATM   42  O   UNL     1     -11.132  18.154  68.450  1.00  0.00     0.090 OA 
BRANCH  32  43
HETATM   43  C   UNL     1      -5.708  16.745  67.577  1.00  0.00    -0.150 C  
HETATM   44  O   UNL     1      -5.565  15.404  67.087  1.00  0.00    -0.303 OA 
HETATM   45  H   UNL     1      -4.645  15.169  67.104  1.00  0.00     0.000 HD 
ENDBRANCH  32  43
ENDBRANCH  29  30
ENDBRANCH  23  29
ENDBRANCH  14  15
ENDBRANCH   8  14
TORSDOF 6
ENDMDL
MODEL      103
REMARK 921   NORMALIZED FREE ENERGY PREDICTED BY IDOCK:   -5.66 KCAL/MOL
REMARK 922        TOTAL FREE ENERGY PREDICTED BY IDOCK:   -9.20 KCAL/MOL
REMARK 923 INTER-LIGAND FREE ENERGY PREDICTED BY IDOCK:   -8.19 KCAL/MOL
REMARK 924 INTRA-LIGAND FREE ENERGY PREDICTED BY IDOCK:   -1.01 KCAL/MOL
REMARK 927      BINDING AFFINITY PREDICTED BY RF-SCORE:    0.00 PKD
ROOT
HETATM    1  C   UNL     1     -11.798  13.584  64.553  1.00  0.00    -0.405 C  
HETATM    2  C   UNL     1     -10.831  14.767  64.689  1.00  0.00    -0.312 C  
HETATM    3  N   UNL     1     -11.258  12.734  63.470  1.00  0.00    -0.567 NA 
HETATM    4  H1  UNL     1     -11.901  11.948  63.379  1.00  0.00     0.000 HD 
HETATM    5  C   UNL     1     -11.052  15.576  65.947  1.00  0.00    -0.205 C  
HETATM    6  H2  UNL     1     -10.289  12.451  63.620  1.00  0.00     0.000 HD 
HETATM    7  C   UNL     1     -11.234  14.691  67.179  1.00  0.00    -0.344 C  
HETATM    8  C   UNL     1     -12.155  12.828  65.902  1.00  0.00    -0.426 C  
HETATM    9  O   UNL     1     -12.278  13.718  67.013  1.00  0.00    -0.401 OA 
ENDROOT
BRANCH   7  10
HETATM   10  C   UNL     1     -11.632  15.616  68.362  1.00  0.00    -0.350 C  
HETATM   11  N   UNL     1     -11.326  15.034  69.668  1.00  0.00    -0.269 NA 
HETATM   12  H1  UNL     1     -11.587  15.642  70.445  1.00  0.00     0.000 HD 
HETATM   13  H2  UNL     1     -10.343  14.768  69.728  1.00  0.00     0.000 HD 
ENDBRANCH   7  10
BRANCH   8  14
HETATM   14  O   UNL     1     -11.266  11.732  66.118  1.00  0.00    -0.320 OA 
BRANCH  14  15
HETATM   15  C   UNL     1     -10.546  11.582  67.368  1.00  0.00    -0.214 C  
HETATM   16  C   UNL     1      -9.075  11.417  66.895  1.00  0.00    -0.175 C  
HETATM   17  N   UNL     1      -8.585  12.643  66.236  1.00  0.00    -0.394 NA 
HETATM   18  C   UNL     1      -8.056  11.084  67.966  1.00  0.00    -0.121 C  
HETATM   19  H2  UNL     1      -8.697  13.461  66.834  1.00  0.00     0.000 HD 
HETATM   20  H1  UNL     1      -7.620  12.534  65.925  1.00  0.00     0.000 HD 
HETATM   21  C   UNL     1      -8.468   9.919  68.852  1.00  0.00    -0.127 C  
HETATM   22  N   UNL     1      -7.336   9.740  69.776  1.00  0.00    -0.099 NA 
HETATM   23  C   UNL     1      -9.853  10.242  69.493  1.00  0.00    -0.220 C  
HETATM   24  C   UNL     1     -10.936  10.411  68.345  1.00  0.00    -0.264 C  
HETATM   25  O   UNL     1     -12.218  10.686  68.939  1.00  0.00    -0.757 OA 
HETATM   26  H2  UNL     1      -7.081  10.583  70.290  1.00  0.00     0.000 HD 
HETATM   27  H1  UNL     1      -7.612   8.958  70.370  1.00  0.00     0.000 HD 
HETATM   28  H   UNL     1     -12.453   9.979  69.529  1.00  0.00     0.000 HD 
BRANCH  23  29
HETATM   29  O   UNL     1     -10.255   9.269  70.509  1.00  0.00    -0.213 OA 
BRANCH  29  30
HETATM   30  C   UNL     1     -10.706   8.019  69.915  1.00  0.00    -0.242 C  
HETATM   31  O   UNL     1      -9.597   7.199  69.526  1.00  0.00    -0.155 OA 
HETATM   32  C   UNL     1      -8.869   6.714  70.667  1.00  0.00    -0.148 C  
HETATM   33  C   UNL     1      -9.751   5.731  71.439  1.00  0.00    -0.167 C  
HETATM   34  H   UNL     1     -13.403   7.529  71.764  1.00  0.00     0.000 HD 
HETATM   35  O   UNL     1      -9.054   5.160  72.548  1.00  0.00    -0.132 OA 
HETATM   36  C   UNL     1     -11.020   6.465  71.935  1.00  0.00    -0.253 C  
HETATM   37  H1  UNL     1     -12.762   5.989  72.932  1.00  0.00     0.000 HD 
HETATM   38  H2  UNL     1     -11.458   4.996  73.357  1.00  0.00     0.000 HD 
HETATM   39  C   UNL     1     -11.708   7.208  70.779  1.00  0.00    -0.323 C  
HETATM   40  N   UNL     1     -11.926   5.504  72.605  1.00  0.00    -0.159 NA 
HETATM   41  H   UNL     1      -9.601   4.549  73.027  1.00  0.00     0.000 HD 
HETATM   42  O   UNL     1     -12.790   8.025  71.234  1.00  0.00    -0.289 OA 
BRANCH  32  43
HETATM   43  C   UNL     1      -7.567   6.095  70.157  1.00  0.00    -0.096 C  
HETATM   44  O   UNL     1      -6.600   6.114  71.216  1.00  0.00    -0.048 OA 
HETATM   45  H   UNL     1      -5.791   5.730  70.899  1.00  0.00     0.000 HD 
ENDBRANCH  32  43
ENDBRANCH  29  30
ENDBRANCH  23  29
ENDBRANCH  14  15
ENDBRANCH   8  14
TORSDOF 6
ENDMDL
MODEL      104
REMARK 921   NORMALIZED FREE ENERGY PREDICTED BY IDOCK:   -5.63 KCAL/MOL
REMARK 922        TOTAL FREE ENERGY PREDICTED BY IDOCK:   -9.16 KCAL/MOL
REMARK 923 INTER-LIGAND FREE ENERGY PREDICTED BY IDOCK:   -7.42 KCAL/MOL
REMARK 924 INTRA-LIGAND FREE ENERGY PREDICTED BY IDOCK:   -1.74 KCAL/MOL
REMARK 927      BINDING AFFINITY PREDICTED BY RF-SCORE:    0.00 PKD
ROOT
HETATM    1  C   UNL     1     -12.861  15.015  70.620  1.00  0.00    -0.363 C  
HETATM    2  C   UNL     1     -12.901  14.697  72.119  1.00  0.00    -0.408 C  
HETATM    3  N   UNL     1     -12.139  16.301  70.492  1.00  0.00    -0.375 NA 
HETATM    4  H1  UNL     1     -12.112  16.512  69.495  1.00  0.00     0.000 HD 
HETATM    5  C   UNL     1     -13.327  13.278  72.416  1.00  0.00    -0.616 C  
HETATM    6  H2  UNL     1     -11.218  16.295  70.930  1.00  0.00     0.000 HD 
HETATM    7  C   UNL     1     -12.624  12.263  71.517  1.00  0.00    -0.152 C  
HETATM    8  C   UNL     1     -12.344  13.844  69.682  1.00  0.00    -0.249 C  
HETATM    9  O   UNL     1     -12.782  12.558  70.120  1.00  0.00     0.053 OA 
ENDROOT
BRANCH   7  10
HETATM   10  C   UNL     1     -13.269  10.876  71.785  1.00  0.00    -0.408 C  
HETATM   11  N   UNL     1     -13.212   9.986  70.626  1.00  0.00    -0.607 NA 
HETATM   12  H1  UNL     1     -13.636   9.076  70.803  1.00  0.00     0.000 HD 
HETATM   13  H2  UNL     1     -12.253   9.883  70.293  1.00  0.00     0.000 HD 
ENDBRANCH   7  10
BRANCH   8  14
HETATM   14  O   UNL     1     -10.935  13.950  69.471  1.00  0.00    -0.181 OA 
BRANCH  14  15
HETATM   15  C   UNL     1     -10.246  13.075  68.543  1.00  0.00    -0.215 C  
HETATM   16  C   UNL     1     -10.580  13.711  67.165  1.00  0.00    -0.272 C  
HETATM   17  N   UNL     1      -9.989  15.057  67.041  1.00  0.00    -0.240 NA 
HETATM   18  C   UNL     1     -10.126  12.941  65.940  1.00  0.00    -0.295 C  
HETATM   19  H2  UNL     1      -8.984  15.043  67.215  1.00  0.00     0.000 HD 
HETATM   20  H1  UNL     1     -10.208  15.474  66.137  1.00  0.00     0.000 HD 
HETATM   21  C   UNL     1     -10.526  11.475  65.965  1.00  0.00    -0.252 C  
HETATM   22  N   UNL     1     -10.035  10.937  64.685  1.00  0.00    -0.283 NA 
HETATM   23  C   UNL     1      -9.959  10.822  67.264  1.00  0.00    -0.187 C  
HETATM   24  C   UNL     1     -10.593  11.539  68.530  1.00  0.00    -0.210 C  
HETATM   25  O   UNL     1     -10.088  10.921  69.728  1.00  0.00    -0.434 OA 
HETATM   26  H2  UNL     1      -9.040  11.095  64.522  1.00  0.00     0.000 HD 
HETATM   27  H1  UNL     1     -10.303   9.953  64.701  1.00  0.00     0.000 HD 
HETATM   28  H   UNL     1     -10.298   9.994  69.720  1.00  0.00     0.000 HD 
BRANCH  23  29
HETATM   29  O   UNL     1     -10.127   9.370  67.296  1.00  0.00    -0.195 OA 
BRANCH  29  30
HETATM   30  C   UNL     1      -8.864   8.681  67.520  1.00  0.00    -0.135 C  
HETATM   31  O   UNL     1      -8.796   8.141  68.845  1.00  0.00    -0.140 OA 
HETATM   32  C   UNL     1      -9.732   7.064  69.029  1.00  0.00    -0.145 C  
HETATM   33  C   UNL     1      -9.301   5.877  68.167  1.00  0.00    -0.115 C  
HETATM   34  H   UNL     1      -8.431   7.428  64.491  1.00  0.00     0.000 HD 
HETATM   35  O   UNL     1     -10.156   4.749  68.363  1.00  0.00    -0.127 OA 
HETATM   36  C   UNL     1      -9.314   6.297  66.677  1.00  0.00    -0.148 C  
HETATM   37  H1  UNL     1      -8.821   5.463  64.856  1.00  0.00     0.000 HD 
HETATM   38  H2  UNL     1      -9.330   4.320  65.997  1.00  0.00     0.000 HD 
HETATM   39  C   UNL     1      -8.517   7.594  66.469  1.00  0.00    -0.133 C  
HETATM   40  N   UNL     1      -8.812   5.185  65.838  1.00  0.00    -0.137 NA 
HETATM   41  H   UNL     1      -9.889   4.012  67.827  1.00  0.00     0.000 HD 
HETATM   42  O   UNL     1      -8.643   8.093  65.135  1.00  0.00    -0.147 OA 
BRANCH  32  43
HETATM   43  C   UNL     1      -9.784   6.747  70.524  1.00  0.00    -0.176 C  
HETATM   44  O   UNL     1      -8.835   5.709  70.810  1.00  0.00    -0.135 OA 
HETATM   45  H   UNL     1      -8.868   5.511  71.739  1.00  0.00     0.000 HD 
ENDBRANCH  32  43
ENDBRANCH  29  30
ENDBRANCH  23  29
ENDBRANCH  14  15
ENDBRANCH   8  14
TORSDOF 6
ENDMDL
MODEL      105
REMARK 921   NORMALIZED FREE ENERGY PREDICTED BY IDOCK:   -5.63 KCAL/MOL
REMARK 922        TOTAL FREE ENERGY PREDICTED BY IDOCK:   -9.16 KCAL/MOL
REMARK 923 INTER-LIGAND FREE ENERGY PREDICTED BY IDOCK:   -7.61 KCAL/MOL
REMARK 924 INTRA-LIGAND FREE ENERGY PREDICTED BY IDOCK:   -1.55 KCAL/MOL
REMARK 927      BINDING AFFINITY PREDICTED BY RF-SCORE:    0.00 PKD
ROOT
HETATM    1  C   UNL     1     -12.411  14.338  69.133  1.00  0.00    -0.130 C  
HETATM    2  C   UNL     1     -12.237  13.989  70.616  1.00  0.00    -0.442 C  
HETATM    3  N   UNL     1     -11.820  15.683  68.956  1.00  0.00    -0.474 NA 
HETATM    4  H1  UNL     1     -11.936  15.916  67.970  1.00  0.00     0.000 HD 
HETATM    5  C   UNL     1     -12.503  12.532  70.919  1.00  0.00    -0.361 C  
HETATM    6  H2  UNL     1     -10.854  15.748  69.277  1.00  0.00     0.000 HD 
HETATM    7  C   UNL     1     -11.835  11.599  69.910  1.00  0.00    -0.358 C  
HETATM    8  C   UNL     1     -11.920  13.235  68.103  1.00  0.00    -0.304 C  
HETATM    9  O   UNL     1     -12.191  11.907  68.553  1.00  0.00    -0.391 OA 
ENDROOT
BRANCH   7  10
HETATM   10  C   UNL     1     -12.325  10.157  70.214  1.00  0.00    -0.138 C  
HETATM   11  N   UNL     1     -12.113   9.765  71.607  1.00  0.00    -0.398 NA 
HETATM   12  H1  UNL     1     -12.435   8.818  71.806  1.00  0.00     0.000 HD 
HETATM   13  H2  UNL     1     -12.541  10.438  72.244  1.00  0.00     0.000 HD 
ENDBRANCH   7  10
BRANCH   8  14
HETATM   14  O   UNL     1     -10.563  13.466  67.724  1.00  0.00    -0.239 OA 
BRANCH  14  15
HETATM   15  C   UNL     1      -9.930  12.684  66.680  1.00  0.00    -0.242 C  
HETATM   16  C   UNL     1     -10.585  13.247  65.389  1.00  0.00    -0.296 C  
HETATM   17  N   UNL     1     -10.221  14.661  65.179  1.00  0.00    -0.394 NA 
HETATM   18  C   UNL     1     -10.250  12.532  64.095  1.00  0.00    -0.376 C  
HETATM   19  H2  UNL     1      -9.209  14.791  65.173  1.00  0.00     0.000 HD 
HETATM   20  H1  UNL     1     -10.651  15.031  64.331  1.00  0.00     0.000 HD 
HETATM   21  C   UNL     1     -10.429  11.025  64.172  1.00  0.00    -0.366 C  
HETATM   22  N   UNL     1     -10.098  10.545  62.821  1.00  0.00    -0.714 NA 
HETATM   23  C   UNL     1      -9.557  10.476  65.345  1.00  0.00    -0.237 C  
HETATM   24  C   UNL     1     -10.055  11.115  66.711  1.00  0.00    -0.218 C  
HETATM   25  O   UNL     1      -9.266  10.590  67.794  1.00  0.00    -0.144 OA 
HETATM   26  H2  UNL     1      -9.180  10.838  62.488  1.00  0.00     0.000 HD 
HETATM   27  H1  UNL     1     -10.218   9.533  62.873  1.00  0.00     0.000 HD 
HETATM   28  H   UNL     1      -9.341   9.642  67.813  1.00  0.00     0.000 HD 
BRANCH  23  29
HETATM   29  O   UNL     1      -9.512   9.015  65.389  1.00  0.00    -0.211 OA 
BRANCH  29  30
HETATM   30  C   UNL     1      -8.144   8.515  65.406  1.00  0.00    -0.127 C  
HETATM   31  O   UNL     1      -7.777   8.054  66.713  1.00  0.00    -0.095 OA 
HETATM   32  C   UNL     1      -8.506   6.872  67.085  1.00  0.00    -0.121 C  
HETATM   33  C   UNL     1      -8.065   5.713  66.191  1.00  0.00    -0.108 C  
HETATM   34  H   UNL     1      -8.059   7.183  62.381  1.00  0.00     0.000 HD 
HETATM   35  O   UNL     1      -8.707   4.491  66.561  1.00  0.00    -0.112 OA 
HETATM   36  C   UNL     1      -8.390   6.053  64.716  1.00  0.00    -0.086 C  
HETATM   37  H1  UNL     1      -8.100   5.204  62.858  1.00  0.00     0.000 HD 
HETATM   38  H2  UNL     1      -8.242   4.061  64.099  1.00  0.00     0.000 HD 
HETATM   39  C   UNL     1      -7.830   7.434  64.339  1.00  0.00    -0.127 C  
HETATM   40  N   UNL     1      -7.886   4.979  63.830  1.00  0.00    -0.082 NA 
HETATM   41  H   UNL     1      -8.433   3.771  66.006  1.00  0.00     0.000 HD 
HETATM   42  O   UNL     1      -8.251   7.845  63.035  1.00  0.00    -0.137 OA 
BRANCH  32  43
HETATM   43  C   UNL     1      -8.258   6.625  68.573  1.00  0.00    -0.119 C  
HETATM   44  O   UNL     1      -7.036   5.889  68.723  1.00  0.00    -0.067 OA 
HETATM   45  H   UNL     1      -6.882   5.735  69.647  1.00  0.00     0.000 HD 
ENDBRANCH  32  43
ENDBRANCH  29  30
ENDBRANCH  23  29
ENDBRANCH  14  15
ENDBRANCH   8  14
TORSDOF 6
ENDMDL
MODEL      106
REMARK 921   NORMALIZED FREE ENERGY PREDICTED BY IDOCK:   -5.63 KCAL/MOL
REMARK 922        TOTAL FREE ENERGY PREDICTED BY IDOCK:   -9.16 KCAL/MOL
REMARK 923 INTER-LIGAND FREE ENERGY PREDICTED BY IDOCK:   -8.52 KCAL/MOL
REMARK 924 INTRA-LIGAND FREE ENERGY PREDICTED BY IDOCK:   -0.63 KCAL/MOL
REMARK 927      BINDING AFFINITY PREDICTED BY RF-SCORE:    0.00 PKD
ROOT
HETATM    1  C   UNL     1      -7.330   7.614  65.484  1.00  0.00    -0.074 C  
HETATM    2  C   UNL     1      -8.435   6.574  65.265  1.00  0.00    -0.091 C  
HETATM    3  N   UNL     1      -6.628   7.747  64.188  1.00  0.00    -0.056 NA 
HETATM    4  H1  UNL     1      -5.893   8.439  64.334  1.00  0.00     0.000 HD 
HETATM    5  C   UNL     1      -9.447   6.534  66.387  1.00  0.00    -0.165 C  
HETATM    6  H2  UNL     1      -7.248   7.971  63.411  1.00  0.00     0.000 HD 
HETATM    7  C   UNL     1      -9.893   7.931  66.813  1.00  0.00    -0.248 C  
HETATM    8  C   UNL     1      -7.792   8.977  66.153  1.00  0.00    -0.102 C  
HETATM    9  O   UNL     1      -8.790   8.784  67.156  1.00  0.00    -0.125 OA 
ENDROOT
BRANCH   7  10
HETATM   10  C   UNL     1     -10.781   7.771  68.078  1.00  0.00    -0.066 C  
HETATM   11  N   UNL     1     -11.457   6.475  68.139  1.00  0.00    -0.579 NA 
HETATM   12  H1  UNL     1     -12.039   6.370  68.970  1.00  0.00     0.000 HD 
HETATM   13  H2  UNL     1     -10.786   5.710  68.065  1.00  0.00     0.000 HD 
ENDBRANCH   7  10
BRANCH   8  14
HETATM   14  O   UNL     1      -8.134   9.940  65.156  1.00  0.00    -0.125 OA 
BRANCH  14  15
HETATM   15  C   UNL     1      -9.442  10.565  65.131  1.00  0.00    -0.233 C  
HETATM   16  C   UNL     1      -9.597  10.968  63.638  1.00  0.00    -0.292 C  
HETATM   17  N   UNL     1      -9.648   9.778  62.767  1.00  0.00    -0.555 NA 
HETATM   18  C   UNL     1     -10.818  11.795  63.287  1.00  0.00    -0.400 C  
HETATM   19  H2  UNL     1     -10.379   9.130  63.059  1.00  0.00     0.000 HD 
HETATM   20  H1  UNL     1      -9.750  10.042  61.787  1.00  0.00     0.000 HD 
HETATM   21  C   UNL     1     -11.011  13.002  64.190  1.00  0.00    -0.408 C  
HETATM   22  N   UNL     1     -12.204  13.677  63.653  1.00  0.00    -0.857 NA 
HETATM   23  C   UNL     1     -11.086  12.514  65.670  1.00  0.00    -0.303 C  
HETATM   24  C   UNL     1      -9.720  11.806  66.059  1.00  0.00    -0.232 C  
HETATM   25  O   UNL     1      -9.781  11.378  67.431  1.00  0.00    -0.179 OA 
HETATM   26  H2  UNL     1     -13.025  13.075  63.582  1.00  0.00     0.000 HD 
HETATM   27  H1  UNL     1     -12.334  14.487  64.259  1.00  0.00     0.000 HD 
HETATM   28  H   UNL     1      -9.949  12.127  67.991  1.00  0.00     0.000 HD 
BRANCH  23  29
HETATM   29  O   UNL     1     -11.457  13.576  66.605  1.00  0.00    -0.315 OA 
BRANCH  29  30
HETATM   30  C   UNL     1     -10.338  13.975  67.447  1.00  0.00    -0.259 C  
HETATM   31  O   UNL     1      -9.604  15.055  66.856  1.00  0.00    -0.224 OA 
HETATM   32  C   UNL     1     -10.374  16.269  66.830  1.00  0.00    -0.299 C  
HETATM   33  C   UNL     1     -10.583  16.757  68.264  1.00  0.00    -0.352 C  
HETATM   34  H   UNL     1     -11.729  13.473  70.404  1.00  0.00     0.000 HD 
HETATM   35  O   UNL     1     -11.283  18.002  68.298  1.00  0.00    -0.076 OA 
HETATM   36  C   UNL     1     -11.370  15.687  69.058  1.00  0.00    -0.330 C  
HETATM   37  H1  UNL     1     -12.019  15.400  70.996  1.00  0.00     0.000 HD 
HETATM   38  H2  UNL     1     -11.917  17.033  70.561  1.00  0.00     0.000 HD 
HETATM   39  C   UNL     1     -10.710  14.306  68.915  1.00  0.00    -0.257 C  
HETATM   40  N   UNL     1     -11.500  16.106  70.472  1.00  0.00    -0.373 NA 
HETATM   41  H   UNL     1     -11.413  18.305  69.189  1.00  0.00     0.000 HD 
HETATM   42  O   UNL     1     -11.501  13.270  69.504  1.00  0.00    -0.268 OA 
BRANCH  32  43
HETATM   43  C   UNL     1      -9.630  17.270  65.946  1.00  0.00    -0.046 C  
HETATM   44  O   UNL     1     -10.557  18.267  65.493  1.00  0.00    -0.632 OA 
HETATM   45  H   UNL     1     -10.095  18.889  64.944  1.00  0.00     0.000 HD 
ENDBRANCH  32  43
ENDBRANCH  29  30
ENDBRANCH  23  29
ENDBRANCH  14  15
ENDBRANCH   8  14
TORSDOF 6
ENDMDL
MODEL      107
REMARK 921   NORMALIZED FREE ENERGY PREDICTED BY IDOCK:   -5.59 KCAL/MOL
REMARK 922        TOTAL FREE ENERGY PREDICTED BY IDOCK:   -9.11 KCAL/MOL
REMARK 923 INTER-LIGAND FREE ENERGY PREDICTED BY IDOCK:   -8.41 KCAL/MOL
REMARK 924 INTRA-LIGAND FREE ENERGY PREDICTED BY IDOCK:   -0.70 KCAL/MOL
REMARK 927      BINDING AFFINITY PREDICTED BY RF-SCORE:    0.00 PKD
ROOT
HETATM    1  C   UNL     1      -8.447   4.622  68.661  1.00  0.00    -0.085 C  
HETATM    2  C   UNL     1      -9.198   3.568  69.483  1.00  0.00    -0.224 C  
HETATM    3  N   UNL     1      -8.257   4.037  67.315  1.00  0.00    -0.098 NA 
HETATM    4  H1  UNL     1      -7.758   4.738  66.769  1.00  0.00     0.000 HD 
HETATM    5  C   UNL     1      -9.747   4.106  70.784  1.00  0.00    -0.266 C  
HETATM    6  H2  UNL     1      -9.127   3.727  66.881  1.00  0.00     0.000 HD 
HETATM    7  C   UNL     1     -10.437   5.458  70.605  1.00  0.00    -0.259 C  
HETATM    8  C   UNL     1      -9.063   6.084  68.690  1.00  0.00    -0.116 C  
HETATM    9  O   UNL     1      -9.592   6.431  69.970  1.00  0.00    -0.158 OA 
ENDROOT
BRANCH   7  10
HETATM   10  C   UNL     1     -10.794   5.989  72.020  1.00  0.00    -0.252 C  
HETATM   11  N   UNL     1     -12.223   6.249  72.187  1.00  0.00    -0.476 NA 
HETATM   12  H1  UNL     1     -12.457   6.598  73.117  1.00  0.00     0.000 HD 
HETATM   13  H2  UNL     1     -12.774   5.421  71.959  1.00  0.00     0.000 HD 
ENDBRANCH   7  10
BRANCH   8  14
HETATM   14  O   UNL     1      -9.972   6.271  67.604  1.00  0.00    -0.120 OA 
BRANCH  14  15
HETATM   15  C   UNL     1      -9.949   7.479  66.803  1.00  0.00    -0.237 C  
HETATM   16  C   UNL     1      -8.633   7.323  65.992  1.00  0.00    -0.151 C  
HETATM   17  N   UNL     1      -8.706   6.172  65.072  1.00  0.00    -0.353 NA 
HETATM   18  C   UNL     1      -8.220   8.510  65.144  1.00  0.00    -0.153 C  
HETATM   19  H2  UNL     1      -9.519   6.232  64.460  1.00  0.00     0.000 HD 
HETATM   20  H1  UNL     1      -7.842   6.069  64.540  1.00  0.00     0.000 HD 
HETATM   21  C   UNL     1      -8.229   9.828  65.901  1.00  0.00    -0.117 C  
HETATM   22  N   UNL     1      -7.761  10.820  64.920  1.00  0.00    -0.354 NA 
HETATM   23  C   UNL     1      -9.653  10.050  66.501  1.00  0.00    -0.187 C  
HETATM   24  C   UNL     1      -9.981   8.880  67.521  1.00  0.00    -0.203 C  
HETATM   25  O   UNL     1     -11.284   9.099  68.091  1.00  0.00    -0.483 OA 
HETATM   26  H2  UNL     1      -8.299  10.835  64.053  1.00  0.00     0.000 HD 
HETATM   27  H1  UNL     1      -7.767  11.705  65.428  1.00  0.00     0.000 HD 
HETATM   28  H   UNL     1     -11.303   9.945  68.524  1.00  0.00     0.000 HD 
BRANCH  23  29
HETATM   29  O   UNL     1      -9.823  11.378  67.091  1.00  0.00    -0.188 OA 
BRANCH  29  30
HETATM   30  C   UNL     1      -9.496  12.438  66.149  1.00  0.00    -0.199 C  
HETATM   31  O   UNL     1     -10.299  12.346  64.965  1.00  0.00    -0.281 OA 
HETATM   32  C   UNL     1     -11.681  12.636  65.236  1.00  0.00    -0.378 C  
HETATM   33  C   UNL     1     -11.816  14.112  65.611  1.00  0.00    -0.375 C  
HETATM   34  H   UNL     1      -8.845  14.851  68.314  1.00  0.00     0.000 HD 
HETATM   35  O   UNL     1     -13.181  14.477  65.823  1.00  0.00    -0.421 OA 
HETATM   36  C   UNL     1     -10.990  14.391  66.890  1.00  0.00    -0.308 C  
HETATM   37  H1  UNL     1     -10.493  16.019  68.056  1.00  0.00     0.000 HD 
HETATM   38  H2  UNL     1     -11.995  16.180  67.292  1.00  0.00     0.000 HD 
HETATM   39  C   UNL     1      -9.551  13.873  66.735  1.00  0.00    -0.283 C  
HETATM   40  N   UNL     1     -11.038  15.835  67.213  1.00  0.00    -0.264 NA 
HETATM   41  H   UNL     1     -13.265  15.394  66.056  1.00  0.00     0.000 HD 
HETATM   42  O   UNL     1      -8.811  13.972  67.954  1.00  0.00    -0.167 OA 
BRANCH  32  43
HETATM   43  C   UNL     1     -12.487  12.244  63.997  1.00  0.00    -0.458 C  
HETATM   44  O   UNL     1     -12.323  13.260  62.997  1.00  0.00    -0.801 OA 
HETATM   45  H   UNL     1     -12.824  13.016  62.228  1.00  0.00     0.000 HD 
ENDBRANCH  32  43
ENDBRANCH  29  30
ENDBRANCH  23  29
ENDBRANCH  14  15
ENDBRANCH   8  14
TORSDOF 6
ENDMDL
MODEL      108
REMARK 921   NORMALIZED FREE ENERGY PREDICTED BY IDOCK:   -5.57 KCAL/MOL
REMARK 922        TOTAL FREE ENERGY PREDICTED BY IDOCK:   -9.08 KCAL/MOL
REMARK 923 INTER-LIGAND FREE ENERGY PREDICTED BY IDOCK:   -7.83 KCAL/MOL
REMARK 924 INTRA-LIGAND FREE ENERGY PREDICTED BY IDOCK:   -1.25 KCAL/MOL
REMARK 927      BINDING AFFINITY PREDICTED BY RF-SCORE:    0.00 PKD
ROOT
HETATM    1  C   UNL     1      -6.912  19.859  68.165  1.00  0.00    -0.296 C  
HETATM    2  C   UNL     1      -8.043  19.873  69.201  1.00  0.00     0.042 C  
HETATM    3  N   UNL     1      -5.656  19.693  68.930  1.00  0.00    -0.203 NA 
HETATM    4  H1  UNL     1      -4.904  19.684  68.241  1.00  0.00     0.000 HD 
HETATM    5  C   UNL     1      -9.416  19.727  68.586  1.00  0.00    -0.366 C  
HETATM    6  H2  UNL     1      -5.657  18.875  69.540  1.00  0.00     0.000 HD 
HETATM    7  C   UNL     1      -9.463  18.623  67.532  1.00  0.00    -0.291 C  
HETATM    8  C   UNL     1      -7.108  18.862  66.946  1.00  0.00    -0.206 C  
HETATM    9  O   UNL     1      -8.466  18.789  66.511  1.00  0.00    -0.285 OA 
ENDROOT
BRANCH   7  10
HETATM   10  C   UNL     1     -10.856  18.690  66.850  1.00  0.00    -0.186 C  
HETATM   11  N   UNL     1     -10.812  18.350  65.428  1.00  0.00    -0.501 NA 
HETATM   12  H1  UNL     1     -11.727  18.394  64.980  1.00  0.00     0.000 HD 
HETATM   13  H2  UNL     1     -10.379  17.437  65.284  1.00  0.00     0.000 HD 
ENDBRANCH   7  10
BRANCH   8  14
HETATM   14  O   UNL     1      -6.507  17.598  67.226  1.00  0.00    -0.148 OA 
BRANCH  14  15
HETATM   15  C   UNL     1      -7.293  16.485  67.724  1.00  0.00    -0.138 C  
HETATM   16  C   UNL     1      -6.381  15.895  68.835  1.00  0.00    -0.122 C  
HETATM   17  N   UNL     1      -6.201  16.853  69.943  1.00  0.00    -0.202 NA 
HETATM   18  C   UNL     1      -6.847  14.602  69.473  1.00  0.00    -0.165 C  
HETATM   19  H2  UNL     1      -7.096  17.164  70.318  1.00  0.00     0.000 HD 
HETATM   20  H1  UNL     1      -5.602  16.466  70.672  1.00  0.00     0.000 HD 
HETATM   21  C   UNL     1      -7.222  13.530  68.463  1.00  0.00    -0.110 C  
HETATM   22  N   UNL     1      -7.596  12.365  69.283  1.00  0.00    -0.310 NA 
HETATM   23  C   UNL     1      -8.321  14.100  67.512  1.00  0.00    -0.185 C  
HETATM   24  C   UNL     1      -7.738  15.350  66.728  1.00  0.00    -0.010 C  
HETATM   25  O   UNL     1      -8.744  15.860  65.834  1.00  0.00    -0.285 OA 
HETATM   26  H2  UNL     1      -8.321  12.558  69.974  1.00  0.00     0.000 HD 
HETATM   27  H1  UNL     1      -7.848  11.646  68.605  1.00  0.00     0.000 HD 
HETATM   28  H   UNL     1      -9.012  15.175  65.233  1.00  0.00     0.000 HD 
BRANCH  23  29
HETATM   29  O   UNL     1      -8.887  13.089  66.620  1.00  0.00    -0.178 OA 
BRANCH  29  30
HETATM   30  C   UNL     1     -10.063  12.452  67.197  1.00  0.00    -0.213 C  
HETATM   31  O   UNL     1     -10.789  13.362  68.032  1.00  0.00    -0.236 OA 
HETATM   32  C   UNL     1     -11.396  14.417  67.266  1.00  0.00    -0.342 C  
HETATM   33  C   UNL     1     -12.499  13.823  66.389  1.00  0.00    -0.355 C  
HETATM   34  H   UNL     1     -10.877  10.501  64.654  1.00  0.00     0.000 HD 
HETATM   35  O   UNL     1     -13.188  14.837  65.655  1.00  0.00    -0.197 OA 
HETATM   36  C   UNL     1     -11.877  12.796  65.413  1.00  0.00    -0.415 C  
HETATM   37  H1  UNL     1     -12.535  11.469  63.977  1.00  0.00     0.000 HD 
HETATM   38  H2  UNL     1     -13.533  12.828  64.137  1.00  0.00     0.000 HD 
HETATM   39  C   UNL     1     -11.011  11.778  66.171  1.00  0.00    -0.307 C  
HETATM   40  N   UNL     1     -12.946  12.147  64.620  1.00  0.00    -0.609 NA 
HETATM   41  H   UNL     1     -13.873  14.469  65.110  1.00  0.00     0.000 HD 
HETATM   42  O   UNL     1     -10.296  10.914  65.283  1.00  0.00    -0.273 OA 
BRANCH  32  43
HETATM   43  C   UNL     1     -11.901  15.473  68.251  1.00  0.00    -0.173 C  
HETATM   44  O   UNL     1     -12.613  14.816  69.309  1.00  0.00    -0.564 OA 
HETATM   45  H   UNL     1     -12.926  15.472  69.921  1.00  0.00     0.000 HD 
ENDBRANCH  32  43
ENDBRANCH  29  30
ENDBRANCH  23  29
ENDBRANCH  14  15
ENDBRANCH   8  14
TORSDOF 6
ENDMDL
MODEL      109
REMARK 921   NORMALIZED FREE ENERGY PREDICTED BY IDOCK:   -5.57 KCAL/MOL
REMARK 922        TOTAL FREE ENERGY PREDICTED BY IDOCK:   -9.07 KCAL/MOL
REMARK 923 INTER-LIGAND FREE ENERGY PREDICTED BY IDOCK:   -7.73 KCAL/MOL
REMARK 924 INTRA-LIGAND FREE ENERGY PREDICTED BY IDOCK:   -1.34 KCAL/MOL
REMARK 927      BINDING AFFINITY PREDICTED BY RF-SCORE:    0.00 PKD
ROOT
HETATM    1  C   UNL     1      -9.413   3.658  66.817  1.00  0.00    -0.179 C  
HETATM    2  C   UNL     1      -8.421   2.738  66.095  1.00  0.00    -0.106 C  
HETATM    3  N   UNL     1      -9.260   3.375  68.261  1.00  0.00    -0.163 NA 
HETATM    4  H1  UNL     1      -9.920   3.986  68.741  1.00  0.00     0.000 HD 
HETATM    5  C   UNL     1      -8.217   3.104  64.643  1.00  0.00    -0.090 C  
HETATM    6  H2  UNL     1      -8.301   3.471  68.594  1.00  0.00     0.000 HD 
HETATM    7  C   UNL     1      -8.029   4.608  64.446  1.00  0.00    -0.098 C  
HETATM    8  C   UNL     1      -9.351   5.191  66.410  1.00  0.00    -0.146 C  
HETATM    9  O   UNL     1      -9.098   5.378  65.017  1.00  0.00    -0.096 OA 
ENDROOT
BRANCH   7  10
HETATM   10  C   UNL     1      -8.013   4.879  62.917  1.00  0.00    -0.079 C  
HETATM   11  N   UNL     1      -8.754   6.083  62.544  1.00  0.00    -0.338 NA 
HETATM   12  H1  UNL     1      -8.743   6.261  61.539  1.00  0.00     0.000 HD 
HETATM   13  H2  UNL     1      -8.415   6.895  63.061  1.00  0.00     0.000 HD 
ENDBRANCH   7  10
BRANCH   8  14
HETATM   14  O   UNL     1      -8.468   5.908  67.274  1.00  0.00    -0.105 OA 
BRANCH  14  15
HETATM   15  C   UNL     1      -8.792   7.241  67.742  1.00  0.00    -0.124 C  
HETATM   16  C   UNL     1      -9.418   6.969  69.137  1.00  0.00    -0.143 C  
HETATM   17  N   UNL     1      -8.426   6.393  70.064  1.00  0.00    -0.133 NA 
HETATM   18  C   UNL     1     -10.015   8.165  69.853  1.00  0.00    -0.190 C  
HETATM   19  H2  UNL     1      -7.594   6.978  70.135  1.00  0.00     0.000 HD 
HETATM   20  H1  UNL     1      -8.838   6.214  70.981  1.00  0.00     0.000 HD 
HETATM   21  C   UNL     1     -10.966   8.976  68.988  1.00  0.00     0.027 C  
HETATM   22  N   UNL     1     -11.454  10.042  69.877  1.00  0.00    -0.342 NA 
HETATM   23  C   UNL     1     -10.209   9.428  67.700  1.00  0.00    -0.227 C  
HETATM   24  C   UNL     1      -9.752   8.146  66.883  1.00  0.00    -0.226 C  
HETATM   25  O   UNL     1      -9.075   8.565  65.684  1.00  0.00    -0.277 OA 
HETATM   26  H2  UNL     1     -10.714  10.594  70.312  1.00  0.00     0.000 HD 
HETATM   27  H1  UNL     1     -12.093  10.587  69.297  1.00  0.00     0.000 HD 
HETATM   28  H   UNL     1      -9.656   9.111  65.165  1.00  0.00     0.000 HD 
BRANCH  23  29
HETATM   29  O   UNL     1     -10.976  10.371  66.887  1.00  0.00    -0.206 OA 
BRANCH  29  30
HETATM   30  C   UNL     1     -10.213  11.574  66.585  1.00  0.00    -0.219 C  
HETATM   31  O   UNL     1     -10.328  11.928  65.201  1.00  0.00    -0.257 OA 
HETATM   32  C   UNL     1     -11.660  12.357  64.870  1.00  0.00    -0.343 C  
HETATM   33  C   UNL     1     -11.944  13.685  65.574  1.00  0.00    -0.384 C  
HETATM   34  H   UNL     1     -10.684  13.195  69.428  1.00  0.00     0.000 HD 
HETATM   35  O   UNL     1     -13.230  14.198  65.226  1.00  0.00    -0.760 OA 
HETATM   36  C   UNL     1     -11.853  13.480  67.105  1.00  0.00    -0.387 C  
HETATM   37  H1  UNL     1     -11.976  14.642  68.806  1.00  0.00     0.000 HD 
HETATM   38  H2  UNL     1     -12.903  15.240  67.522  1.00  0.00     0.000 HD 
HETATM   39  C   UNL     1     -10.532  12.795  67.488  1.00  0.00    -0.218 C  
HETATM   40  N   UNL     1     -12.036  14.777  67.797  1.00  0.00    -0.292 NA 
HETATM   41  H   UNL     1     -13.407  15.023  65.663  1.00  0.00     0.000 HD 
HETATM   42  O   UNL     1     -10.489  12.448  68.874  1.00  0.00    -0.190 OA 
BRANCH  32  43
HETATM   43  C   UNL     1     -11.755  12.441  63.346  1.00  0.00    -0.472 C  
HETATM   44  O   UNL     1     -12.591  11.374  62.876  1.00  0.00    -0.970 OA 
HETATM   45  H   UNL     1     -12.649  11.426  61.929  1.00  0.00     0.000 HD 
ENDBRANCH  32  43
ENDBRANCH  29  30
ENDBRANCH  23  29
ENDBRANCH  14  15
ENDBRANCH   8  14
TORSDOF 6
ENDMDL
MODEL      110
REMARK 921   NORMALIZED FREE ENERGY PREDICTED BY IDOCK:   -5.51 KCAL/MOL
REMARK 922        TOTAL FREE ENERGY PREDICTED BY IDOCK:   -9.00 KCAL/MOL
REMARK 923 INTER-LIGAND FREE ENERGY PREDICTED BY IDOCK:   -7.43 KCAL/MOL
REMARK 924 INTRA-LIGAND FREE ENERGY PREDICTED BY IDOCK:   -1.57 KCAL/MOL
REMARK 927      BINDING AFFINITY PREDICTED BY RF-SCORE:    0.00 PKD
ROOT
HETATM    1  C   UNL     1      -9.567   3.776  68.918  1.00  0.00    -0.113 C  
HETATM    2  C   UNL     1      -8.368   3.347  68.065  1.00  0.00    -0.096 C  
HETATM    3  N   UNL     1      -9.510   2.959  70.149  1.00  0.00    -0.154 NA 
HETATM    4  H1  UNL     1     -10.308   3.244  70.716  1.00  0.00     0.000 HD 
HETATM    5  C   UNL     1      -8.089   4.286  66.913  1.00  0.00    -0.101 C  
HETATM    6  H2  UNL     1      -8.618   3.026  70.640  1.00  0.00     0.000 HD 
HETATM    7  C   UNL     1      -8.142   5.753  67.336  1.00  0.00    -0.102 C  
HETATM    8  C   UNL     1      -9.729   5.339  69.141  1.00  0.00    -0.168 C  
HETATM    9  O   UNL     1      -9.377   6.097  67.983  1.00  0.00    -0.116 OA 
ENDROOT
BRANCH   7  10
HETATM   10  C   UNL     1      -8.024   6.613  66.049  1.00  0.00    -0.112 C  
HETATM   11  N   UNL     1      -9.288   7.244  65.667  1.00  0.00    -0.364 NA 
HETATM   12  H1  UNL     1      -9.210   7.809  64.822  1.00  0.00     0.000 HD 
HETATM   13  H2  UNL     1      -9.669   7.792  66.439  1.00  0.00     0.000 HD 
ENDBRANCH   7  10
BRANCH   8  14
HETATM   14  O   UNL     1      -9.069   5.749  70.339  1.00  0.00    -0.142 OA 
BRANCH  14  15
HETATM   15  C   UNL     1      -9.684   6.694  71.251  1.00  0.00    -0.173 C  
HETATM   16  C   UNL     1     -11.016   5.989  71.625  1.00  0.00    -0.272 C  
HETATM   17  N   UNL     1     -10.768   4.739  72.369  1.00  0.00    -0.184 NA 
HETATM   18  C   UNL     1     -11.990   6.789  72.466  1.00  0.00    -0.083 C  
HETATM   19  H2  UNL     1     -10.186   4.901  73.190  1.00  0.00     0.000 HD 
HETATM   20  H1  UNL     1     -11.643   4.275  72.614  1.00  0.00     0.000 HD 
HETATM   21  C   UNL     1     -12.257   8.183  71.921  1.00  0.00    -0.331 C  
HETATM   22  N   UNL     1     -13.245   8.759  72.849  1.00  0.00    -0.793 NA 
HETATM   23  C   UNL     1     -10.897   8.937  71.788  1.00  0.00    -0.365 C  
HETATM   24  C   UNL     1      -9.967   8.163  70.761  1.00  0.00    -0.188 C  
HETATM   25  O   UNL     1      -8.723   8.873  70.621  1.00  0.00    -0.158 OA 
HETATM   26  H2  UNL     1     -12.956   8.743  73.827  1.00  0.00     0.000 HD 
HETATM   27  H1  UNL     1     -13.424   9.694  72.483  1.00  0.00     0.000 HD 
HETATM   28  H   UNL     1      -8.894   9.760  70.325  1.00  0.00     0.000 HD 
BRANCH  23  29
HETATM   29  O   UNL     1     -11.058  10.351  71.449  1.00  0.00     0.107 OA 
BRANCH  29  30
HETATM   30  C   UNL     1     -12.197  10.573  70.569  1.00  0.00    -0.344 C  
HETATM   31  O   UNL     1     -13.206  11.358  71.216  1.00  0.00    -0.264 OA 
HETATM   32  C   UNL     1     -12.766  12.709  71.440  1.00  0.00    -0.247 C  
HETATM   33  C   UNL     1     -12.613  13.414  70.092  1.00  0.00    -0.077 C  
HETATM   34  H   UNL     1     -10.575  10.808  67.697  1.00  0.00     0.000 HD 
HETATM   35  O   UNL     1     -12.245  14.784  70.256  1.00  0.00    -0.300 OA 
HETATM   36  C   UNL     1     -11.544  12.677  69.249  1.00  0.00    -0.318 C  
HETATM   37  H1  UNL     1     -10.746  12.808  67.351  1.00  0.00     0.000 HD 
HETATM   38  H2  UNL     1     -11.275  14.298  67.957  1.00  0.00     0.000 HD 
HETATM   39  C   UNL     1     -11.845  11.171  69.182  1.00  0.00    -0.350 C  
HETATM   40  N   UNL     1     -11.451  13.294  67.906  1.00  0.00    -0.287 NA 
HETATM   41  H   UNL     1     -12.150  15.223  69.418  1.00  0.00     0.000 HD 
HETATM   42  O   UNL     1     -10.791  10.442  68.547  1.00  0.00    -0.208 OA 
BRANCH  32  43
HETATM   43  C   UNL     1     -13.781  13.378  72.368  1.00  0.00    -0.597 C  
HETATM   44  O   UNL     1     -13.107  14.377  73.147  1.00  0.00    -0.527 OA 
HETATM   45  H   UNL     1     -13.738  14.792  73.724  1.00  0.00     0.000 HD 
ENDBRANCH  32  43
ENDBRANCH  29  30
ENDBRANCH  23  29
ENDBRANCH  14  15
ENDBRANCH   8  14
TORSDOF 6
ENDMDL
MODEL      111
REMARK 921   NORMALIZED FREE ENERGY PREDICTED BY IDOCK:   -5.51 KCAL/MOL
REMARK 922        TOTAL FREE ENERGY PREDICTED BY IDOCK:   -9.00 KCAL/MOL
REMARK 923 INTER-LIGAND FREE ENERGY PREDICTED BY IDOCK:   -7.18 KCAL/MOL
REMARK 924 INTRA-LIGAND FREE ENERGY PREDICTED BY IDOCK:   -1.82 KCAL/MOL
REMARK 927      BINDING AFFINITY PREDICTED BY RF-SCORE:    0.00 PKD
ROOT
HETATM    1  C   UNL     1      -9.938  13.414  67.781  1.00  0.00    -0.233 C  
HETATM    2  C   UNL     1     -10.466  14.325  66.667  1.00  0.00    -0.278 C  
HETATM    3  N   UNL     1     -10.281  14.082  69.056  1.00  0.00    -0.407 NA 
HETATM    4  H1  UNL     1      -9.930  13.477  69.797  1.00  0.00     0.000 HD 
HETATM    5  C   UNL     1     -10.480  13.660  65.310  1.00  0.00    -0.362 C  
HETATM    6  H2  UNL     1     -11.274  14.300  69.146  1.00  0.00     0.000 HD 
HETATM    7  C   UNL     1     -11.047  12.242  65.366  1.00  0.00    -0.311 C  
HETATM    8  C   UNL     1     -10.355  11.886  67.677  1.00  0.00    -0.200 C  
HETATM    9  O   UNL     1     -10.375  11.415  66.329  1.00  0.00    -0.228 OA 
ENDROOT
BRANCH   7  10
HETATM   10  C   UNL     1     -10.842  11.603  63.965  1.00  0.00    -0.392 C  
HETATM   11  N   UNL     1     -11.976  11.822  63.067  1.00  0.00    -0.862 NA 
HETATM   12  H1  UNL     1     -11.840  11.402  62.148  1.00  0.00     0.000 HD 
HETATM   13  H2  UNL     1     -12.190  12.816  62.987  1.00  0.00     0.000 HD 
ENDBRANCH   7  10
BRANCH   8  14
HETATM   14  O   UNL     1     -11.556  11.639  68.408  1.00  0.00    -0.267 OA 
BRANCH  14  15
HETATM   15  C   UNL     1     -11.767  10.386  69.107  1.00  0.00    -0.119 C  
HETATM   16  C   UNL     1     -11.679  10.810  70.599  1.00  0.00    -0.342 C  
HETATM   17  N   UNL     1     -12.783  11.721  70.960  1.00  0.00    -0.326 NA 
HETATM   18  C   UNL     1     -11.709   9.691  71.621  1.00  0.00    -0.439 C  
HETATM   19  H2  UNL     1     -13.691  11.315  70.739  1.00  0.00     0.000 HD 
HETATM   20  H1  UNL     1     -12.725  12.000  71.940  1.00  0.00     0.000 HD 
HETATM   21  C   UNL     1     -10.723   8.574  71.324  1.00  0.00    -0.240 C  
HETATM   22  N   UNL     1     -10.884   7.632  72.444  1.00  0.00    -0.264 NA 
HETATM   23  C   UNL     1     -11.011   8.019  69.894  1.00  0.00    -0.172 C  
HETATM   24  C   UNL     1     -10.797   9.177  68.830  1.00  0.00    -0.060 C  
HETATM   25  O   UNL     1     -11.039   8.658  67.509  1.00  0.00    -0.457 OA 
HETATM   26  H2  UNL     1     -11.843   7.314  72.586  1.00  0.00     0.000 HD 
HETATM   27  H1  UNL     1     -10.222   6.882  72.245  1.00  0.00     0.000 HD 
HETATM   28  H   UNL     1     -10.453   7.928  67.342  1.00  0.00     0.000 HD 
BRANCH  23  29
HETATM   29  O   UNL     1     -10.240   6.816  69.581  1.00  0.00    -0.179 OA 
BRANCH  29  30
HETATM   30  C   UNL     1      -8.806   7.073  69.584  1.00  0.00    -0.141 C  
HETATM   31  O   UNL     1      -8.221   6.727  70.846  1.00  0.00    -0.120 OA 
HETATM   32  C   UNL     1      -8.246   5.307  71.072  1.00  0.00    -0.116 C  
HETATM   33  C   UNL     1      -7.306   4.627  70.075  1.00  0.00    -0.054 C  
HETATM   34  H   UNL     1      -8.147   6.289  66.441  1.00  0.00     0.000 HD 
HETATM   35  O   UNL     1      -7.235   3.218  70.298  1.00  0.00    -0.040 OA 
HETATM   36  C   UNL     1      -7.799   4.910  68.635  1.00  0.00    -0.077 C  
HETATM   37  H1  UNL     1      -7.173   4.521  66.708  1.00  0.00     0.000 HD 
HETATM   38  H2  UNL     1      -6.686   3.340  67.819  1.00  0.00     0.000 HD 
HETATM   39  C   UNL     1      -8.021   6.415  68.420  1.00  0.00    -0.106 C  
HETATM   40  N   UNL     1      -6.848   4.334  67.657  1.00  0.00    -0.051 NA 
HETATM   41  H   UNL     1      -6.652   2.796  69.680  1.00  0.00     0.000 HD 
HETATM   42  O   UNL     1      -8.628   6.692  67.154  1.00  0.00    -0.112 OA 
BRANCH  32  43
HETATM   43  C   UNL     1      -7.865   5.065  72.533  1.00  0.00    -0.097 C  
HETATM   44  O   UNL     1      -8.865   5.655  73.376  1.00  0.00    -0.124 OA 
HETATM   45  H   UNL     1      -8.629   5.504  74.283  1.00  0.00     0.000 HD 
ENDBRANCH  32  43
ENDBRANCH  29  30
ENDBRANCH  23  29
ENDBRANCH  14  15
ENDBRANCH   8  14
TORSDOF 6
ENDMDL
MODEL      112
REMARK 921   NORMALIZED FREE ENERGY PREDICTED BY IDOCK:   -5.50 KCAL/MOL
REMARK 922        TOTAL FREE ENERGY PREDICTED BY IDOCK:   -8.99 KCAL/MOL
REMARK 923 INTER-LIGAND FREE ENERGY PREDICTED BY IDOCK:   -7.58 KCAL/MOL
REMARK 924 INTRA-LIGAND FREE ENERGY PREDICTED BY IDOCK:   -1.41 KCAL/MOL
REMARK 927      BINDING AFFINITY PREDICTED BY RF-SCORE:    0.00 PKD
ROOT
HETATM    1  C   UNL     1      -8.621   5.063  66.260  1.00  0.00    -0.113 C  
HETATM    2  C   UNL     1      -8.758   3.557  66.509  1.00  0.00    -0.124 C  
HETATM    3  N   UNL     1      -9.917   5.507  65.701  1.00  0.00    -0.377 NA 
HETATM    4  H1  UNL     1      -9.826   6.509  65.535  1.00  0.00     0.000 HD 
HETATM    5  C   UNL     1      -7.645   2.990  67.360  1.00  0.00    -0.066 C  
HETATM    6  H2  UNL     1     -10.716   5.264  66.286  1.00  0.00     0.000 HD 
HETATM    7  C   UNL     1      -7.344   3.863  68.576  1.00  0.00    -0.055 C  
HETATM    8  C   UNL     1      -8.075   5.916  67.482  1.00  0.00    -0.102 C  
HETATM    9  O   UNL     1      -7.067   5.228  68.223  1.00  0.00    -0.060 OA 
ENDROOT
BRANCH   7  10
HETATM   10  C   UNL     1      -6.078   3.284  69.264  1.00  0.00    -0.024 C  
HETATM   11  N   UNL     1      -5.743   3.971  70.511  1.00  0.00    -0.013 NA 
HETATM   12  H1  UNL     1      -4.911   3.590  70.963  1.00  0.00     0.000 HD 
HETATM   13  H2  UNL     1      -6.537   3.972  71.152  1.00  0.00     0.000 HD 
ENDBRANCH   7  10
BRANCH   8  14
HETATM   14  O   UNL     1      -9.155   6.415  68.272  1.00  0.00    -0.117 OA 
BRANCH  14  15
HETATM   15  C   UNL     1      -9.322   7.836  68.507  1.00  0.00    -0.147 C  
HETATM   16  C   UNL     1      -9.769   7.885  69.994  1.00  0.00    -0.179 C  
HETATM   17  N   UNL     1      -8.699   7.402  70.889  1.00  0.00    -0.142 NA 
HETATM   18  C   UNL     1     -10.181   9.241  70.530  1.00  0.00    -0.309 C  
HETATM   19  H2  UNL     1      -7.829   7.912  70.741  1.00  0.00     0.000 HD 
HETATM   20  H1  UNL     1      -8.992   7.434  71.865  1.00  0.00     0.000 HD 
HETATM   21  C   UNL     1     -11.186   9.962  69.645  1.00  0.00    -0.208 C  
HETATM   22  N   UNL     1     -11.477  11.214  70.362  1.00  0.00    -0.469 NA 
HETATM   23  C   UNL     1     -10.584  10.097  68.211  1.00  0.00    -0.226 C  
HETATM   24  C   UNL     1     -10.329   8.650  67.611  1.00  0.00    -0.254 C  
HETATM   25  O   UNL     1      -9.797   8.776  66.280  1.00  0.00    -0.268 OA 
HETATM   26  H2  UNL     1     -10.650  11.767  70.587  1.00  0.00     0.000 HD 
HETATM   27  H1  UNL     1     -12.151  11.698  69.768  1.00  0.00     0.000 HD 
HETATM   28  H   UNL     1     -10.405   9.268  65.739  1.00  0.00     0.000 HD 
BRANCH  23  29
HETATM   29  O   UNL     1     -11.391  10.939  67.329  1.00  0.00    -0.415 OA 
BRANCH  29  30
HETATM   30  C   UNL     1     -10.573  11.885  66.583  1.00  0.00    -0.238 C  
HETATM   31  O   UNL     1     -11.010  11.986  65.221  1.00  0.00    -0.292 OA 
HETATM   32  C   UNL     1     -12.304  12.605  65.123  1.00  0.00    -0.484 C  
HETATM   33  C   UNL     1     -12.188  14.071  65.541  1.00  0.00    -0.439 C  
HETATM   34  H   UNL     1     -10.009  14.075  68.995  1.00  0.00     0.000 HD 
HETATM   35  O   UNL     1     -13.433  14.758  65.396  1.00  0.00    -0.175 OA 
HETATM   36  C   UNL     1     -11.713  14.145  67.013  1.00  0.00    -0.405 C  
HETATM   37  H1  UNL     1     -11.196  15.608  68.373  1.00  0.00     0.000 HD 
HETATM   38  H2  UNL     1     -12.342  16.126  67.240  1.00  0.00     0.000 HD 
HETATM   39  C   UNL     1     -10.452  13.292  67.223  1.00  0.00    -0.247 C  
HETATM   40  N   UNL     1     -11.510  15.559  67.403  1.00  0.00    -0.214 NA 
HETATM   41  H   UNL     1     -13.361  15.668  65.655  1.00  0.00     0.000 HD 
HETATM   42  O   UNL     1     -10.083  13.213  68.602  1.00  0.00    -0.219 OA 
BRANCH  32  43
HETATM   43  C   UNL     1     -12.799  12.417  63.688  1.00  0.00    -0.241 C  
HETATM   44  O   UNL     1     -12.639  13.653  62.977  1.00  0.00    -0.957 OA 
HETATM   45  H   UNL     1     -12.947  13.536  62.086  1.00  0.00     0.000 HD 
ENDBRANCH  32  43
ENDBRANCH  29  30
ENDBRANCH  23  29
ENDBRANCH  14  15
ENDBRANCH   8  14
TORSDOF 6
ENDMDL
MODEL      113
REMARK 921   NORMALIZED FREE ENERGY PREDICTED BY IDOCK:   -5.50 KCAL/MOL
REMARK 922        TOTAL FREE ENERGY PREDICTED BY IDOCK:   -8.99 KCAL/MOL
REMARK 923 INTER-LIGAND FREE ENERGY PREDICTED BY IDOCK:   -7.14 KCAL/MOL
REMARK 924 INTRA-LIGAND FREE ENERGY PREDICTED BY IDOCK:   -1.85 KCAL/MOL
REMARK 927      BINDING AFFINITY PREDICTED BY RF-SCORE:    0.00 PKD
ROOT
HETATM    1  C   UNL     1      -7.999   7.700  63.318  1.00  0.00    -0.102 C  
HETATM    2  C   UNL     1      -8.598   6.390  62.792  1.00  0.00     0.249 C  
HETATM    3  N   UNL     1      -8.692   8.789  62.593  1.00  0.00    -0.409 NA 
HETATM    4  H1  UNL     1      -8.294   9.660  62.943  1.00  0.00     0.000 HD 
HETATM    5  C   UNL     1      -8.232   5.188  63.633  1.00  0.00    -0.118 C  
HETATM    6  H2  UNL     1      -9.708   8.746  62.672  1.00  0.00     0.000 HD 
HETATM    7  C   UNL     1      -8.383   5.462  65.128  1.00  0.00    -0.144 C  
HETATM    8  C   UNL     1      -7.953   7.851  64.897  1.00  0.00    -0.138 C  
HETATM    9  O   UNL     1      -7.650   6.621  65.556  1.00  0.00    -0.079 OA 
ENDROOT
BRANCH   7  10
HETATM   10  C   UNL     1      -7.812   4.232  65.886  1.00  0.00    -0.094 C  
HETATM   11  N   UNL     1      -8.259   4.162  67.277  1.00  0.00    -0.099 NA 
HETATM   12  H1  UNL     1      -7.883   3.354  67.774  1.00  0.00     0.000 HD 
HETATM   13  H2  UNL     1      -9.277   4.185  67.334  1.00  0.00     0.000 HD 
ENDBRANCH   7  10
BRANCH   8  14
HETATM   14  O   UNL     1      -9.128   8.505  65.377  1.00  0.00    -0.152 OA 
BRANCH  14  15
HETATM   15  C   UNL     1      -9.104   9.304  66.587  1.00  0.00    -0.143 C  
HETATM   16  C   UNL     1     -10.202   8.634  67.458  1.00  0.00    -0.245 C  
HETATM   17  N   UNL     1      -9.828   7.253  67.819  1.00  0.00    -0.143 NA 
HETATM   18  C   UNL     1     -10.546   9.328  68.760  1.00  0.00    -0.220 C  
HETATM   19  H2  UNL     1      -8.916   7.218  68.274  1.00  0.00     0.000 HD 
HETATM   20  H1  UNL     1     -10.550   6.813  68.391  1.00  0.00     0.000 HD 
HETATM   21  C   UNL     1     -10.823  10.814  68.599  1.00  0.00    -0.220 C  
HETATM   22  N   UNL     1     -11.174  11.273  69.953  1.00  0.00    -0.446 NA 
HETATM   23  C   UNL     1      -9.583  11.485  67.930  1.00  0.00    -0.177 C  
HETATM   24  C   UNL     1      -9.359  10.854  66.491  1.00  0.00    -0.173 C  
HETATM   25  O   UNL     1      -8.229  11.490  65.865  1.00  0.00    -0.368 OA 
HETATM   26  H2  UNL     1     -10.472  11.055  70.661  1.00  0.00     0.000 HD 
HETATM   27  H1  UNL     1     -11.359  12.270  69.845  1.00  0.00     0.000 HD 
HETATM   28  H   UNL     1      -8.383  12.427  65.807  1.00  0.00     0.000 HD 
BRANCH  23  29
HETATM   29  O   UNL     1      -9.669  12.945  67.898  1.00  0.00    -0.204 OA 
BRANCH  29  30
HETATM   30  C   UNL     1     -10.918  13.403  67.307  1.00  0.00    -0.272 C  
HETATM   31  O   UNL     1     -11.803  13.926  68.306  1.00  0.00    -0.343 OA 
HETATM   32  C   UNL     1     -11.302  15.150  68.871  1.00  0.00    -0.301 C  
HETATM   33  C   UNL     1     -11.330  16.242  67.801  1.00  0.00    -0.081 C  
HETATM   34  H   UNL     1      -9.728  14.553  64.445  1.00  0.00     0.000 HD 
HETATM   35  O   UNL     1     -10.909  17.502  68.325  1.00  0.00    -0.338 OA 
HETATM   36  C   UNL     1     -10.414  15.827  66.624  1.00  0.00    -0.302 C  
HETATM   37  H1  UNL     1      -9.899  16.557  64.765  1.00  0.00     0.000 HD 
HETATM   38  H2  UNL     1     -10.297  17.774  65.873  1.00  0.00     0.000 HD 
HETATM   39  C   UNL     1     -10.758  14.410  66.138  1.00  0.00    -0.304 C  
HETATM   40  N   UNL     1     -10.503  16.831  65.541  1.00  0.00    -0.587 NA 
HETATM   41  H   UNL     1     -10.927  18.180  67.661  1.00  0.00     0.000 HD 
HETATM   42  O   UNL     1      -9.827  13.937  65.161  1.00  0.00    -0.245 OA 
BRANCH  32  43
HETATM   43  C   UNL     1     -12.154  15.475  70.099  1.00  0.00    -0.378 C  
HETATM   44  O   UNL     1     -11.489  16.487  70.869  1.00  0.00    -0.566 OA 
HETATM   45  H   UNL     1     -12.019  16.689  71.631  1.00  0.00     0.000 HD 
ENDBRANCH  32  43
ENDBRANCH  29  30
ENDBRANCH  23  29
ENDBRANCH  14  15
ENDBRANCH   8  14
TORSDOF 6
ENDMDL
MODEL      114
REMARK 921   NORMALIZED FREE ENERGY PREDICTED BY IDOCK:   -5.49 KCAL/MOL
REMARK 922        TOTAL FREE ENERGY PREDICTED BY IDOCK:   -8.97 KCAL/MOL
REMARK 923 INTER-LIGAND FREE ENERGY PREDICTED BY IDOCK:   -8.21 KCAL/MOL
REMARK 924 INTRA-LIGAND FREE ENERGY PREDICTED BY IDOCK:   -0.75 KCAL/MOL
REMARK 927      BINDING AFFINITY PREDICTED BY RF-SCORE:    0.00 PKD
ROOT
HETATM    1  C   UNL     1      -9.117   9.716  65.713  1.00  0.00    -0.185 C  
HETATM    2  C   UNL     1      -9.730   8.970  66.905  1.00  0.00    -0.260 C  
HETATM    3  N   UNL     1     -10.158   9.740  64.663  1.00  0.00    -0.326 NA 
HETATM    4  H1  UNL     1      -9.750  10.235  63.871  1.00  0.00     0.000 HD 
HETATM    5  C   UNL     1      -8.926   9.115  68.176  1.00  0.00    -0.129 C  
HETATM    6  H2  UNL     1     -11.043  10.137  64.978  1.00  0.00     0.000 HD 
HETATM    7  C   UNL     1      -8.485  10.558  68.420  1.00  0.00    -0.128 C  
HETATM    8  C   UNL     1      -8.450  11.116  66.047  1.00  0.00    -0.138 C  
HETATM    9  O   UNL     1      -7.773  11.115  67.304  1.00  0.00    -0.118 OA 
ENDROOT
BRANCH   7  10
HETATM   10  C   UNL     1      -7.524  10.550  69.641  1.00  0.00    -0.141 C  
HETATM   11  N   UNL     1      -7.115  11.893  70.052  1.00  0.00    -0.228 NA 
HETATM   12  H1  UNL     1      -6.484  11.888  70.854  1.00  0.00     0.000 HD 
HETATM   13  H2  UNL     1      -7.928  12.483  70.231  1.00  0.00     0.000 HD 
ENDBRANCH   7  10
BRANCH   8  14
HETATM   14  O   UNL     1      -9.392  12.177  65.884  1.00  0.00    -0.217 OA 
BRANCH  14  15
HETATM   15  C   UNL     1      -9.831  12.974  67.013  1.00  0.00    -0.238 C  
HETATM   16  C   UNL     1     -11.352  13.140  66.740  1.00  0.00    -0.316 C  
HETATM   17  N   UNL     1     -12.050  11.842  66.804  1.00  0.00    -0.373 NA 
HETATM   18  C   UNL     1     -12.106  14.067  67.673  1.00  0.00    -0.344 C  
HETATM   19  H2  UNL     1     -11.877  11.366  67.690  1.00  0.00     0.000 HD 
HETATM   20  H1  UNL     1     -13.049  11.951  66.625  1.00  0.00     0.000 HD 
HETATM   21  C   UNL     1     -11.442  15.423  67.845  1.00  0.00    -0.299 C  
HETATM   22  N   UNL     1     -12.347  16.166  68.737  1.00  0.00    -0.107 NA 
HETATM   23  C   UNL     1      -9.981  15.205  68.351  1.00  0.00    -0.222 C  
HETATM   24  C   UNL     1      -9.169  14.379  67.266  1.00  0.00    -0.209 C  
HETATM   25  O   UNL     1      -7.816  14.199  67.723  1.00  0.00    -0.139 OA 
HETATM   26  H2  UNL     1     -12.551  15.688  69.615  1.00  0.00     0.000 HD 
HETATM   27  H1  UNL     1     -11.901  17.076  68.854  1.00  0.00     0.000 HD 
HETATM   28  H   UNL     1      -7.416  15.048  67.876  1.00  0.00     0.000 HD 
BRANCH  23  29
HETATM   29  O   UNL     1      -9.314  16.450  68.728  1.00  0.00    -0.226 OA 
BRANCH  29  30
HETATM   30  C   UNL     1      -8.379  16.897  67.705  1.00  0.00    -0.194 C  
HETATM   31  O   UNL     1      -9.069  17.432  66.569  1.00  0.00    -0.252 OA 
HETATM   32  C   UNL     1      -9.738  18.665  66.886  1.00  0.00    -0.314 C  
HETATM   33  C   UNL     1      -8.691  19.741  67.172  1.00  0.00    -0.323 C  
HETATM   34  H   UNL     1      -5.970  18.010  69.678  1.00  0.00     0.000 HD 
HETATM   35  O   UNL     1      -9.297  21.010  67.425  1.00  0.00    -0.539 OA 
HETATM   36  C   UNL     1      -7.837  19.312  68.390  1.00  0.00    -0.341 C  
HETATM   37  H1  UNL     1      -6.198  20.018  69.425  1.00  0.00     0.000 HD 
HETATM   38  H2  UNL     1      -7.125  21.249  68.724  1.00  0.00     0.000 HD 
HETATM   39  C   UNL     1      -7.293  17.888  68.200  1.00  0.00    -0.241 C  
HETATM   40  N   UNL     1      -6.761  20.301  68.622  1.00  0.00    -0.288 NA 
HETATM   41  H   UNL     1      -8.647  21.679  67.603  1.00  0.00     0.000 HD 
HETATM   42  O   UNL     1      -6.635  17.403  69.375  1.00  0.00    -0.244 OA 
BRANCH  32  43
HETATM   43  C   UNL     1     -10.660  19.006  65.715  1.00  0.00    -0.318 C  
HETATM   44  O   UNL     1     -10.808  17.842  64.889  1.00  0.00    -0.815 OA 
HETATM   45  H   UNL     1     -11.380  18.054  64.161  1.00  0.00     0.000 HD 
ENDBRANCH  32  43
ENDBRANCH  29  30
ENDBRANCH  23  29
ENDBRANCH  14  15
ENDBRANCH   8  14
TORSDOF 6
ENDMDL
MODEL      115
REMARK 921   NORMALIZED FREE ENERGY PREDICTED BY IDOCK:   -5.46 KCAL/MOL
REMARK 922        TOTAL FREE ENERGY PREDICTED BY IDOCK:   -8.93 KCAL/MOL
REMARK 923 INTER-LIGAND FREE ENERGY PREDICTED BY IDOCK:   -8.35 KCAL/MOL
REMARK 924 INTRA-LIGAND FREE ENERGY PREDICTED BY IDOCK:   -0.58 KCAL/MOL
REMARK 927      BINDING AFFINITY PREDICTED BY RF-SCORE:    0.00 PKD
ROOT
HETATM    1  C   UNL     1     -10.691  12.726  68.126  1.00  0.00    -0.226 C  
HETATM    2  C   UNL     1     -11.829  13.652  67.679  1.00  0.00    -0.404 C  
HETATM    3  N   UNL     1     -10.919  12.460  69.563  1.00  0.00    -0.461 NA 
HETATM    4  H1  UNL     1     -10.162  11.844  69.861  1.00  0.00     0.000 HD 
HETATM    5  C   UNL     1     -11.936  13.782  66.177  1.00  0.00    -0.449 C  
HETATM    6  H2  UNL     1     -11.847  12.088  69.766  1.00  0.00     0.000 HD 
HETATM    7  C   UNL     1     -11.830  12.432  65.470  1.00  0.00    -0.412 C  
HETATM    8  C   UNL     1     -10.453  11.443  67.222  1.00  0.00    -0.206 C  
HETATM    9  O   UNL     1     -10.643  11.709  65.832  1.00  0.00    -0.255 OA 
ENDROOT
BRANCH   7  10
HETATM   10  C   UNL     1     -11.769  12.710  63.943  1.00  0.00    -0.457 C  
HETATM   11  N   UNL     1     -11.518  11.504  63.154  1.00  0.00    -0.867 NA 
HETATM   12  H1  UNL     1     -11.479  11.687  62.151  1.00  0.00     0.000 HD 
HETATM   13  H2  UNL     1     -12.206  10.780  63.366  1.00  0.00     0.000 HD 
ENDBRANCH   7  10
BRANCH   8  14
HETATM   14  O   UNL     1     -11.196  10.330  67.719  1.00  0.00    -0.306 OA 
BRANCH  14  15
HETATM   15  C   UNL     1     -10.532   9.191  68.322  1.00  0.00    -0.208 C  
HETATM   16  C   UNL     1     -10.700   8.088  67.241  1.00  0.00    -0.210 C  
HETATM   17  N   UNL     1      -9.970   8.435  66.007  1.00  0.00    -0.462 NA 
HETATM   18  C   UNL     1     -10.239   6.695  67.622  1.00  0.00    -0.220 C  
HETATM   19  H2  UNL     1      -8.987   8.629  66.195  1.00  0.00     0.000 HD 
HETATM   20  H1  UNL     1     -10.080   7.710  65.297  1.00  0.00     0.000 HD 
HETATM   21  C   UNL     1     -10.785   6.221  68.959  1.00  0.00    -0.302 C  
HETATM   22  N   UNL     1     -10.259   4.854  69.109  1.00  0.00    -0.165 NA 
HETATM   23  C   UNL     1     -10.382   7.253  70.058  1.00  0.00    -0.213 C  
HETATM   24  C   UNL     1     -11.030   8.661  69.719  1.00  0.00    -0.127 C  
HETATM   25  O   UNL     1     -10.678   9.606  70.746  1.00  0.00    -0.288 OA 
HETATM   26  H2  UNL     1      -9.244   4.788  69.027  1.00  0.00     0.000 HD 
HETATM   27  H1  UNL     1     -10.625   4.536  70.007  1.00  0.00     0.000 HD 
HETATM   28  H   UNL     1     -10.979   9.286  71.589  1.00  0.00     0.000 HD 
BRANCH  23  29
HETATM   29  O   UNL     1     -10.697   6.799  71.413  1.00  0.00    -0.220 OA 
BRANCH  29  30
HETATM   30  C   UNL     1      -9.545   6.193  72.065  1.00  0.00    -0.152 C  
HETATM   31  O   UNL     1      -8.416   6.143  71.183  1.00  0.00    -0.123 OA 
HETATM   32  C   UNL     1      -7.909   7.458  70.894  1.00  0.00    -0.096 C  
HETATM   33  C   UNL     1      -7.305   8.049  72.169  1.00  0.00    -0.090 C  
HETATM   34  H   UNL     1     -10.034   7.348  75.124  1.00  0.00     0.000 HD 
HETATM   35  O   UNL     1      -6.720   9.329  71.926  1.00  0.00    -0.293 OA 
HETATM   36  C   UNL     1      -8.408   8.169  73.248  1.00  0.00    -0.214 C  
HETATM   37  H1  UNL     1      -8.546   8.733  75.227  1.00  0.00     0.000 HD 
HETATM   38  H2  UNL     1      -7.307   9.529  74.391  1.00  0.00     0.000 HD 
HETATM   39  C   UNL     1      -9.149   6.834  73.421  1.00  0.00    -0.131 C  
HETATM   40  N   UNL     1      -7.818   8.655  74.516  1.00  0.00    -0.370 NA 
HETATM   41  H   UNL     1      -6.344   9.697  72.717  1.00  0.00     0.000 HD 
HETATM   42  O   UNL     1     -10.276   6.955  74.294  1.00  0.00    -0.349 OA 
BRANCH  32  43
HETATM   43  C   UNL     1      -6.906   7.325  69.748  1.00  0.00    -0.053 C  
HETATM   44  O   UNL     1      -5.609   7.049  70.296  1.00  0.00    -0.023 OA 
HETATM   45  H   UNL     1      -4.986   6.967  69.584  1.00  0.00     0.000 HD 
ENDBRANCH  32  43
ENDBRANCH  29  30
ENDBRANCH  23  29
ENDBRANCH  14  15
ENDBRANCH   8  14
TORSDOF 6
ENDMDL
MODEL      116
REMARK 921   NORMALIZED FREE ENERGY PREDICTED BY IDOCK:   -5.45 KCAL/MOL
REMARK 922        TOTAL FREE ENERGY PREDICTED BY IDOCK:   -8.92 KCAL/MOL
REMARK 923 INTER-LIGAND FREE ENERGY PREDICTED BY IDOCK:   -7.82 KCAL/MOL
REMARK 924 INTRA-LIGAND FREE ENERGY PREDICTED BY IDOCK:   -1.10 KCAL/MOL
REMARK 927      BINDING AFFINITY PREDICTED BY RF-SCORE:    0.00 PKD
ROOT
HETATM    1  C   UNL     1      -8.482   7.480  71.032  1.00  0.00    -0.117 C  
HETATM    2  C   UNL     1      -9.794   6.689  71.110  1.00  0.00    -0.195 C  
HETATM    3  N   UNL     1      -7.530   6.626  70.289  1.00  0.00    -0.092 NA 
HETATM    4  H1  UNL     1      -6.658   7.152  70.237  1.00  0.00     0.000 HD 
HETATM    5  C   UNL     1     -10.968   7.525  71.564  1.00  0.00    -0.256 C  
HETATM    6  H2  UNL     1      -7.879   6.328  69.377  1.00  0.00     0.000 HD 
HETATM    7  C   UNL     1     -11.022   8.879  70.857  1.00  0.00    -0.266 C  
HETATM    8  C   UNL     1      -8.610   8.975  70.514  1.00  0.00    -0.201 C  
HETATM    9  O   UNL     1      -9.796   9.617  70.981  1.00  0.00    -0.226 OA 
ENDROOT
BRANCH   7  10
HETATM   10  C   UNL     1     -12.148   9.711  71.529  1.00  0.00    -0.401 C  
HETATM   11  N   UNL     1     -12.526  10.891  70.753  1.00  0.00    -0.365 NA 
HETATM   12  H1  UNL     1     -13.265  11.437  71.195  1.00  0.00     0.000 HD 
HETATM   13  H2  UNL     1     -12.782  10.634  69.799  1.00  0.00     0.000 HD 
ENDBRANCH   7  10
BRANCH   8  14
HETATM   14  O   UNL     1      -8.421   9.037  69.100  1.00  0.00    -0.123 OA 
BRANCH  14  15
HETATM   15  C   UNL     1      -9.203   9.936  68.275  1.00  0.00    -0.129 C  
HETATM   16  C   UNL     1      -9.549   9.054  67.044  1.00  0.00    -0.176 C  
HETATM   17  N   UNL     1     -10.415   7.922  67.425  1.00  0.00    -0.310 NA 
HETATM   18  C   UNL     1     -10.251   9.747  65.893  1.00  0.00    -0.245 C  
HETATM   19  H2  UNL     1     -11.256   8.238  67.908  1.00  0.00     0.000 HD 
HETATM   20  H1  UNL     1     -10.642   7.342  66.617  1.00  0.00     0.000 HD 
HETATM   21  C   UNL     1      -9.569  11.034  65.455  1.00  0.00    -0.222 C  
HETATM   22  N   UNL     1     -10.375  11.510  64.319  1.00  0.00    -0.295 NA 
HETATM   23  C   UNL     1      -9.460  11.987  66.686  1.00  0.00    -0.217 C  
HETATM   24  C   UNL     1      -8.569  11.298  67.804  1.00  0.00    -0.126 C  
HETATM   25  O   UNL     1      -8.448  12.188  68.929  1.00  0.00    -0.360 OA 
HETATM   26  H2  UNL     1     -11.368  11.616  64.528  1.00  0.00     0.000 HD 
HETATM   27  H1  UNL     1      -9.918  12.373  64.025  1.00  0.00     0.000 HD 
HETATM   28  H   UNL     1      -8.065  13.010  68.645  1.00  0.00     0.000 HD 
BRANCH  23  29
HETATM   29  O   UNL     1      -8.988  13.325  66.334  1.00  0.00    -0.125 OA 
BRANCH  29  30
HETATM   30  C   UNL     1      -9.501  14.340  67.243  1.00  0.00    -0.220 C  
HETATM   31  O   UNL     1      -8.434  15.045  67.889  1.00  0.00    -0.140 OA 
HETATM   32  C   UNL     1      -7.695  15.857  66.961  1.00  0.00    -0.233 C  
HETATM   33  C   UNL     1      -8.592  16.995  66.471  1.00  0.00    -0.270 C  
HETATM   34  H   UNL     1     -12.165  15.263  65.516  1.00  0.00     0.000 HD 
HETATM   35  O   UNL     1      -7.888  17.879  65.597  1.00  0.00    -0.534 OA 
HETATM   36  C   UNL     1      -9.819  16.398  65.741  1.00  0.00    -0.271 C  
HETATM   37  H1  UNL     1     -11.551  17.090  64.860  1.00  0.00     0.000 HD 
HETATM   38  H2  UNL     1     -10.274  18.199  64.783  1.00  0.00     0.000 HD 
HETATM   39  C   UNL     1     -10.509  15.335  66.611  1.00  0.00    -0.290 C  
HETATM   40  N   UNL     1     -10.742  17.484  65.340  1.00  0.00    -0.586 NA 
HETATM   41  H   UNL     1      -8.444  18.585  65.293  1.00  0.00     0.000 HD 
HETATM   42  O   UNL     1     -11.548  14.653  65.903  1.00  0.00    -0.354 OA 
BRANCH  32  43
HETATM   43  C   UNL     1      -6.430  16.340  67.673  1.00  0.00    -0.158 C  
HETATM   44  O   UNL     1      -5.483  16.776  66.688  1.00  0.00    -0.317 OA 
HETATM   45  H   UNL     1      -4.697  17.076  67.131  1.00  0.00     0.000 HD 
ENDBRANCH  32  43
ENDBRANCH  29  30
ENDBRANCH  23  29
ENDBRANCH  14  15
ENDBRANCH   8  14
TORSDOF 6
ENDMDL
MODEL      117
REMARK 921   NORMALIZED FREE ENERGY PREDICTED BY IDOCK:   -5.43 KCAL/MOL
REMARK 922        TOTAL FREE ENERGY PREDICTED BY IDOCK:   -8.89 KCAL/MOL
REMARK 923 INTER-LIGAND FREE ENERGY PREDICTED BY IDOCK:   -8.66 KCAL/MOL
REMARK 924 INTRA-LIGAND FREE ENERGY PREDICTED BY IDOCK:   -0.24 KCAL/MOL
REMARK 927      BINDING AFFINITY PREDICTED BY RF-SCORE:    0.00 PKD
ROOT
HETATM    1  C   UNL     1     -10.608  18.579  67.322  1.00  0.00    -0.413 C  
HETATM    2  C   UNL     1      -9.967  18.670  68.712  1.00  0.00    -0.427 C  
HETATM    3  N   UNL     1      -9.739  19.362  66.416  1.00  0.00    -0.364 NA 
HETATM    4  H1  UNL     1     -10.165  19.302  65.492  1.00  0.00     0.000 HD 
HETATM    5  C   UNL     1     -10.544  17.682  69.700  1.00  0.00     0.430 C  
HETATM    6  H2  UNL     1      -8.763  19.066  66.433  1.00  0.00     0.000 HD 
HETATM    7  C   UNL     1     -10.692  16.285  69.101  1.00  0.00    -0.305 C  
HETATM    8  C   UNL     1     -10.971  17.116  66.826  1.00  0.00     0.170 C  
HETATM    9  O   UNL     1     -11.451  16.283  67.881  1.00  0.00    -0.218 OA 
ENDROOT
BRANCH   7  10
HETATM   10  C   UNL     1     -11.455  15.413  70.136  1.00  0.00    -0.317 C  
HETATM   11  N   UNL     1     -12.906  15.456  69.957  1.00  0.00    -0.642 NA 
HETATM   12  H1  UNL     1     -13.407  14.883  70.637  1.00  0.00     0.000 HD 
HETATM   13  H2  UNL     1     -13.164  15.199  69.004  1.00  0.00     0.000 HD 
ENDBRANCH   7  10
BRANCH   8  14
HETATM   14  O   UNL     1      -9.894  16.556  66.073  1.00  0.00    -0.309 OA 
BRANCH  14  15
HETATM   15  C   UNL     1     -10.009  15.250  65.452  1.00  0.00    -0.329 C  
HETATM   16  C   UNL     1     -11.449  15.277  64.870  1.00  0.00    -0.343 C  
HETATM   17  N   UNL     1     -11.578  16.295  63.810  1.00  0.00    -1.482 NA 
HETATM   18  C   UNL     1     -11.957  13.981  64.270  1.00  0.00    -0.463 C  
HETATM   19  H2  UNL     1     -10.880  16.164  63.078  1.00  0.00     0.000 HD 
HETATM   20  H1  UNL     1     -12.524  16.312  63.428  1.00  0.00     0.000 HD 
HETATM   21  C   UNL     1     -11.769  12.778  65.179  1.00  0.00    -0.360 C  
HETATM   22  N   UNL     1     -12.361  11.655  64.433  1.00  0.00    -0.048 NA 
HETATM   23  C   UNL     1     -10.256  12.658  65.545  1.00  0.00    -0.281 C  
HETATM   24  C   UNL     1      -9.802  13.960  66.330  1.00  0.00    -0.306 C  
HETATM   25  O   UNL     1      -8.414  13.838  66.688  1.00  0.00    -0.435 OA 
HETATM   26  H2  UNL     1     -11.979  11.532  63.495  1.00  0.00     0.000 HD 
HETATM   27  H1  UNL     1     -12.234  10.848  65.043  1.00  0.00     0.000 HD 
HETATM   28  H   UNL     1      -8.289  13.058  67.218  1.00  0.00     0.000 HD 
BRANCH  23  29
HETATM   29  O   UNL     1      -9.938  11.425  66.264  1.00  0.00    -0.211 OA 
BRANCH  29  30
HETATM   30  C   UNL     1     -10.263  10.240  65.483  1.00  0.00    -0.238 C  
HETATM   31  O   UNL     1      -9.555  10.230  64.237  1.00  0.00    -0.280 OA 
HETATM   32  C   UNL     1      -8.141  10.051  64.430  1.00  0.00    -0.156 C  
HETATM   33  C   UNL     1      -7.885   8.642  64.966  1.00  0.00    -0.116 C  
HETATM   34  H   UNL     1     -10.601   8.080  67.964  1.00  0.00     0.000 HD 
HETATM   35  O   UNL     1      -6.488   8.382  65.111  1.00  0.00    -0.055 OA 
HETATM   36  C   UNL     1      -8.598   8.478  66.331  1.00  0.00    -0.125 C  
HETATM   37  H1  UNL     1      -8.905   6.982  67.717  1.00  0.00     0.000 HD 
HETATM   38  H2  UNL     1      -7.454   6.811  66.861  1.00  0.00     0.000 HD 
HETATM   39  C   UNL     1     -10.074   8.893  66.229  1.00  0.00    -0.214 C  
HETATM   40  N   UNL     1      -8.435   7.090  66.818  1.00  0.00    -0.115 NA 
HETATM   41  H   UNL     1      -6.329   7.507  65.444  1.00  0.00     0.000 HD 
HETATM   42  O   UNL     1     -10.717   8.905  67.506  1.00  0.00    -0.258 OA 
BRANCH  32  43
HETATM   43  C   UNL     1      -7.452  10.331  63.094  1.00  0.00    -0.125 C  
HETATM   44  O   UNL     1      -6.086  10.692  63.344  1.00  0.00    -0.322 OA 
HETATM   45  H   UNL     1      -5.659  10.866  62.513  1.00  0.00     0.000 HD 
ENDBRANCH  32  43
ENDBRANCH  29  30
ENDBRANCH  23  29
ENDBRANCH  14  15
ENDBRANCH   8  14
TORSDOF 6
ENDMDL
MODEL      118
REMARK 921   NORMALIZED FREE ENERGY PREDICTED BY IDOCK:   -5.42 KCAL/MOL
REMARK 922        TOTAL FREE ENERGY PREDICTED BY IDOCK:   -8.87 KCAL/MOL
REMARK 923 INTER-LIGAND FREE ENERGY PREDICTED BY IDOCK:   -7.59 KCAL/MOL
REMARK 924 INTRA-LIGAND FREE ENERGY PREDICTED BY IDOCK:   -1.29 KCAL/MOL
REMARK 927      BINDING AFFINITY PREDICTED BY RF-SCORE:    0.00 PKD
ROOT
HETATM    1  C   UNL     1     -13.267  14.675  70.943  1.00  0.00    -0.337 C  
HETATM    2  C   UNL     1     -13.416  14.224  72.401  1.00  0.00    -0.586 C  
HETATM    3  N   UNL     1     -12.751  16.061  70.992  1.00  0.00    -0.567 NA 
HETATM    4  H1  UNL     1     -12.652  16.361  70.023  1.00  0.00     0.000 HD 
HETATM    5  C   UNL     1     -13.639  12.736  72.544  1.00  0.00    -0.378 C  
HETATM    6  H2  UNL     1     -11.893  16.156  71.536  1.00  0.00     0.000 HD 
HETATM    7  C   UNL     1     -12.689  11.922  71.666  1.00  0.00    -0.235 C  
HETATM    8  C   UNL     1     -12.472  13.683  69.993  1.00  0.00    -0.204 C  
HETATM    9  O   UNL     1     -12.743  12.312  70.285  1.00  0.00    -0.004 OA 
ENDROOT
BRANCH   7  10
HETATM   10  C   UNL     1     -13.130  10.436  71.758  1.00  0.00    -0.462 C  
HETATM   11  N   UNL     1     -12.574   9.610  70.686  1.00  0.00    -0.507 NA 
HETATM   12  H1  UNL     1     -12.863   8.633  70.747  1.00  0.00     0.000 HD 
HETATM   13  H2  UNL     1     -11.557   9.687  70.656  1.00  0.00     0.000 HD 
ENDBRANCH   7  10
BRANCH   8  14
HETATM   14  O   UNL     1     -11.084  14.018  69.961  1.00  0.00    -0.091 OA 
BRANCH  14  15
HETATM   15  C   UNL     1     -10.288  13.813  68.766  1.00  0.00    -0.192 C  
HETATM   16  C   UNL     1     -10.914  14.821  67.763  1.00  0.00    -0.291 C  
HETATM   17  N   UNL     1     -10.710  16.213  68.209  1.00  0.00    -0.292 NA 
HETATM   18  C   UNL     1     -10.403  14.760  66.338  1.00  0.00    -0.297 C  
HETATM   19  H2  UNL     1      -9.724  16.412  68.375  1.00  0.00     0.000 HD 
HETATM   20  H1  UNL     1     -11.121  16.875  67.550  1.00  0.00     0.000 HD 
HETATM   21  C   UNL     1     -10.403  13.356  65.755  1.00  0.00    -0.293 C  
HETATM   22  N   UNL     1      -9.921  13.529  64.375  1.00  0.00    -0.721 NA 
HETATM   23  C   UNL     1      -9.557  12.428  66.683  1.00  0.00    -0.229 C  
HETATM   24  C   UNL     1     -10.223  12.378  68.122  1.00  0.00    -0.225 C  
HETATM   25  O   UNL     1      -9.456  11.503  68.969  1.00  0.00    -0.400 OA 
HETATM   26  H2  UNL     1      -9.024  14.009  64.305  1.00  0.00     0.000 HD 
HETATM   27  H1  UNL     1      -9.921  12.587  63.984  1.00  0.00     0.000 HD 
HETATM   28  H   UNL     1      -9.417  10.637  68.580  1.00  0.00     0.000 HD 
BRANCH  23  29
HETATM   29  O   UNL     1      -9.337  11.098  66.116  1.00  0.00    -0.192 OA 
BRANCH  29  30
HETATM   30  C   UNL     1      -8.001  10.961  65.553  1.00  0.00     0.002 C  
HETATM   31  O   UNL     1      -6.996  11.321  66.510  1.00  0.00    -0.140 OA 
HETATM   32  C   UNL     1      -6.935  10.381  67.596  1.00  0.00    -0.083 C  
HETATM   33  C   UNL     1      -6.421   9.042  67.066  1.00  0.00    -0.061 C  
HETATM   34  H   UNL     1      -8.528   8.313  63.645  1.00  0.00     0.000 HD 
HETATM   35  O   UNL     1      -6.270   8.085  68.117  1.00  0.00    -0.044 OA 
HETATM   36  C   UNL     1      -7.404   8.504  65.999  1.00  0.00    -0.081 C  
HETATM   37  H1  UNL     1      -7.520   6.898  64.709  1.00  0.00     0.000 HD 
HETATM   38  H2  UNL     1      -6.660   6.554  66.125  1.00  0.00     0.000 HD 
HETATM   39  C   UNL     1      -7.692   9.573  64.934  1.00  0.00    -0.115 C  
HETATM   40  N   UNL     1      -6.872   7.252  65.412  1.00  0.00    -0.051 NA 
HETATM   41  H   UNL     1      -5.951   7.253  67.789  1.00  0.00     0.000 HD 
HETATM   42  O   UNL     1      -8.717   9.163  64.025  1.00  0.00    -0.200 OA 
BRANCH  32  43
HETATM   43  C   UNL     1      -6.048  10.988  68.684  1.00  0.00    -0.043 C  
HETATM   44  O   UNL     1      -6.874  11.367  69.795  1.00  0.00    -0.265 OA 
HETATM   45  H   UNL     1      -6.323  11.745  70.471  1.00  0.00     0.000 HD 
ENDBRANCH  32  43
ENDBRANCH  29  30
ENDBRANCH  23  29
ENDBRANCH  14  15
ENDBRANCH   8  14
TORSDOF 6
ENDMDL
MODEL      119
REMARK 921   NORMALIZED FREE ENERGY PREDICTED BY IDOCK:   -5.41 KCAL/MOL
REMARK 922        TOTAL FREE ENERGY PREDICTED BY IDOCK:   -8.86 KCAL/MOL
REMARK 923 INTER-LIGAND FREE ENERGY PREDICTED BY IDOCK:   -7.99 KCAL/MOL
REMARK 924 INTRA-LIGAND FREE ENERGY PREDICTED BY IDOCK:   -0.87 KCAL/MOL
REMARK 927      BINDING AFFINITY PREDICTED BY RF-SCORE:    0.00 PKD
ROOT
HETATM    1  C   UNL     1     -10.003   6.959  68.050  1.00  0.00    -0.154 C  
HETATM    2  C   UNL     1     -10.962   6.018  68.790  1.00  0.00    -0.384 C  
HETATM    3  N   UNL     1     -10.503   7.044  66.660  1.00  0.00    -0.495 NA 
HETATM    4  H1  UNL     1      -9.865   7.669  66.168  1.00  0.00     0.000 HD 
HETATM    5  C   UNL     1     -10.790   6.053  70.291  1.00  0.00    -0.398 C  
HETATM    6  H2  UNL     1     -11.480   7.329  66.596  1.00  0.00     0.000 HD 
HETATM    7  C   UNL     1     -10.675   7.479  70.828  1.00  0.00    -0.229 C  
HETATM    8  C   UNL     1      -9.717   8.349  68.760  1.00  0.00    -0.164 C  
HETATM    9  O   UNL     1      -9.636   8.231  70.181  1.00  0.00    -0.166 OA 
ENDROOT
BRANCH   7  10
HETATM   10  C   UNL     1     -10.322   7.382  72.337  1.00  0.00    -0.222 C  
HETATM   11  N   UNL     1     -11.459   7.676  73.208  1.00  0.00    -0.638 NA 
HETATM   12  H1  UNL     1     -11.227   7.612  74.199  1.00  0.00     0.000 HD 
HETATM   13  H2  UNL     1     -12.256   7.081  72.981  1.00  0.00     0.000 HD 
ENDBRANCH   7  10
BRANCH   8  14
HETATM   14  O   UNL     1     -10.628   9.348  68.301  1.00  0.00    -0.222 OA 
BRANCH  14  15
HETATM   15  C   UNL     1     -10.566  10.708  68.799  1.00  0.00    -0.206 C  
HETATM   16  C   UNL     1     -12.028  10.968  69.258  1.00  0.00    -0.339 C  
HETATM   17  N   UNL     1     -12.398  10.090  70.385  1.00  0.00    -0.474 NA 
HETATM   18  C   UNL     1     -12.354  12.379  69.705  1.00  0.00    -0.040 C  
HETATM   19  H2  UNL     1     -11.740  10.176  71.159  1.00  0.00     0.000 HD 
HETATM   20  H1  UNL     1     -13.357  10.260  70.686  1.00  0.00     0.000 HD 
HETATM   21  C   UNL     1     -11.905  13.445  68.717  1.00  0.00    -0.351 C  
HETATM   22  N   UNL     1     -12.352  14.713  69.316  1.00  0.00    -0.560 NA 
HETATM   23  C   UNL     1     -10.372  13.286  68.472  1.00  0.00    -0.239 C  
HETATM   24  C   UNL     1     -10.087  11.859  67.838  1.00  0.00    -0.192 C  
HETATM   25  O   UNL     1      -8.676  11.724  67.590  1.00  0.00    -0.148 OA 
HETATM   26  H2  UNL     1     -12.021  14.863  70.269  1.00  0.00     0.000 HD 
HETATM   27  H1  UNL     1     -12.051  15.429  68.654  1.00  0.00     0.000 HD 
HETATM   28  H   UNL     1      -8.387  12.419  67.009  1.00  0.00     0.000 HD 
BRANCH  23  29
HETATM   29  O   UNL     1      -9.803  14.378  67.682  1.00  0.00    -0.220 OA 
BRANCH  29  30
HETATM   30  C   UNL     1      -9.472  15.531  68.507  1.00  0.00    -0.200 C  
HETATM   31  O   UNL     1      -8.064  15.597  68.764  1.00  0.00    -0.144 OA 
HETATM   32  C   UNL     1      -7.318  15.891  67.570  1.00  0.00    -0.171 C  
HETATM   33  C   UNL     1      -7.638  17.317  67.122  1.00  0.00    -0.190 C  
HETATM   34  H   UNL     1     -11.703  17.660  67.315  1.00  0.00     0.000 HD 
HETATM   35  O   UNL     1      -6.871  17.692  65.976  1.00  0.00    -0.270 OA 
HETATM   36  C   UNL     1      -9.149  17.425  66.803  1.00  0.00    -0.260 C  
HETATM   37  H1  UNL     1     -10.487  18.893  66.245  1.00  0.00     0.000 HD 
HETATM   38  H2  UNL     1      -8.912  19.181  65.695  1.00  0.00     0.000 HD 
HETATM   39  C   UNL     1      -9.993  16.890  67.971  1.00  0.00    -0.279 C  
HETATM   40  N   UNL     1      -9.490  18.823  66.455  1.00  0.00    -0.340 NA 
HETATM   41  H   UNL     1      -7.069  18.578  65.698  1.00  0.00     0.000 HD 
HETATM   42  O   UNL     1     -11.384  16.827  67.643  1.00  0.00    -0.068 OA 
BRANCH  32  43
HETATM   43  C   UNL     1      -5.838  15.666  67.882  1.00  0.00    -0.139 C  
HETATM   44  O   UNL     1      -5.726  14.645  68.884  1.00  0.00    -0.084 OA 
HETATM   45  H   UNL     1      -4.806  14.506  69.077  1.00  0.00     0.000 HD 
ENDBRANCH  32  43
ENDBRANCH  29  30
ENDBRANCH  23  29
ENDBRANCH  14  15
ENDBRANCH   8  14
TORSDOF 6
ENDMDL
MODEL      120
REMARK 921   NORMALIZED FREE ENERGY PREDICTED BY IDOCK:   -5.40 KCAL/MOL
REMARK 922        TOTAL FREE ENERGY PREDICTED BY IDOCK:   -8.86 KCAL/MOL
REMARK 923 INTER-LIGAND FREE ENERGY PREDICTED BY IDOCK:   -8.90 KCAL/MOL
REMARK 924 INTRA-LIGAND FREE ENERGY PREDICTED BY IDOCK:    0.05 KCAL/MOL
REMARK 927      BINDING AFFINITY PREDICTED BY RF-SCORE:    0.00 PKD
ROOT
HETATM    1  C   UNL     1     -11.601  13.656  66.529  1.00  0.00    -0.366 C  
HETATM    2  C   UNL     1     -12.431  13.871  65.258  1.00  0.00    -0.504 C  
HETATM    3  N   UNL     1     -12.483  14.014  67.662  1.00  0.00    -0.445 NA 
HETATM    4  H1  UNL     1     -11.931  13.871  68.507  1.00  0.00     0.000 HD 
HETATM    5  C   UNL     1     -11.800  13.266  64.025  1.00  0.00    -0.512 C  
HETATM    6  H2  UNL     1     -13.368  13.506  67.664  1.00  0.00     0.000 HD 
HETATM    7  C   UNL     1     -11.280  11.851  64.276  1.00  0.00    -0.357 C  
HETATM    8  C   UNL     1     -10.874  12.250  66.647  1.00  0.00    -0.258 C  
HETATM    9  O   UNL     1     -10.378  11.783  65.392  1.00  0.00    -0.247 OA 
ENDROOT
BRANCH   7  10
HETATM   10  C   UNL     1     -10.500  11.410  63.007  1.00  0.00    -0.161 C  
HETATM   11  N   UNL     1      -9.094  11.814  63.033  1.00  0.00    -0.656 NA 
HETATM   12  H1  UNL     1      -8.582  11.525  62.200  1.00  0.00     0.000 HD 
HETATM   13  H2  UNL     1      -8.634  11.479  63.879  1.00  0.00     0.000 HD 
ENDBRANCH   7  10
BRANCH   8  14
HETATM   14  O   UNL     1     -11.695  11.313  67.344  1.00  0.00    -0.580 OA 
BRANCH  14  15
HETATM   15  C   UNL     1     -11.115  10.232  68.117  1.00  0.00    -0.264 C  
HETATM   16  C   UNL     1     -11.412  10.663  69.580  1.00  0.00    -0.291 C  
HETATM   17  N   UNL     1     -12.863  10.680  69.847  1.00  0.00    -0.467 NA 
HETATM   18  C   UNL     1     -10.797   9.810  70.672  1.00  0.00    -0.396 C  
HETATM   19  H2  UNL     1     -13.296   9.784  69.624  1.00  0.00     0.000 HD 
HETATM   20  H1  UNL     1     -13.059  10.963  70.807  1.00  0.00     0.000 HD 
HETATM   21  C   UNL     1      -9.310   9.561  70.479  1.00  0.00    -0.237 C  
HETATM   22  N   UNL     1      -8.915   8.765  71.653  1.00  0.00    -0.254 NA 
HETATM   23  C   UNL     1      -9.090   8.905  69.080  1.00  0.00    -0.141 C  
HETATM   24  C   UNL     1      -9.584   9.902  67.950  1.00  0.00    -0.138 C  
HETATM   25  O   UNL     1      -9.358   9.307  66.659  1.00  0.00    -0.152 OA 
HETATM   26  H2  UNL     1      -9.465   7.917  71.786  1.00  0.00     0.000 HD 
HETATM   27  H1  UNL     1      -7.917   8.597  71.524  1.00  0.00     0.000 HD 
HETATM   28  H   UNL     1      -8.434   9.107  66.558  1.00  0.00     0.000 HD 
BRANCH  23  29
HETATM   29  O   UNL     1      -7.715   8.452  68.871  1.00  0.00    -0.100 OA 
BRANCH  29  30
HETATM   30  C   UNL     1      -7.627   7.001  68.783  1.00  0.00    -0.105 C  
HETATM   31  O   UNL     1      -8.668   6.372  69.541  1.00  0.00    -0.131 OA 
HETATM   32  C   UNL     1      -9.963   6.605  68.961  1.00  0.00    -0.153 C  
HETATM   33  C   UNL     1     -10.046   5.876  67.619  1.00  0.00    -0.163 C  
HETATM   34  H   UNL     1      -6.571   6.749  65.660  1.00  0.00     0.000 HD 
HETATM   35  O   UNL     1     -11.339   6.012  67.027  1.00  0.00    -0.543 OA 
HETATM   36  C   UNL     1      -8.966   6.439  66.665  1.00  0.00    -0.140 C  
HETATM   37  H1  UNL     1      -8.262   6.052  64.764  1.00  0.00     0.000 HD 
HETATM   38  H2  UNL     1      -9.898   5.666  64.961  1.00  0.00     0.000 HD 
HETATM   39  C   UNL     1      -7.585   6.435  67.340  1.00  0.00    -0.100 C  
HETATM   40  N   UNL     1      -8.974   5.680  65.393  1.00  0.00    -0.117 NA 
HETATM   41  H   UNL     1     -11.391   5.559  66.194  1.00  0.00     0.000 HD 
HETATM   42  O   UNL     1      -6.597   7.096  66.544  1.00  0.00    -0.049 OA 
BRANCH  32  43
HETATM   43  C   UNL     1     -11.013   6.144  69.973  1.00  0.00    -0.372 C  
HETATM   44  O   UNL     1     -12.255   6.800  69.683  1.00  0.00    -0.504 OA 
HETATM   45  H   UNL     1     -12.907   6.514  70.311  1.00  0.00     0.000 HD 
ENDBRANCH  32  43
ENDBRANCH  29  30
ENDBRANCH  23  29
ENDBRANCH  14  15
ENDBRANCH   8  14
TORSDOF 6
ENDMDL
MODEL      121
REMARK 921   NORMALIZED FREE ENERGY PREDICTED BY IDOCK:   -5.40 KCAL/MOL
REMARK 922        TOTAL FREE ENERGY PREDICTED BY IDOCK:   -8.85 KCAL/MOL
REMARK 923 INTER-LIGAND FREE ENERGY PREDICTED BY IDOCK:   -7.16 KCAL/MOL
REMARK 924 INTRA-LIGAND FREE ENERGY PREDICTED BY IDOCK:   -1.69 KCAL/MOL
REMARK 927      BINDING AFFINITY PREDICTED BY RF-SCORE:    0.00 PKD
ROOT
HETATM    1  C   UNL     1      -7.316   8.046  66.570  1.00  0.00    -0.084 C  
HETATM    2  C   UNL     1      -8.575   7.365  67.119  1.00  0.00    -0.118 C  
HETATM    3  N   UNL     1      -7.321   7.805  65.110  1.00  0.00    -0.068 NA 
HETATM    4  H1  UNL     1      -6.484   8.258  64.745  1.00  0.00     0.000 HD 
HETATM    5  C   UNL     1      -8.898   7.765  68.540  1.00  0.00    -0.130 C  
HETATM    6  H2  UNL     1      -8.180   8.109  64.651  1.00  0.00     0.000 HD 
HETATM    7  C   UNL     1      -8.782   9.273  68.757  1.00  0.00    -0.132 C  
HETATM    8  C   UNL     1      -7.102   9.555  67.012  1.00  0.00    -0.086 C  
HETATM    9  O   UNL     1      -7.502   9.792  68.363  1.00  0.00    -0.081 OA 
ENDROOT
BRANCH   7  10
HETATM   10  C   UNL     1      -8.954   9.539  70.278  1.00  0.00    -0.248 C  
HETATM   11  N   UNL     1      -7.699   9.431  71.021  1.00  0.00    -0.323 NA 
HETATM   12  H1  UNL     1      -7.812   9.606  72.019  1.00  0.00     0.000 HD 
HETATM   13  H2  UNL     1      -6.985  10.042  70.622  1.00  0.00     0.000 HD 
ENDBRANCH   7  10
BRANCH   8  14
HETATM   14  O   UNL     1      -7.678  10.448  66.059  1.00  0.00    -0.124 OA 
BRANCH  14  15
HETATM   15  C   UNL     1      -8.712  11.390  66.441  1.00  0.00    -0.185 C  
HETATM   16  C   UNL     1      -9.596  11.459  65.165  1.00  0.00    -0.229 C  
HETATM   17  N   UNL     1     -10.244  10.161  64.894  1.00  0.00    -0.276 NA 
HETATM   18  C   UNL     1     -10.709  12.488  65.170  1.00  0.00    -0.323 C  
HETATM   19  H2  UNL     1     -10.774   9.831  65.701  1.00  0.00     0.000 HD 
HETATM   20  H1  UNL     1     -10.825  10.206  64.056  1.00  0.00     0.000 HD 
HETATM   21  C   UNL     1     -10.245  13.878  65.575  1.00  0.00    -0.331 C  
HETATM   22  N   UNL     1     -11.453  14.714  65.471  1.00  0.00    -0.340 NA 
HETATM   23  C   UNL     1      -9.571  13.791  66.980  1.00  0.00    -0.251 C  
HETATM   24  C   UNL     1      -8.303  12.841  66.895  1.00  0.00    -0.058 C  
HETATM   25  O   UNL     1      -7.667  12.781  68.185  1.00  0.00    -0.116 OA 
HETATM   26  H2  UNL     1     -12.247  14.367  66.009  1.00  0.00     0.000 HD 
HETATM   27  H1  UNL     1     -11.142  15.647  65.744  1.00  0.00     0.000 HD 
HETATM   28  H   UNL     1      -7.420  13.657  68.459  1.00  0.00     0.000 HD 
BRANCH  23  29
HETATM   29  O   UNL     1      -9.256  15.102  67.546  1.00  0.00    -0.183 OA 
BRANCH  29  30
HETATM   30  C   UNL     1      -8.410  15.888  66.659  1.00  0.00    -0.293 C  
HETATM   31  O   UNL     1      -9.180  16.845  65.920  1.00  0.00    -0.500 OA 
HETATM   32  C   UNL     1      -9.712  17.873  66.774  1.00  0.00    -0.314 C  
HETATM   33  C   UNL     1      -8.558  18.721  67.309  1.00  0.00    -0.274 C  
HETATM   34  H   UNL     1      -5.716  16.073  68.566  1.00  0.00     0.000 HD 
HETATM   35  O   UNL     1      -9.032  19.806  68.109  1.00  0.00    -0.328 OA 
HETATM   36  C   UNL     1      -7.609  17.826  68.142  1.00  0.00    -0.250 C  
HETATM   37  H1  UNL     1      -5.814  18.024  69.139  1.00  0.00     0.000 HD 
HETATM   38  H2  UNL     1      -6.716  19.457  69.097  1.00  0.00     0.000 HD 
HETATM   39  C   UNL     1      -7.201  16.575  67.347  1.00  0.00    -0.149 C  
HETATM   40  N   UNL     1      -6.439  18.615  68.590  1.00  0.00    -0.226 NA 
HETATM   41  H   UNL     1      -8.316  20.333  68.442  1.00  0.00     0.000 HD 
HETATM   42  O   UNL     1      -6.456  15.652  68.145  1.00  0.00    -0.112 OA 
BRANCH  32  43
HETATM   43  C   UNL     1     -10.730  18.670  65.958  1.00  0.00    -0.246 C  
HETATM   44  O   UNL     1     -11.107  17.900  64.808  1.00  0.00    -0.785 OA 
HETATM   45  H   UNL     1     -11.740  18.396  64.302  1.00  0.00     0.000 HD 
ENDBRANCH  32  43
ENDBRANCH  29  30
ENDBRANCH  23  29
ENDBRANCH  14  15
ENDBRANCH   8  14
TORSDOF 6
ENDMDL
MODEL      122
REMARK 921   NORMALIZED FREE ENERGY PREDICTED BY IDOCK:   -5.39 KCAL/MOL
REMARK 922        TOTAL FREE ENERGY PREDICTED BY IDOCK:   -8.83 KCAL/MOL
REMARK 923 INTER-LIGAND FREE ENERGY PREDICTED BY IDOCK:   -7.97 KCAL/MOL
REMARK 924 INTRA-LIGAND FREE ENERGY PREDICTED BY IDOCK:   -0.86 KCAL/MOL
REMARK 927      BINDING AFFINITY PREDICTED BY RF-SCORE:    0.00 PKD
ROOT
HETATM    1  C   UNL     1     -11.664  13.314  67.035  1.00  0.00    -0.389 C  
HETATM    2  C   UNL     1     -11.893  14.017  65.692  1.00  0.00    -0.384 C  
HETATM    3  N   UNL     1     -11.850  11.869  66.780  1.00  0.00    -0.607 NA 
HETATM    4  H1  UNL     1     -11.698  11.401  67.673  1.00  0.00     0.000 HD 
HETATM    5  C   UNL     1     -11.447  15.461  65.691  1.00  0.00    -0.049 C  
HETATM    6  H2  UNL     1     -11.260  11.510  66.029  1.00  0.00     0.000 HD 
HETATM    7  C   UNL     1     -10.074  15.642  66.337  1.00  0.00    -0.287 C  
HETATM    8  C   UNL     1     -10.331  13.708  67.800  1.00  0.00    -0.241 C  
HETATM    9  O   UNL     1     -10.009  15.093  67.663  1.00  0.00    -0.227 OA 
ENDROOT
BRANCH   7  10
HETATM   10  C   UNL     1      -9.807  17.169  66.443  1.00  0.00    -0.300 C  
HETATM   11  N   UNL     1     -10.542  17.802  67.537  1.00  0.00    -0.378 NA 
HETATM   12  H1  UNL     1     -10.366  18.804  67.606  1.00  0.00     0.000 HD 
HETATM   13  H2  UNL     1     -10.348  17.336  68.424  1.00  0.00     0.000 HD 
ENDBRANCH   7  10
BRANCH   8  14
HETATM   14  O   UNL     1      -9.269  12.817  67.455  1.00  0.00    -0.177 OA 
BRANCH  14  15
HETATM   15  C   UNL     1      -8.692  11.919  68.437  1.00  0.00    -0.157 C  
HETATM   16  C   UNL     1      -7.413  11.407  67.718  1.00  0.00    -0.100 C  
HETATM   17  N   UNL     1      -6.453  12.505  67.490  1.00  0.00    -0.140 NA 
HETATM   18  C   UNL     1      -6.636  10.313  68.423  1.00  0.00    -0.056 C  
HETATM   19  H2  UNL     1      -6.227  12.991  68.358  1.00  0.00     0.000 HD 
HETATM   20  H1  UNL     1      -5.614  12.169  67.019  1.00  0.00     0.000 HD 
HETATM   21  C   UNL     1      -7.503   9.146  68.868  1.00  0.00    -0.075 C  
HETATM   22  N   UNL     1      -6.558   8.196  69.477  1.00  0.00    -0.038 NA 
HETATM   23  C   UNL     1      -8.642   9.690  69.786  1.00  0.00    -0.199 C  
HETATM   24  C   UNL     1      -9.543  10.702  68.961  1.00  0.00    -0.195 C  
HETATM   25  O   UNL     1     -10.607  11.185  69.801  1.00  0.00    -0.449 OA 
HETATM   26  H2  UNL     1      -5.986   8.597  70.221  1.00  0.00     0.000 HD 
HETATM   27  H1  UNL     1      -7.140   7.413  69.776  1.00  0.00     0.000 HD 
HETATM   28  H   UNL     1     -11.120  10.450  70.118  1.00  0.00     0.000 HD 
BRANCH  23  29
HETATM   29  O   UNL     1      -9.423   8.628  70.420  1.00  0.00    -0.159 OA 
BRANCH  29  30
HETATM   30  C   UNL     1      -9.914   9.024  71.733  1.00  0.00    -0.289 C  
HETATM   31  O   UNL     1     -11.338   8.887  71.817  1.00  0.00    -0.314 OA 
HETATM   32  C   UNL     1     -11.742   7.507  71.777  1.00  0.00    -0.284 C  
HETATM   33  C   UNL     1     -11.268   6.812  73.054  1.00  0.00    -0.157 C  
HETATM   34  H   UNL     1      -7.379   7.949  73.563  1.00  0.00     0.000 HD 
HETATM   35  O   UNL     1     -11.704   5.453  73.104  1.00  0.00    -0.526 OA 
HETATM   36  C   UNL     1      -9.723   6.875  73.126  1.00  0.00    -0.174 C  
HETATM   37  H1  UNL     1      -8.238   6.328  74.449  1.00  0.00     0.000 HD 
HETATM   38  H2  UNL     1      -9.608   5.339  74.539  1.00  0.00     0.000 HD 
HETATM   39  C   UNL     1      -9.226   8.316  72.929  1.00  0.00    -0.259 C  
HETATM   40  N   UNL     1      -9.256   6.286  74.402  1.00  0.00    -0.159 NA 
HETATM   41  H   UNL     1     -11.410   5.021  73.897  1.00  0.00     0.000 HD 
HETATM   42  O   UNL     1      -7.801   8.383  72.831  1.00  0.00    -0.257 OA 
BRANCH  32  43
HETATM   43  C   UNL     1     -13.260   7.475  71.591  1.00  0.00    -0.356 C  
HETATM   44  O   UNL     1     -13.859   8.392  72.518  1.00  0.00    -0.587 OA 
HETATM   45  H   UNL     1     -14.802   8.372  72.402  1.00  0.00     0.000 HD 
ENDBRANCH  32  43
ENDBRANCH  29  30
ENDBRANCH  23  29
ENDBRANCH  14  15
ENDBRANCH   8  14
TORSDOF 6
ENDMDL
MODEL      123
REMARK 921   NORMALIZED FREE ENERGY PREDICTED BY IDOCK:   -5.37 KCAL/MOL
REMARK 922        TOTAL FREE ENERGY PREDICTED BY IDOCK:   -8.81 KCAL/MOL
REMARK 923 INTER-LIGAND FREE ENERGY PREDICTED BY IDOCK:   -7.71 KCAL/MOL
REMARK 924 INTRA-LIGAND FREE ENERGY PREDICTED BY IDOCK:   -1.11 KCAL/MOL
REMARK 927      BINDING AFFINITY PREDICTED BY RF-SCORE:    0.00 PKD
ROOT
HETATM    1  C   UNL     1     -12.231  13.834  69.530  1.00  0.00    -0.293 C  
HETATM    2  C   UNL     1     -12.368  13.996  71.048  1.00  0.00    -0.443 C  
HETATM    3  N   UNL     1     -11.324  14.914  69.081  1.00  0.00    -0.275 NA 
HETATM    4  H1  UNL     1     -11.233  14.806  68.071  1.00  0.00     0.000 HD 
HETATM    5  C   UNL     1     -13.008  12.802  71.719  1.00  0.00    -0.416 C  
HETATM    6  H2  UNL     1     -10.430  14.922  69.571  1.00  0.00     0.000 HD 
HETATM    7  C   UNL     1     -12.431  11.479  71.219  1.00  0.00    -0.293 C  
HETATM    8  C   UNL     1     -11.860  12.376  69.024  1.00  0.00    -0.300 C  
HETATM    9  O   UNL     1     -12.497  11.352  69.789  1.00  0.00    -0.209 OA 
ENDROOT
BRANCH   7  10
HETATM   10  C   UNL     1     -13.282  10.336  71.837  1.00  0.00    -0.445 C  
HETATM   11  N   UNL     1     -13.640   9.303  70.865  1.00  0.00    -0.575 NA 
HETATM   12  H1  UNL     1     -14.199   8.553  71.272  1.00  0.00     0.000 HD 
HETATM   13  H2  UNL     1     -12.808   8.931  70.406  1.00  0.00     0.000 HD 
ENDBRANCH   7  10
BRANCH   8  14
HETATM   14  O   UNL     1     -10.445  12.228  68.900  1.00  0.00    -0.195 OA 
BRANCH  14  15
HETATM   15  C   UNL     1      -9.850  10.959  68.531  1.00  0.00    -0.184 C  
HETATM   16  C   UNL     1     -10.773  10.475  67.378  1.00  0.00    -0.281 C  
HETATM   17  N   UNL     1     -10.684  11.372  66.210  1.00  0.00    -0.268 NA 
HETATM   18  C   UNL     1     -10.515   9.077  66.851  1.00  0.00    -0.293 C  
HETATM   19  H2  UNL     1      -9.721  11.486  65.897  1.00  0.00     0.000 HD 
HETATM   20  H1  UNL     1     -11.290  11.054  65.454  1.00  0.00     0.000 HD 
HETATM   21  C   UNL     1     -10.427   8.024  67.944  1.00  0.00    -0.197 C  
HETATM   22  N   UNL     1     -10.222   6.758  67.221  1.00  0.00    -0.185 NA 
HETATM   23  C   UNL     1      -9.314   8.444  68.954  1.00  0.00    -0.147 C  
HETATM   24  C   UNL     1      -9.705   9.831  69.619  1.00  0.00    -0.222 C  
HETATM   25  O   UNL     1      -8.690  10.205  70.568  1.00  0.00    -0.325 OA 
HETATM   26  H2  UNL     1      -9.424   6.766  66.586  1.00  0.00     0.000 HD 
HETATM   27  H1  UNL     1     -10.162   6.052  67.955  1.00  0.00     0.000 HD 
HETATM   28  H   UNL     1      -8.602   9.524  71.226  1.00  0.00     0.000 HD 
BRANCH  23  29
HETATM   29  O   UNL     1      -9.018   7.408  69.943  1.00  0.00    -0.141 OA 
BRANCH  29  30
HETATM   30  C   UNL     1     -10.232   6.818  70.492  1.00  0.00    -0.192 C  
HETATM   31  O   UNL     1     -10.317   5.422  70.179  1.00  0.00    -0.249 OA 
HETATM   32  C   UNL     1      -9.308   4.661  70.865  1.00  0.00    -0.150 C  
HETATM   33  C   UNL     1      -9.603   4.681  72.365  1.00  0.00    -0.149 C  
HETATM   34  H   UNL     1     -10.425   8.574  73.287  1.00  0.00     0.000 HD 
HETATM   35  O   UNL     1      -8.671   3.881  73.094  1.00  0.00    -0.093 OA 
HETATM   36  C   UNL     1      -9.555   6.142  72.875  1.00  0.00    -0.154 C  
HETATM   37  H1  UNL     1      -9.897   7.149  74.643  1.00  0.00     0.000 HD 
HETATM   38  H2  UNL     1      -9.351   5.564  74.873  1.00  0.00     0.000 HD 
HETATM   39  C   UNL     1     -10.443   7.051  72.010  1.00  0.00    -0.208 C  
HETATM   40  N   UNL     1      -9.928   6.186  74.307  1.00  0.00    -0.250 NA 
HETATM   41  H   UNL     1      -8.854   3.893  74.026  1.00  0.00     0.000 HD 
HETATM   42  O   UNL     1     -10.296   8.431  72.356  1.00  0.00    -0.305 OA 
BRANCH  32  43
HETATM   43  C   UNL     1      -9.299   3.255  70.263  1.00  0.00    -0.172 C  
HETATM   44  O   UNL     1      -9.974   2.363  71.162  1.00  0.00    -0.097 OA 
HETATM   45  H   UNL     1      -9.968   1.490  70.787  1.00  0.00     0.000 HD 
ENDBRANCH  32  43
ENDBRANCH  29  30
ENDBRANCH  23  29
ENDBRANCH  14  15
ENDBRANCH   8  14
TORSDOF 6
ENDMDL
MODEL      124
REMARK 921   NORMALIZED FREE ENERGY PREDICTED BY IDOCK:   -5.36 KCAL/MOL
REMARK 922        TOTAL FREE ENERGY PREDICTED BY IDOCK:   -8.79 KCAL/MOL
REMARK 923 INTER-LIGAND FREE ENERGY PREDICTED BY IDOCK:   -7.65 KCAL/MOL
REMARK 924 INTRA-LIGAND FREE ENERGY PREDICTED BY IDOCK:   -1.15 KCAL/MOL
REMARK 927      BINDING AFFINITY PREDICTED BY RF-SCORE:    0.00 PKD
ROOT
HETATM    1  C   UNL     1      -8.768   8.076  66.745  1.00  0.00    -0.133 C  
HETATM    2  C   UNL     1      -7.327   7.553  66.738  1.00  0.00    -0.092 C  
HETATM    3  N   UNL     1      -9.377   7.588  68.002  1.00  0.00    -0.139 NA 
HETATM    4  H1  UNL     1     -10.335   7.936  68.007  1.00  0.00     0.000 HD 
HETATM    5  C   UNL     1      -6.462   8.205  65.683  1.00  0.00    -0.049 C  
HETATM    6  H2  UNL     1      -8.848   7.845  68.836  1.00  0.00     0.000 HD 
HETATM    7  C   UNL     1      -6.643   9.721  65.642  1.00  0.00    -0.087 C  
HETATM    8  C   UNL     1      -8.939   9.628  66.460  1.00  0.00    -0.147 C  
HETATM    9  O   UNL     1      -8.017  10.110  65.482  1.00  0.00    -0.133 OA 
ENDROOT
BRANCH   7  10
HETATM   10  C   UNL     1      -5.853  10.251  64.415  1.00  0.00    -0.139 C  
HETATM   11  N   UNL     1      -6.326   9.693  63.148  1.00  0.00    -0.103 NA 
HETATM   12  H1  UNL     1      -5.807  10.042  62.342  1.00  0.00     0.000 HD 
HETATM   13  H2  UNL     1      -7.327   9.850  63.032  1.00  0.00     0.000 HD 
ENDBRANCH   7  10
BRANCH   8  14
HETATM   14  O   UNL     1      -8.946  10.368  67.681  1.00  0.00    -0.137 OA 
BRANCH  14  15
HETATM   15  C   UNL     1      -9.583  11.668  67.770  1.00  0.00    -0.178 C  
HETATM   16  C   UNL     1     -10.981  11.404  67.145  1.00  0.00    -0.285 C  
HETATM   17  N   UNL     1     -11.763  10.460  67.965  1.00  0.00    -0.729 NA 
HETATM   18  C   UNL     1     -11.868  12.616  66.942  1.00  0.00    -0.425 C  
HETATM   19  H2  UNL     1     -11.838  10.776  68.932  1.00  0.00     0.000 HD 
HETATM   20  H1  UNL     1     -12.681  10.287  67.555  1.00  0.00     0.000 HD 
HETATM   21  C   UNL     1     -11.171  13.764  66.230  1.00  0.00    -0.306 C  
HETATM   22  N   UNL     1     -12.208  14.801  66.100  1.00  0.00    -0.125 NA 
HETATM   23  C   UNL     1      -9.891  14.149  67.036  1.00  0.00    -0.258 C  
HETATM   24  C   UNL     1      -8.904  12.907  67.076  1.00  0.00    -0.208 C  
HETATM   25  O   UNL     1      -7.713  13.270  67.798  1.00  0.00    -0.128 OA 
HETATM   26  H2  UNL     1     -12.647  15.064  66.982  1.00  0.00     0.000 HD 
HETATM   27  H1  UNL     1     -11.740  15.572  65.622  1.00  0.00     0.000 HD 
HETATM   28  H   UNL     1      -7.303  14.019  67.379  1.00  0.00     0.000 HD 
BRANCH  23  29
HETATM   29  O   UNL     1      -9.246  15.365  66.539  1.00  0.00    -0.246 OA 
BRANCH  29  30
HETATM   30  C   UNL     1      -8.900  16.276  67.621  1.00  0.00    -0.190 C  
HETATM   31  O   UNL     1      -7.644  16.921  67.373  1.00  0.00    -0.151 OA 
HETATM   32  C   UNL     1      -7.723  17.831  66.262  1.00  0.00    -0.273 C  
HETATM   33  C   UNL     1      -8.626  19.004  66.643  1.00  0.00    -0.313 C  
HETATM   34  H   UNL     1     -11.937  17.349  68.368  1.00  0.00     0.000 HD 
HETATM   35  O   UNL     1      -8.686  19.979  65.601  1.00  0.00    -0.471 OA 
HETATM   36  C   UNL     1     -10.047  18.475  66.953  1.00  0.00    -0.370 C  
HETATM   37  H1  UNL     1     -11.845  19.239  67.616  1.00  0.00     0.000 HD 
HETATM   38  H2  UNL     1     -10.924  20.361  66.745  1.00  0.00     0.000 HD 
HETATM   39  C   UNL     1      -9.990  17.323  67.969  1.00  0.00    -0.304 C  
HETATM   40  N   UNL     1     -10.908  19.589  67.412  1.00  0.00    -0.475 NA 
HETATM   41  H   UNL     1      -9.246  20.709  65.837  1.00  0.00     0.000 HD 
HETATM   42  O   UNL     1     -11.268  16.708  68.155  1.00  0.00    -0.339 OA 
BRANCH  32  43
HETATM   43  C   UNL     1      -6.296  18.248  65.904  1.00  0.00    -0.250 C  
HETATM   44  O   UNL     1      -6.290  18.781  64.572  1.00  0.00    -0.462 OA 
HETATM   45  H   UNL     1      -5.404  19.041  64.350  1.00  0.00     0.000 HD 
ENDBRANCH  32  43
ENDBRANCH  29  30
ENDBRANCH  23  29
ENDBRANCH  14  15
ENDBRANCH   8  14
TORSDOF 6
ENDMDL
MODEL      125
REMARK 921   NORMALIZED FREE ENERGY PREDICTED BY IDOCK:   -5.30 KCAL/MOL
REMARK 922        TOTAL FREE ENERGY PREDICTED BY IDOCK:   -8.71 KCAL/MOL
REMARK 923 INTER-LIGAND FREE ENERGY PREDICTED BY IDOCK:   -7.66 KCAL/MOL
REMARK 924 INTRA-LIGAND FREE ENERGY PREDICTED BY IDOCK:   -1.06 KCAL/MOL
REMARK 927      BINDING AFFINITY PREDICTED BY RF-SCORE:    0.00 PKD
ROOT
HETATM    1  C   UNL     1     -12.426  12.972  65.083  1.00  0.00    -0.496 C  
HETATM    2  C   UNL     1     -12.311  14.379  64.485  1.00  0.00    -0.440 C  
HETATM    3  N   UNL     1     -13.171  12.163  64.092  1.00  0.00    -0.732 NA 
HETATM    4  H1  UNL     1     -13.248  11.228  64.490  1.00  0.00     0.000 HD 
HETATM    5  C   UNL     1     -11.320  15.257  65.214  1.00  0.00    -0.282 C  
HETATM    6  H2  UNL     1     -12.753  12.176  63.161  1.00  0.00     0.000 HD 
HETATM    7  C   UNL     1     -10.011  14.527  65.513  1.00  0.00    -0.342 C  
HETATM    8  C   UNL     1     -11.071  12.333  65.606  1.00  0.00    -0.317 C  
HETATM    9  O   UNL     1     -10.214  13.295  66.223  1.00  0.00    -0.282 OA 
ENDROOT
BRANCH   7  10
HETATM   10  C   UNL     1      -9.155  15.458  66.414  1.00  0.00    -0.314 C  
HETATM   11  N   UNL     1      -8.855  16.743  65.783  1.00  0.00    -0.476 NA 
HETATM   12  H1  UNL     1      -8.293  17.355  66.375  1.00  0.00     0.000 HD 
HETATM   13  H2  UNL     1      -9.711  17.211  65.485  1.00  0.00     0.000 HD 
ENDBRANCH   7  10
BRANCH   8  14
HETATM   14  O   UNL     1     -10.449  11.557  64.582  1.00  0.00    -0.266 OA 
BRANCH  14  15
HETATM   15  C   UNL     1      -9.322  10.691  64.872  1.00  0.00    -0.228 C  
HETATM   16  C   UNL     1      -8.862  10.247  63.457  1.00  0.00    -0.223 C  
HETATM   17  N   UNL     1      -8.361  11.392  62.674  1.00  0.00    -0.561 NA 
HETATM   18  C   UNL     1      -7.772   9.195  63.402  1.00  0.00    -0.120 C  
HETATM   19  H2  UNL     1      -7.622  11.891  63.169  1.00  0.00     0.000 HD 
HETATM   20  H1  UNL     1      -8.058  11.100  61.744  1.00  0.00     0.000 HD 
HETATM   21  C   UNL     1      -8.054   7.985  64.278  1.00  0.00    -0.117 C  
HETATM   22  N   UNL     1      -6.912   7.086  64.044  1.00  0.00    -0.054 NA 
HETATM   23  C   UNL     1      -8.277   8.470  65.745  1.00  0.00    -0.125 C  
HETATM   24  C   UNL     1      -9.537   9.432  65.793  1.00  0.00    -0.271 C  
HETATM   25  O   UNL     1      -9.756   9.860  67.150  1.00  0.00    -0.166 OA 
HETATM   26  H2  UNL     1      -6.002   7.517  64.210  1.00  0.00     0.000 HD 
HETATM   27  H1  UNL     1      -7.101   6.274  64.632  1.00  0.00     0.000 HD 
HETATM   28  H   UNL     1      -9.886   9.099  67.706  1.00  0.00     0.000 HD 
BRANCH  23  29
HETATM   29  O   UNL     1      -8.371   7.369  66.703  1.00  0.00    -0.117 OA 
BRANCH  29  30
HETATM   30  C   UNL     1      -9.695   6.763  66.706  1.00  0.00    -0.171 C  
HETATM   31  O   UNL     1      -9.707   5.538  65.961  1.00  0.00    -0.149 OA 
HETATM   32  C   UNL     1      -8.934   4.514  66.611  1.00  0.00    -0.114 C  
HETATM   33  C   UNL     1      -9.631   4.114  67.912  1.00  0.00    -0.148 C  
HETATM   34  H   UNL     1     -10.631   7.615  69.761  1.00  0.00     0.000 HD 
HETATM   35  O   UNL     1      -8.945   3.046  68.568  1.00  0.00    -0.108 OA 
HETATM   36  C   UNL     1      -9.709   5.345  68.847  1.00  0.00    -0.151 C  
HETATM   37  H1  UNL     1     -10.514   5.807  70.690  1.00  0.00     0.000 HD 
HETATM   38  H2  UNL     1     -10.071   4.180  70.545  1.00  0.00     0.000 HD 
HETATM   39  C   UNL     1     -10.314   6.551  68.113  1.00  0.00    -0.187 C  
HETATM   40  N   UNL     1     -10.462   4.996  70.074  1.00  0.00    -0.241 NA 
HETATM   41  H   UNL     1      -9.377   2.798  69.376  1.00  0.00     0.000 HD 
HETATM   42  O   UNL     1     -10.253   7.744  68.899  1.00  0.00    -0.201 OA 
BRANCH  32  43
HETATM   43  C   UNL     1      -8.776   3.357  65.622  1.00  0.00    -0.122 C  
HETATM   44  O   UNL     1      -9.485   3.679  64.417  1.00  0.00    -0.135 OA 
HETATM   45  H   UNL     1      -9.387   2.960  63.803  1.00  0.00     0.000 HD 
ENDBRANCH  32  43
ENDBRANCH  29  30
ENDBRANCH  23  29
ENDBRANCH  14  15
ENDBRANCH   8  14
TORSDOF 6
ENDMDL
MODEL      126
REMARK 921   NORMALIZED FREE ENERGY PREDICTED BY IDOCK:   -5.27 KCAL/MOL
REMARK 922        TOTAL FREE ENERGY PREDICTED BY IDOCK:   -8.67 KCAL/MOL
REMARK 923 INTER-LIGAND FREE ENERGY PREDICTED BY IDOCK:   -7.66 KCAL/MOL
REMARK 924 INTRA-LIGAND FREE ENERGY PREDICTED BY IDOCK:   -1.02 KCAL/MOL
REMARK 927      BINDING AFFINITY PREDICTED BY RF-SCORE:    0.00 PKD
ROOT
HETATM    1  C   UNL     1      -9.542   6.049  69.074  1.00  0.00    -0.131 C  
HETATM    2  C   UNL     1     -10.777   5.343  69.647  1.00  0.00    -0.267 C  
HETATM    3  N   UNL     1      -9.360   5.515  67.707  1.00  0.00    -0.111 NA 
HETATM    4  H1  UNL     1      -8.540   5.984  67.326  1.00  0.00     0.000 HD 
HETATM    5  C   UNL     1     -11.295   5.983  70.915  1.00  0.00    -0.299 C  
HETATM    6  H2  UNL     1     -10.190   5.608  67.120  1.00  0.00     0.000 HD 
HETATM    7  C   UNL     1     -11.361   7.506  70.809  1.00  0.00    -0.280 C  
HETATM    8  C   UNL     1      -9.536   7.632  69.196  1.00  0.00    -0.154 C  
HETATM    9  O   UNL     1     -10.106   8.089  70.423  1.00  0.00    -0.192 OA 
ENDROOT
BRANCH   7  10
HETATM   10  C   UNL     1     -11.727   8.055  72.215  1.00  0.00    -0.371 C  
HETATM   11  N   UNL     1     -13.171   8.157  72.428  1.00  0.00    -0.557 NA 
HETATM   12  H1  UNL     1     -13.411   8.518  73.351  1.00  0.00     0.000 HD 
HETATM   13  H2  UNL     1     -13.629   7.262  72.255  1.00  0.00     0.000 HD 
ENDBRANCH   7  10
BRANCH   8  14
HETATM   14  O   UNL     1     -10.093   8.231  68.026  1.00  0.00    -0.182 OA 
BRANCH  14  15
HETATM   15  C   UNL     1      -9.514   9.427  67.444  1.00  0.00    -0.131 C  
HETATM   16  C   UNL     1      -8.260   8.874  66.711  1.00  0.00    -0.111 C  
HETATM   17  N   UNL     1      -8.641   7.974  65.606  1.00  0.00    -0.163 NA 
HETATM   18  C   UNL     1      -7.325   9.903  66.107  1.00  0.00    -0.104 C  
HETATM   19  H2  UNL     1      -9.286   8.426  64.959  1.00  0.00     0.000 HD 
HETATM   20  H1  UNL     1      -7.818   7.611  65.125  1.00  0.00     0.000 HD 
HETATM   21  C   UNL     1      -6.935  11.009  67.075  1.00  0.00    -0.117 C  
HETATM   22  N   UNL     1      -6.006  11.857  66.311  1.00  0.00    -0.471 NA 
HETATM   23  C   UNL     1      -8.235  11.692  67.604  1.00  0.00    -0.141 C  
HETATM   24  C   UNL     1      -9.108  10.622  68.386  1.00  0.00    -0.156 C  
HETATM   25  O   UNL     1     -10.295  11.258  68.894  1.00  0.00    -0.201 OA 
HETATM   26  H2  UNL     1      -6.383  12.194  65.424  1.00  0.00     0.000 HD 
HETATM   27  H1  UNL     1      -5.745  12.600  66.960  1.00  0.00     0.000 HD 
HETATM   28  H   UNL     1     -10.050  11.980  69.463  1.00  0.00     0.000 HD 
BRANCH  23  29
HETATM   29  O   UNL     1      -7.969  12.891  68.399  1.00  0.00    -0.146 OA 
BRANCH  29  30
HETATM   30  C   UNL     1      -8.210  14.110  67.640  1.00  0.00    -0.186 C  
HETATM   31  O   UNL     1      -9.212  13.907  66.636  1.00  0.00    -0.264 OA 
HETATM   32  C   UNL     1     -10.509  13.684  67.216  1.00  0.00    -0.260 C  
HETATM   33  C   UNL     1     -10.978  14.971  67.894  1.00  0.00    -0.291 C  
HETATM   34  H   UNL     1      -7.795  16.308  70.075  1.00  0.00     0.000 HD 
HETATM   35  O   UNL     1     -12.295  14.832  68.430  1.00  0.00    -0.594 OA 
HETATM   36  C   UNL     1      -9.987  15.345  69.023  1.00  0.00    -0.229 C  
HETATM   37  H1  UNL     1      -9.725  16.884  70.372  1.00  0.00     0.000 HD 
HETATM   38  H2  UNL     1     -11.346  16.631  69.954  1.00  0.00     0.000 HD 
HETATM   39  C   UNL     1      -8.542  15.359  68.498  1.00  0.00    -0.172 C  
HETATM   40  N   UNL     1     -10.379  16.638  69.628  1.00  0.00    -0.241 NA 
HETATM   41  H   UNL     1     -12.588  15.631  68.851  1.00  0.00     0.000 HD 
HETATM   42  O   UNL     1      -7.591  15.543  69.549  1.00  0.00    -0.215 OA 
BRANCH  32  43
HETATM   43  C   UNL     1     -11.439  13.207  66.100  1.00  0.00    -0.330 C  
HETATM   44  O   UNL     1     -12.026  11.957  66.490  1.00  0.00    -0.588 OA 
HETATM   45  H   UNL     1     -12.604  11.660  65.797  1.00  0.00     0.000 HD 
ENDBRANCH  32  43
ENDBRANCH  29  30
ENDBRANCH  23  29
ENDBRANCH  14  15
ENDBRANCH   8  14
TORSDOF 6
ENDMDL
MODEL      127
REMARK 921   NORMALIZED FREE ENERGY PREDICTED BY IDOCK:   -5.24 KCAL/MOL
REMARK 922        TOTAL FREE ENERGY PREDICTED BY IDOCK:   -8.64 KCAL/MOL
REMARK 923 INTER-LIGAND FREE ENERGY PREDICTED BY IDOCK:   -8.51 KCAL/MOL
REMARK 924 INTRA-LIGAND FREE ENERGY PREDICTED BY IDOCK:   -0.13 KCAL/MOL
REMARK 927      BINDING AFFINITY PREDICTED BY RF-SCORE:    0.00 PKD
ROOT
HETATM    1  C   UNL     1     -10.316   6.192  71.216  1.00  0.00    -0.217 C  
HETATM    2  C   UNL     1      -9.915   6.060  72.690  1.00  0.00    -0.192 C  
HETATM    3  N   UNL     1     -11.793   6.270  71.198  1.00  0.00    -0.252 NA 
HETATM    4  H1  UNL     1     -12.060   6.358  70.217  1.00  0.00     0.000 HD 
HETATM    5  C   UNL     1      -8.438   6.275  72.927  1.00  0.00    -0.118 C  
HETATM    6  H2  UNL     1     -12.168   7.013  71.788  1.00  0.00     0.000 HD 
HETATM    7  C   UNL     1      -7.902   7.493  72.175  1.00  0.00    -0.093 C  
HETATM    8  C   UNL     1      -9.561   7.321  70.396  1.00  0.00    -0.165 C  
HETATM    9  O   UNL     1      -8.188   7.444  70.768  1.00  0.00    -0.109 OA 
ENDROOT
BRANCH   7  10
HETATM   10  C   UNL     1      -6.359   7.504  72.347  1.00  0.00    -0.050 C  
HETATM   11  N   UNL     1      -5.751   8.774  71.949  1.00  0.00    -0.052 NA 
HETATM   12  H1  UNL     1      -4.737   8.781  72.062  1.00  0.00     0.000 HD 
HETATM   13  H2  UNL     1      -6.179   9.555  72.447  1.00  0.00     0.000 HD 
ENDBRANCH   7  10
BRANCH   8  14
HETATM   14  O   UNL     1     -10.294   8.546  70.430  1.00  0.00    -0.194 OA 
BRANCH  14  15
HETATM   15  C   UNL     1     -10.737   9.192  69.209  1.00  0.00    -0.183 C  
HETATM   16  C   UNL     1     -10.241   8.214  68.108  1.00  0.00    -0.209 C  
HETATM   17  N   UNL     1     -10.925   6.911  68.204  1.00  0.00    -0.467 NA 
HETATM   18  C   UNL     1     -10.412   8.672  66.673  1.00  0.00    -0.239 C  
HETATM   19  H2  UNL     1     -11.939   7.018  68.181  1.00  0.00     0.000 HD 
HETATM   20  H1  UNL     1     -10.599   6.269  67.481  1.00  0.00     0.000 HD 
HETATM   21  C   UNL     1      -9.886  10.076  66.419  1.00  0.00    -0.224 C  
HETATM   22  N   UNL     1     -10.108  10.297  64.981  1.00  0.00    -0.323 NA 
HETATM   23  C   UNL     1     -10.597  11.061  67.399  1.00  0.00    -0.237 C  
HETATM   24  C   UNL     1     -10.251  10.656  68.893  1.00  0.00    -0.201 C  
HETATM   25  O   UNL     1     -10.887  11.580  69.795  1.00  0.00    -0.451 OA 
HETATM   26  H2  UNL     1     -11.072  10.153  64.681  1.00  0.00     0.000 HD 
HETATM   27  H1  UNL     1      -9.755  11.240  64.810  1.00  0.00     0.000 HD 
HETATM   28  H   UNL     1     -10.594  12.464  69.604  1.00  0.00     0.000 HD 
BRANCH  23  29
HETATM   29  O   UNL     1     -10.302  12.465  67.112  1.00  0.00    -0.218 OA 
BRANCH  29  30
HETATM   30  C   UNL     1     -11.494  13.298  67.193  1.00  0.00    -0.341 C  
HETATM   31  O   UNL     1     -11.210  14.549  67.832  1.00  0.00    -0.272 OA 
HETATM   32  C   UNL     1     -10.351  15.375  67.026  1.00  0.00    -0.280 C  
HETATM   33  C   UNL     1     -11.111  15.810  65.773  1.00  0.00    -0.124 C  
HETATM   34  H   UNL     1     -12.903  12.437  64.328  1.00  0.00     0.000 HD 
HETATM   35  O   UNL     1     -10.330  16.694  64.966  1.00  0.00    -0.623 OA 
HETATM   36  C   UNL     1     -11.506  14.558  64.955  1.00  0.00    -0.396 C  
HETATM   37  H1  UNL     1     -12.582  14.132  63.246  1.00  0.00     0.000 HD 
HETATM   38  H2  UNL     1     -11.852  15.659  63.212  1.00  0.00     0.000 HD 
HETATM   39  C   UNL     1     -12.223  13.528  65.843  1.00  0.00    -0.460 C  
HETATM   40  N   UNL     1     -12.322  14.958  63.786  1.00  0.00    -0.639 NA 
HETATM   41  H   UNL     1     -10.803  16.965  64.188  1.00  0.00     0.000 HD 
HETATM   42  O   UNL     1     -12.457  12.297  65.155  1.00  0.00    -0.563 OA 
BRANCH  32  43
HETATM   43  C   UNL     1      -9.885  16.544  67.895  1.00  0.00    -0.240 C  
HETATM   44  O   UNL     1     -10.897  17.560  67.886  1.00  0.00    -0.374 OA 
HETATM   45  H   UNL     1     -10.607  18.286  68.425  1.00  0.00     0.000 HD 
ENDBRANCH  32  43
ENDBRANCH  29  30
ENDBRANCH  23  29
ENDBRANCH  14  15
ENDBRANCH   8  14
TORSDOF 6
ENDMDL
MODEL      128
REMARK 921   NORMALIZED FREE ENERGY PREDICTED BY IDOCK:   -5.24 KCAL/MOL
REMARK 922        TOTAL FREE ENERGY PREDICTED BY IDOCK:   -8.63 KCAL/MOL
REMARK 923 INTER-LIGAND FREE ENERGY PREDICTED BY IDOCK:   -6.96 KCAL/MOL
REMARK 924 INTRA-LIGAND FREE ENERGY PREDICTED BY IDOCK:   -1.67 KCAL/MOL
REMARK 927      BINDING AFFINITY PREDICTED BY RF-SCORE:    0.00 PKD
ROOT
HETATM    1  C   UNL     1      -8.807   5.836  70.698  1.00  0.00    -0.140 C  
HETATM    2  C   UNL     1      -9.859   4.898  71.301  1.00  0.00    -0.253 C  
HETATM    3  N   UNL     1      -7.818   4.966  70.024  1.00  0.00    -0.065 NA 
HETATM    4  H1  UNL     1      -7.119   5.590  69.623  1.00  0.00     0.000 HD 
HETATM    5  C   UNL     1     -11.105   5.618  71.763  1.00  0.00    -0.265 C  
HETATM    6  H2  UNL     1      -8.235   4.332  69.342  1.00  0.00     0.000 HD 
HETATM    7  C   UNL     1     -11.599   6.637  70.737  1.00  0.00    -0.376 C  
HETATM    8  C   UNL     1      -9.373   7.034  69.824  1.00  0.00    -0.146 C  
HETATM    9  O   UNL     1     -10.582   7.577  70.356  1.00  0.00    -0.220 OA 
ENDROOT
BRANCH   7  10
HETATM   10  C   UNL     1     -12.760   7.433  71.392  1.00  0.00    -0.369 C  
HETATM   11  N   UNL     1     -13.623   6.598  72.228  1.00  0.00    -0.451 NA 
HETATM   12  H1  UNL     1     -14.385   7.121  72.658  1.00  0.00     0.000 HD 
HETATM   13  H2  UNL     1     -13.077   6.102  72.933  1.00  0.00     0.000 HD 
ENDBRANCH   7  10
BRANCH   8  14
HETATM   14  O   UNL     1      -9.446   6.664  68.447  1.00  0.00    -0.127 OA 
BRANCH  14  15
HETATM   15  C   UNL     1      -9.173   7.624  67.395  1.00  0.00    -0.132 C  
HETATM   16  C   UNL     1      -7.620   7.631  67.335  1.00  0.00    -0.109 C  
HETATM   17  N   UNL     1      -7.097   6.321  66.900  1.00  0.00    -0.071 NA 
HETATM   18  C   UNL     1      -6.985   8.659  66.421  1.00  0.00    -0.078 C  
HETATM   19  H2  UNL     1      -7.505   6.031  66.012  1.00  0.00     0.000 HD 
HETATM   20  H1  UNL     1      -6.078   6.326  66.861  1.00  0.00     0.000 HD 
HETATM   21  C   UNL     1      -7.519  10.067  66.631  1.00  0.00    -0.104 C  
HETATM   22  N   UNL     1      -6.749  10.897  65.690  1.00  0.00    -0.355 NA 
HETATM   23  C   UNL     1      -9.068  10.048  66.444  1.00  0.00    -0.149 C  
HETATM   24  C   UNL     1      -9.716   9.095  67.534  1.00  0.00    -0.160 C  
HETATM   25  O   UNL     1     -11.147   9.097  67.377  1.00  0.00    -0.412 OA 
HETATM   26  H2  UNL     1      -6.789  10.577  64.722  1.00  0.00     0.000 HD 
HETATM   27  H1  UNL     1      -7.107  11.842  65.830  1.00  0.00     0.000 HD 
HETATM   28  H   UNL     1     -11.475   9.985  67.461  1.00  0.00     0.000 HD 
BRANCH  23  29
HETATM   29  O   UNL     1      -9.661  11.385  66.440  1.00  0.00    -0.195 OA 
BRANCH  29  30
HETATM   30  C   UNL     1      -9.739  11.949  67.780  1.00  0.00    -0.189 C  
HETATM   31  O   UNL     1      -8.558  12.695  68.099  1.00  0.00    -0.177 OA 
HETATM   32  C   UNL     1      -8.454  13.890  67.304  1.00  0.00    -0.200 C  
HETATM   33  C   UNL     1      -9.571  14.854  67.705  1.00  0.00    -0.208 C  
HETATM   34  H   UNL     1     -12.978  12.608  67.860  1.00  0.00     0.000 HD 
HETATM   35  O   UNL     1      -9.475  16.091  66.997  1.00  0.00    -0.212 OA 
HETATM   36  C   UNL     1     -10.941  14.191  67.427  1.00  0.00    -0.299 C  
HETATM   37  H1  UNL     1     -12.935  14.639  67.712  1.00  0.00     0.000 HD 
HETATM   38  H2  UNL     1     -11.968  16.010  67.489  1.00  0.00     0.000 HD 
HETATM   39  C   UNL     1     -11.010  12.792  68.061  1.00  0.00    -0.239 C  
HETATM   40  N   UNL     1     -12.031  15.076  67.895  1.00  0.00    -0.218 NA 
HETATM   41  H   UNL     1     -10.169  16.690  67.246  1.00  0.00     0.000 HD 
HETATM   42  O   UNL     1     -12.199  12.092  67.688  1.00  0.00    -0.484 OA 
BRANCH  32  43
HETATM   43  C   UNL     1      -7.050  14.461  67.511  1.00  0.00    -0.175 C  
HETATM   44  O   UNL     1      -6.087  13.491  67.075  1.00  0.00    -0.382 OA 
HETATM   45  H   UNL     1      -5.215  13.846  67.203  1.00  0.00     0.000 HD 
ENDBRANCH  32  43
ENDBRANCH  29  30
ENDBRANCH  23  29
ENDBRANCH  14  15
ENDBRANCH   8  14
TORSDOF 6
ENDMDL
MODEL      129
REMARK 921   NORMALIZED FREE ENERGY PREDICTED BY IDOCK:   -5.18 KCAL/MOL
REMARK 922        TOTAL FREE ENERGY PREDICTED BY IDOCK:   -8.56 KCAL/MOL
REMARK 923 INTER-LIGAND FREE ENERGY PREDICTED BY IDOCK:   -7.52 KCAL/MOL
REMARK 924 INTRA-LIGAND FREE ENERGY PREDICTED BY IDOCK:   -1.04 KCAL/MOL
REMARK 927      BINDING AFFINITY PREDICTED BY RF-SCORE:    0.00 PKD
ROOT
HETATM    1  C   UNL     1      -7.325   7.005  66.134  1.00  0.00    -0.075 C  
HETATM    2  C   UNL     1      -8.401   6.185  65.412  1.00  0.00    -0.150 C  
HETATM    3  N   UNL     1      -6.561   7.702  65.076  1.00  0.00    -0.044 NA 
HETATM    4  H1  UNL     1      -5.846   8.248  65.557  1.00  0.00     0.000 HD 
HETATM    5  C   UNL     1      -9.467   5.650  66.341  1.00  0.00    -0.170 C  
HETATM    6  H2  UNL     1      -7.146   8.260  64.453  1.00  0.00     0.000 HD 
HETATM    7  C   UNL     1      -9.956   6.707  67.329  1.00  0.00    -0.154 C  
HETATM    8  C   UNL     1      -7.841   7.921  67.323  1.00  0.00    -0.113 C  
HETATM    9  O   UNL     1      -8.884   7.304  68.077  1.00  0.00    -0.130 OA 
ENDROOT
BRANCH   7  10
HETATM   10  C   UNL     1     -10.902   6.000  68.337  1.00  0.00    -0.281 C  
HETATM   11  N   UNL     1     -11.488   6.920  69.312  1.00  0.00    -0.566 NA 
HETATM   12  H1  UNL     1     -12.109   6.456  69.974  1.00  0.00     0.000 HD 
HETATM   13  H2  UNL     1     -11.964   7.692  68.844  1.00  0.00     0.000 HD 
ENDBRANCH   7  10
BRANCH   8  14
HETATM   14  O   UNL     1      -8.148   9.234  66.852  1.00  0.00    -0.107 OA 
BRANCH  14  15
HETATM   15  C   UNL     1      -9.520   9.664  66.665  1.00  0.00    -0.170 C  
HETATM   16  C   UNL     1      -9.449  10.453  65.328  1.00  0.00    -0.237 C  
HETATM   17  N   UNL     1      -9.095   9.566  64.203  1.00  0.00    -0.393 NA 
HETATM   18  C   UNL     1     -10.710  11.180  64.906  1.00  0.00    -0.318 C  
HETATM   19  H2  UNL     1      -9.732   8.773  64.137  1.00  0.00     0.000 HD 
HETATM   20  H1  UNL     1      -9.048  10.084  63.325  1.00  0.00     0.000 HD 
HETATM   21  C   UNL     1     -11.308  12.043  66.006  1.00  0.00    -0.343 C  
HETATM   22  N   UNL     1     -12.477  12.681  65.380  1.00  0.00    -0.655 NA 
HETATM   23  C   UNL     1     -11.582  11.146  67.254  1.00  0.00    -0.011 C  
HETATM   24  C   UNL     1     -10.211  10.541  67.775  1.00  0.00    -0.190 C  
HETATM   25  O   UNL     1     -10.461   9.733  68.940  1.00  0.00    -0.199 OA 
HETATM   26  H2  UNL     1     -13.136  12.024  64.963  1.00  0.00     0.000 HD 
HETATM   27  H1  UNL     1     -12.879  13.260  66.118  1.00  0.00     0.000 HD 
HETATM   28  H   UNL     1     -10.878  10.262  69.610  1.00  0.00     0.000 HD 
BRANCH  23  29
HETATM   29  O   UNL     1     -12.329  11.838  68.303  1.00  0.00    -0.379 OA 
BRANCH  29  30
HETATM   30  C   UNL     1     -11.448  12.385  69.326  1.00  0.00    -0.288 C  
HETATM   31  O   UNL     1     -10.628  13.434  68.797  1.00  0.00    -0.245 OA 
HETATM   32  C   UNL     1     -11.405  14.595  68.455  1.00  0.00    -0.292 C  
HETATM   33  C   UNL     1     -11.956  15.221  69.736  1.00  0.00    -0.347 C  
HETATM   34  H   UNL     1     -13.476  12.127  71.925  1.00  0.00     0.000 HD 
HETATM   35  O   UNL     1     -12.681  16.422  69.464  1.00  0.00    -0.245 OA 
HETATM   36  C   UNL     1     -12.876  14.200  70.449  1.00  0.00    -0.197 C  
HETATM   37  H1  UNL     1     -13.950  14.087  72.207  1.00  0.00     0.000 HD 
HETATM   38  H2  UNL     1     -13.797  15.667  71.619  1.00  0.00     0.000 HD 
HETATM   39  C   UNL     1     -12.162  12.850  70.622  1.00  0.00    -0.302 C  
HETATM   40  N   UNL     1     -13.344  14.760  71.737  1.00  0.00    -0.330 NA 
HETATM   41  H   UNL     1     -13.023  16.812  70.260  1.00  0.00     0.000 HD 
HETATM   42  O   UNL     1     -13.038  11.841  71.131  1.00  0.00    -0.248 OA 
BRANCH  32  43
HETATM   43  C   UNL     1     -10.504  15.535  67.654  1.00  0.00    -0.279 C  
HETATM   44  O   UNL     1     -11.255  16.072  66.556  1.00  0.00    -0.066 OA 
HETATM   45  H   UNL     1     -10.695  16.656  66.058  1.00  0.00     0.000 HD 
ENDBRANCH  32  43
ENDBRANCH  29  30
ENDBRANCH  23  29
ENDBRANCH  14  15
ENDBRANCH   8  14
TORSDOF 6
ENDMDL
MODEL      130
REMARK 921   NORMALIZED FREE ENERGY PREDICTED BY IDOCK:   -5.16 KCAL/MOL
REMARK 922        TOTAL FREE ENERGY PREDICTED BY IDOCK:   -8.53 KCAL/MOL
REMARK 923 INTER-LIGAND FREE ENERGY PREDICTED BY IDOCK:   -7.09 KCAL/MOL
REMARK 924 INTRA-LIGAND FREE ENERGY PREDICTED BY IDOCK:   -1.44 KCAL/MOL
REMARK 927      BINDING AFFINITY PREDICTED BY RF-SCORE:    0.00 PKD
ROOT
HETATM    1  C   UNL     1     -10.886  13.124  67.855  1.00  0.00    -0.242 C  
HETATM    2  C   UNL     1     -12.186  13.672  67.254  1.00  0.00    -0.317 C  
HETATM    3  N   UNL     1     -11.150  12.931  69.298  1.00  0.00    -0.424 NA 
HETATM    4  H1  UNL     1     -10.286  12.566  69.698  1.00  0.00     0.000 HD 
HETATM    5  C   UNL     1     -12.203  13.641  65.743  1.00  0.00    -0.503 C  
HETATM    6  H2  UNL     1     -11.964  12.345  69.487  1.00  0.00     0.000 HD 
HETATM    7  C   UNL     1     -11.694  12.312  65.186  1.00  0.00    -0.361 C  
HETATM    8  C   UNL     1     -10.252  11.879  67.103  1.00  0.00    -0.208 C  
HETATM    9  O   UNL     1     -10.393  11.965  65.685  1.00  0.00    -0.231 OA 
ENDROOT
BRANCH   7  10
HETATM   10  C   UNL     1     -11.587  12.465  63.644  1.00  0.00    -0.499 C  
HETATM   11  N   UNL     1     -10.891  11.346  63.008  1.00  0.00    -0.805 NA 
HETATM   12  H1  UNL     1     -10.820  11.447  61.995  1.00  0.00     0.000 HD 
HETATM   13  H2  UNL     1     -11.326  10.458  63.257  1.00  0.00     0.000 HD 
ENDBRANCH   7  10
BRANCH   8  14
HETATM   14  O   UNL     1     -10.718  10.654  67.671  1.00  0.00    -0.226 OA 
BRANCH  14  15
HETATM   15  C   UNL     1      -9.835   9.516  67.834  1.00  0.00    -0.156 C  
HETATM   16  C   UNL     1     -10.229   8.605  66.639  1.00  0.00    -0.273 C  
HETATM   17  N   UNL     1      -9.907   9.247  65.350  1.00  0.00    -0.444 NA 
HETATM   18  C   UNL     1      -9.586   7.233  66.596  1.00  0.00    -0.236 C  
HETATM   19  H2  UNL     1      -8.926   9.522  65.304  1.00  0.00     0.000 HD 
HETATM   20  H1  UNL     1     -10.166   8.649  64.565  1.00  0.00     0.000 HD 
HETATM   21  C   UNL     1      -9.695   6.472  67.907  1.00  0.00    -0.122 C  
HETATM   22  N   UNL     1      -9.057   5.174  67.634  1.00  0.00    -0.110 NA 
HETATM   23  C   UNL     1      -9.065   7.339  69.043  1.00  0.00    -0.133 C  
HETATM   24  C   UNL     1      -9.877   8.696  69.178  1.00  0.00    -0.185 C  
HETATM   25  O   UNL     1      -9.310   9.483  70.241  1.00  0.00    -0.229 OA 
HETATM   26  H2  UNL     1      -8.106   5.246  67.272  1.00  0.00     0.000 HD 
HETATM   27  H1  UNL     1      -9.130   4.663  68.514  1.00  0.00     0.000 HD 
HETATM   28  H   UNL     1      -9.336   8.988  71.052  1.00  0.00     0.000 HD 
BRANCH  23  29
HETATM   29  O   UNL     1      -8.950   6.622  70.312  1.00  0.00    -0.150 OA 
BRANCH  29  30
HETATM   30  C   UNL     1      -7.577   6.593  70.797  1.00  0.00    -0.092 C  
HETATM   31  O   UNL     1      -7.458   7.261  72.059  1.00  0.00    -0.079 OA 
HETATM   32  C   UNL     1      -8.134   6.543  73.106  1.00  0.00    -0.106 C  
HETATM   33  C   UNL     1      -7.401   5.226  73.360  1.00  0.00    -0.095 C  
HETATM   34  H   UNL     1      -6.711   3.605  69.676  1.00  0.00     0.000 HD 
HETATM   35  O   UNL     1      -7.987   4.500  74.442  1.00  0.00    -0.090 OA 
HETATM   36  C   UNL     1      -7.430   4.369  72.072  1.00  0.00    -0.075 C  
HETATM   37  H1  UNL     1      -6.664   2.565  71.426  1.00  0.00     0.000 HD 
HETATM   38  H2  UNL     1      -6.961   2.606  73.092  1.00  0.00     0.000 HD 
HETATM   39  C   UNL     1      -6.937   5.182  70.864  1.00  0.00    -0.055 C  
HETATM   40  N   UNL     1      -6.645   3.130  72.276  1.00  0.00    -0.014 NA 
HETATM   41  H   UNL     1      -7.532   3.681  74.601  1.00  0.00     0.000 HD 
HETATM   42  O   UNL     1      -7.103   4.470  69.635  1.00  0.00    -0.048 OA 
BRANCH  32  43
HETATM   43  C   UNL     1      -8.192   7.457  74.331  1.00  0.00    -0.190 C  
HETATM   44  O   UNL     1      -7.995   8.813  73.906  1.00  0.00    -0.394 OA 
HETATM   45  H   UNL     1      -8.030   9.381  74.668  1.00  0.00     0.000 HD 
ENDBRANCH  32  43
ENDBRANCH  29  30
ENDBRANCH  23  29
ENDBRANCH  14  15
ENDBRANCH   8  14
TORSDOF 6
ENDMDL
MODEL      131
REMARK 921   NORMALIZED FREE ENERGY PREDICTED BY IDOCK:   -5.16 KCAL/MOL
REMARK 922        TOTAL FREE ENERGY PREDICTED BY IDOCK:   -8.53 KCAL/MOL
REMARK 923 INTER-LIGAND FREE ENERGY PREDICTED BY IDOCK:   -7.61 KCAL/MOL
REMARK 924 INTRA-LIGAND FREE ENERGY PREDICTED BY IDOCK:   -0.92 KCAL/MOL
REMARK 927      BINDING AFFINITY PREDICTED BY RF-SCORE:    0.00 PKD
ROOT
HETATM    1  C   UNL     1      -7.684   7.469  68.481  1.00  0.00    -0.120 C  
HETATM    2  C   UNL     1      -8.292   6.123  68.068  1.00  0.00    -0.117 C  
HETATM    3  N   UNL     1      -7.187   8.095  67.236  1.00  0.00    -0.083 NA 
HETATM    4  H1  UNL     1      -6.783   8.990  67.510  1.00  0.00     0.000 HD 
HETATM    5  C   UNL     1      -9.120   5.484  69.159  1.00  0.00    -0.127 C  
HETATM    6  H2  UNL     1      -7.900   8.177  66.510  1.00  0.00     0.000 HD 
HETATM    7  C   UNL     1     -10.058   6.484  69.835  1.00  0.00    -0.173 C  
HETATM    8  C   UNL     1      -8.604   8.390  69.389  1.00  0.00    -0.129 C  
HETATM    9  O   UNL     1      -9.367   7.639  70.335  1.00  0.00    -0.160 OA 
ENDROOT
BRANCH   7  10
HETATM   10  C   UNL     1     -10.714   5.763  71.044  1.00  0.00    -0.258 C  
HETATM   11  N   UNL     1     -11.930   6.427  71.512  1.00  0.00    -0.317 NA 
HETATM   12  H1  UNL     1     -12.361   5.953  72.306  1.00  0.00     0.000 HD 
HETATM   13  H2  UNL     1     -12.598   6.544  70.750  1.00  0.00     0.000 HD 
ENDBRANCH   7  10
BRANCH   8  14
HETATM   14  O   UNL     1      -9.373   9.286  68.586  1.00  0.00    -0.138 OA 
BRANCH  14  15
HETATM   15  C   UNL     1      -9.864  10.541  69.120  1.00  0.00    -0.218 C  
HETATM   16  C   UNL     1     -11.405  10.373  69.019  1.00  0.00    -0.219 C  
HETATM   17  N   UNL     1     -11.882   9.290  69.900  1.00  0.00    -0.401 NA 
HETATM   18  C   UNL     1     -12.240  11.590  69.364  1.00  0.00    -0.273 C  
HETATM   19  H2  UNL     1     -11.583   9.431  70.864  1.00  0.00     0.000 HD 
HETATM   20  H1  UNL     1     -12.894   9.179  69.834  1.00  0.00     0.000 HD 
HETATM   21  C   UNL     1     -11.792  12.854  68.647  1.00  0.00    -0.312 C  
HETATM   22  N   UNL     1     -12.749  13.884  69.084  1.00  0.00    -0.134 NA 
HETATM   23  C   UNL     1     -10.288  13.109  68.976  1.00  0.00     0.050 C  
HETATM   24  C   UNL     1      -9.421  11.891  68.442  1.00  0.00    -0.189 C  
HETATM   25  O   UNL     1      -8.032  12.139  68.723  1.00  0.00    -0.281 OA 
HETATM   26  H2  UNL     1     -12.821  13.983  70.096  1.00  0.00     0.000 HD 
HETATM   27  H1  UNL     1     -12.448  14.732  68.603  1.00  0.00     0.000 HD 
HETATM   28  H   UNL     1      -7.764  12.954  68.314  1.00  0.00     0.000 HD 
BRANCH  23  29
HETATM   29  O   UNL     1      -9.807  14.401  68.488  1.00  0.00    -0.223 OA 
BRANCH  29  30
HETATM   30  C   UNL     1      -9.157  14.284  67.190  1.00  0.00    -0.228 C  
HETATM   31  O   UNL     1     -10.112  14.031  66.152  1.00  0.00    -0.290 OA 
HETATM   32  C   UNL     1     -10.968  15.165  65.929  1.00  0.00    -0.339 C  
HETATM   33  C   UNL     1     -10.138  16.307  65.342  1.00  0.00    -0.145 C  
HETATM   34  H   UNL     1      -6.759  16.518  67.625  1.00  0.00     0.000 HD 
HETATM   35  O   UNL     1     -10.951  17.440  65.032  1.00  0.00    -0.703 OA 
HETATM   36  C   UNL     1      -9.035  16.708  66.351  1.00  0.00    -0.291 C  
HETATM   37  H1  UNL     1      -7.440  18.014  66.423  1.00  0.00     0.000 HD 
HETATM   38  H2  UNL     1      -8.702  18.557  65.434  1.00  0.00     0.000 HD 
HETATM   39  C   UNL     1      -8.239  15.475  66.808  1.00  0.00    -0.242 C  
HETATM   40  N   UNL     1      -8.167  17.750  65.757  1.00  0.00    -0.521 NA 
HETATM   41  H   UNL     1     -10.436  18.150  64.667  1.00  0.00     0.000 HD 
HETATM   42  O   UNL     1      -7.321  15.788  67.858  1.00  0.00    -0.122 OA 
BRANCH  32  43
HETATM   43  C   UNL     1     -12.111  14.710  65.021  1.00  0.00    -0.349 C  
HETATM   44  O   UNL     1     -13.077  14.003  65.812  1.00  0.00    -0.556 OA 
HETATM   45  H   UNL     1     -13.787  13.720  65.248  1.00  0.00     0.000 HD 
ENDBRANCH  32  43
ENDBRANCH  29  30
ENDBRANCH  23  29
ENDBRANCH  14  15
ENDBRANCH   8  14
TORSDOF 6
ENDMDL
MODEL      132
REMARK 921   NORMALIZED FREE ENERGY PREDICTED BY IDOCK:   -5.16 KCAL/MOL
REMARK 922        TOTAL FREE ENERGY PREDICTED BY IDOCK:   -8.52 KCAL/MOL
REMARK 923 INTER-LIGAND FREE ENERGY PREDICTED BY IDOCK:   -6.85 KCAL/MOL
REMARK 924 INTRA-LIGAND FREE ENERGY PREDICTED BY IDOCK:   -1.67 KCAL/MOL
REMARK 927      BINDING AFFINITY PREDICTED BY RF-SCORE:    0.00 PKD
ROOT
HETATM    1  C   UNL     1     -10.730   7.076  72.496  1.00  0.00    -0.242 C  
HETATM    2  C   UNL     1      -9.871   7.228  73.757  1.00  0.00    -0.358 C  
HETATM    3  N   UNL     1     -10.949   8.445  71.980  1.00  0.00    -0.299 NA 
HETATM    4  H1  UNL     1     -11.520   8.343  71.141  1.00  0.00     0.000 HD 
HETATM    5  C   UNL     1      -9.293   5.920  74.246  1.00  0.00    -0.144 C  
HETATM    6  H2  UNL     1     -10.084   8.962  71.822  1.00  0.00     0.000 HD 
HETATM    7  C   UNL     1      -8.702   5.088  73.109  1.00  0.00    -0.112 C  
HETATM    8  C   UNL     1     -10.209   6.019  71.433  1.00  0.00    -0.206 C  
HETATM    9  O   UNL     1      -9.640   4.861  72.045  1.00  0.00    -0.146 OA 
ENDROOT
BRANCH   7  10
HETATM   10  C   UNL     1      -8.309   3.706  73.699  1.00  0.00    -0.083 C  
HETATM   11  N   UNL     1      -7.325   2.997  72.882  1.00  0.00    -0.044 NA 
HETATM   12  H1  UNL     1      -7.067   2.089  73.269  1.00  0.00     0.000 HD 
HETATM   13  H2  UNL     1      -6.498   3.574  72.724  1.00  0.00     0.000 HD 
ENDBRANCH   7  10
BRANCH   8  14
HETATM   14  O   UNL     1      -9.371   6.648  70.464  1.00  0.00    -0.164 OA 
BRANCH  14  15
HETATM   15  C   UNL     1      -9.766   6.739  69.071  1.00  0.00    -0.145 C  
HETATM   16  C   UNL     1      -8.500   6.237  68.325  1.00  0.00    -0.114 C  
HETATM   17  N   UNL     1      -8.229   4.819  68.626  1.00  0.00    -0.083 NA 
HETATM   18  C   UNL     1      -8.520   6.347  66.813  1.00  0.00    -0.112 C  
HETATM   19  H2  UNL     1      -9.039   4.232  68.427  1.00  0.00     0.000 HD 
HETATM   20  H1  UNL     1      -7.397   4.489  68.136  1.00  0.00     0.000 HD 
HETATM   21  C   UNL     1      -8.928   7.722  66.311  1.00  0.00    -0.174 C  
HETATM   22  N   UNL     1      -8.840   7.621  64.845  1.00  0.00    -0.351 NA 
HETATM   23  C   UNL     1     -10.326   8.079  66.907  1.00  0.00    -0.338 C  
HETATM   24  C   UNL     1     -10.223   8.129  68.490  1.00  0.00    -0.208 C  
HETATM   25  O   UNL     1     -11.507   8.482  69.038  1.00  0.00    -0.143 OA 
HETATM   26  H2  UNL     1      -9.383   6.856  64.448  1.00  0.00     0.000 HD 
HETATM   27  H1  UNL     1      -9.113   8.545  64.508  1.00  0.00     0.000 HD 
HETATM   28  H   UNL     1     -11.782   9.321  68.687  1.00  0.00     0.000 HD 
BRANCH  23  29
HETATM   29  O   UNL     1     -10.894   9.301  66.340  1.00  0.00     0.040 OA 
BRANCH  29  30
HETATM   30  C   UNL     1      -9.974  10.425  66.437  1.00  0.00    -0.221 C  
HETATM   31  O   UNL     1      -9.401  10.738  65.161  1.00  0.00    -0.195 OA 
HETATM   32  C   UNL     1     -10.384  11.266  64.253  1.00  0.00    -0.340 C  
HETATM   33  C   UNL     1     -10.840  12.636  64.754  1.00  0.00    -0.302 C  
HETATM   34  H   UNL     1     -11.561  12.179  68.747  1.00  0.00     0.000 HD 
HETATM   35  O   UNL     1     -11.767  13.243  63.852  1.00  0.00    -0.420 OA 
HETATM   36  C   UNL     1     -11.489  12.479  66.150  1.00  0.00    -0.377 C  
HETATM   37  H1  UNL     1     -12.281  13.705  67.608  1.00  0.00     0.000 HD 
HETATM   38  H2  UNL     1     -12.449  14.333  66.045  1.00  0.00     0.000 HD 
HETATM   39  C   UNL     1     -10.563  11.699  67.098  1.00  0.00    -0.232 C  
HETATM   40  N   UNL     1     -11.854  13.810  66.687  1.00  0.00    -0.388 NA 
HETATM   41  H   UNL     1     -12.050  14.094  64.162  1.00  0.00     0.000 HD 
HETATM   42  O   UNL     1     -11.200  11.399  68.343  1.00  0.00    -0.219 OA 
BRANCH  32  43
HETATM   43  C   UNL     1      -9.753  11.303  62.860  1.00  0.00    -0.323 C  
HETATM   44  O   UNL     1      -8.332  11.152  62.991  1.00  0.00    -0.406 OA 
HETATM   45  H   UNL     1      -7.940  11.176  62.126  1.00  0.00     0.000 HD 
ENDBRANCH  32  43
ENDBRANCH  29  30
ENDBRANCH  23  29
ENDBRANCH  14  15
ENDBRANCH   8  14
TORSDOF 6
ENDMDL
MODEL      133
REMARK 921   NORMALIZED FREE ENERGY PREDICTED BY IDOCK:   -5.15 KCAL/MOL
REMARK 922        TOTAL FREE ENERGY PREDICTED BY IDOCK:   -8.51 KCAL/MOL
REMARK 923 INTER-LIGAND FREE ENERGY PREDICTED BY IDOCK:   -7.07 KCAL/MOL
REMARK 924 INTRA-LIGAND FREE ENERGY PREDICTED BY IDOCK:   -1.44 KCAL/MOL
REMARK 927      BINDING AFFINITY PREDICTED BY RF-SCORE:    0.00 PKD
ROOT
HETATM    1  C   UNL     1      -8.336  12.872  67.403  1.00  0.00    -0.190 C  
HETATM    2  C   UNL     1      -9.095  14.105  66.898  1.00  0.00    -0.260 C  
HETATM    3  N   UNL     1      -7.580  13.314  68.595  1.00  0.00    -0.199 NA 
HETATM    4  H1  UNL     1      -7.075  12.494  68.931  1.00  0.00     0.000 HD 
HETATM    5  C   UNL     1     -10.156  13.773  65.874  1.00  0.00    -0.325 C  
HETATM    6  H2  UNL     1      -8.165  13.750  69.308  1.00  0.00     0.000 HD 
HETATM    7  C   UNL     1     -10.999  12.567  66.284  1.00  0.00    -0.277 C  
HETATM    8  C   UNL     1      -9.206  11.558  67.593  1.00  0.00    -0.171 C  
HETATM    9  O   UNL     1     -10.202  11.410  66.580  1.00  0.00    -0.210 OA 
ENDROOT
BRANCH   7  10
HETATM   10  C   UNL     1     -11.921  12.214  65.085  1.00  0.00    -0.262 C  
HETATM   11  N   UNL     1     -13.117  13.055  65.020  1.00  0.00    -0.764 NA 
HETATM   12  H1  UNL     1     -13.722  12.823  64.232  1.00  0.00     0.000 HD 
HETATM   13  H2  UNL     1     -12.867  14.044  65.009  1.00  0.00     0.000 HD 
ENDBRANCH   7  10
BRANCH   8  14
HETATM   14  O   UNL     1      -9.702  11.470  68.929  1.00  0.00    -0.161 OA 
BRANCH  14  15
HETATM   15  C   UNL     1     -10.326  10.257  69.420  1.00  0.00    -0.235 C  
HETATM   16  C   UNL     1     -11.630  10.788  70.079  1.00  0.00    -0.334 C  
HETATM   17  N   UNL     1     -12.530  11.385  69.074  1.00  0.00    -0.296 NA 
HETATM   18  C   UNL     1     -12.463   9.775  70.838  1.00  0.00    -0.366 C  
HETATM   19  H2  UNL     1     -12.732  10.732  68.317  1.00  0.00     0.000 HD 
HETATM   20  H1  UNL     1     -13.386  11.734  69.506  1.00  0.00     0.000 HD 
HETATM   21  C   UNL     1     -11.659   8.952  71.831  1.00  0.00    -0.371 C  
HETATM   22  N   UNL     1     -12.653   8.080  72.477  1.00  0.00    -0.575 NA 
HETATM   23  C   UNL     1     -10.494   8.245  71.069  1.00  0.00    -0.202 C  
HETATM   24  C   UNL     1      -9.541   9.343  70.434  1.00  0.00    -0.266 C  
HETATM   25  O   UNL     1      -8.454   8.691  69.752  1.00  0.00    -0.123 OA 
HETATM   26  H2  UNL     1     -13.204   7.522  71.825  1.00  0.00     0.000 HD 
HETATM   27  H1  UNL     1     -12.113   7.527  73.144  1.00  0.00     0.000 HD 
HETATM   28  H   UNL     1      -7.980   8.139  70.364  1.00  0.00     0.000 HD 
BRANCH  23  29
HETATM   29  O   UNL     1      -9.771   7.281  71.897  1.00  0.00    -0.156 OA 
BRANCH  29  30
HETATM   30  C   UNL     1      -9.939   5.917  71.415  1.00  0.00    -0.185 C  
HETATM   31  O   UNL     1      -8.793   5.485  70.670  1.00  0.00    -0.129 OA 
HETATM   32  C   UNL     1      -7.636   5.338  71.511  1.00  0.00    -0.102 C  
HETATM   33  C   UNL     1      -7.864   4.170  72.472  1.00  0.00    -0.086 C  
HETATM   34  H   UNL     1     -11.626   4.682  73.976  1.00  0.00     0.000 HD 
HETATM   35  O   UNL     1      -6.716   3.931  73.288  1.00  0.00    -0.039 OA 
HETATM   36  C   UNL     1      -9.092   4.475  73.364  1.00  0.00    -0.113 C  
HETATM   37  H1  UNL     1     -10.189   3.515  74.823  1.00  0.00     0.000 HD 
HETATM   38  H2  UNL     1      -8.565   3.035  74.785  1.00  0.00     0.000 HD 
HETATM   39  C   UNL     1     -10.303   4.877  72.507  1.00  0.00    -0.201 C  
HETATM   40  N   UNL     1      -9.379   3.314  74.236  1.00  0.00    -0.091 NA 
HETATM   41  H   UNL     1      -6.857   3.205  73.884  1.00  0.00     0.000 HD 
HETATM   42  O   UNL     1     -11.403   5.319  73.307  1.00  0.00    -0.308 OA 
BRANCH  32  43
HETATM   43  C   UNL     1      -6.422   5.152  70.600  1.00  0.00    -0.030 C  
HETATM   44  O   UNL     1      -6.857   4.575  69.361  1.00  0.00    -0.044 OA 
HETATM   45  H   UNL     1      -6.103   4.459  68.796  1.00  0.00     0.000 HD 
ENDBRANCH  32  43
ENDBRANCH  29  30
ENDBRANCH  23  29
ENDBRANCH  14  15
ENDBRANCH   8  14
TORSDOF 6
ENDMDL
MODEL      134
REMARK 921   NORMALIZED FREE ENERGY PREDICTED BY IDOCK:   -5.14 KCAL/MOL
REMARK 922        TOTAL FREE ENERGY PREDICTED BY IDOCK:   -8.50 KCAL/MOL
REMARK 923 INTER-LIGAND FREE ENERGY PREDICTED BY IDOCK:   -6.39 KCAL/MOL
REMARK 924 INTRA-LIGAND FREE ENERGY PREDICTED BY IDOCK:   -2.11 KCAL/MOL
REMARK 927      BINDING AFFINITY PREDICTED BY RF-SCORE:    0.00 PKD
ROOT
HETATM    1  C   UNL     1     -11.591  12.735  67.866  1.00  0.00    -0.351 C  
HETATM    2  C   UNL     1     -11.264  13.733  68.984  1.00  0.00    -0.313 C  
HETATM    3  N   UNL     1     -10.510  12.871  66.865  1.00  0.00    -0.245 NA 
HETATM    4  H1  UNL     1     -10.727  12.208  66.122  1.00  0.00     0.000 HD 
HETATM    5  C   UNL     1     -12.088  13.519  70.233  1.00  0.00    -0.425 C  
HETATM    6  H2  UNL     1      -9.576  12.751  67.257  1.00  0.00     0.000 HD 
HETATM    7  C   UNL     1     -12.166  12.046  70.629  1.00  0.00    -0.316 C  
HETATM    8  C   UNL     1     -11.903  11.252  68.338  1.00  0.00    -0.261 C  
HETATM    9  O   UNL     1     -12.639  11.210  69.561  1.00  0.00    -0.245 OA 
ENDROOT
BRANCH   7  10
HETATM   10  C   UNL     1     -13.175  11.932  71.804  1.00  0.00    -0.321 C  
HETATM   11  N   UNL     1     -13.497  10.547  72.147  1.00  0.00    -0.529 NA 
HETATM   12  H1  UNL     1     -14.160  10.473  72.918  1.00  0.00     0.000 HD 
HETATM   13  H2  UNL     1     -12.650  10.013  72.341  1.00  0.00     0.000 HD 
ENDBRANCH   7  10
BRANCH   8  14
HETATM   14  O   UNL     1     -10.715  10.460  68.335  1.00  0.00    -0.196 OA 
BRANCH  14  15
HETATM   15  C   UNL     1      -9.956  10.238  69.550  1.00  0.00    -0.228 C  
HETATM   16  C   UNL     1      -8.488  10.410  69.070  1.00  0.00    -0.155 C  
HETATM   17  N   UNL     1      -8.232  11.793  68.624  1.00  0.00    -0.276 NA 
HETATM   18  C   UNL     1      -7.406  10.090  70.083  1.00  0.00    -0.171 C  
HETATM   19  H2  UNL     1      -8.472  12.471  69.346  1.00  0.00     0.000 HD 
HETATM   20  H1  UNL     1      -7.268  11.906  68.309  1.00  0.00     0.000 HD 
HETATM   21  C   UNL     1      -7.593   8.744  70.763  1.00  0.00    -0.094 C  
HETATM   22  N   UNL     1      -6.429   8.618  71.656  1.00  0.00    -0.067 NA 
HETATM   23  C   UNL     1      -9.001   8.713  71.435  1.00  0.00    -0.222 C  
HETATM   24  C   UNL     1     -10.118   8.874  70.320  1.00  0.00    -0.189 C  
HETATM   25  O   UNL     1     -11.417   8.821  70.939  1.00  0.00    -0.275 OA 
HETATM   26  H2  UNL     1      -6.315   9.398  72.303  1.00  0.00     0.000 HD 
HETATM   27  H1  UNL     1      -6.554   7.714  72.113  1.00  0.00     0.000 HD 
HETATM   28  H   UNL     1     -11.514   7.998  71.404  1.00  0.00     0.000 HD 
BRANCH  23  29
HETATM   29  O   UNL     1      -9.208   7.534  72.275  1.00  0.00    -0.132 OA 
BRANCH  29  30
HETATM   30  C   UNL     1      -9.154   6.300  71.503  1.00  0.00    -0.145 C  
HETATM   31  O   UNL     1      -7.876   5.665  71.629  1.00  0.00    -0.104 OA 
HETATM   32  C   UNL     1      -7.659   5.165  72.959  1.00  0.00    -0.097 C  
HETATM   33  C   UNL     1      -8.628   4.011  73.222  1.00  0.00    -0.092 C  
HETATM   34  H   UNL     1     -12.279   5.305  71.928  1.00  0.00     0.000 HD 
HETATM   35  O   UNL     1      -8.410   3.426  74.507  1.00  0.00    -0.079 OA 
HETATM   36  C   UNL     1     -10.082   4.532  73.118  1.00  0.00    -0.156 C  
HETATM   37  H1  UNL     1     -11.989   3.750  73.211  1.00  0.00     0.000 HD 
HETATM   38  H2  UNL     1     -10.869   2.890  74.145  1.00  0.00     0.000 HD 
HETATM   39  C   UNL     1     -10.296   5.293  71.800  1.00  0.00    -0.214 C  
HETATM   40  N   UNL     1     -11.030   3.407  73.280  1.00  0.00    -0.186 NA 
HETATM   41  H   UNL     1      -9.012   2.709  74.670  1.00  0.00     0.000 HD 
HETATM   42  O   UNL     1     -11.579   5.922  71.746  1.00  0.00    -0.254 OA 
BRANCH  32  43
HETATM   43  C   UNL     1      -6.187   4.764  73.069  1.00  0.00    -0.036 C  
HETATM   44  O   UNL     1      -5.426   5.537  72.130  1.00  0.00    -0.016 OA 
HETATM   45  H   UNL     1      -4.512   5.288  72.198  1.00  0.00     0.000 HD 
ENDBRANCH  32  43
ENDBRANCH  29  30
ENDBRANCH  23  29
ENDBRANCH  14  15
ENDBRANCH   8  14
TORSDOF 6
ENDMDL
MODEL      135
REMARK 921   NORMALIZED FREE ENERGY PREDICTED BY IDOCK:   -5.12 KCAL/MOL
REMARK 922        TOTAL FREE ENERGY PREDICTED BY IDOCK:   -8.47 KCAL/MOL
REMARK 923 INTER-LIGAND FREE ENERGY PREDICTED BY IDOCK:   -8.34 KCAL/MOL
REMARK 924 INTRA-LIGAND FREE ENERGY PREDICTED BY IDOCK:   -0.12 KCAL/MOL
REMARK 927      BINDING AFFINITY PREDICTED BY RF-SCORE:    0.00 PKD
ROOT
HETATM    1  C   UNL     1     -11.126   7.202  72.292  1.00  0.00    -0.254 C  
HETATM    2  C   UNL     1     -10.488   7.089  73.681  1.00  0.00    -0.414 C  
HETATM    3  N   UNL     1     -12.568   7.448  72.520  1.00  0.00    -0.494 NA 
HETATM    4  H1  UNL     1     -12.992   7.523  71.596  1.00  0.00     0.000 HD 
HETATM    5  C   UNL     1      -8.978   7.144  73.650  1.00  0.00    -0.214 C  
HETATM    6  H2  UNL     1     -12.752   8.253  73.118  1.00  0.00     0.000 HD 
HETATM    7  C   UNL     1      -8.459   8.259  72.744  1.00  0.00    -0.183 C  
HETATM    8  C   UNL     1     -10.413   8.202  71.286  1.00  0.00    -0.209 C  
HETATM    9  O   UNL     1      -8.991   8.182  71.412  1.00  0.00    -0.132 OA 
ENDROOT
BRANCH   7  10
HETATM   10  C   UNL     1      -6.917   8.101  72.649  1.00  0.00    -0.092 C  
HETATM   11  N   UNL     1      -6.250   9.306  72.154  1.00  0.00    -0.280 NA 
HETATM   12  H1  UNL     1      -5.237   9.202  72.092  1.00  0.00     0.000 HD 
HETATM   13  H2  UNL     1      -6.500  10.118  72.719  1.00  0.00     0.000 HD 
ENDBRANCH   7  10
BRANCH   8  14
HETATM   14  O   UNL     1     -10.996   9.503  71.368  1.00  0.00    -0.351 OA 
BRANCH  14  15
HETATM   15  C   UNL     1     -11.516  10.170  70.190  1.00  0.00    -0.296 C  
HETATM   16  C   UNL     1     -10.807   9.415  69.032  1.00  0.00    -0.136 C  
HETATM   17  N   UNL     1     -11.232   8.003  68.976  1.00  0.00    -0.317 NA 
HETATM   18  C   UNL     1     -11.018   9.970  67.637  1.00  0.00    -0.297 C  
HETATM   19  H2  UNL     1     -12.246   7.919  68.913  1.00  0.00     0.000 HD 
HETATM   20  H1  UNL     1     -10.766   7.508  68.215  1.00  0.00     0.000 HD 
HETATM   21  C   UNL     1     -10.764  11.466  67.536  1.00  0.00    -0.222 C  
HETATM   22  N   UNL     1     -10.978  11.781  66.114  1.00  0.00    -0.299 NA 
HETATM   23  C   UNL     1     -11.681  12.200  68.564  1.00  0.00    -0.330 C  
HETATM   24  C   UNL     1     -11.310  11.723  70.032  1.00  0.00    -0.045 C  
HETATM   25  O   UNL     1     -12.140  12.418  70.980  1.00  0.00    -0.398 OA 
HETATM   26  H2  UNL     1     -11.887  11.488  65.756  1.00  0.00     0.000 HD 
HETATM   27  H1  UNL     1     -10.808  12.784  66.047  1.00  0.00     0.000 HD 
HETATM   28  H   UNL     1     -12.016  13.356  70.884  1.00  0.00     0.000 HD 
BRANCH  23  29
HETATM   29  O   UNL     1     -11.652  13.655  68.420  1.00  0.00    -0.297 OA 
BRANCH  29  30
HETATM   30  C   UNL     1     -10.291  14.168  68.360  1.00  0.00    -0.249 C  
HETATM   31  O   UNL     1      -9.887  14.410  67.006  1.00  0.00    -0.241 OA 
HETATM   32  C   UNL     1     -10.617  15.501  66.420  1.00  0.00    -0.311 C  
HETATM   33  C   UNL     1     -10.218  16.800  67.120  1.00  0.00    -0.295 C  
HETATM   34  H   UNL     1     -10.316  15.986  71.121  1.00  0.00     0.000 HD 
HETATM   35  O   UNL     1     -10.861  17.932  66.532  1.00  0.00    -0.186 OA 
HETATM   36  C   UNL     1     -10.586  16.705  68.621  1.00  0.00    -0.337 C  
HETATM   37  H1  UNL     1     -10.364  17.857  70.318  1.00  0.00     0.000 HD 
HETATM   38  H2  UNL     1     -10.479  18.774  68.900  1.00  0.00     0.000 HD 
HETATM   39  C   UNL     1     -10.023  15.416  69.240  1.00  0.00    -0.256 C  
HETATM   40  N   UNL     1     -10.122  17.920  69.329  1.00  0.00    -0.219 NA 
HETATM   41  H   UNL     1     -10.613  18.740  66.966  1.00  0.00     0.000 HD 
HETATM   42  O   UNL     1     -10.480  15.222  70.581  1.00  0.00    -0.210 OA 
BRANCH  32  43
HETATM   43  C   UNL     1     -10.325  15.501  64.919  1.00  0.00    -0.173 C  
HETATM   44  O   UNL     1     -11.090  14.458  64.299  1.00  0.00    -0.606 OA 
HETATM   45  H   UNL     1     -10.908  14.457  63.366  1.00  0.00     0.000 HD 
ENDBRANCH  32  43
ENDBRANCH  29  30
ENDBRANCH  23  29
ENDBRANCH  14  15
ENDBRANCH   8  14
TORSDOF 6
ENDMDL
MODEL      136
REMARK 921   NORMALIZED FREE ENERGY PREDICTED BY IDOCK:   -5.11 KCAL/MOL
REMARK 922        TOTAL FREE ENERGY PREDICTED BY IDOCK:   -8.45 KCAL/MOL
REMARK 923 INTER-LIGAND FREE ENERGY PREDICTED BY IDOCK:   -7.19 KCAL/MOL
REMARK 924 INTRA-LIGAND FREE ENERGY PREDICTED BY IDOCK:   -1.26 KCAL/MOL
REMARK 927      BINDING AFFINITY PREDICTED BY RF-SCORE:    0.00 PKD
ROOT
HETATM    1  C   UNL     1      -9.179   6.797  67.246  1.00  0.00    -0.133 C  
HETATM    2  C   UNL     1      -9.459   5.317  66.957  1.00  0.00    -0.137 C  
HETATM    3  N   UNL     1     -10.215   7.561  66.516  1.00  0.00    -0.485 NA 
HETATM    4  H1  UNL     1     -10.029   8.545  66.708  1.00  0.00     0.000 HD 
HETATM    5  C   UNL     1      -8.693   4.379  67.861  1.00  0.00    -0.116 C  
HETATM    6  H2  UNL     1     -11.167   7.276  66.746  1.00  0.00     0.000 HD 
HETATM    7  C   UNL     1      -8.743   4.816  69.325  1.00  0.00    -0.083 C  
HETATM    8  C   UNL     1      -8.999   7.178  68.776  1.00  0.00    -0.128 C  
HETATM    9  O   UNL     1      -8.305   6.171  69.513  1.00  0.00    -0.117 OA 
ENDROOT
BRANCH   7  10
HETATM   10  C   UNL     1      -7.782   3.891  70.120  1.00  0.00    -0.048 C  
HETATM   11  N   UNL     1      -7.147   4.566  71.251  1.00  0.00    -0.042 NA 
HETATM   12  H1  UNL     1      -6.516   3.958  71.773  1.00  0.00     0.000 HD 
HETATM   13  H2  UNL     1      -7.847   4.981  71.867  1.00  0.00     0.000 HD 
ENDBRANCH   7  10
BRANCH   8  14
HETATM   14  O   UNL     1     -10.245   7.577  69.348  1.00  0.00    -0.193 OA 
BRANCH  14  15
HETATM   15  C   UNL     1     -10.441   8.918  69.862  1.00  0.00    -0.214 C  
HETATM   16  C   UNL     1     -11.538   8.710  70.943  1.00  0.00    -0.269 C  
HETATM   17  N   UNL     1     -11.044   7.869  72.050  1.00  0.00    -0.261 NA 
HETATM   18  C   UNL     1     -12.096   9.964  71.587  1.00  0.00    -0.457 C  
HETATM   19  H2  UNL     1     -10.187   8.246  72.453  1.00  0.00     0.000 HD 
HETATM   20  H1  UNL     1     -11.764   7.732  72.759  1.00  0.00     0.000 HD 
HETATM   21  C   UNL     1     -12.528  11.020  70.582  1.00  0.00    -0.373 C  
HETATM   22  N   UNL     1     -13.069  12.113  71.406  1.00  0.00    -0.282 NA 
HETATM   23  C   UNL     1     -11.312  11.367  69.667  1.00  0.00    -0.275 C  
HETATM   24  C   UNL     1     -10.865  10.068  68.873  1.00  0.00    -0.220 C  
HETATM   25  O   UNL     1      -9.760  10.394  68.012  1.00  0.00    -0.148 OA 
HETATM   26  H2  UNL     1     -12.425  12.455  72.119  1.00  0.00     0.000 HD 
HETATM   27  H1  UNL     1     -13.359  12.822  70.732  1.00  0.00     0.000 HD 
HETATM   28  H   UNL     1     -10.016  11.088  67.415  1.00  0.00     0.000 HD 
BRANCH  23  29
HETATM   29  O   UNL     1     -11.565  12.507  68.787  1.00  0.00    -0.275 OA 
BRANCH  29  30
HETATM   30  C   UNL     1     -10.354  13.272  68.526  1.00  0.00    -0.239 C  
HETATM   31  O   UNL     1      -9.799  12.944  67.246  1.00  0.00    -0.212 OA 
HETATM   32  C   UNL     1     -10.642  13.390  66.170  1.00  0.00    -0.292 C  
HETATM   33  C   UNL     1     -10.650  14.919  66.144  1.00  0.00    -0.318 C  
HETATM   34  H   UNL     1     -11.216  16.097  70.013  1.00  0.00     0.000 HD 
HETATM   35  O   UNL     1     -11.417  15.421  65.049  1.00  0.00    -0.335 OA 
HETATM   36  C   UNL     1     -11.226  15.449  67.479  1.00  0.00    -0.302 C  
HETATM   37  H1  UNL     1     -11.534  17.278  68.385  1.00  0.00     0.000 HD 
HETATM   38  H2  UNL     1     -11.613  17.348  66.695  1.00  0.00     0.000 HD 
HETATM   39  C   UNL     1     -10.507  14.809  68.677  1.00  0.00    -0.250 C  
HETATM   40  N   UNL     1     -11.154  16.928  67.504  1.00  0.00    -0.105 NA 
HETATM   41  H   UNL     1     -11.421  16.371  65.032  1.00  0.00     0.000 HD 
HETATM   42  O   UNL     1     -11.122  15.156  69.920  1.00  0.00    -0.255 OA 
BRANCH  32  43
HETATM   43  C   UNL     1     -10.118  12.759  64.880  1.00  0.00    -0.213 C  
HETATM   44  O   UNL     1      -9.093  11.812  65.211  1.00  0.00    -0.413 OA 
HETATM   45  H   UNL     1      -8.767  11.420  64.409  1.00  0.00     0.000 HD 
ENDBRANCH  32  43
ENDBRANCH  29  30
ENDBRANCH  23  29
ENDBRANCH  14  15
ENDBRANCH   8  14
TORSDOF 6
ENDMDL
MODEL      137
REMARK 921   NORMALIZED FREE ENERGY PREDICTED BY IDOCK:   -5.10 KCAL/MOL
REMARK 922        TOTAL FREE ENERGY PREDICTED BY IDOCK:   -8.44 KCAL/MOL
REMARK 923 INTER-LIGAND FREE ENERGY PREDICTED BY IDOCK:   -7.23 KCAL/MOL
REMARK 924 INTRA-LIGAND FREE ENERGY PREDICTED BY IDOCK:   -1.21 KCAL/MOL
REMARK 927      BINDING AFFINITY PREDICTED BY RF-SCORE:    0.00 PKD
ROOT
HETATM    1  C   UNL     1      -9.542   6.192  67.153  1.00  0.00    -0.124 C  
HETATM    2  C   UNL     1     -10.278   5.518  68.317  1.00  0.00    -0.237 C  
HETATM    3  N   UNL     1     -10.154   5.659  65.916  1.00  0.00    -0.398 NA 
HETATM    4  H1  UNL     1      -9.665   6.107  65.142  1.00  0.00     0.000 HD 
HETATM    5  C   UNL     1      -9.999   6.166  69.654  1.00  0.00    -0.210 C  
HETATM    6  H2  UNL     1     -11.166   5.778  65.879  1.00  0.00     0.000 HD 
HETATM    7  C   UNL     1     -10.073   7.690  69.584  1.00  0.00    -0.194 C  
HETATM    8  C   UNL     1      -9.429   7.773  67.233  1.00  0.00    -0.148 C  
HETATM    9  O   UNL     1      -9.221   8.240  68.567  1.00  0.00    -0.137 OA 
ENDROOT
BRANCH   7  10
HETATM   10  C   UNL     1      -9.594   8.243  70.954  1.00  0.00    -0.165 C  
HETATM   11  N   UNL     1     -10.698   8.670  71.814  1.00  0.00    -0.294 NA 
HETATM   12  H1  UNL     1     -10.383   9.033  72.714  1.00  0.00     0.000 HD 
HETATM   13  H2  UNL     1     -11.374   7.917  71.940  1.00  0.00     0.000 HD 
ENDBRANCH   7  10
BRANCH   8  14
HETATM   14  O   UNL     1     -10.521   8.393  66.553  1.00  0.00    -0.249 OA 
BRANCH  14  15
HETATM   15  C   UNL     1     -10.677   9.835  66.539  1.00  0.00     0.011 C  
HETATM   16  C   UNL     1      -9.538  10.291  65.586  1.00  0.00    -0.232 C  
HETATM   17  N   UNL     1      -9.761   9.798  64.213  1.00  0.00    -0.409 NA 
HETATM   18  C   UNL     1      -9.320  11.786  65.463  1.00  0.00    -0.131 C  
HETATM   19  H2  UNL     1     -10.678  10.073  63.861  1.00  0.00     0.000 HD 
HETATM   20  H1  UNL     1      -9.013  10.097  63.588  1.00  0.00     0.000 HD 
HETATM   21  C   UNL     1      -9.212  12.494  66.804  1.00  0.00    -0.217 C  
HETATM   22  N   UNL     1      -8.962  13.902  66.458  1.00  0.00    -0.456 NA 
HETATM   23  C   UNL     1     -10.499  12.193  67.635  1.00  0.00    -0.206 C  
HETATM   24  C   UNL     1     -10.601  10.631  67.895  1.00  0.00    -0.228 C  
HETATM   25  O   UNL     1     -11.775  10.357  68.682  1.00  0.00    -0.548 OA 
HETATM   26  H2  UNL     1      -9.656  14.306  65.829  1.00  0.00     0.000 HD 
HETATM   27  H1  UNL     1      -8.890  14.378  67.358  1.00  0.00     0.000 HD 
HETATM   28  H   UNL     1     -11.729  10.837  69.501  1.00  0.00     0.000 HD 
BRANCH  23  29
HETATM   29  O   UNL     1     -10.582  12.977  68.866  1.00  0.00    -0.215 OA 
BRANCH  29  30
HETATM   30  C   UNL     1     -11.883  13.612  69.020  1.00  0.00    -0.352 C  
HETATM   31  O   UNL     1     -12.759  12.813  69.824  1.00  0.00     0.180 OA 
HETATM   32  C   UNL     1     -12.320  12.754  71.192  1.00  0.00    -0.149 C  
HETATM   33  C   UNL     1     -12.466  14.139  71.822  1.00  0.00    -0.276 C  
HETATM   34  H   UNL     1     -10.892  16.766  69.120  1.00  0.00     0.000 HD 
HETATM   35  O   UNL     1     -12.110  14.126  73.206  1.00  0.00     0.130 OA 
HETATM   36  C   UNL     1     -11.573  15.145  71.057  1.00  0.00    -0.347 C  
HETATM   37  H1  UNL     1     -11.186  17.171  71.094  1.00  0.00     0.000 HD 
HETATM   38  H2  UNL     1     -11.620  16.547  72.607  1.00  0.00     0.000 HD 
HETATM   39  C   UNL     1     -11.840  15.071  69.545  1.00  0.00    -0.330 C  
HETATM   40  N   UNL     1     -11.775  16.508  71.599  1.00  0.00    -0.317 NA 
HETATM   41  H   UNL     1     -12.202  14.986  73.598  1.00  0.00     0.000 HD 
HETATM   42  O   UNL     1     -10.919  15.872  68.798  1.00  0.00    -0.264 OA 
BRANCH  32  43
HETATM   43  C   UNL     1     -13.141  11.672  71.895  1.00  0.00    -0.385 C  
HETATM   44  O   UNL     1     -14.227  12.297  72.594  1.00  0.00    -0.329 OA 
HETATM   45  H   UNL     1     -14.737  11.625  73.031  1.00  0.00     0.000 HD 
ENDBRANCH  32  43
ENDBRANCH  29  30
ENDBRANCH  23  29
ENDBRANCH  14  15
ENDBRANCH   8  14
TORSDOF 6
ENDMDL
MODEL      138
REMARK 921   NORMALIZED FREE ENERGY PREDICTED BY IDOCK:   -5.09 KCAL/MOL
REMARK 922        TOTAL FREE ENERGY PREDICTED BY IDOCK:   -8.43 KCAL/MOL
REMARK 923 INTER-LIGAND FREE ENERGY PREDICTED BY IDOCK:   -7.39 KCAL/MOL
REMARK 924 INTRA-LIGAND FREE ENERGY PREDICTED BY IDOCK:   -1.04 KCAL/MOL
REMARK 927      BINDING AFFINITY PREDICTED BY RF-SCORE:    0.00 PKD
ROOT
HETATM    1  C   UNL     1      -6.871   8.371  69.304  1.00  0.00    -0.047 C  
HETATM    2  C   UNL     1      -6.338   8.514  70.735  1.00  0.00    -0.039 C  
HETATM    3  N   UNL     1      -7.775   7.200  69.318  1.00  0.00    -0.106 NA 
HETATM    4  H1  UNL     1      -8.129   7.105  68.366  1.00  0.00     0.000 HD 
HETATM    5  C   UNL     1      -5.642   9.833  70.983  1.00  0.00    -0.071 C  
HETATM    6  H2  UNL     1      -8.512   7.265  70.020  1.00  0.00     0.000 HD 
HETATM    7  C   UNL     1      -6.428  11.016  70.419  1.00  0.00     0.010 C  
HETATM    8  C   UNL     1      -7.469   9.691  68.657  1.00  0.00    -0.075 C  
HETATM    9  O   UNL     1      -6.739  10.861  69.026  1.00  0.00    -0.058 OA 
ENDROOT
BRANCH   7  10
HETATM   10  C   UNL     1      -5.538  12.280  70.570  1.00  0.00    -0.168 C  
HETATM   11  N   UNL     1      -6.016  13.193  71.608  1.00  0.00    -0.460 NA 
HETATM   12  H1  UNL     1      -5.431  14.023  71.706  1.00  0.00     0.000 HD 
HETATM   13  H2  UNL     1      -6.116  12.710  72.501  1.00  0.00     0.000 HD 
ENDBRANCH   7  10
BRANCH   8  14
HETATM   14  O   UNL     1      -8.876   9.774  68.888  1.00  0.00    -0.129 OA 
BRANCH  14  15
HETATM   15  C   UNL     1      -9.717  10.656  68.103  1.00  0.00    -0.156 C  
HETATM   16  C   UNL     1     -10.005   9.808  66.833  1.00  0.00    -0.211 C  
HETATM   17  N   UNL     1     -10.794   8.606  67.162  1.00  0.00    -0.391 NA 
HETATM   18  C   UNL     1     -10.752  10.504  65.713  1.00  0.00    -0.055 C  
HETATM   19  H2  UNL     1     -11.653   8.845  67.657  1.00  0.00     0.000 HD 
HETATM   20  H1  UNL     1     -10.984   8.049  66.328  1.00  0.00     0.000 HD 
HETATM   21  C   UNL     1     -10.157  11.851  65.334  1.00  0.00    -0.253 C  
HETATM   22  N   UNL     1     -10.994  12.323  64.219  1.00  0.00    -0.317 NA 
HETATM   23  C   UNL     1     -10.109  12.753  66.607  1.00  0.00    -0.243 C  
HETATM   24  C   UNL     1      -9.173  12.076  67.694  1.00  0.00    -0.182 C  
HETATM   25  O   UNL     1      -9.110  12.920  68.858  1.00  0.00    -0.380 OA 
HETATM   26  H2  UNL     1     -11.991  12.354  64.431  1.00  0.00     0.000 HD 
HETATM   27  H1  UNL     1     -10.594  13.227  63.964  1.00  0.00     0.000 HD 
HETATM   28  H   UNL     1      -8.782  13.778  68.611  1.00  0.00     0.000 HD 
BRANCH  23  29
HETATM   29  O   UNL     1      -9.726  14.134  66.315  1.00  0.00    -0.284 OA 
BRANCH  29  30
HETATM   30  C   UNL     1     -10.877  15.025  66.296  1.00  0.00    -0.333 C  
HETATM   31  O   UNL     1     -11.861  14.622  67.257  1.00  0.00    -0.392 OA 
HETATM   32  C   UNL     1     -11.394  14.805  68.605  1.00  0.00    -0.285 C  
HETATM   33  C   UNL     1     -11.255  16.302  68.884  1.00  0.00    -0.337 C  
HETATM   34  H   UNL     1      -9.307  17.863  65.653  1.00  0.00     0.000 HD 
HETATM   35  O   UNL     1     -10.861  16.548  70.235  1.00  0.00    -0.294 OA 
HETATM   36  C   UNL     1     -10.215  16.908  67.912  1.00  0.00    -0.308 C  
HETATM   37  H1  UNL     1      -9.451  18.773  67.469  1.00  0.00     0.000 HD 
HETATM   38  H2  UNL     1      -9.943  18.619  69.081  1.00  0.00     0.000 HD 
HETATM   39  C   UNL     1     -10.542  16.531  66.458  1.00  0.00    -0.217 C  
HETATM   40  N   UNL     1     -10.137  18.373  68.110  1.00  0.00    -0.363 NA 
HETATM   41  H   UNL     1     -10.775  17.478  70.409  1.00  0.00     0.000 HD 
HETATM   42  O   UNL     1      -9.513  16.941  65.553  1.00  0.00    -0.496 OA 
BRANCH  32  43
HETATM   43  C   UNL     1     -12.380  14.098  69.536  1.00  0.00    -0.231 C  
HETATM   44  O   UNL     1     -11.652  13.527  70.632  1.00  0.00    -0.519 OA 
HETATM   45  H   UNL     1     -12.265  13.087  71.211  1.00  0.00     0.000 HD 
ENDBRANCH  32  43
ENDBRANCH  29  30
ENDBRANCH  23  29
ENDBRANCH  14  15
ENDBRANCH   8  14
TORSDOF 6
ENDMDL
MODEL      139
REMARK 921   NORMALIZED FREE ENERGY PREDICTED BY IDOCK:   -5.08 KCAL/MOL
REMARK 922        TOTAL FREE ENERGY PREDICTED BY IDOCK:   -8.41 KCAL/MOL
REMARK 923 INTER-LIGAND FREE ENERGY PREDICTED BY IDOCK:   -7.97 KCAL/MOL
REMARK 924 INTRA-LIGAND FREE ENERGY PREDICTED BY IDOCK:   -0.44 KCAL/MOL
REMARK 927      BINDING AFFINITY PREDICTED BY RF-SCORE:    0.00 PKD
ROOT
HETATM    1  C   UNL     1      -9.625   4.290  69.461  1.00  0.00    -0.204 C  
HETATM    2  C   UNL     1      -8.896   3.151  68.737  1.00  0.00    -0.167 C  
HETATM    3  N   UNL     1      -8.860   4.545  70.702  1.00  0.00    -0.097 NA 
HETATM    4  H1  UNL     1      -9.344   5.301  71.183  1.00  0.00     0.000 HD 
HETATM    5  C   UNL     1      -9.354   2.964  67.309  1.00  0.00    -0.176 C  
HETATM    6  H2  UNL     1      -7.871   4.735  70.537  1.00  0.00     0.000 HD 
HETATM    7  C   UNL     1      -9.473   4.291  66.560  1.00  0.00    -0.185 C  
HETATM    8  C   UNL     1      -9.946   5.571  68.581  1.00  0.00    -0.166 C  
HETATM    9  O   UNL     1     -10.311   5.237  67.241  1.00  0.00    -0.206 OA 
ENDROOT
BRANCH   7  10
HETATM   10  C   UNL     1     -10.119   3.990  65.180  1.00  0.00    -0.182 C  
HETATM   11  N   UNL     1     -11.554   4.269  65.150  1.00  0.00    -0.824 NA 
HETATM   12  H1  UNL     1     -11.978   4.072  64.244  1.00  0.00     0.000 HD 
HETATM   13  H2  UNL     1     -11.745   5.228  65.441  1.00  0.00     0.000 HD 
ENDBRANCH   7  10
BRANCH   8  14
HETATM   14  O   UNL     1      -8.897   6.533  68.686  1.00  0.00    -0.122 OA 
BRANCH  14  15
HETATM   15  C   UNL     1      -9.183   7.946  68.835  1.00  0.00    -0.144 C  
HETATM   16  C   UNL     1      -9.759   8.026  70.276  1.00  0.00    -0.175 C  
HETATM   17  N   UNL     1      -8.740   7.663  71.279  1.00  0.00    -0.130 NA 
HETATM   18  C   UNL     1     -10.311   9.370  70.708  1.00  0.00    -0.366 C  
HETATM   19  H2  UNL     1      -7.898   8.230  71.180  1.00  0.00     0.000 HD 
HETATM   20  H1  UNL     1      -9.118   7.716  72.225  1.00  0.00     0.000 HD 
HETATM   21  C   UNL     1     -11.283   9.975  69.708  1.00  0.00    -0.258 C  
HETATM   22  N   UNL     1     -11.723  11.232  70.336  1.00  0.00    -0.431 NA 
HETATM   23  C   UNL     1     -10.571  10.092  68.325  1.00  0.00    -0.226 C  
HETATM   24  C   UNL     1     -10.164   8.644  67.820  1.00  0.00    -0.225 C  
HETATM   25  O   UNL     1      -9.529   8.751  66.533  1.00  0.00    -0.182 OA 
HETATM   26  H2  UNL     1     -10.959  11.854  70.601  1.00  0.00     0.000 HD 
HETATM   27  H1  UNL     1     -12.375  11.638  69.665  1.00  0.00     0.000 HD 
HETATM   28  H   UNL     1     -10.121   9.173  65.920  1.00  0.00     0.000 HD 
BRANCH  23  29
HETATM   29  O   UNL     1     -11.356  10.834  67.338  1.00  0.00    -0.416 OA 
BRANCH  29  30
HETATM   30  C   UNL     1     -10.545  11.802  66.614  1.00  0.00    -0.240 C  
HETATM   31  O   UNL     1     -11.349  12.600  65.736  1.00  0.00    -0.305 OA 
HETATM   32  C   UNL     1     -12.229  13.471  66.468  1.00  0.00    -0.380 C  
HETATM   33  C   UNL     1     -11.393  14.524  67.197  1.00  0.00    -0.350 C  
HETATM   34  H   UNL     1      -8.340  12.482  68.982  1.00  0.00     0.000 HD 
HETATM   35  O   UNL     1     -12.220  15.464  67.886  1.00  0.00    -0.344 OA 
HETATM   36  C   UNL     1     -10.447  13.820  68.199  1.00  0.00    -0.249 C  
HETATM   37  H1  UNL     1      -8.944  14.355  69.507  1.00  0.00     0.000 HD 
HETATM   38  H2  UNL     1     -10.100  15.571  69.286  1.00  0.00     0.000 HD 
HETATM   39  C   UNL     1      -9.651  12.703  67.505  1.00  0.00    -0.184 C  
HETATM   40  N   UNL     1      -9.568  14.820  68.847  1.00  0.00    -0.219 NA 
HETATM   41  H   UNL     1     -11.701  16.118  68.339  1.00  0.00     0.000 HD 
HETATM   42  O   UNL     1      -8.888  11.930  68.436  1.00  0.00    -0.178 OA 
BRANCH  32  43
HETATM   43  C   UNL     1     -13.225  14.065  65.471  1.00  0.00     0.019 C  
HETATM   44  O   UNL     1     -12.511  14.495  64.303  1.00  0.00    -0.657 OA 
HETATM   45  H   UNL     1     -13.130  14.864  63.684  1.00  0.00     0.000 HD 
ENDBRANCH  32  43
ENDBRANCH  29  30
ENDBRANCH  23  29
ENDBRANCH  14  15
ENDBRANCH   8  14
TORSDOF 6
ENDMDL
MODEL      140
REMARK 921   NORMALIZED FREE ENERGY PREDICTED BY IDOCK:   -5.05 KCAL/MOL
REMARK 922        TOTAL FREE ENERGY PREDICTED BY IDOCK:   -8.38 KCAL/MOL
REMARK 923 INTER-LIGAND FREE ENERGY PREDICTED BY IDOCK:   -6.92 KCAL/MOL
REMARK 924 INTRA-LIGAND FREE ENERGY PREDICTED BY IDOCK:   -1.46 KCAL/MOL
REMARK 927      BINDING AFFINITY PREDICTED BY RF-SCORE:    0.00 PKD
ROOT
HETATM    1  C   UNL     1     -12.473  13.863  71.577  1.00  0.00    -0.297 C  
HETATM    2  C   UNL     1     -13.442  14.949  71.094  1.00  0.00    -0.474 C  
HETATM    3  N   UNL     1     -13.314  12.754  72.078  1.00  0.00    -0.501 NA 
HETATM    4  H1  UNL     1     -12.670  12.032  72.399  1.00  0.00     0.000 HD 
HETATM    5  C   UNL     1     -12.771  16.024  70.271  1.00  0.00     0.327 C  
HETATM    6  H2  UNL     1     -13.993  12.418  71.395  1.00  0.00     0.000 HD 
HETATM    7  C   UNL     1     -11.816  15.442  69.229  1.00  0.00    -0.343 C  
HETATM    8  C   UNL     1     -11.337  13.448  70.549  1.00  0.00     0.564 C  
HETATM    9  O   UNL     1     -10.839  14.561  69.805  1.00  0.00    -0.202 OA 
ENDROOT
BRANCH   7  10
HETATM   10  C   UNL     1     -11.059  16.631  68.578  1.00  0.00    -0.301 C  
HETATM   11  N   UNL     1     -10.189  17.337  69.518  1.00  0.00    -0.133 NA 
HETATM   12  H1  UNL     1      -9.691  18.117  69.090  1.00  0.00     0.000 HD 
HETATM   13  H2  UNL     1      -9.538  16.692  69.967  1.00  0.00     0.000 HD 
ENDBRANCH   7  10
BRANCH   8  14
HETATM   14  O   UNL     1     -11.758  12.343  69.749  1.00  0.00    -0.307 OA 
BRANCH  14  15
HETATM   15  C   UNL     1     -10.804  11.554  68.994  1.00  0.00    -0.212 C  
HETATM   16  C   UNL     1     -11.333  11.682  67.539  1.00  0.00    -0.298 C  
HETATM   17  N   UNL     1     -11.247  13.074  67.060  1.00  0.00    -0.278 NA 
HETATM   18  C   UNL     1     -10.637  10.836  66.492  1.00  0.00    -0.279 C  
HETATM   19  H2  UNL     1     -10.301  13.443  67.149  1.00  0.00     0.000 HD 
HETATM   20  H1  UNL     1     -11.595  13.158  66.104  1.00  0.00     0.000 HD 
HETATM   21  C   UNL     1     -10.502   9.374  66.886  1.00  0.00    -0.211 C  
HETATM   22  N   UNL     1      -9.850   8.738  65.729  1.00  0.00    -0.458 NA 
HETATM   23  C   UNL     1      -9.748   9.290  68.250  1.00  0.00    -0.150 C  
HETATM   24  C   UNL     1     -10.596  10.038  69.364  1.00  0.00    -0.233 C  
HETATM   25  O   UNL     1      -9.912   9.940  70.627  1.00  0.00    -0.353 OA 
HETATM   26  H2  UNL     1      -8.972   9.177  65.454  1.00  0.00     0.000 HD 
HETATM   27  H1  UNL     1      -9.760   7.757  65.994  1.00  0.00     0.000 HD 
HETATM   28  H   UNL     1      -9.786   9.024  70.850  1.00  0.00     0.000 HD 
BRANCH  23  29
HETATM   29  O   UNL     1      -9.401   7.921  68.630  1.00  0.00    -0.146 OA 
BRANCH  29  30
HETATM   30  C   UNL     1     -10.583   7.087  68.795  1.00  0.00    -0.212 C  
HETATM   31  O   UNL     1     -10.863   6.342  67.604  1.00  0.00    -0.280 OA 
HETATM   32  C   UNL     1      -9.857   5.345  67.351  1.00  0.00    -0.154 C  
HETATM   33  C   UNL     1      -9.936   4.272  68.437  1.00  0.00     0.043 C  
HETATM   34  H   UNL     1     -10.192   6.287  71.980  1.00  0.00     0.000 HD 
HETATM   35  O   UNL     1      -9.004   3.215  68.199  1.00  0.00    -0.110 OA 
HETATM   36  C   UNL     1      -9.658   4.919  69.815  1.00  0.00    -0.172 C  
HETATM   37  H1  UNL     1      -9.638   4.336  71.794  1.00  0.00     0.000 HD 
HETATM   38  H2  UNL     1      -9.242   3.084  70.726  1.00  0.00     0.000 HD 
HETATM   39  C   UNL     1     -10.554   6.150  70.031  1.00  0.00    -0.261 C  
HETATM   40  N   UNL     1      -9.821   3.909  70.886  1.00  0.00    -0.177 NA 
HETATM   41  H   UNL     1      -9.053   2.548  68.873  1.00  0.00     0.000 HD 
HETATM   42  O   UNL     1     -10.210   6.861  71.223  1.00  0.00    -0.198 OA 
BRANCH  32  43
HETATM   43  C   UNL     1     -10.086   4.804  65.939  1.00  0.00    -0.242 C  
HETATM   44  O   UNL     1     -11.491   4.848  65.649  1.00  0.00    -0.869 OA 
HETATM   45  H   UNL     1     -11.633   4.511  64.772  1.00  0.00     0.000 HD 
ENDBRANCH  32  43
ENDBRANCH  29  30
ENDBRANCH  23  29
ENDBRANCH  14  15
ENDBRANCH   8  14
TORSDOF 6
ENDMDL
MODEL      141
REMARK 921   NORMALIZED FREE ENERGY PREDICTED BY IDOCK:   -5.03 KCAL/MOL
REMARK 922        TOTAL FREE ENERGY PREDICTED BY IDOCK:   -8.35 KCAL/MOL
REMARK 923 INTER-LIGAND FREE ENERGY PREDICTED BY IDOCK:   -7.31 KCAL/MOL
REMARK 924 INTRA-LIGAND FREE ENERGY PREDICTED BY IDOCK:   -1.04 KCAL/MOL
REMARK 927      BINDING AFFINITY PREDICTED BY RF-SCORE:    0.00 PKD
ROOT
HETATM    1  C   UNL     1     -10.027   4.706  69.148  1.00  0.00    -0.138 C  
HETATM    2  C   UNL     1      -8.900   3.919  68.467  1.00  0.00    -0.148 C  
HETATM    3  N   UNL     1     -10.032   4.275  70.563  1.00  0.00    -0.195 NA 
HETATM    4  H1  UNL     1     -10.781   4.799  71.016  1.00  0.00     0.000 HD 
HETATM    5  C   UNL     1      -8.546   4.450  67.097  1.00  0.00    -0.104 C  
HETATM    6  H2  UNL     1      -9.128   4.381  71.024  1.00  0.00     0.000 HD 
HETATM    7  C   UNL     1      -8.428   5.974  67.080  1.00  0.00    -0.104 C  
HETATM    8  C   UNL     1     -10.010   6.276  68.911  1.00  0.00    -0.153 C  
HETATM    9  O   UNL     1      -9.603   6.626  67.588  1.00  0.00    -0.124 OA 
ENDROOT
BRANCH   7  10
HETATM   10  C   UNL     1      -8.245   6.410  65.601  1.00  0.00    -0.140 C  
HETATM   11  N   UNL     1      -9.032   7.593  65.254  1.00  0.00    -0.366 NA 
HETATM   12  H1  UNL     1      -8.911   7.879  64.282  1.00  0.00     0.000 HD 
HETATM   13  H2  UNL     1      -8.829   8.365  65.889  1.00  0.00     0.000 HD 
ENDBRANCH   7  10
BRANCH   8  14
HETATM   14  O   UNL     1      -9.283   6.936  69.948  1.00  0.00    -0.148 OA 
BRANCH  14  15
HETATM   15  C   UNL     1      -9.672   8.251  70.419  1.00  0.00    -0.168 C  
HETATM   16  C   UNL     1     -11.064   7.986  71.057  1.00  0.00    -0.253 C  
HETATM   17  N   UNL     1     -10.953   7.099  72.230  1.00  0.00    -0.234 NA 
HETATM   18  C   UNL     1     -11.834   9.204  71.525  1.00  0.00    -0.428 C  
HETATM   19  H2  UNL     1     -10.291   7.463  72.914  1.00  0.00     0.000 HD 
HETATM   20  H1  UNL     1     -11.867   6.925  72.649  1.00  0.00     0.000 HD 
HETATM   21  C   UNL     1     -11.925  10.302  70.477  1.00  0.00    -0.323 C  
HETATM   22  N   UNL     1     -12.737  11.352  71.113  1.00  0.00    -0.401 NA 
HETATM   23  C   UNL     1     -10.479  10.699  70.041  1.00  0.00    -0.009 C  
HETATM   24  C   UNL     1      -9.763   9.441  69.393  1.00  0.00    -0.177 C  
HETATM   25  O   UNL     1      -8.439   9.814  68.969  1.00  0.00    -0.122 OA 
HETATM   26  H2  UNL     1     -12.378  11.667  72.015  1.00  0.00     0.000 HD 
HETATM   27  H1  UNL     1     -12.798  12.089  70.410  1.00  0.00     0.000 HD 
HETATM   28  H   UNL     1      -8.495  10.533  68.349  1.00  0.00     0.000 HD 
BRANCH  23  29
HETATM   29  O   UNL     1     -10.447  11.876  69.173  1.00  0.00    -0.133 OA 
BRANCH  29  30
HETATM   30  C   UNL     1     -11.743  12.139  68.565  1.00  0.00    -0.330 C  
HETATM   31  O   UNL     1     -12.234  13.435  68.930  1.00  0.00    -0.294 OA 
HETATM   32  C   UNL     1     -11.442  14.486  68.351  1.00  0.00    -0.302 C  
HETATM   33  C   UNL     1     -11.632  14.477  66.834  1.00  0.00    -0.385 C  
HETATM   34  H   UNL     1     -11.276  10.573  65.690  1.00  0.00     0.000 HD 
HETATM   35  O   UNL     1     -10.922  15.547  66.210  1.00  0.00    -0.314 OA 
HETATM   36  C   UNL     1     -11.148  13.120  66.267  1.00  0.00    -0.287 C  
HETATM   37  H1  UNL     1     -11.092  12.168  64.438  1.00  0.00     0.000 HD 
HETATM   38  H2  UNL     1     -11.001  13.854  64.315  1.00  0.00     0.000 HD 
HETATM   39  C   UNL     1     -11.794  11.950  67.026  1.00  0.00    -0.113 C  
HETATM   40  N   UNL     1     -11.411  13.062  64.811  1.00  0.00    -0.316 NA 
HETATM   41  H   UNL     1     -11.041  15.542  65.267  1.00  0.00     0.000 HD 
HETATM   42  O   UNL     1     -11.246  10.689  66.633  1.00  0.00    -0.130 OA 
BRANCH  32  43
HETATM   43  C   UNL     1     -11.862  15.800  69.012  1.00  0.00    -0.355 C  
HETATM   44  O   UNL     1     -12.804  15.512  70.055  1.00  0.00    -0.621 OA 
HETATM   45  H   UNL     1     -13.066  16.328  70.465  1.00  0.00     0.000 HD 
ENDBRANCH  32  43
ENDBRANCH  29  30
ENDBRANCH  23  29
ENDBRANCH  14  15
ENDBRANCH   8  14
TORSDOF 6
ENDMDL
MODEL      142
REMARK 921   NORMALIZED FREE ENERGY PREDICTED BY IDOCK:   -5.02 KCAL/MOL
REMARK 922        TOTAL FREE ENERGY PREDICTED BY IDOCK:   -8.34 KCAL/MOL
REMARK 923 INTER-LIGAND FREE ENERGY PREDICTED BY IDOCK:   -8.71 KCAL/MOL
REMARK 924 INTRA-LIGAND FREE ENERGY PREDICTED BY IDOCK:    0.37 KCAL/MOL
REMARK 927      BINDING AFFINITY PREDICTED BY RF-SCORE:    0.00 PKD
ROOT
HETATM    1  C   UNL     1     -12.450  13.672  65.371  1.00  0.00    -0.499 C  
HETATM    2  C   UNL     1     -12.170  14.735  64.303  1.00  0.00    -0.402 C  
HETATM    3  N   UNL     1     -13.097  12.542  64.667  1.00  0.00    -0.837 NA 
HETATM    4  H1  UNL     1     -13.283  11.835  65.377  1.00  0.00     0.000 HD 
HETATM    5  C   UNL     1     -11.239  15.827  64.779  1.00  0.00    -0.375 C  
HETATM    6  H2  UNL     1     -12.554  12.192  63.878  1.00  0.00     0.000 HD 
HETATM    7  C   UNL     1     -10.030  15.270  65.528  1.00  0.00    -0.348 C  
HETATM    8  C   UNL     1     -11.220  13.285  66.297  1.00  0.00    -0.299 C  
HETATM    9  O   UNL     1     -10.401  14.411  66.618  1.00  0.00    -0.268 OA 
ENDROOT
BRANCH   7  10
HETATM   10  C   UNL     1      -9.252  16.478  66.120  1.00  0.00    -0.303 C  
HETATM   11  N   UNL     1      -9.907  17.759  65.861  1.00  0.00    -0.550 NA 
HETATM   12  H1  UNL     1      -9.396  18.552  66.250  1.00  0.00     0.000 HD 
HETATM   13  H2  UNL     1     -10.872  17.749  66.192  1.00  0.00     0.000 HD 
ENDBRANCH   7  10
BRANCH   8  14
HETATM   14  O   UNL     1     -10.509  12.172  65.755  1.00  0.00    -0.239 OA 
BRANCH  14  15
HETATM   15  C   UNL     1     -10.066  11.079  66.599  1.00  0.00    -0.220 C  
HETATM   16  C   UNL     1     -10.086   9.869  65.625  1.00  0.00    -0.237 C  
HETATM   17  N   UNL     1      -9.095  10.036  64.545  1.00  0.00    -0.222 NA 
HETATM   18  C   UNL     1      -9.812   8.508  66.235  1.00  0.00    -0.285 C  
HETATM   19  H2  UNL     1      -8.160  10.204  64.916  1.00  0.00     0.000 HD 
HETATM   20  H1  UNL     1      -9.108   9.241  63.905  1.00  0.00     0.000 HD 
HETATM   21  C   UNL     1     -10.653   8.218  67.468  1.00  0.00    -0.221 C  
HETATM   22  N   UNL     1     -10.267   6.854  67.865  1.00  0.00    -0.162 NA 
HETATM   23  C   UNL     1     -10.412   9.349  68.516  1.00  0.00    -0.208 C  
HETATM   24  C   UNL     1     -10.876  10.738  67.905  1.00  0.00    -0.264 C  
HETATM   25  O   UNL     1     -10.676  11.776  68.881  1.00  0.00    -0.216 OA 
HETATM   26  H2  UNL     1      -9.265   6.730  68.006  1.00  0.00     0.000 HD 
HETATM   27  H1  UNL     1     -10.831   6.659  68.692  1.00  0.00     0.000 HD 
HETATM   28  H   UNL     1     -11.165  11.570  69.670  1.00  0.00     0.000 HD 
BRANCH  23  29
HETATM   29  O   UNL     1     -11.030   9.069  69.812  1.00  0.00    -0.231 OA 
BRANCH  29  30
HETATM   30  C   UNL     1     -10.146   9.405  70.920  1.00  0.00    -0.296 C  
HETATM   31  O   UNL     1     -10.529   8.716  72.116  1.00  0.00    -0.322 OA 
HETATM   32  C   UNL     1     -10.307   7.299  72.008  1.00  0.00    -0.192 C  
HETATM   33  C   UNL     1      -8.802   7.034  71.942  1.00  0.00    -0.125 C  
HETATM   34  H   UNL     1      -7.318   9.705  69.233  1.00  0.00     0.000 HD 
HETATM   35  O   UNL     1      -8.517   5.635  71.905  1.00  0.00    -0.125 OA 
HETATM   36  C   UNL     1      -8.217   7.726  70.688  1.00  0.00    -0.115 C  
HETATM   37  H1  UNL     1      -6.360   8.011  69.833  1.00  0.00     0.000 HD 
HETATM   38  H2  UNL     1      -6.473   6.573  70.720  1.00  0.00     0.000 HD 
HETATM   39  C   UNL     1      -8.634   9.204  70.634  1.00  0.00    -0.226 C  
HETATM   40  N   UNL     1      -6.746   7.555  70.660  1.00  0.00    -0.043 NA 
HETATM   41  H   UNL     1      -7.582   5.470  71.865  1.00  0.00     0.000 HD 
HETATM   42  O   UNL     1      -8.244   9.828  69.408  1.00  0.00    -0.110 OA 
BRANCH  32  43
HETATM   43  C   UNL     1     -10.993   6.631  73.200  1.00  0.00    -0.231 C  
HETATM   44  O   UNL     1     -12.049   5.790  72.714  1.00  0.00    -0.543 OA 
HETATM   45  H   UNL     1     -12.476   5.375  73.455  1.00  0.00     0.000 HD 
ENDBRANCH  32  43
ENDBRANCH  29  30
ENDBRANCH  23  29
ENDBRANCH  14  15
ENDBRANCH   8  14
TORSDOF 6
ENDMDL
MODEL      143
REMARK 921   NORMALIZED FREE ENERGY PREDICTED BY IDOCK:   -4.98 KCAL/MOL
REMARK 922        TOTAL FREE ENERGY PREDICTED BY IDOCK:   -8.29 KCAL/MOL
REMARK 923 INTER-LIGAND FREE ENERGY PREDICTED BY IDOCK:   -7.87 KCAL/MOL
REMARK 924 INTRA-LIGAND FREE ENERGY PREDICTED BY IDOCK:   -0.42 KCAL/MOL
REMARK 927      BINDING AFFINITY PREDICTED BY RF-SCORE:    0.00 PKD
ROOT
HETATM    1  C   UNL     1     -10.402  12.699  67.376  1.00  0.00    -0.220 C  
HETATM    2  C   UNL     1     -11.898  13.021  67.281  1.00  0.00    -0.419 C  
HETATM    3  N   UNL     1     -10.183  12.160  68.736  1.00  0.00    -0.381 NA 
HETATM    4  H1  UNL     1      -9.188  11.946  68.799  1.00  0.00     0.000 HD 
HETATM    5  C   UNL     1     -12.361  13.293  65.868  1.00  0.00    -0.479 C  
HETATM    6  H2  UNL     1     -10.784  11.366  68.960  1.00  0.00     0.000 HD 
HETATM    7  C   UNL     1     -11.813  12.271  64.873  1.00  0.00    -0.358 C  
HETATM    8  C   UNL     1      -9.809  11.827  66.190  1.00  0.00    -0.229 C  
HETATM    9  O   UNL     1     -10.382  12.160  64.925  1.00  0.00    -0.273 OA 
ENDROOT
BRANCH   7  10
HETATM   10  C   UNL     1     -12.200  12.753  63.449  1.00  0.00    -0.504 C  
HETATM   11  N   UNL     1     -12.325  14.208  63.354  1.00  0.00    -1.144 NA 
HETATM   12  H1  UNL     1     -12.579  14.524  62.418  1.00  0.00     0.000 HD 
HETATM   13  H2  UNL     1     -11.474  14.668  63.676  1.00  0.00     0.000 HD 
ENDBRANCH   7  10
BRANCH   8  14
HETATM   14  O   UNL     1      -9.857  10.437  66.513  1.00  0.00    -0.190 OA 
BRANCH  14  15
HETATM   15  C   UNL     1      -9.175   9.911  67.680  1.00  0.00    -0.133 C  
HETATM   16  C   UNL     1      -7.803   9.470  67.101  1.00  0.00    -0.095 C  
HETATM   17  N   UNL     1      -7.033  10.629  66.611  1.00  0.00    -0.111 NA 
HETATM   18  C   UNL     1      -6.881   8.724  68.045  1.00  0.00    -0.070 C  
HETATM   19  H2  UNL     1      -6.924  11.339  67.334  1.00  0.00     0.000 HD 
HETATM   20  H1  UNL     1      -6.131  10.339  66.230  1.00  0.00     0.000 HD 
HETATM   21  C   UNL     1      -7.556   7.567  68.763  1.00  0.00    -0.106 C  
HETATM   22  N   UNL     1      -6.489   6.966  69.579  1.00  0.00    -0.042 NA 
HETATM   23  C   UNL     1      -8.803   8.111  69.528  1.00  0.00    -0.143 C  
HETATM   24  C   UNL     1      -9.830   8.727  68.486  1.00  0.00    -0.168 C  
HETATM   25  O   UNL     1     -10.990   9.207  69.190  1.00  0.00    -0.397 OA 
HETATM   26  H2  UNL     1      -6.020   7.624  70.202  1.00  0.00     0.000 HD 
HETATM   27  H1  UNL     1      -6.942   6.189  70.061  1.00  0.00     0.000 HD 
HETATM   28  H   UNL     1     -11.385   8.492  69.676  1.00  0.00     0.000 HD 
BRANCH  23  29
HETATM   29  O   UNL     1      -9.418   7.114  70.403  1.00  0.00    -0.162 OA 
BRANCH  29  30
HETATM   30  C   UNL     1      -9.664   7.639  71.738  1.00  0.00    -0.161 C  
HETATM   31  O   UNL     1     -10.948   8.271  71.819  1.00  0.00    -0.247 OA 
HETATM   32  C   UNL     1     -12.018   7.317  71.699  1.00  0.00    -0.308 C  
HETATM   33  C   UNL     1     -12.018   6.411  72.930  1.00  0.00     0.327 C  
HETATM   34  H   UNL     1      -8.131   5.293  73.492  1.00  0.00     0.000 HD 
HETATM   35  O   UNL     1     -13.106   5.486  72.901  1.00  0.00    -0.264 OA 
HETATM   36  C   UNL     1     -10.675   5.644  73.000  1.00  0.00    -0.255 C  
HETATM   37  H1  UNL     1      -9.739   4.327  74.282  1.00  0.00     0.000 HD 
HETATM   38  H2  UNL     1     -11.428   4.207  74.318  1.00  0.00     0.000 HD 
HETATM   39  C   UNL     1      -9.487   6.613  72.888  1.00  0.00    -0.138 C  
HETATM   40  N   UNL     1     -10.625   4.832  74.237  1.00  0.00    -0.288 NA 
HETATM   41  H   UNL     1     -13.107   4.923  73.665  1.00  0.00     0.000 HD 
HETATM   42  O   UNL     1      -8.239   5.922  72.788  1.00  0.00    -0.117 OA 
BRANCH  32  43
HETATM   43  C   UNL     1     -13.318   8.102  71.517  1.00  0.00    -0.284 C  
HETATM   44  O   UNL     1     -14.304   7.235  70.937  1.00  0.00    -0.512 OA 
HETATM   45  H   UNL     1     -15.111   7.723  70.824  1.00  0.00     0.000 HD 
ENDBRANCH  32  43
ENDBRANCH  29  30
ENDBRANCH  23  29
ENDBRANCH  14  15
ENDBRANCH   8  14
TORSDOF 6
ENDMDL
MODEL      144
REMARK 921   NORMALIZED FREE ENERGY PREDICTED BY IDOCK:   -4.97 KCAL/MOL
REMARK 922        TOTAL FREE ENERGY PREDICTED BY IDOCK:   -8.27 KCAL/MOL
REMARK 923 INTER-LIGAND FREE ENERGY PREDICTED BY IDOCK:   -7.17 KCAL/MOL
REMARK 924 INTRA-LIGAND FREE ENERGY PREDICTED BY IDOCK:   -1.10 KCAL/MOL
REMARK 927      BINDING AFFINITY PREDICTED BY RF-SCORE:    0.00 PKD
ROOT
HETATM    1  C   UNL     1      -9.542  11.342  65.852  1.00  0.00    -0.221 C  
HETATM    2  C   UNL     1      -9.812   9.833  65.912  1.00  0.00    -0.352 C  
HETATM    3  N   UNL     1     -10.215  11.832  64.629  1.00  0.00    -0.271 NA 
HETATM    4  H1  UNL     1     -10.035  12.835  64.589  1.00  0.00     0.000 HD 
HETATM    5  C   UNL     1      -9.464   9.218  67.248  1.00  0.00    -0.181 C  
HETATM    6  H2  UNL     1     -11.206  11.595  64.589  1.00  0.00     0.000 HD 
HETATM    7  C   UNL     1      -9.973  10.055  68.420  1.00  0.00    -0.160 C  
HETATM    8  C   UNL     1      -9.861  12.151  67.179  1.00  0.00    -0.197 C  
HETATM    9  O   UNL     1      -9.529  11.420  68.360  1.00  0.00    -0.183 OA 
ENDROOT
BRANCH   7  10
HETATM   10  C   UNL     1      -9.403   9.428  69.722  1.00  0.00    -0.203 C  
HETATM   11  N   UNL     1      -7.959   9.610  69.858  1.00  0.00    -0.148 NA 
HETATM   12  H1  UNL     1      -7.585   9.198  70.713  1.00  0.00     0.000 HD 
HETATM   13  H2  UNL     1      -7.708  10.597  69.789  1.00  0.00     0.000 HD 
ENDBRANCH   7  10
BRANCH   8  14
HETATM   14  O   UNL     1     -11.195  12.659  67.153  1.00  0.00    -0.270 OA 
BRANCH  14  15
HETATM   15  C   UNL     1     -11.458  14.078  67.011  1.00  0.00    -0.351 C  
HETATM   16  C   UNL     1     -11.706  14.225  65.484  1.00  0.00    -0.353 C  
HETATM   17  N   UNL     1     -12.919  13.497  65.067  1.00  0.00    -0.735 NA 
HETATM   18  C   UNL     1     -11.867  15.639  64.961  1.00  0.00     0.140 C  
HETATM   19  H2  UNL     1     -13.734  13.784  65.609  1.00  0.00     0.000 HD 
HETATM   20  H1  UNL     1     -13.081  13.594  64.065  1.00  0.00     0.000 HD 
HETATM   21  C   UNL     1     -10.767  16.583  65.419  1.00  0.00    -0.259 C  
HETATM   22  N   UNL     1     -11.088  17.865  64.772  1.00  0.00    -0.488 NA 
HETATM   23  C   UNL     1     -10.718  16.576  66.979  1.00  0.00    -0.191 C  
HETATM   24  C   UNL     1     -10.372  15.113  67.487  1.00  0.00    -0.242 C  
HETATM   25  O   UNL     1     -10.304  15.114  68.924  1.00  0.00    -0.227 OA 
HETATM   26  H2  UNL     1     -12.032  18.203  64.963  1.00  0.00     0.000 HD 
HETATM   27  H1  UNL     1     -10.350  18.499  65.079  1.00  0.00     0.000 HD 
HETATM   28  H   UNL     1      -9.648  15.739  69.211  1.00  0.00     0.000 HD 
BRANCH  23  29
HETATM   29  O   UNL     1      -9.820  17.591  67.528  1.00  0.00    -0.278 OA 
BRANCH  29  30
HETATM   30  C   UNL     1      -8.420  17.250  67.316  1.00  0.00    -0.198 C  
HETATM   31  O   UNL     1      -7.871  17.974  66.208  1.00  0.00    -0.285 OA 
HETATM   32  C   UNL     1      -7.771  19.381  66.490  1.00  0.00    -0.278 C  
HETATM   33  C   UNL     1      -6.719  19.597  67.578  1.00  0.00    -0.214 C  
HETATM   34  H   UNL     1      -7.523  16.828  70.471  1.00  0.00     0.000 HD 
HETATM   35  O   UNL     1      -6.524  20.985  67.851  1.00  0.00    -0.332 OA 
HETATM   36  C   UNL     1      -7.160  18.863  68.867  1.00  0.00    -0.321 C  
HETATM   37  H1  UNL     1      -6.398  18.503  70.751  1.00  0.00     0.000 HD 
HETATM   38  H2  UNL     1      -5.858  19.961  70.080  1.00  0.00     0.000 HD 
HETATM   39  C   UNL     1      -7.515  17.397  68.567  1.00  0.00    -0.251 C  
HETATM   40  N   UNL     1      -6.107  18.987  69.901  1.00  0.00    -0.252 NA 
HETATM   41  H   UNL     1      -5.870  21.120  68.526  1.00  0.00     0.000 HD 
HETATM   42  O   UNL     1      -8.077  16.738  69.704  1.00  0.00     0.203 OA 
BRANCH  32  43
HETATM   43  C   UNL     1      -7.446  20.093  65.176  1.00  0.00     0.161 C  
HETATM   44  O   UNL     1      -6.165  20.727  65.298  1.00  0.00    -0.237 OA 
HETATM   45  H   UNL     1      -5.964  21.170  64.481  1.00  0.00     0.000 HD 
ENDBRANCH  32  43
ENDBRANCH  29  30
ENDBRANCH  23  29
ENDBRANCH  14  15
ENDBRANCH   8  14
TORSDOF 6
ENDMDL
MODEL      145
REMARK 921   NORMALIZED FREE ENERGY PREDICTED BY IDOCK:   -4.97 KCAL/MOL
REMARK 922        TOTAL FREE ENERGY PREDICTED BY IDOCK:   -8.27 KCAL/MOL
REMARK 923 INTER-LIGAND FREE ENERGY PREDICTED BY IDOCK:   -6.70 KCAL/MOL
REMARK 924 INTRA-LIGAND FREE ENERGY PREDICTED BY IDOCK:   -1.57 KCAL/MOL
REMARK 927      BINDING AFFINITY PREDICTED BY RF-SCORE:    0.00 PKD
ROOT
HETATM    1  C   UNL     1     -12.647  14.856  69.976  1.00  0.00    -0.218 C  
HETATM    2  C   UNL     1     -12.667  14.617  71.491  1.00  0.00    -0.408 C  
HETATM    3  N   UNL     1     -11.987  16.165  69.775  1.00  0.00    -0.297 NA 
HETATM    4  H1  UNL     1     -11.974  16.324  68.768  1.00  0.00     0.000 HD 
HETATM    5  C   UNL     1     -13.024  13.196  71.865  1.00  0.00    -0.414 C  
HETATM    6  H2  UNL     1     -11.065  16.226  70.208  1.00  0.00     0.000 HD 
HETATM    7  C   UNL     1     -12.276  12.169  71.016  1.00  0.00    -0.124 C  
HETATM    8  C   UNL     1     -12.078  13.662  69.098  1.00  0.00    -0.319 C  
HETATM    9  O   UNL     1     -12.453  12.381  69.607  1.00  0.00    -0.029 OA 
ENDROOT
BRANCH   7  10
HETATM   10  C   UNL     1     -12.855  10.770  71.363  1.00  0.00    -0.452 C  
HETATM   11  N   UNL     1     -12.873   9.861  70.216  1.00  0.00    -0.526 NA 
HETATM   12  H1  UNL     1     -13.253   8.942  70.444  1.00  0.00     0.000 HD 
HETATM   13  H2  UNL     1     -11.945   9.779  69.802  1.00  0.00     0.000 HD 
ENDBRANCH   7  10
BRANCH   8  14
HETATM   14  O   UNL     1     -10.677  13.822  68.874  1.00  0.00    -0.248 OA 
BRANCH  14  15
HETATM   15  C   UNL     1      -9.961  12.969  67.946  1.00  0.00    -0.230 C  
HETATM   16  C   UNL     1     -10.729  13.196  66.614  1.00  0.00    -0.279 C  
HETATM   17  N   UNL     1     -10.589  14.589  66.148  1.00  0.00    -0.298 NA 
HETATM   18  C   UNL     1     -10.324  12.321  65.444  1.00  0.00    -0.298 C  
HETATM   19  H2  UNL     1      -9.610  14.860  66.067  1.00  0.00     0.000 HD 
HETATM   20  H1  UNL     1     -11.094  14.738  65.274  1.00  0.00     0.000 HD 
HETATM   21  C   UNL     1     -10.270  10.841  65.786  1.00  0.00    -0.257 C  
HETATM   22  N   UNL     1      -9.907  10.184  64.520  1.00  0.00    -0.351 NA 
HETATM   23  C   UNL     1      -9.294  10.639  66.987  1.00  0.00    -0.155 C  
HETATM   24  C   UNL     1      -9.846  11.428  68.249  1.00  0.00    -0.200 C  
HETATM   25  O   UNL     1      -8.958  11.221  69.362  1.00  0.00    -0.373 OA 
HETATM   26  H2  UNL     1      -9.053  10.544  64.094  1.00  0.00     0.000 HD 
HETATM   27  H1  UNL     1      -9.871   9.190  64.749  1.00  0.00     0.000 HD 
HETATM   28  H   UNL     1      -8.888  10.291  69.545  1.00  0.00     0.000 HD 
BRANCH  23  29
HETATM   29  O   UNL     1      -9.026   9.230  67.276  1.00  0.00    -0.123 OA 
BRANCH  29  30
HETATM   30  C   UNL     1      -7.622   8.895  67.086  1.00  0.00    -0.092 C  
HETATM   31  O   UNL     1      -6.866   9.132  68.281  1.00  0.00    -0.063 OA 
HETATM   32  C   UNL     1      -7.229   8.216  69.329  1.00  0.00    -0.072 C  
HETATM   33  C   UNL     1      -6.787   6.807  68.934  1.00  0.00    -0.065 C  
HETATM   34  H   UNL     1      -7.993   6.304  65.065  1.00  0.00     0.000 HD 
HETATM   35  O   UNL     1      -7.058   5.862  69.971  1.00  0.00    -0.066 OA 
HETATM   36  C   UNL     1      -7.518   6.388  67.636  1.00  0.00    -0.093 C  
HETATM   37  H1  UNL     1      -7.513   4.786  66.335  1.00  0.00     0.000 HD 
HETATM   38  H2  UNL     1      -7.117   4.357  67.924  1.00  0.00     0.000 HD 
HETATM   39  C   UNL     1      -7.359   7.464  66.549  1.00  0.00    -0.084 C  
HETATM   40  N   UNL     1      -7.032   5.062  67.191  1.00  0.00    -0.060 NA 
HETATM   41  H   UNL     1      -6.783   4.987  69.727  1.00  0.00     0.000 HD 
HETATM   42  O   UNL     1      -8.153   7.181  65.394  1.00  0.00    -0.125 OA 
BRANCH  32  43
HETATM   43  C   UNL     1      -6.586   8.717  70.623  1.00  0.00    -0.045 C  
HETATM   44  O   UNL     1      -6.932  10.098  70.807  1.00  0.00    -0.329 OA 
HETATM   45  H   UNL     1      -6.533  10.409  71.611  1.00  0.00     0.000 HD 
ENDBRANCH  32  43
ENDBRANCH  29  30
ENDBRANCH  23  29
ENDBRANCH  14  15
ENDBRANCH   8  14
TORSDOF 6
ENDMDL
MODEL      146
REMARK 921   NORMALIZED FREE ENERGY PREDICTED BY IDOCK:   -4.96 KCAL/MOL
REMARK 922        TOTAL FREE ENERGY PREDICTED BY IDOCK:   -8.26 KCAL/MOL
REMARK 923 INTER-LIGAND FREE ENERGY PREDICTED BY IDOCK:   -7.97 KCAL/MOL
REMARK 924 INTRA-LIGAND FREE ENERGY PREDICTED BY IDOCK:   -0.29 KCAL/MOL
REMARK 927      BINDING AFFINITY PREDICTED BY RF-SCORE:    0.00 PKD
ROOT
HETATM    1  C   UNL     1      -9.553   5.607  67.063  1.00  0.00    -0.136 C  
HETATM    2  C   UNL     1      -9.628   4.432  68.044  1.00  0.00    -0.204 C  
HETATM    3  N   UNL     1     -10.847   5.628  66.346  1.00  0.00    -0.680 NA 
HETATM    4  H1  UNL     1     -10.798   6.409  65.693  1.00  0.00     0.000 HD 
HETATM    5  C   UNL     1      -8.522   4.443  69.074  1.00  0.00    -0.096 C  
HETATM    6  H2  UNL     1     -11.655   5.669  66.968  1.00  0.00     0.000 HD 
HETATM    7  C   UNL     1      -8.307   5.830  69.677  1.00  0.00    -0.112 C  
HETATM    8  C   UNL     1      -9.093   6.994  67.683  1.00  0.00    -0.122 C  
HETATM    9  O   UNL     1      -8.082   6.839  68.680  1.00  0.00    -0.117 OA 
ENDROOT
BRANCH   7  10
HETATM   10  C   UNL     1      -7.041   5.758  70.574  1.00  0.00    -0.067 C  
HETATM   11  N   UNL     1      -6.887   4.464  71.238  1.00  0.00    -0.034 NA 
HETATM   12  H1  UNL     1      -6.055   4.416  71.827  1.00  0.00     0.000 HD 
HETATM   13  H2  UNL     1      -6.898   3.702  70.560  1.00  0.00     0.000 HD 
ENDBRANCH   7  10
BRANCH   8  14
HETATM   14  O   UNL     1     -10.223   7.760  68.101  1.00  0.00    -0.190 OA 
BRANCH  14  15
HETATM   15  C   UNL     1     -10.099   9.168  68.425  1.00  0.00    -0.196 C  
HETATM   16  C   UNL     1     -10.857   9.274  69.777  1.00  0.00    -0.224 C  
HETATM   17  N   UNL     1     -10.173   8.504  70.834  1.00  0.00    -0.193 NA 
HETATM   18  C   UNL     1     -11.050  10.670  70.335  1.00  0.00    -0.253 C  
HETATM   19  H2  UNL     1      -9.197   8.783  70.928  1.00  0.00     0.000 HD 
HETATM   20  H1  UNL     1     -10.670   8.574  71.722  1.00  0.00     0.000 HD 
HETATM   21  C   UNL     1     -11.619  11.652  69.324  1.00  0.00    -0.320 C  
HETATM   22  N   UNL     1     -11.764  12.910  70.074  1.00  0.00    -0.514 NA 
HETATM   23  C   UNL     1     -10.683  11.684  68.075  1.00  0.00    -0.208 C  
HETATM   24  C   UNL     1     -10.645  10.242  67.412  1.00  0.00    -0.270 C  
HETATM   25  O   UNL     1      -9.802  10.278  66.246  1.00  0.00    -0.198 OA 
HETATM   26  H2  UNL     1     -10.906  13.228  70.525  1.00  0.00     0.000 HD 
HETATM   27  H1  UNL     1     -12.146  13.570  69.396  1.00  0.00     0.000 HD 
HETATM   28  H   UNL     1     -10.132  10.927  65.635  1.00  0.00     0.000 HD 
BRANCH  23  29
HETATM   29  O   UNL     1     -11.038  12.734  67.121  1.00  0.00    -0.259 OA 
BRANCH  29  30
HETATM   30  C   UNL     1      -9.877  13.214  66.385  1.00  0.00    -0.279 C  
HETATM   31  O   UNL     1     -10.268  13.882  65.178  1.00  0.00    -0.359 OA 
HETATM   32  C   UNL     1     -10.950  15.118  65.451  1.00  0.00    -0.374 C  
HETATM   33  C   UNL     1      -9.961  16.106  66.070  1.00  0.00    -0.348 C  
HETATM   34  H   UNL     1      -7.953  14.021  68.950  1.00  0.00     0.000 HD 
HETATM   35  O   UNL     1     -10.566  17.380  66.298  1.00  0.00    -0.297 OA 
HETATM   36  C   UNL     1      -9.427  15.528  67.402  1.00  0.00    -0.211 C  
HETATM   37  H1  UNL     1      -8.048  16.052  68.845  1.00  0.00     0.000 HD 
HETATM   38  H2  UNL     1      -8.746  17.387  68.073  1.00  0.00     0.000 HD 
HETATM   39  C   UNL     1      -8.902  14.098  67.206  1.00  0.00    -0.218 C  
HETATM   40  N   UNL     1      -8.400  16.434  67.967  1.00  0.00    -0.175 NA 
HETATM   41  H   UNL     1      -9.951  17.995  66.682  1.00  0.00     0.000 HD 
HETATM   42  O   UNL     1      -8.551  13.480  68.447  1.00  0.00    -0.171 OA 
BRANCH  32  43
HETATM   43  C   UNL     1     -11.564  15.608  64.139  1.00  0.00    -0.076 C  
HETATM   44  O   UNL     1     -12.506  14.630  63.676  1.00  0.00    -1.070 OA 
HETATM   45  H   UNL     1     -12.887  14.934  62.861  1.00  0.00     0.000 HD 
ENDBRANCH  32  43
ENDBRANCH  29  30
ENDBRANCH  23  29
ENDBRANCH  14  15
ENDBRANCH   8  14
TORSDOF 6
ENDMDL
MODEL      147
REMARK 921   NORMALIZED FREE ENERGY PREDICTED BY IDOCK:   -4.95 KCAL/MOL
REMARK 922        TOTAL FREE ENERGY PREDICTED BY IDOCK:   -8.24 KCAL/MOL
REMARK 923 INTER-LIGAND FREE ENERGY PREDICTED BY IDOCK:   -6.44 KCAL/MOL
REMARK 924 INTRA-LIGAND FREE ENERGY PREDICTED BY IDOCK:   -1.80 KCAL/MOL
REMARK 927      BINDING AFFINITY PREDICTED BY RF-SCORE:    0.00 PKD
ROOT
HETATM    1  C   UNL     1     -11.324  12.616  65.654  1.00  0.00    -0.322 C  
HETATM    2  C   UNL     1     -10.368  13.672  65.085  1.00  0.00    -0.381 C  
HETATM    3  N   UNL     1     -10.861  11.315  65.124  1.00  0.00    -0.241 NA 
HETATM    4  H1  UNL     1     -11.497  10.613  65.502  1.00  0.00     0.000 HD 
HETATM    5  C   UNL     1     -10.499  15.018  65.760  1.00  0.00    -0.353 C  
HETATM    6  H2  UNL     1      -9.879  11.122  65.323  1.00  0.00     0.000 HD 
HETATM    7  C   UNL     1     -10.566  14.899  67.281  1.00  0.00    -0.272 C  
HETATM    8  C   UNL     1     -11.558  12.672  67.222  1.00  0.00    -0.364 C  
HETATM    9  O   UNL     1     -11.604  14.010  67.722  1.00  0.00    -0.305 OA 
ENDROOT
BRANCH   7  10
HETATM   10  C   UNL     1     -10.880  16.312  67.846  1.00  0.00    -0.330 C  
HETATM   11  N   UNL     1     -10.126  16.621  69.060  1.00  0.00    -0.278 NA 
HETATM   12  H1  UNL     1     -10.332  17.549  69.430  1.00  0.00     0.000 HD 
HETATM   13  H2  UNL     1      -9.124  16.504  68.907  1.00  0.00     0.000 HD 
ENDBRANCH   7  10
BRANCH   8  14
HETATM   14  O   UNL     1     -10.637  11.819  67.901  1.00  0.00    -0.191 OA 
BRANCH  14  15
HETATM   15  C   UNL     1     -11.086  10.628  68.596  1.00  0.00    -0.263 C  
HETATM   16  C   UNL     1     -10.956  11.036  70.089  1.00  0.00     0.006 C  
HETATM   17  N   UNL     1     -11.883  12.133  70.426  1.00  0.00    -0.525 NA 
HETATM   18  C   UNL     1     -11.210   9.945  71.111  1.00  0.00    -0.404 C  
HETATM   19  H2  UNL     1     -12.845  11.897  70.184  1.00  0.00     0.000 HD 
HETATM   20  H1  UNL     1     -11.798  12.401  71.407  1.00  0.00     0.000 HD 
HETATM   21  C   UNL     1     -10.436   8.666  70.836  1.00  0.00    -0.214 C  
HETATM   22  N   UNL     1     -10.789   7.774  71.952  1.00  0.00    -0.227 NA 
HETATM   23  C   UNL     1     -10.788   8.167  69.400  1.00  0.00    -0.086 C  
HETATM   24  C   UNL     1     -10.345   9.262  68.340  1.00  0.00    -0.209 C  
HETATM   25  O   UNL     1     -10.648   8.790  67.015  1.00  0.00    -0.282 OA 
HETATM   26  H2  UNL     1     -11.792   7.635  72.073  1.00  0.00     0.000 HD 
HETATM   27  H1  UNL     1     -10.270   6.916  71.768  1.00  0.00     0.000 HD 
HETATM   28  H   UNL     1     -10.201   7.966  66.861  1.00  0.00     0.000 HD 
BRANCH  23  29
HETATM   29  O   UNL     1     -10.241   6.843  69.104  1.00  0.00    -0.174 OA 
BRANCH  29  30
HETATM   30  C   UNL     1      -8.786   6.831  69.162  1.00  0.00    -0.131 C  
HETATM   31  O   UNL     1      -8.321   6.245  70.385  1.00  0.00    -0.122 OA 
HETATM   32  C   UNL     1      -8.609   4.837  70.443  1.00  0.00    -0.098 C  
HETATM   33  C   UNL     1      -7.770   4.112  69.391  1.00  0.00    -0.053 C  
HETATM   34  H   UNL     1      -8.159   6.294  65.960  1.00  0.00     0.000 HD 
HETATM   35  O   UNL     1      -7.963   2.698  69.450  1.00  0.00    -0.042 OA 
HETATM   36  C   UNL     1      -8.149   4.639  67.985  1.00  0.00    -0.088 C  
HETATM   37  H1  UNL     1      -7.530   4.359  66.037  1.00  0.00     0.000 HD 
HETATM   38  H2  UNL     1      -7.306   2.992  67.011  1.00  0.00     0.000 HD 
HETATM   39  C   UNL     1      -8.088   6.174  67.942  1.00  0.00    -0.114 C  
HETATM   40  N   UNL     1      -7.281   4.011  66.963  1.00  0.00    -0.067 NA 
HETATM   41  H   UNL     1      -7.442   2.247  68.796  1.00  0.00     0.000 HD 
HETATM   42  O   UNL     1      -8.586   6.696  66.708  1.00  0.00    -0.113 OA 
BRANCH  32  43
HETATM   43  C   UNL     1      -8.335   4.368  71.873  1.00  0.00    -0.106 C  
HETATM   44  O   UNL     1      -9.073   3.162  72.114  1.00  0.00    -0.092 OA 
HETATM   45  H   UNL     1      -8.903   2.871  73.002  1.00  0.00     0.000 HD 
ENDBRANCH  32  43
ENDBRANCH  29  30
ENDBRANCH  23  29
ENDBRANCH  14  15
ENDBRANCH   8  14
TORSDOF 6
ENDMDL
MODEL      148
REMARK 921   NORMALIZED FREE ENERGY PREDICTED BY IDOCK:   -4.94 KCAL/MOL
REMARK 922        TOTAL FREE ENERGY PREDICTED BY IDOCK:   -8.22 KCAL/MOL
REMARK 923 INTER-LIGAND FREE ENERGY PREDICTED BY IDOCK:   -7.51 KCAL/MOL
REMARK 924 INTRA-LIGAND FREE ENERGY PREDICTED BY IDOCK:   -0.72 KCAL/MOL
REMARK 927      BINDING AFFINITY PREDICTED BY RF-SCORE:    0.00 PKD
ROOT
HETATM    1  C   UNL     1     -12.408  14.755  69.166  1.00  0.00    -0.079 C  
HETATM    2  C   UNL     1     -12.256  14.640  70.687  1.00  0.00    -0.394 C  
HETATM    3  N   UNL     1     -11.841  16.070  68.794  1.00  0.00    -0.406 NA 
HETATM    4  H1  UNL     1     -11.943  16.146  67.783  1.00  0.00     0.000 HD 
HETATM    5  C   UNL     1     -12.499  13.241  71.206  1.00  0.00    -0.351 C  
HETATM    6  H2  UNL     1     -10.883  16.205  69.118  1.00  0.00     0.000 HD 
HETATM    7  C   UNL     1     -11.793  12.180  70.362  1.00  0.00    -0.187 C  
HETATM    8  C   UNL     1     -11.875  13.519  68.325  1.00  0.00    -0.366 C  
HETATM    9  O   UNL     1     -12.129  12.269  68.969  1.00  0.00    -0.265 OA 
ENDROOT
BRANCH   7  10
HETATM   10  C   UNL     1     -12.260  10.791  70.876  1.00  0.00    -0.384 C  
HETATM   11  N   UNL     1     -11.771   9.685  70.052  1.00  0.00    -0.443 NA 
HETATM   12  H1  UNL     1     -12.077   8.773  70.390  1.00  0.00     0.000 HD 
HETATM   13  H2  UNL     1     -10.755   9.719  69.963  1.00  0.00     0.000 HD 
ENDBRANCH   7  10
BRANCH   8  14
HETATM   14  O   UNL     1     -10.516  13.719  67.937  1.00  0.00    -0.239 OA 
BRANCH  14  15
HETATM   15  C   UNL     1      -9.894  12.894  66.920  1.00  0.00    -0.235 C  
HETATM   16  C   UNL     1     -10.451  13.500  65.603  1.00  0.00    -0.293 C  
HETATM   17  N   UNL     1      -9.981  14.885  65.412  1.00  0.00    -0.374 NA 
HETATM   18  C   UNL     1     -10.110  12.762  64.324  1.00  0.00    -0.277 C  
HETATM   19  H2  UNL     1      -8.963  14.944  65.451  1.00  0.00     0.000 HD 
HETATM   20  H1  UNL     1     -10.347  15.283  64.547  1.00  0.00     0.000 HD 
HETATM   21  C   UNL     1     -10.397  11.271  64.391  1.00  0.00    -0.329 C  
HETATM   22  N   UNL     1     -10.041  10.767  63.054  1.00  0.00    -0.662 NA 
HETATM   23  C   UNL     1      -9.618  10.665  65.599  1.00  0.00    -0.218 C  
HETATM   24  C   UNL     1     -10.129  11.337  66.943  1.00  0.00    -0.212 C  
HETATM   25  O   UNL     1      -9.427  10.760  68.059  1.00  0.00    -0.154 OA 
HETATM   26  H2  UNL     1      -9.091  10.995  62.762  1.00  0.00     0.000 HD 
HETATM   27  H1  UNL     1     -10.234   9.766  63.098  1.00  0.00     0.000 HD 
HETATM   28  H   UNL     1      -9.569   9.820  68.072  1.00  0.00     0.000 HD 
BRANCH  23  29
HETATM   29  O   UNL     1      -9.676   9.204  65.643  1.00  0.00    -0.270 OA 
BRANCH  29  30
HETATM   30  C   UNL     1      -8.452   8.596  65.138  1.00  0.00    -0.179 C  
HETATM   31  O   UNL     1      -7.340   9.492  65.259  1.00  0.00    -0.097 OA 
HETATM   32  C   UNL     1      -6.987   9.718  66.635  1.00  0.00    -0.085 C  
HETATM   33  C   UNL     1      -6.432   8.422  67.226  1.00  0.00    -0.058 C  
HETATM   34  H   UNL     1      -9.016   5.476  66.077  1.00  0.00     0.000 HD 
HETATM   35  O   UNL     1      -5.996   8.605  68.574  1.00  0.00    -0.044 OA 
HETATM   36  C   UNL     1      -7.523   7.326  67.167  1.00  0.00    -0.105 C  
HETATM   37  H1  UNL     1      -7.690   5.318  67.614  1.00  0.00     0.000 HD 
HETATM   38  H2  UNL     1      -6.562   6.126  68.584  1.00  0.00     0.000 HD 
HETATM   39  C   UNL     1      -8.108   7.213  65.751  1.00  0.00    -0.130 C  
HETATM   40  N   UNL     1      -6.970   6.041  67.653  1.00  0.00    -0.067 NA 
HETATM   41  H   UNL     1      -5.651   7.800  68.942  1.00  0.00     0.000 HD 
HETATM   42  O   UNL     1      -9.227   6.323  65.701  1.00  0.00    -0.047 OA 
BRANCH  32  43
HETATM   43  C   UNL     1      -5.994  10.881  66.672  1.00  0.00    -0.097 C  
HETATM   44  O   UNL     1      -5.865  11.421  65.349  1.00  0.00    -0.462 OA 
HETATM   45  H   UNL     1      -5.248  12.144  65.373  1.00  0.00     0.000 HD 
ENDBRANCH  32  43
ENDBRANCH  29  30
ENDBRANCH  23  29
ENDBRANCH  14  15
ENDBRANCH   8  14
TORSDOF 6
ENDMDL
MODEL      149
REMARK 921   NORMALIZED FREE ENERGY PREDICTED BY IDOCK:   -4.86 KCAL/MOL
REMARK 922        TOTAL FREE ENERGY PREDICTED BY IDOCK:   -8.12 KCAL/MOL
REMARK 923 INTER-LIGAND FREE ENERGY PREDICTED BY IDOCK:   -8.55 KCAL/MOL
REMARK 924 INTRA-LIGAND FREE ENERGY PREDICTED BY IDOCK:    0.44 KCAL/MOL
REMARK 927      BINDING AFFINITY PREDICTED BY RF-SCORE:    0.00 PKD
ROOT
HETATM    1  C   UNL     1      -9.599  10.620  68.437  1.00  0.00    -0.168 C  
HETATM    2  C   UNL     1      -8.383   9.696  68.581  1.00  0.00    -0.114 C  
HETATM    3  N   UNL     1      -9.119  11.983  68.751  1.00  0.00    -0.387 NA 
HETATM    4  H1  UNL     1      -9.927  12.597  68.655  1.00  0.00     0.000 HD 
HETATM    5  C   UNL     1      -8.610   8.318  68.004  1.00  0.00    -0.132 C  
HETATM    6  H2  UNL     1      -8.320  12.273  68.186  1.00  0.00     0.000 HD 
HETATM    7  C   UNL     1      -9.275   8.369  66.629  1.00  0.00    -0.180 C  
HETATM    8  C   UNL     1     -10.415  10.477  67.083  1.00  0.00    -0.249 C  
HETATM    9  O   UNL     1     -10.498   9.124  66.634  1.00  0.00    -0.243 OA 
ENDROOT
BRANCH   7  10
HETATM   10  C   UNL     1      -9.620   6.910  66.225  1.00  0.00    -0.029 C  
HETATM   11  N   UNL     1     -11.011   6.554  66.503  1.00  0.00    -0.589 NA 
HETATM   12  H1  UNL     1     -11.237   5.596  66.237  1.00  0.00     0.000 HD 
HETATM   13  H2  UNL     1     -11.651   7.215  66.063  1.00  0.00     0.000 HD 
ENDBRANCH   7  10
BRANCH   8  14
HETATM   14  O   UNL     1      -9.933  11.397  66.103  1.00  0.00    -0.213 OA 
BRANCH  14  15
HETATM   15  C   UNL     1     -10.345  12.787  66.111  1.00  0.00    -0.269 C  
HETATM   16  C   UNL     1     -11.446  12.821  65.015  1.00  0.00    -0.321 C  
HETATM   17  N   UNL     1     -12.611  12.003  65.404  1.00  0.00    -0.142 NA 
HETATM   18  C   UNL     1     -11.996  14.187  64.655  1.00  0.00    -0.459 C  
HETATM   19  H2  UNL     1     -12.978  12.282  66.313  1.00  0.00     0.000 HD 
HETATM   20  H1  UNL     1     -13.334  12.026  64.684  1.00  0.00     0.000 HD 
HETATM   21  C   UNL     1     -10.916  15.216  64.361  1.00  0.00    -0.023 C  
HETATM   22  N   UNL     1     -11.658  16.435  63.997  1.00  0.00    -1.542 NA 
HETATM   23  C   UNL     1      -9.969  15.314  65.597  1.00  0.00    -0.364 C  
HETATM   24  C   UNL     1      -9.274  13.908  65.837  1.00  0.00     0.180 C  
HETATM   25  O   UNL     1      -8.381  14.006  66.962  1.00  0.00    -0.317 OA 
HETATM   26  H2  UNL     1     -12.338  16.733  64.696  1.00  0.00     0.000 HD 
HETATM   27  H1  UNL     1     -10.934  17.125  63.799  1.00  0.00     0.000 HD 
HETATM   28  H   UNL     1      -7.735  14.683  66.797  1.00  0.00     0.000 HD 
BRANCH  23  29
HETATM   29  O   UNL     1      -9.005  16.410  65.493  1.00  0.00    -0.352 OA 
BRANCH  29  30
HETATM   30  C   UNL     1      -9.298  17.482  66.433  1.00  0.00    -0.246 C  
HETATM   31  O   UNL     1     -10.454  17.178  67.223  1.00  0.00    -0.327 OA 
HETATM   32  C   UNL     1     -10.210  16.084  68.124  1.00  0.00    -0.243 C  
HETATM   33  C   UNL     1      -9.196  16.525  69.180  1.00  0.00    -0.197 C  
HETATM   34  H   UNL     1      -6.199  18.398  67.134  1.00  0.00     0.000 HD 
HETATM   35  O   UNL     1      -8.966  15.499  70.147  1.00  0.00    -0.119 OA 
HETATM   36  C   UNL     1      -7.866  16.902  68.484  1.00  0.00    -0.240 C  
HETATM   37  H1  UNL     1      -6.027  17.665  69.026  1.00  0.00     0.000 HD 
HETATM   38  H2  UNL     1      -6.762  16.761  70.254  1.00  0.00     0.000 HD 
HETATM   39  C   UNL     1      -8.111  17.899  67.341  1.00  0.00    -0.211 C  
HETATM   40  N   UNL     1      -6.904  17.417  69.485  1.00  0.00    -0.154 NA 
HETATM   41  H   UNL     1      -8.336  15.772  70.803  1.00  0.00     0.000 HD 
HETATM   42  O   UNL     1      -6.926  18.143  66.578  1.00  0.00    -0.189 OA 
BRANCH  32  43
HETATM   43  C   UNL     1     -11.556  15.658  68.710  1.00  0.00    -0.384 C  
HETATM   44  O   UNL     1     -11.622  16.085  70.078  1.00  0.00    -0.332 OA 
HETATM   45  H   UNL     1     -12.458  15.820  70.442  1.00  0.00     0.000 HD 
ENDBRANCH  32  43
ENDBRANCH  29  30
ENDBRANCH  23  29
ENDBRANCH  14  15
ENDBRANCH   8  14
TORSDOF 6
ENDMDL
MODEL      150
REMARK 921   NORMALIZED FREE ENERGY PREDICTED BY IDOCK:   -4.84 KCAL/MOL
REMARK 922        TOTAL FREE ENERGY PREDICTED BY IDOCK:   -8.09 KCAL/MOL
REMARK 923 INTER-LIGAND FREE ENERGY PREDICTED BY IDOCK:   -7.75 KCAL/MOL
REMARK 924 INTRA-LIGAND FREE ENERGY PREDICTED BY IDOCK:   -0.35 KCAL/MOL
REMARK 927      BINDING AFFINITY PREDICTED BY RF-SCORE:    0.00 PKD
ROOT
HETATM    1  C   UNL     1      -6.976  17.376  67.540  1.00  0.00    -0.159 C  
HETATM    2  C   UNL     1      -7.132  18.301  68.753  1.00  0.00    -0.291 C  
HETATM    3  N   UNL     1      -6.495  16.081  68.070  1.00  0.00    -0.126 NA 
HETATM    4  H1  UNL     1      -6.391  15.466  67.264  1.00  0.00     0.000 HD 
HETATM    5  C   UNL     1      -7.903  19.564  68.444  1.00  0.00    -0.374 C  
HETATM    6  H2  UNL     1      -7.093  15.694  68.801  1.00  0.00     0.000 HD 
HETATM    7  C   UNL     1      -9.162  19.287  67.624  1.00  0.00    -0.304 C  
HETATM    8  C   UNL     1      -8.230  17.295  66.571  1.00  0.00    -0.276 C  
HETATM    9  O   UNL     1      -8.888  18.553  66.420  1.00  0.00    -0.300 OA 
ENDROOT
BRANCH   7  10
HETATM   10  C   UNL     1      -9.764  20.660  67.217  1.00  0.00    -0.422 C  
HETATM   11  N   UNL     1     -10.160  20.714  65.810  1.00  0.00    -0.388 NA 
HETATM   12  H1  UNL     1     -10.555  21.615  65.543  1.00  0.00     0.000 HD 
HETATM   13  H2  UNL     1     -10.800  19.953  65.581  1.00  0.00     0.000 HD 
ENDBRANCH   7  10
BRANCH   8  14
HETATM   14  O   UNL     1      -9.090  16.219  66.946  1.00  0.00    -0.202 OA 
BRANCH  14  15
HETATM   15  C   UNL     1      -9.203  15.026  66.129  1.00  0.00    -0.259 C  
HETATM   16  C   UNL     1     -10.653  15.125  65.580  1.00  0.00    -0.356 C  
HETATM   17  N   UNL     1     -10.810  16.295  64.695  1.00  0.00    -0.860 NA 
HETATM   18  C   UNL     1     -11.158  13.934  64.791  1.00  0.00    -0.386 C  
HETATM   19  H2  UNL     1     -10.123  16.290  63.942  1.00  0.00     0.000 HD 
HETATM   20  H1  UNL     1     -11.762  16.361  64.335  1.00  0.00     0.000 HD 
HETATM   21  C   UNL     1     -10.943  12.605  65.497  1.00  0.00    -0.279 C  
HETATM   22  N   UNL     1     -11.536  11.607  64.593  1.00  0.00    -0.189 NA 
HETATM   23  C   UNL     1      -9.423  12.448  65.816  1.00  0.00    -0.086 C  
HETATM   24  C   UNL     1      -8.969  13.616  66.790  1.00  0.00    -0.181 C  
HETATM   25  O   UNL     1      -7.573  13.456  67.103  1.00  0.00    -0.345 OA 
HETATM   26  H2  UNL     1     -11.169  11.636  63.642  1.00  0.00     0.000 HD 
HETATM   27  H1  UNL     1     -11.392  10.715  65.066  1.00  0.00     0.000 HD 
HETATM   28  H   UNL     1      -7.432  12.605  67.501  1.00  0.00     0.000 HD 
BRANCH  23  29
HETATM   29  O   UNL     1      -9.080  11.122  66.328  1.00  0.00    -0.181 OA 
BRANCH  29  30
HETATM   30  C   UNL     1     -10.048  10.113  65.918  1.00  0.00    -0.254 C  
HETATM   31  O   UNL     1      -9.481   9.210  64.961  1.00  0.00    -0.158 OA 
HETATM   32  C   UNL     1      -8.458   8.386  65.548  1.00  0.00    -0.168 C  
HETATM   33  C   UNL     1      -9.103   7.435  66.557  1.00  0.00    -0.162 C  
HETATM   34  H   UNL     1     -11.629   9.733  68.797  1.00  0.00     0.000 HD 
HETATM   35  O   UNL     1      -8.143   6.541  67.122  1.00  0.00    -0.111 OA 
HETATM   36  C   UNL     1      -9.779   8.262  67.677  1.00  0.00    -0.159 C  
HETATM   37  H1  UNL     1     -10.931   7.902  69.351  1.00  0.00     0.000 HD 
HETATM   38  H2  UNL     1      -9.869   6.635  68.987  1.00  0.00     0.000 HD 
HETATM   39  C   UNL     1     -10.710   9.330  67.082  1.00  0.00    -0.152 C  
HETATM   40  N   UNL     1     -10.485   7.357  68.612  1.00  0.00    -0.198 NA 
HETATM   41  H   UNL     1      -8.544   5.950  67.749  1.00  0.00     0.000 HD 
HETATM   42  O   UNL     1     -11.224  10.212  68.083  1.00  0.00    -0.258 OA 
BRANCH  32  43
HETATM   43  C   UNL     1      -7.732   7.668  64.409  1.00  0.00    -0.127 C  
HETATM   44  O   UNL     1      -6.426   7.286  64.862  1.00  0.00    -0.037 OA 
HETATM   45  H   UNL     1      -5.975   6.840  64.154  1.00  0.00     0.000 HD 
ENDBRANCH  32  43
ENDBRANCH  29  30
ENDBRANCH  23  29
ENDBRANCH  14  15
ENDBRANCH   8  14
TORSDOF 6
ENDMDL
MODEL      151
REMARK 921   NORMALIZED FREE ENERGY PREDICTED BY IDOCK:   -4.84 KCAL/MOL
REMARK 922        TOTAL FREE ENERGY PREDICTED BY IDOCK:   -8.09 KCAL/MOL
REMARK 923 INTER-LIGAND FREE ENERGY PREDICTED BY IDOCK:   -7.09 KCAL/MOL
REMARK 924 INTRA-LIGAND FREE ENERGY PREDICTED BY IDOCK:   -1.00 KCAL/MOL
REMARK 927      BINDING AFFINITY PREDICTED BY RF-SCORE:    0.00 PKD
ROOT
HETATM    1  C   UNL     1      -8.560  12.479  67.510  1.00  0.00    -0.183 C  
HETATM    2  C   UNL     1      -9.084  13.845  67.052  1.00  0.00    -0.259 C  
HETATM    3  N   UNL     1      -7.774  12.731  68.738  1.00  0.00    -0.297 NA 
HETATM    4  H1  UNL     1      -7.425  11.823  69.043  1.00  0.00     0.000 HD 
HETATM    5  C   UNL     1     -10.157  13.746  65.991  1.00  0.00    -0.320 C  
HETATM    6  H2  UNL     1      -8.297  13.228  69.460  1.00  0.00     0.000 HD 
HETATM    7  C   UNL     1     -11.203  12.684  66.324  1.00  0.00    -0.311 C  
HETATM    8  C   UNL     1      -9.644  11.326  67.617  1.00  0.00    -0.171 C  
HETATM    9  O   UNL     1     -10.622  11.395  66.578  1.00  0.00    -0.243 OA 
ENDROOT
BRANCH   7  10
HETATM   10  C   UNL     1     -12.137  12.548  65.090  1.00  0.00    -0.446 C  
HETATM   11  N   UNL     1     -11.421  12.175  63.871  1.00  0.00    -0.403 NA 
HETATM   12  H1  UNL     1     -12.035  12.086  63.061  1.00  0.00     0.000 HD 
HETATM   13  H2  UNL     1     -10.879  11.322  64.013  1.00  0.00     0.000 HD 
ENDBRANCH   7  10
BRANCH   8  14
HETATM   14  O   UNL     1     -10.187  11.262  68.936  1.00  0.00    -0.200 OA 
BRANCH  14  15
HETATM   15  C   UNL     1     -10.585   9.999  69.527  1.00  0.00    -0.244 C  
HETATM   16  C   UNL     1     -11.777  10.409  70.435  1.00  0.00    -0.331 C  
HETATM   17  N   UNL     1     -12.910  10.911  69.634  1.00  0.00    -0.414 NA 
HETATM   18  C   UNL     1     -12.345   9.326  71.331  1.00  0.00    -0.421 C  
HETATM   19  H2  UNL     1     -13.194  10.237  68.923  1.00  0.00     0.000 HD 
HETATM   20  H1  UNL     1     -13.693  11.180  70.230  1.00  0.00     0.000 HD 
HETATM   21  C   UNL     1     -11.287   8.590  72.136  1.00  0.00    -0.372 C  
HETATM   22  N   UNL     1     -12.047   7.632  72.955  1.00  0.00    -0.568 NA 
HETATM   23  C   UNL     1     -10.234   7.992  71.151  1.00  0.00    -0.193 C  
HETATM   24  C   UNL     1      -9.532   9.171  70.354  1.00  0.00    -0.227 C  
HETATM   25  O   UNL     1      -8.545   8.620  69.464  1.00  0.00    -0.126 OA 
HETATM   26  H2  UNL     1     -12.661   7.020  72.417  1.00  0.00     0.000 HD 
HETATM   27  H1  UNL     1     -11.337   7.137  73.495  1.00  0.00     0.000 HD 
HETATM   28  H   UNL     1      -7.909   8.120  69.964  1.00  0.00     0.000 HD 
BRANCH  23  29
HETATM   29  O   UNL     1      -9.274   7.105  71.809  1.00  0.00    -0.140 OA 
BRANCH  29  30
HETATM   30  C   UNL     1      -9.714   5.718  71.791  1.00  0.00    -0.156 C  
HETATM   31  O   UNL     1     -10.143   5.326  70.480  1.00  0.00    -0.209 OA 
HETATM   32  C   UNL     1      -9.043   5.277  69.554  1.00  0.00    -0.112 C  
HETATM   33  C   UNL     1      -8.109   4.134  69.951  1.00  0.00    -0.055 C  
HETATM   34  H   UNL     1      -7.571   4.482  73.984  1.00  0.00     0.000 HD 
HETATM   35  O   UNL     1      -7.032   3.991  69.023  1.00  0.00    -0.045 OA 
HETATM   36  C   UNL     1      -7.551   4.399  71.370  1.00  0.00    -0.072 C  
HETATM   37  H1  UNL     1      -6.350   3.431  72.740  1.00  0.00     0.000 HD 
HETATM   38  H2  UNL     1      -5.976   3.045  71.134  1.00  0.00     0.000 HD 
HETATM   39  C   UNL     1      -8.691   4.699  72.357  1.00  0.00    -0.118 C  
HETATM   40  N   UNL     1      -6.717   3.255  71.804  1.00  0.00    -0.022 NA 
HETATM   41  H   UNL     1      -6.452   3.280  69.269  1.00  0.00     0.000 HD 
HETATM   42  O   UNL     1      -8.199   5.105  73.637  1.00  0.00    -0.109 OA 
BRANCH  32  43
HETATM   43  C   UNL     1      -9.628   5.129  68.149  1.00  0.00    -0.134 C  
HETATM   44  O   UNL     1      -9.621   3.740  67.789  1.00  0.00    -0.186 OA 
HETATM   45  H   UNL     1      -9.985   3.648  66.916  1.00  0.00     0.000 HD 
ENDBRANCH  32  43
ENDBRANCH  29  30
ENDBRANCH  23  29
ENDBRANCH  14  15
ENDBRANCH   8  14
TORSDOF 6
ENDMDL
MODEL      152
REMARK 921   NORMALIZED FREE ENERGY PREDICTED BY IDOCK:   -4.83 KCAL/MOL
REMARK 922        TOTAL FREE ENERGY PREDICTED BY IDOCK:   -8.08 KCAL/MOL
REMARK 923 INTER-LIGAND FREE ENERGY PREDICTED BY IDOCK:   -7.79 KCAL/MOL
REMARK 924 INTRA-LIGAND FREE ENERGY PREDICTED BY IDOCK:   -0.29 KCAL/MOL
REMARK 927      BINDING AFFINITY PREDICTED BY RF-SCORE:    0.00 PKD
ROOT
HETATM    1  C   UNL     1      -9.865  18.924  67.774  1.00  0.00    -0.337 C  
HETATM    2  C   UNL     1      -9.321  19.995  66.821  1.00  0.00    -0.510 C  
HETATM    3  N   UNL     1     -11.321  19.167  67.878  1.00  0.00     0.016 NA 
HETATM    4  H1  UNL     1     -11.683  18.455  68.512  1.00  0.00     0.000 HD 
HETATM    5  C   UNL     1      -7.910  19.717  66.356  1.00  0.00    -0.328 C  
HETATM    6  H2  UNL     1     -11.795  19.185  66.975  1.00  0.00     0.000 HD 
HETATM    7  C   UNL     1      -7.715  18.261  65.937  1.00  0.00    -0.085 C  
HETATM    8  C   UNL     1      -9.443  17.430  67.444  1.00  0.00    -0.246 C  
HETATM    9  O   UNL     1      -8.102  17.333  66.963  1.00  0.00    -0.194 OA 
ENDROOT
BRANCH   7  10
HETATM   10  C   UNL     1      -6.202  18.055  65.657  1.00  0.00    -0.217 C  
HETATM   11  N   UNL     1      -5.632  16.932  66.400  1.00  0.00    -0.341 NA 
HETATM   12  H1  UNL     1      -4.638  16.797  66.216  1.00  0.00     0.000 HD 
HETATM   13  H2  UNL     1      -6.155  16.074  66.222  1.00  0.00     0.000 HD 
ENDBRANCH   7  10
BRANCH   8  14
HETATM   14  O   UNL     1     -10.417  16.803  66.609  1.00  0.00    -0.304 OA 
BRANCH  14  15
HETATM   15  C   UNL     1     -10.082  15.648  65.798  1.00  0.00    -0.366 C  
HETATM   16  C   UNL     1     -11.329  15.502  64.883  1.00  0.00    -0.335 C  
HETATM   17  N   UNL     1     -11.468  16.663  63.982  1.00  0.00    -1.551 NA 
HETATM   18  C   UNL     1     -11.373  14.275  63.994  1.00  0.00     0.091 C  
HETATM   19  H2  UNL     1     -10.620  16.819  63.438  1.00  0.00     0.000 HD 
HETATM   20  H1  UNL     1     -12.287  16.567  63.381  1.00  0.00     0.000 HD 
HETATM   21  C   UNL     1     -11.101  12.979  64.738  1.00  0.00    -0.322 C  
HETATM   22  N   UNL     1     -11.234  11.930  63.714  1.00  0.00    -0.407 NA 
HETATM   23  C   UNL     1      -9.717  13.091  65.451  1.00  0.00    -0.017 C  
HETATM   24  C   UNL     1      -9.765  14.277  66.505  1.00  0.00    -0.291 C  
HETATM   25  O   UNL     1      -8.496  14.365  67.179  1.00  0.00    -0.203 OA 
HETATM   26  H2  UNL     1     -10.643  12.071  62.894  1.00  0.00     0.000 HD 
HETATM   27  H1  UNL     1     -11.051  11.060  64.213  1.00  0.00     0.000 HD 
HETATM   28  H   UNL     1      -8.305  13.537  67.605  1.00  0.00     0.000 HD 
BRANCH  23  29
HETATM   29  O   UNL     1      -9.274  11.829  66.043  1.00  0.00    -0.223 OA 
BRANCH  29  30
HETATM   30  C   UNL     1      -9.858  10.678  65.370  1.00  0.00    -0.267 C  
HETATM   31  O   UNL     1      -8.996  10.191  64.334  1.00  0.00    -0.193 OA 
HETATM   32  C   UNL     1      -7.793   9.613  64.870  1.00  0.00    -0.123 C  
HETATM   33  C   UNL     1      -8.151   8.335  65.630  1.00  0.00    -0.124 C  
HETATM   34  H   UNL     1     -11.363   9.288  67.964  1.00  0.00     0.000 HD 
HETATM   35  O   UNL     1      -6.985   7.677  66.127  1.00  0.00    -0.063 OA 
HETATM   36  C   UNL     1      -9.099   8.686  66.802  1.00  0.00    -0.149 C  
HETATM   37  H1  UNL     1     -10.151   7.679  68.263  1.00  0.00     0.000 HD 
HETATM   38  H2  UNL     1      -8.731   6.884  67.796  1.00  0.00     0.000 HD 
HETATM   39  C   UNL     1     -10.291   9.522  66.308  1.00  0.00    -0.156 C  
HETATM   40  N   UNL     1      -9.526   7.447  67.491  1.00  0.00    -0.135 NA 
HETATM   41  H   UNL     1      -7.206   6.883  66.599  1.00  0.00     0.000 HD 
HETATM   42  O   UNL     1     -11.098   9.996  67.389  1.00  0.00    -0.257 OA 
BRANCH  32  43
HETATM   43  C   UNL     1      -6.831   9.382  63.705  1.00  0.00    -0.095 C  
HETATM   44  O   UNL     1      -5.497   9.269  64.222  1.00  0.00    -0.058 OA 
HETATM   45  H   UNL     1      -4.899   9.126  63.497  1.00  0.00     0.000 HD 
ENDBRANCH  32  43
ENDBRANCH  29  30
ENDBRANCH  23  29
ENDBRANCH  14  15
ENDBRANCH   8  14
TORSDOF 6
ENDMDL
MODEL      153
REMARK 921   NORMALIZED FREE ENERGY PREDICTED BY IDOCK:   -4.77 KCAL/MOL
REMARK 922        TOTAL FREE ENERGY PREDICTED BY IDOCK:   -8.00 KCAL/MOL
REMARK 923 INTER-LIGAND FREE ENERGY PREDICTED BY IDOCK:   -7.04 KCAL/MOL
REMARK 924 INTRA-LIGAND FREE ENERGY PREDICTED BY IDOCK:   -0.96 KCAL/MOL
REMARK 927      BINDING AFFINITY PREDICTED BY RF-SCORE:    0.00 PKD
ROOT
HETATM    1  C   UNL     1      -6.973   7.624  64.385  1.00  0.00    -0.060 C  
HETATM    2  C   UNL     1      -6.323   8.328  63.189  1.00  0.00    -0.082 C  
HETATM    3  N   UNL     1      -5.860   7.095  65.205  1.00  0.00    -0.036 NA 
HETATM    4  H1  UNL     1      -6.293   6.626  66.000  1.00  0.00     0.000 HD 
HETATM    5  C   UNL     1      -7.289   9.190  62.408  1.00  0.00    -0.099 C  
HETATM    6  H2  UNL     1      -5.180   7.806  65.473  1.00  0.00     0.000 HD 
HETATM    7  C   UNL     1      -8.164  10.049  63.319  1.00  0.00    -0.162 C  
HETATM    8  C   UNL     1      -8.061   8.468  65.173  1.00  0.00    -0.142 C  
HETATM    9  O   UNL     1      -8.861   9.274  64.308  1.00  0.00    -0.204 OA 
ENDROOT
BRANCH   7  10
HETATM   10  C   UNL     1      -9.226  10.744  62.425  1.00  0.00    -0.269 C  
HETATM   11  N   UNL     1      -9.858  11.891  63.076  1.00  0.00    -0.562 NA 
HETATM   12  H1  UNL     1     -10.555  12.348  62.488  1.00  0.00     0.000 HD 
HETATM   13  H2  UNL     1      -9.157  12.560  63.396  1.00  0.00     0.000 HD 
ENDBRANCH   7  10
BRANCH   8  14
HETATM   14  O   UNL     1      -7.462   9.179  66.257  1.00  0.00    -0.090 OA 
BRANCH  14  15
HETATM   15  C   UNL     1      -7.772  10.573  66.505  1.00  0.00    -0.131 C  
HETATM   16  C   UNL     1      -6.371  11.191  66.769  1.00  0.00    -0.125 C  
HETATM   17  N   UNL     1      -5.523  11.125  65.563  1.00  0.00    -0.436 NA 
HETATM   18  C   UNL     1      -6.347  12.639  67.217  1.00  0.00    -0.099 C  
HETATM   19  H2  UNL     1      -5.979  11.557  64.760  1.00  0.00     0.000 HD 
HETATM   20  H1  UNL     1      -4.603  11.530  65.736  1.00  0.00     0.000 HD 
HETATM   21  C   UNL     1      -7.287  12.930  68.376  1.00  0.00    -0.119 C  
HETATM   22  N   UNL     1      -7.075  14.356  68.674  1.00  0.00    -0.108 NA 
HETATM   23  C   UNL     1      -8.732  12.506  67.967  1.00  0.00    -0.186 C  
HETATM   24  C   UNL     1      -8.758  10.946  67.675  1.00  0.00    -0.127 C  
HETATM   25  O   UNL     1     -10.096  10.552  67.321  1.00  0.00    -0.185 OA 
HETATM   26  H2  UNL     1      -7.201  14.972  67.871  1.00  0.00     0.000 HD 
HETATM   27  H1  UNL     1      -7.705  14.551  69.452  1.00  0.00     0.000 HD 
HETATM   28  H   UNL     1     -10.692  10.777  68.028  1.00  0.00     0.000 HD 
BRANCH  23  29
HETATM   29  O   UNL     1      -9.745  12.914  68.939  1.00  0.00     0.003 OA 
BRANCH  29  30
HETATM   30  C   UNL     1     -10.850  13.624  68.308  1.00  0.00    -0.251 C  
HETATM   31  O   UNL     1     -12.044  13.529  69.095  1.00  0.00    -0.329 OA 
HETATM   32  C   UNL     1     -11.924  14.253  70.332  1.00  0.00    -0.332 C  
HETATM   33  C   UNL     1     -11.847  15.750  70.028  1.00  0.00    -0.354 C  
HETATM   34  H   UNL     1      -9.147  16.132  66.988  1.00  0.00     0.000 HD 
HETATM   35  O   UNL     1     -11.798  16.526  71.226  1.00  0.00    -0.626 OA 
HETATM   36  C   UNL     1     -10.594  16.031  69.165  1.00  0.00    -0.260 C  
HETATM   37  H1  UNL     1      -9.730  17.647  68.217  1.00  0.00     0.000 HD 
HETATM   38  H2  UNL     1     -10.607  18.076  69.600  1.00  0.00     0.000 HD 
HETATM   39  C   UNL     1     -10.553  15.101  67.942  1.00  0.00    -0.257 C  
HETATM   40  N   UNL     1     -10.556  17.462  68.787  1.00  0.00    -0.324 NA 
HETATM   41  H   UNL     1     -11.750  17.456  71.038  1.00  0.00     0.000 HD 
HETATM   42  O   UNL     1      -9.329  15.227  67.213  1.00  0.00    -0.199 OA 
BRANCH  32  43
HETATM   43  C   UNL     1     -13.115  13.868  71.211  1.00  0.00    -0.315 C  
HETATM   44  O   UNL     1     -14.175  14.811  70.992  1.00  0.00    -0.577 OA 
HETATM   45  H   UNL     1     -14.914  14.571  71.538  1.00  0.00     0.000 HD 
ENDBRANCH  32  43
ENDBRANCH  29  30
ENDBRANCH  23  29
ENDBRANCH  14  15
ENDBRANCH   8  14
TORSDOF 6
ENDMDL
MODEL      154
REMARK 921   NORMALIZED FREE ENERGY PREDICTED BY IDOCK:   -4.71 KCAL/MOL
REMARK 922        TOTAL FREE ENERGY PREDICTED BY IDOCK:   -7.92 KCAL/MOL
REMARK 923 INTER-LIGAND FREE ENERGY PREDICTED BY IDOCK:   -7.15 KCAL/MOL
REMARK 924 INTRA-LIGAND FREE ENERGY PREDICTED BY IDOCK:   -0.78 KCAL/MOL
REMARK 927      BINDING AFFINITY PREDICTED BY RF-SCORE:    0.00 PKD
ROOT
HETATM    1  C   UNL     1      -7.591   5.874  64.661  1.00  0.00    -0.089 C  
HETATM    2  C   UNL     1      -7.827   4.418  65.080  1.00  0.00    -0.089 C  
HETATM    3  N   UNL     1      -8.659   6.201  63.690  1.00  0.00    -0.323 NA 
HETATM    4  H1  UNL     1      -8.501   7.169  63.411  1.00  0.00     0.000 HD 
HETATM    5  C   UNL     1      -7.022   4.008  66.291  1.00  0.00    -0.063 C  
HETATM    6  H2  UNL     1      -9.599   6.029  64.047  1.00  0.00     0.000 HD 
HETATM    7  C   UNL     1      -7.069   5.059  67.399  1.00  0.00    -0.066 C  
HETATM    8  C   UNL     1      -7.405   6.910  65.848  1.00  0.00    -0.079 C  
HETATM    9  O   UNL     1      -6.671   6.362  66.944  1.00  0.00    -0.056 OA 
ENDROOT
BRANCH   7  10
HETATM   10  C   UNL     1      -6.069   4.617  68.503  1.00  0.00    -0.031 C  
HETATM   11  N   UNL     1      -6.524   4.953  69.852  1.00  0.00    -0.034 NA 
HETATM   12  H1  UNL     1      -5.868   4.663  70.576  1.00  0.00     0.000 HD 
HETATM   13  H2  UNL     1      -7.454   4.573  70.028  1.00  0.00     0.000 HD 
ENDBRANCH   7  10
BRANCH   8  14
HETATM   14  O   UNL     1      -8.656   7.496  66.208  1.00  0.00    -0.130 OA 
BRANCH  14  15
HETATM   15  C   UNL     1      -8.720   8.773  66.891  1.00  0.00    -0.127 C  
HETATM   16  C   UNL     1      -9.680   8.477  68.076  1.00  0.00    -0.154 C  
HETATM   17  N   UNL     1      -9.092   7.495  69.007  1.00  0.00    -0.141 NA 
HETATM   18  C   UNL     1     -10.090   9.664  68.925  1.00  0.00    -0.198 C  
HETATM   19  H2  UNL     1      -8.173   7.793  69.334  1.00  0.00     0.000 HD 
HETATM   20  H1  UNL     1      -9.723   7.301  69.785  1.00  0.00     0.000 HD 
HETATM   21  C   UNL     1     -10.593  10.845  68.110  1.00  0.00    -0.198 C  
HETATM   22  N   UNL     1     -10.972  11.852  69.116  1.00  0.00    -0.348 NA 
HETATM   23  C   UNL     1      -9.487  11.256  67.088  1.00  0.00    -0.170 C  
HETATM   24  C   UNL     1      -9.209  10.045  66.102  1.00  0.00    -0.165 C  
HETATM   25  O   UNL     1      -8.207  10.433  65.145  1.00  0.00    -0.158 OA 
HETATM   26  H2  UNL     1     -10.227  12.086  69.772  1.00  0.00     0.000 HD 
HETATM   27  H1  UNL     1     -11.309  12.645  68.569  1.00  0.00     0.000 HD 
HETATM   28  H   UNL     1      -8.502  11.200  64.668  1.00  0.00     0.000 HD 
BRANCH  23  29
HETATM   29  O   UNL     1      -9.794  12.500  66.382  1.00  0.00    -0.241 OA 
BRANCH  29  30
HETATM   30  C   UNL     1     -11.206  12.842  66.473  1.00  0.00    -0.307 C  
HETATM   31  O   UNL     1     -11.389  14.144  67.044  1.00  0.00    -0.306 OA 
HETATM   32  C   UNL     1     -10.911  15.180  66.168  1.00  0.00    -0.331 C  
HETATM   33  C   UNL     1     -11.805  15.235  64.929  1.00  0.00    -0.170 C  
HETATM   34  H   UNL     1     -12.260  11.365  63.708  1.00  0.00     0.000 HD 
HETATM   35  O   UNL     1     -11.420  16.297  64.053  1.00  0.00    -1.371 OA 
HETATM   36  C   UNL     1     -11.728  13.881  64.183  1.00  0.00    -0.340 C  
HETATM   37  H1  UNL     1     -12.607  12.996  62.540  1.00  0.00     0.000 HD 
HETATM   38  H2  UNL     1     -12.491  14.680  62.408  1.00  0.00     0.000 HD 
HETATM   39  C   UNL     1     -11.997  12.713  65.144  1.00  0.00    -0.428 C  
HETATM   40  N   UNL     1     -12.658  13.889  63.031  1.00  0.00    -0.489 NA 
HETATM   41  H   UNL     1     -11.975  16.332  63.282  1.00  0.00     0.000 HD 
HETATM   42  O   UNL     1     -11.776  11.444  64.522  1.00  0.00    -0.095 OA 
BRANCH  32  43
HETATM   43  C   UNL     1     -10.890  16.485  66.965  1.00  0.00    -0.113 C  
HETATM   44  O   UNL     1     -11.494  16.255  68.246  1.00  0.00    -0.333 OA 
HETATM   45  H   UNL     1     -11.481  17.066  68.741  1.00  0.00     0.000 HD 
ENDBRANCH  32  43
ENDBRANCH  29  30
ENDBRANCH  23  29
ENDBRANCH  14  15
ENDBRANCH   8  14
TORSDOF 6
ENDMDL
MODEL      155
REMARK 921   NORMALIZED FREE ENERGY PREDICTED BY IDOCK:   -4.66 KCAL/MOL
REMARK 922        TOTAL FREE ENERGY PREDICTED BY IDOCK:   -7.85 KCAL/MOL
REMARK 923 INTER-LIGAND FREE ENERGY PREDICTED BY IDOCK:   -6.89 KCAL/MOL
REMARK 924 INTRA-LIGAND FREE ENERGY PREDICTED BY IDOCK:   -0.96 KCAL/MOL
REMARK 927      BINDING AFFINITY PREDICTED BY RF-SCORE:    0.00 PKD
ROOT
HETATM    1  C   UNL     1     -12.649   9.562  72.280  1.00  0.00    -0.270 C  
HETATM    2  C   UNL     1     -13.263  10.742  71.518  1.00  0.00    -0.434 C  
HETATM    3  N   UNL     1     -13.772   8.889  72.970  1.00  0.00    -1.038 NA 
HETATM    4  H1  UNL     1     -13.364   8.104  73.477  1.00  0.00     0.000 HD 
HETATM    5  C   UNL     1     -12.318  11.359  70.513  1.00  0.00    -0.439 C  
HETATM    6  H2  UNL     1     -14.530   8.618  72.343  1.00  0.00     0.000 HD 
HETATM    7  C   UNL     1     -11.593  10.304  69.678  1.00  0.00    -0.201 C  
HETATM    8  C   UNL     1     -11.702   8.613  71.431  1.00  0.00    -0.297 C  
HETATM    9  O   UNL     1     -10.910   9.333  70.486  1.00  0.00    -0.228 OA 
ENDROOT
BRANCH   7  10
HETATM   10  C   UNL     1     -10.528  11.041  68.820  1.00  0.00    -0.198 C  
HETATM   11  N   UNL     1      -9.159  10.637  69.140  1.00  0.00    -0.298 NA 
HETATM   12  H1  UNL     1      -8.461  11.121  68.576  1.00  0.00     0.000 HD 
HETATM   13  H2  UNL     1      -9.051   9.625  69.065  1.00  0.00     0.000 HD 
ENDBRANCH   7  10
BRANCH   8  14
HETATM   14  O   UNL     1     -12.442   7.525  70.876  1.00  0.00    -0.244 OA 
BRANCH  14  15
HETATM   15  C   UNL     1     -11.785   6.299  70.467  1.00  0.00    -0.219 C  
HETATM   16  C   UNL     1     -11.026   5.874  71.755  1.00  0.00    -0.269 C  
HETATM   17  N   UNL     1     -11.966   5.543  72.843  1.00  0.00    -0.530 NA 
HETATM   18  C   UNL     1     -10.097   4.684  71.628  1.00  0.00    -0.258 C  
HETATM   19  H2  UNL     1     -12.639   4.835  72.554  1.00  0.00     0.000 HD 
HETATM   20  H1  UNL     1     -11.467   5.265  73.689  1.00  0.00     0.000 HD 
HETATM   21  C   UNL     1      -9.140   4.786  70.451  1.00  0.00    -0.119 C  
HETATM   22  N   UNL     1      -8.315   3.570  70.541  1.00  0.00    -0.059 NA 
HETATM   23  C   UNL     1      -9.971   4.975  69.144  1.00  0.00    -0.196 C  
HETATM   24  C   UNL     1     -10.798   6.326  69.240  1.00  0.00    -0.342 C  
HETATM   25  O   UNL     1     -11.546   6.512  68.025  1.00  0.00    -0.598 OA 
HETATM   26  H2  UNL     1      -8.852   2.703  70.566  1.00  0.00     0.000 HD 
HETATM   27  H1  UNL     1      -7.672   3.638  69.751  1.00  0.00     0.000 HD 
HETATM   28  H   UNL     1     -10.950   6.528  67.284  1.00  0.00     0.000 HD 
BRANCH  23  29
HETATM   29  O   UNL     1      -9.157   4.898  67.932  1.00  0.00    -0.108 OA 
BRANCH  29  30
HETATM   30  C   UNL     1      -7.775   5.286  68.179  1.00  0.00    -0.084 C  
HETATM   31  O   UNL     1      -6.896   4.158  68.091  1.00  0.00    -0.046 OA 
HETATM   32  C   UNL     1      -6.804   3.659  66.745  1.00  0.00    -0.054 C  
HETATM   33  C   UNL     1      -6.095   4.698  65.876  1.00  0.00    -0.027 C  
HETATM   34  H   UNL     1      -7.836   8.280  66.778  1.00  0.00     0.000 HD 
HETATM   35  O   UNL     1      -5.911   4.227  64.540  1.00  0.00    -0.014 OA 
HETATM   36  C   UNL     1      -6.923   6.005  65.866  1.00  0.00    -0.062 C  
HETATM   37  H1  UNL     1      -6.749   7.912  65.096  1.00  0.00     0.000 HD 
HETATM   38  H2  UNL     1      -5.963   6.740  64.160  1.00  0.00     0.000 HD 
HETATM   39  C   UNL     1      -7.256   6.452  67.298  1.00  0.00    -0.078 C  
HETATM   40  N   UNL     1      -6.203   7.050  65.103  1.00  0.00    -0.036 NA 
HETATM   41  H   UNL     1      -5.470   4.872  64.000  1.00  0.00     0.000 HD 
HETATM   42  O   UNL     1      -8.154   7.566  67.318  1.00  0.00    -0.112 OA 
BRANCH  32  43
HETATM   43  C   UNL     1      -6.082   2.312  66.800  1.00  0.00    -0.023 C  
HETATM   44  O   UNL     1      -5.149   2.331  67.889  1.00  0.00    -0.010 OA 
HETATM   45  H   UNL     1      -4.700   1.494  67.923  1.00  0.00     0.000 HD 
ENDBRANCH  32  43
ENDBRANCH  29  30
ENDBRANCH  23  29
ENDBRANCH  14  15
ENDBRANCH   8  14
TORSDOF 6
ENDMDL
MODEL      156
REMARK 921   NORMALIZED FREE ENERGY PREDICTED BY IDOCK:   -4.63 KCAL/MOL
REMARK 922        TOTAL FREE ENERGY PREDICTED BY IDOCK:   -7.81 KCAL/MOL
REMARK 923 INTER-LIGAND FREE ENERGY PREDICTED BY IDOCK:   -6.89 KCAL/MOL
REMARK 924 INTRA-LIGAND FREE ENERGY PREDICTED BY IDOCK:   -0.92 KCAL/MOL
REMARK 927      BINDING AFFINITY PREDICTED BY RF-SCORE:    0.00 PKD
ROOT
HETATM    1  C   UNL     1     -11.549  12.713  68.091  1.00  0.00    -0.338 C  
HETATM    2  C   UNL     1     -11.235  14.189  68.364  1.00  0.00    -0.289 C  
HETATM    3  N   UNL     1     -10.448  12.208  67.242  1.00  0.00    -0.215 NA 
HETATM    4  H1  UNL     1     -10.657  11.227  67.060  1.00  0.00     0.000 HD 
HETATM    5  C   UNL     1     -12.085  14.787  69.461  1.00  0.00    -0.328 C  
HETATM    6  H2  UNL     1      -9.523  12.358  67.645  1.00  0.00     0.000 HD 
HETATM    7  C   UNL     1     -12.186  13.868  70.679  1.00  0.00    -0.373 C  
HETATM    8  C   UNL     1     -11.887  11.834  69.368  1.00  0.00    -0.334 C  
HETATM    9  O   UNL     1     -12.648  12.551  70.341  1.00  0.00    -0.157 OA 
ENDROOT
BRANCH   7  10
HETATM   10  C   UNL     1     -13.220  14.498  71.652  1.00  0.00    -0.348 C  
HETATM   11  N   UNL     1     -13.704  13.554  72.658  1.00  0.00    -0.730 NA 
HETATM   12  H1  UNL     1     -14.383  13.968  73.297  1.00  0.00     0.000 HD 
HETATM   13  H2  UNL     1     -12.927  13.138  73.171  1.00  0.00     0.000 HD 
ENDBRANCH   7  10
BRANCH   8  14
HETATM   14  O   UNL     1     -10.708  11.213  69.880  1.00  0.00    -0.114 OA 
BRANCH  14  15
HETATM   15  C   UNL     1     -10.477   9.790  69.721  1.00  0.00    -0.250 C  
HETATM   16  C   UNL     1     -10.706   9.247  71.159  1.00  0.00    -0.333 C  
HETATM   17  N   UNL     1     -12.106   9.434  71.584  1.00  0.00    -0.365 NA 
HETATM   18  C   UNL     1     -10.393   7.780  71.383  1.00  0.00    -0.226 C  
HETATM   19  H2  UNL     1     -12.758   9.019  70.918  1.00  0.00     0.000 HD 
HETATM   20  H1  UNL     1     -12.256   9.077  72.528  1.00  0.00     0.000 HD 
HETATM   21  C   UNL     1      -9.025   7.367  70.866  1.00  0.00    -0.149 C  
HETATM   22  N   UNL     1      -8.911   5.943  71.220  1.00  0.00    -0.140 NA 
HETATM   23  C   UNL     1      -8.935   7.723  69.349  1.00  0.00    -0.142 C  
HETATM   24  C   UNL     1      -9.090   9.291  69.168  1.00  0.00    -0.145 C  
HETATM   25  O   UNL     1      -8.983   9.620  67.771  1.00  0.00    -0.119 OA 
HETATM   26  H2  UNL     1      -9.678   5.366  70.875  1.00  0.00     0.000 HD 
HETATM   27  H1  UNL     1      -7.993   5.666  70.873  1.00  0.00     0.000 HD 
HETATM   28  H   UNL     1      -8.145   9.319  67.436  1.00  0.00     0.000 HD 
BRANCH  23  29
HETATM   29  O   UNL     1      -7.729   7.198  68.709  1.00  0.00    -0.111 OA 
BRANCH  29  30
HETATM   30  C   UNL     1      -7.868   5.791  68.358  1.00  0.00    -0.101 C  
HETATM   31  O   UNL     1      -9.176   5.512  67.844  1.00  0.00    -0.108 OA 
HETATM   32  C   UNL     1      -9.390   6.136  66.566  1.00  0.00    -0.153 C  
HETATM   33  C   UNL     1      -8.481   5.474  65.530  1.00  0.00    -0.144 C  
HETATM   34  H   UNL     1      -4.794   5.238  67.272  1.00  0.00     0.000 HD 
HETATM   35  O   UNL     1      -8.701   6.007  64.223  1.00  0.00    -0.349 OA 
HETATM   36  C   UNL     1      -7.003   5.680  65.942  1.00  0.00    -0.066 C  
HETATM   37  H1  UNL     1      -5.140   5.102  65.269  1.00  0.00     0.000 HD 
HETATM   38  H2  UNL     1      -6.284   5.240  64.029  1.00  0.00     0.000 HD 
HETATM   39  C   UNL     1      -6.777   5.246  67.399  1.00  0.00    -0.055 C  
HETATM   40  N   UNL     1      -6.114   4.966  64.997  1.00  0.00    -0.029 NA 
HETATM   41  H   UNL     1      -8.136   5.595  63.579  1.00  0.00     0.000 HD 
HETATM   42  O   UNL     1      -5.463   5.572  67.859  1.00  0.00    -0.010 OA 
BRANCH  32  43
HETATM   43  C   UNL     1     -10.879   6.018  66.237  1.00  0.00     0.168 C  
HETATM   44  O   UNL     1     -11.120   4.737  65.638  1.00  0.00    -0.831 OA 
HETATM   45  H   UNL     1     -12.045   4.664  65.434  1.00  0.00     0.000 HD 
ENDBRANCH  32  43
ENDBRANCH  29  30
ENDBRANCH  23  29
ENDBRANCH  14  15
ENDBRANCH   8  14
TORSDOF 6
ENDMDL
MODEL      157
REMARK 921   NORMALIZED FREE ENERGY PREDICTED BY IDOCK:   -4.63 KCAL/MOL
REMARK 922        TOTAL FREE ENERGY PREDICTED BY IDOCK:   -7.81 KCAL/MOL
REMARK 923 INTER-LIGAND FREE ENERGY PREDICTED BY IDOCK:   -7.18 KCAL/MOL
REMARK 924 INTRA-LIGAND FREE ENERGY PREDICTED BY IDOCK:   -0.62 KCAL/MOL
REMARK 927      BINDING AFFINITY PREDICTED BY RF-SCORE:    0.00 PKD
ROOT
HETATM    1  C   UNL     1     -12.688  14.663  70.085  1.00  0.00    -0.220 C  
HETATM    2  C   UNL     1     -12.763  14.114  71.515  1.00  0.00    -0.436 C  
HETATM    3  N   UNL     1     -12.189  16.051  70.204  1.00  0.00    -0.357 NA 
HETATM    4  H1  UNL     1     -12.139  16.416  69.253  1.00  0.00     0.000 HD 
HETATM    5  C   UNL     1     -12.958  12.616  71.568  1.00  0.00    -0.380 C  
HETATM    6  H2  UNL     1     -11.307  16.123  70.713  1.00  0.00     0.000 HD 
HETATM    7  C   UNL     1     -12.041  11.878  70.594  1.00  0.00    -0.294 C  
HETATM    8  C   UNL     1     -11.926  13.750  69.035  1.00  0.00    -0.360 C  
HETATM    9  O   UNL     1     -12.164  12.357  69.246  1.00  0.00    -0.195 OA 
ENDROOT
BRANCH   7  10
HETATM   10  C   UNL     1     -12.457  10.381  70.606  1.00  0.00    -0.348 C  
HETATM   11  N   UNL     1     -11.875   9.619  69.502  1.00  0.00    -0.359 NA 
HETATM   12  H1  UNL     1     -12.148   8.637  69.510  1.00  0.00     0.000 HD 
HETATM   13  H2  UNL     1     -10.859   9.715  69.488  1.00  0.00     0.000 HD 
ENDBRANCH   7  10
BRANCH   8  14
HETATM   14  O   UNL     1     -10.546  14.108  68.961  1.00  0.00    -0.246 OA 
BRANCH  14  15
HETATM   15  C   UNL     1      -9.679  13.557  67.938  1.00  0.00    -0.225 C  
HETATM   16  C   UNL     1     -10.635  13.418  66.721  1.00  0.00    -0.277 C  
HETATM   17  N   UNL     1     -11.102  14.738  66.255  1.00  0.00    -0.338 NA 
HETATM   18  C   UNL     1     -10.074  12.718  65.499  1.00  0.00    -0.278 C  
HETATM   19  H2  UNL     1     -10.321  15.360  66.049  1.00  0.00     0.000 HD 
HETATM   20  H1  UNL     1     -11.730  14.646  65.457  1.00  0.00     0.000 HD 
HETATM   21  C   UNL     1      -9.412  11.386  65.815  1.00  0.00    -0.233 C  
HETATM   22  N   UNL     1      -8.985  10.867  64.506  1.00  0.00    -0.310 NA 
HETATM   23  C   UNL     1      -8.292  11.623  66.876  1.00  0.00    -0.169 C  
HETATM   24  C   UNL     1      -8.942  12.192  68.207  1.00  0.00    -0.186 C  
HETATM   25  O   UNL     1      -7.911  12.387  69.192  1.00  0.00    -0.331 OA 
HETATM   26  H2  UNL     1      -8.396  11.509  63.975  1.00  0.00     0.000 HD 
HETATM   27  H1  UNL     1      -8.541   9.973  64.717  1.00  0.00     0.000 HD 
HETATM   28  H   UNL     1      -7.466  11.563  69.355  1.00  0.00     0.000 HD 
BRANCH  23  29
HETATM   29  O   UNL     1      -7.468  10.438  67.112  1.00  0.00    -0.090 OA 
BRANCH  29  30
HETATM   30  C   UNL     1      -7.883   9.717  68.307  1.00  0.00    -0.085 C  
HETATM   31  O   UNL     1      -9.183   9.137  68.138  1.00  0.00    -0.132 OA 
HETATM   32  C   UNL     1      -9.170   8.076  67.168  1.00  0.00    -0.142 C  
HETATM   33  C   UNL     1      -8.357   6.905  67.722  1.00  0.00    -0.120 C  
HETATM   34  H   UNL     1      -4.935   8.543  69.236  1.00  0.00     0.000 HD 
HETATM   35  O   UNL     1      -8.367   5.790  66.829  1.00  0.00    -0.108 OA 
HETATM   36  C   UNL     1      -6.901   7.368  67.972  1.00  0.00    -0.070 C  
HETATM   37  H1  UNL     1      -5.166   6.576  68.759  1.00  0.00     0.000 HD 
HETATM   38  H2  UNL     1      -6.166   5.413  68.043  1.00  0.00     0.000 HD 
HETATM   39  C   UNL     1      -6.874   8.654  68.814  1.00  0.00    -0.062 C  
HETATM   40  N   UNL     1      -6.125   6.271  68.594  1.00  0.00    -0.027 NA 
HETATM   41  H   UNL     1      -7.862   5.063  67.173  1.00  0.00     0.000 HD 
HETATM   42  O   UNL     1      -5.554   9.194  68.926  1.00  0.00    -0.037 OA 
BRANCH  32  43
HETATM   43  C   UNL     1     -10.623   7.716  66.855  1.00  0.00    -0.289 C  
HETATM   44  O   UNL     1     -11.151   6.940  67.940  1.00  0.00    -0.480 OA 
HETATM   45  H   UNL     1     -12.054   6.717  67.745  1.00  0.00     0.000 HD 
ENDBRANCH  32  43
ENDBRANCH  29  30
ENDBRANCH  23  29
ENDBRANCH  14  15
ENDBRANCH   8  14
TORSDOF 6
ENDMDL
MODEL      158
REMARK 921   NORMALIZED FREE ENERGY PREDICTED BY IDOCK:   -4.62 KCAL/MOL
REMARK 922        TOTAL FREE ENERGY PREDICTED BY IDOCK:   -7.80 KCAL/MOL
REMARK 923 INTER-LIGAND FREE ENERGY PREDICTED BY IDOCK:   -6.56 KCAL/MOL
REMARK 924 INTRA-LIGAND FREE ENERGY PREDICTED BY IDOCK:   -1.24 KCAL/MOL
REMARK 927      BINDING AFFINITY PREDICTED BY RF-SCORE:    0.00 PKD
ROOT
HETATM    1  C   UNL     1      -9.102  19.581  68.184  1.00  0.00    -0.339 C  
HETATM    2  C   UNL     1      -8.419  19.665  66.813  1.00  0.00    -0.344 C  
HETATM    3  N   UNL     1     -10.506  19.994  67.970  1.00  0.00    -0.365 NA 
HETATM    4  H1  UNL     1     -10.960  19.938  68.881  1.00  0.00     0.000 HD 
HETATM    5  C   UNL     1      -7.068  18.990  66.778  1.00  0.00    -0.216 C  
HETATM    6  H2  UNL     1     -10.982  19.455  67.246  1.00  0.00     0.000 HD 
HETATM    7  C   UNL     1      -7.088  17.619  67.453  1.00  0.00    -0.169 C  
HETATM    8  C   UNL     1      -8.902  18.216  68.969  1.00  0.00    -0.006 C  
HETATM    9  O   UNL     1      -7.594  17.671  68.796  1.00  0.00    -0.262 OA 
ENDROOT
BRANCH   7  10
HETATM   10  C   UNL     1      -5.623  17.109  67.516  1.00  0.00    -0.135 C  
HETATM   11  N   UNL     1      -5.500  15.686  67.199  1.00  0.00    -0.299 NA 
HETATM   12  H1  UNL     1      -4.537  15.352  67.241  1.00  0.00     0.000 HD 
HETATM   13  H2  UNL     1      -5.920  15.477  66.294  1.00  0.00     0.000 HD 
ENDBRANCH   7  10
BRANCH   8  14
HETATM   14  O   UNL     1      -9.965  17.307  68.680  1.00  0.00    -0.291 OA 
BRANCH  14  15
HETATM   15  C   UNL     1      -9.766  16.173  67.799  1.00  0.00    -0.229 C  
HETATM   16  C   UNL     1     -10.897  16.357  66.749  1.00  0.00    -0.098 C  
HETATM   17  N   UNL     1     -10.697  17.586  65.958  1.00  0.00    -0.203 NA 
HETATM   18  C   UNL     1     -11.073  15.236  65.744  1.00  0.00    -0.301 C  
HETATM   19  H2  UNL     1      -9.775  17.605  65.523  1.00  0.00     0.000 HD 
HETATM   20  H1  UNL     1     -11.439  17.706  65.269  1.00  0.00     0.000 HD 
HETATM   21  C   UNL     1     -11.152  13.858  66.381  1.00  0.00    -0.309 C  
HETATM   22  N   UNL     1     -11.363  12.940  65.250  1.00  0.00    -0.293 NA 
HETATM   23  C   UNL     1      -9.870  13.630  67.241  1.00  0.00    -0.241 C  
HETATM   24  C   UNL     1      -9.812  14.717  68.395  1.00  0.00    -0.220 C  
HETATM   25  O   UNL     1      -8.642  14.490  69.202  1.00  0.00    -0.330 OA 
HETATM   26  H2  UNL     1     -10.661  13.019  64.514  1.00  0.00     0.000 HD 
HETATM   27  H1  UNL     1     -11.416  12.016  65.677  1.00  0.00     0.000 HD 
HETATM   28  H   UNL     1      -8.669  13.611  69.562  1.00  0.00     0.000 HD 
BRANCH  23  29
HETATM   29  O   UNL     1      -9.757  12.262  67.748  1.00  0.00    -0.189 OA 
BRANCH  29  30
HETATM   30  C   UNL     1      -8.480  11.656  67.398  1.00  0.00    -0.150 C  
HETATM   31  O   UNL     1      -7.839  11.095  68.550  1.00  0.00    -0.120 OA 
HETATM   32  C   UNL     1      -8.555   9.955  69.055  1.00  0.00    -0.149 C  
HETATM   33  C   UNL     1      -8.459   8.817  68.038  1.00  0.00    -0.126 C  
HETATM   34  H   UNL     1      -9.279  10.496  64.406  1.00  0.00     0.000 HD 
HETATM   35  O   UNL     1      -9.094   7.630  68.517  1.00  0.00    -0.133 OA 
HETATM   36  C   UNL     1      -9.112   9.265  66.708  1.00  0.00    -0.140 C  
HETATM   37  H1  UNL     1      -9.377   8.502  64.809  1.00  0.00     0.000 HD 
HETATM   38  H2  UNL     1      -9.304   7.305  66.005  1.00  0.00     0.000 HD 
HETATM   39  C   UNL     1      -8.544  10.616  66.248  1.00  0.00    -0.153 C  
HETATM   40  N   UNL     1      -8.946   8.206  65.686  1.00  0.00    -0.127 NA 
HETATM   41  H   UNL     1      -9.035   6.923  67.886  1.00  0.00     0.000 HD 
HETATM   42  O   UNL     1      -9.240  11.132  65.111  1.00  0.00    -0.216 OA 
BRANCH  32  43
HETATM   43  C   UNL     1      -7.963   9.605  70.421  1.00  0.00    -0.165 C  
HETATM   44  O   UNL     1      -9.021   9.159  71.282  1.00  0.00    -0.237 OA 
HETATM   45  H   UNL     1      -8.653   8.942  72.131  1.00  0.00     0.000 HD 
ENDBRANCH  32  43
ENDBRANCH  29  30
ENDBRANCH  23  29
ENDBRANCH  14  15
ENDBRANCH   8  14
TORSDOF 6
ENDMDL
MODEL      159
REMARK 921   NORMALIZED FREE ENERGY PREDICTED BY IDOCK:   -4.62 KCAL/MOL
REMARK 922        TOTAL FREE ENERGY PREDICTED BY IDOCK:   -7.79 KCAL/MOL
REMARK 923 INTER-LIGAND FREE ENERGY PREDICTED BY IDOCK:   -6.27 KCAL/MOL
REMARK 924 INTRA-LIGAND FREE ENERGY PREDICTED BY IDOCK:   -1.52 KCAL/MOL
REMARK 927      BINDING AFFINITY PREDICTED BY RF-SCORE:    0.00 PKD
ROOT
HETATM    1  C   UNL     1     -10.518  13.265  66.807  1.00  0.00    -0.270 C  
HETATM    2  C   UNL     1      -9.919  14.595  67.280  1.00  0.00    -0.235 C  
HETATM    3  N   UNL     1      -9.457  12.589  66.029  1.00  0.00    -0.390 NA 
HETATM    4  H1  UNL     1      -9.855  11.705  65.714  1.00  0.00     0.000 HD 
HETATM    5  C   UNL     1     -10.750  15.279  68.341  1.00  0.00    -0.250 C  
HETATM    6  H2  UNL     1      -8.583  12.481  66.544  1.00  0.00     0.000 HD 
HETATM    7  C   UNL     1     -11.213  14.309  69.427  1.00  0.00    -0.273 C  
HETATM    8  C   UNL     1     -11.208  12.383  67.931  1.00  0.00    -0.266 C  
HETATM    9  O   UNL     1     -11.910  13.172  68.893  1.00  0.00    -0.300 OA 
ENDROOT
BRANCH   7  10
HETATM   10  C   UNL     1     -12.197  15.078  70.350  1.00  0.00    -0.341 C  
HETATM   11  N   UNL     1     -11.648  16.341  70.842  1.00  0.00    -0.571 NA 
HETATM   12  H1  UNL     1     -12.294  16.846  71.448  1.00  0.00     0.000 HD 
HETATM   13  H2  UNL     1     -11.337  16.930  70.069  1.00  0.00     0.000 HD 
ENDBRANCH   7  10
BRANCH   8  14
HETATM   14  O   UNL     1     -10.276  11.458  68.492  1.00  0.00    -0.195 OA 
BRANCH  14  15
HETATM   15  C   UNL     1     -10.593  10.048  68.609  1.00  0.00    -0.212 C  
HETATM   16  C   UNL     1     -10.861   9.886  70.131  1.00  0.00    -0.304 C  
HETATM   17  N   UNL     1     -12.050  10.653  70.548  1.00  0.00    -0.324 NA 
HETATM   18  C   UNL     1     -11.079   8.472  70.630  1.00  0.00    -0.280 C  
HETATM   19  H2  UNL     1     -12.870  10.405  69.995  1.00  0.00     0.000 HD 
HETATM   20  H1  UNL     1     -12.226  10.547  71.548  1.00  0.00     0.000 HD 
HETATM   21  C   UNL     1     -10.011   7.495  70.168  1.00  0.00    -0.192 C  
HETATM   22  N   UNL     1     -10.386   6.215  70.792  1.00  0.00    -0.204 NA 
HETATM   23  C   UNL     1      -9.947   7.523  68.609  1.00  0.00    -0.172 C  
HETATM   24  C   UNL     1      -9.541   8.980  68.128  1.00  0.00    -0.148 C  
HETATM   25  O   UNL     1      -9.459   8.999  66.691  1.00  0.00    -0.164 OA 
HETATM   26  H2  UNL     1     -11.339   5.916  70.587  1.00  0.00     0.000 HD 
HETATM   27  H1  UNL     1      -9.669   5.559  70.482  1.00  0.00     0.000 HD 
HETATM   28  H   UNL     1      -8.824   8.354  66.400  1.00  0.00     0.000 HD 
BRANCH  23  29
HETATM   29  O   UNL     1      -9.081   6.484  68.052  1.00  0.00    -0.117 OA 
BRANCH  29  30
HETATM   30  C   UNL     1      -9.788   5.640  67.100  1.00  0.00    -0.149 C  
HETATM   31  O   UNL     1      -9.345   5.887  65.759  1.00  0.00    -0.113 OA 
HETATM   32  C   UNL     1      -7.989   5.450  65.559  1.00  0.00    -0.109 C  
HETATM   33  C   UNL     1      -7.939   3.925  65.647  1.00  0.00    -0.093 C  
HETATM   34  H   UNL     1     -10.100   2.928  68.966  1.00  0.00     0.000 HD 
HETATM   35  O   UNL     1      -6.626   3.427  65.385  1.00  0.00    -0.035 OA 
HETATM   36  C   UNL     1      -8.401   3.479  67.056  1.00  0.00    -0.096 C  
HETATM   37  H1  UNL     1      -8.749   1.708  68.054  1.00  0.00     0.000 HD 
HETATM   38  H2  UNL     1      -7.553   1.578  66.862  1.00  0.00     0.000 HD 
HETATM   39  C   UNL     1      -9.749   4.122  67.417  1.00  0.00    -0.154 C  
HETATM   40  N   UNL     1      -8.444   2.001  67.126  1.00  0.00    -0.085 NA 
HETATM   41  H   UNL     1      -6.594   2.480  65.439  1.00  0.00     0.000 HD 
HETATM   42  O   UNL     1     -10.124   3.858  68.771  1.00  0.00     0.105 OA 
BRANCH  32  43
HETATM   43  C   UNL     1      -7.521   6.000  64.211  1.00  0.00    -0.076 C  
HETATM   44  O   UNL     1      -8.144   7.274  63.989  1.00  0.00    -0.261 OA 
HETATM   45  H   UNL     1      -7.853   7.615  63.152  1.00  0.00     0.000 HD 
ENDBRANCH  32  43
ENDBRANCH  29  30
ENDBRANCH  23  29
ENDBRANCH  14  15
ENDBRANCH   8  14
TORSDOF 6
ENDMDL
MODEL      160
REMARK 921   NORMALIZED FREE ENERGY PREDICTED BY IDOCK:   -4.61 KCAL/MOL
REMARK 922        TOTAL FREE ENERGY PREDICTED BY IDOCK:   -7.79 KCAL/MOL
REMARK 923 INTER-LIGAND FREE ENERGY PREDICTED BY IDOCK:   -6.18 KCAL/MOL
REMARK 924 INTRA-LIGAND FREE ENERGY PREDICTED BY IDOCK:   -1.60 KCAL/MOL
REMARK 927      BINDING AFFINITY PREDICTED BY RF-SCORE:    0.00 PKD
ROOT
HETATM    1  C   UNL     1     -10.375   4.719  70.195  1.00  0.00    -0.098 C  
HETATM    2  C   UNL     1      -9.404   3.761  69.493  1.00  0.00    -0.249 C  
HETATM    3  N   UNL     1      -9.927   4.800  71.603  1.00  0.00    -0.183 NA 
HETATM    4  H1  UNL     1     -10.572   5.436  72.069  1.00  0.00     0.000 HD 
HETATM    5  C   UNL     1      -9.518   3.795  67.986  1.00  0.00    -0.221 C  
HETATM    6  H2  UNL     1      -8.948   5.069  71.703  1.00  0.00     0.000 HD 
HETATM    7  C   UNL     1      -9.590   5.222  67.444  1.00  0.00    -0.134 C  
HETATM    8  C   UNL     1     -10.611   6.112  69.472  1.00  0.00    -0.287 C  
HETATM    9  O   UNL     1     -10.641   5.992  68.049  1.00  0.00    -0.211 OA 
ENDROOT
BRANCH   7  10
HETATM   10  C   UNL     1      -9.888   5.126  65.922  1.00  0.00    -0.129 C  
HETATM   11  N   UNL     1     -11.296   4.860  65.632  1.00  0.00    -0.911 NA 
HETATM   12  H1  UNL     1     -11.491   4.797  64.633  1.00  0.00     0.000 HD 
HETATM   13  H2  UNL     1     -11.898   5.552  66.079  1.00  0.00     0.000 HD 
ENDBRANCH   7  10
BRANCH   8  14
HETATM   14  O   UNL     1      -9.702   7.097  69.963  1.00  0.00    -0.171 OA 
BRANCH  14  15
HETATM   15  C   UNL     1      -8.782   7.781  69.076  1.00  0.00    -0.135 C  
HETATM   16  C   UNL     1      -7.522   7.961  69.967  1.00  0.00    -0.079 C  
HETATM   17  N   UNL     1      -6.926   6.658  70.319  1.00  0.00    -0.064 NA 
HETATM   18  C   UNL     1      -6.396   8.790  69.383  1.00  0.00    -0.041 C  
HETATM   19  H2  UNL     1      -6.722   6.102  69.489  1.00  0.00     0.000 HD 
HETATM   20  H1  UNL     1      -6.099   6.776  70.905  1.00  0.00     0.000 HD 
HETATM   21  C   UNL     1      -6.855  10.129  68.829  1.00  0.00    -0.061 C  
HETATM   22  N   UNL     1      -5.619  10.778  68.361  1.00  0.00    -0.043 NA 
HETATM   23  C   UNL     1      -7.962   9.875  67.759  1.00  0.00    -0.105 C  
HETATM   24  C   UNL     1      -9.202   9.161  68.446  1.00  0.00    -0.132 C  
HETATM   25  O   UNL     1     -10.232   8.949  67.464  1.00  0.00    -0.213 OA 
HETATM   26  H2  UNL     1      -5.079  10.218  67.702  1.00  0.00     0.000 HD 
HETATM   27  H1  UNL     1      -5.927  11.677  67.989  1.00  0.00     0.000 HD 
HETATM   28  H   UNL     1     -10.486   9.783  67.084  1.00  0.00     0.000 HD 
BRANCH  23  29
HETATM   29  O   UNL     1      -8.341  11.084  67.029  1.00  0.00    -0.129 OA 
BRANCH  29  30
HETATM   30  C   UNL     1      -9.093  12.010  67.864  1.00  0.00    -0.183 C  
HETATM   31  O   UNL     1      -8.231  12.991  68.456  1.00  0.00    -0.140 OA 
HETATM   32  C   UNL     1      -7.691  13.888  67.470  1.00  0.00    -0.179 C  
HETATM   33  C   UNL     1      -8.823  14.744  66.901  1.00  0.00    -0.248 C  
HETATM   34  H   UNL     1     -11.873  12.155  66.081  1.00  0.00     0.000 HD 
HETATM   35  O   UNL     1      -8.334  15.706  65.965  1.00  0.00    -0.299 OA 
HETATM   36  C   UNL     1      -9.864  13.825  66.219  1.00  0.00    -0.303 C  
HETATM   37  H1  UNL     1     -11.698  14.025  65.294  1.00  0.00     0.000 HD 
HETATM   38  H2  UNL     1     -10.717  15.396  65.135  1.00  0.00     0.000 HD 
HETATM   39  C   UNL     1     -10.297  12.693  67.165  1.00  0.00    -0.231 C  
HETATM   40  N   UNL     1     -11.011  14.632  65.744  1.00  0.00    -0.320 NA 
HETATM   41  H   UNL     1      -9.037  16.238  65.612  1.00  0.00     0.000 HD 
HETATM   42  O   UNL     1     -11.135  11.737  66.510  1.00  0.00    -0.286 OA 
BRANCH  32  43
HETATM   43  C   UNL     1      -6.586  14.704  68.143  1.00  0.00    -0.134 C  
HETATM   44  O   UNL     1      -5.653  15.134  67.141  1.00  0.00    -0.263 OA 
HETATM   45  H   UNL     1      -4.967  15.641  67.559  1.00  0.00     0.000 HD 
ENDBRANCH  32  43
ENDBRANCH  29  30
ENDBRANCH  23  29
ENDBRANCH  14  15
ENDBRANCH   8  14
TORSDOF 6
ENDMDL
MODEL      161
REMARK 921   NORMALIZED FREE ENERGY PREDICTED BY IDOCK:   -4.61 KCAL/MOL
REMARK 922        TOTAL FREE ENERGY PREDICTED BY IDOCK:   -7.78 KCAL/MOL
REMARK 923 INTER-LIGAND FREE ENERGY PREDICTED BY IDOCK:   -6.45 KCAL/MOL
REMARK 924 INTRA-LIGAND FREE ENERGY PREDICTED BY IDOCK:   -1.33 KCAL/MOL
REMARK 927      BINDING AFFINITY PREDICTED BY RF-SCORE:    0.00 PKD
ROOT
HETATM    1  C   UNL     1      -9.022  13.271  67.370  1.00  0.00    -0.215 C  
HETATM    2  C   UNL     1      -9.862  14.512  67.041  1.00  0.00    -0.249 C  
HETATM    3  N   UNL     1      -8.529  13.463  68.751  1.00  0.00    -0.362 NA 
HETATM    4  H1  UNL     1      -7.971  12.638  68.970  1.00  0.00     0.000 HD 
HETATM    5  C   UNL     1     -10.695  14.353  65.790  1.00  0.00    -0.312 C  
HETATM    6  H2  UNL     1      -9.273  13.640  69.427  1.00  0.00     0.000 HD 
HETATM    7  C   UNL     1     -11.411  13.004  65.739  1.00  0.00    -0.332 C  
HETATM    8  C   UNL     1      -9.716  11.874  67.079  1.00  0.00    -0.194 C  
HETATM    9  O   UNL     1     -10.513  11.894  65.894  1.00  0.00    -0.242 OA 
ENDROOT
BRANCH   7  10
HETATM   10  C   UNL     1     -12.079  12.884  64.342  1.00  0.00    -0.410 C  
HETATM   11  N   UNL     1     -11.166  12.380  63.316  1.00  0.00    -0.673 NA 
HETATM   12  H1  UNL     1     -11.605  12.301  62.398  1.00  0.00     0.000 HD 
HETATM   13  H2  UNL     1     -10.752  11.492  63.600  1.00  0.00     0.000 HD 
ENDBRANCH   7  10
BRANCH   8  14
HETATM   14  O   UNL     1     -10.394  11.395  68.240  1.00  0.00    -0.180 OA 
BRANCH  14  15
HETATM   15  C   UNL     1     -10.924  10.046  68.299  1.00  0.00    -0.227 C  
HETATM   16  C   UNL     1     -10.799   9.698  69.808  1.00  0.00    -0.250 C  
HETATM   17  N   UNL     1     -11.669  10.562  70.629  1.00  0.00    -0.335 NA 
HETATM   18  C   UNL     1     -11.135   8.273  70.201  1.00  0.00    -0.189 C  
HETATM   19  H2  UNL     1     -12.638  10.525  70.314  1.00  0.00     0.000 HD 
HETATM   20  H1  UNL     1     -11.587  10.333  71.620  1.00  0.00     0.000 HD 
HETATM   21  C   UNL     1     -10.431   7.229  69.350  1.00  0.00    -0.216 C  
HETATM   22  N   UNL     1     -10.856   5.940  69.921  1.00  0.00    -0.345 NA 
HETATM   23  C   UNL     1     -10.784   7.483  67.851  1.00  0.00    -0.133 C  
HETATM   24  C   UNL     1     -10.258   8.919  67.425  1.00  0.00    -0.249 C  
HETATM   25  O   UNL     1     -10.563   9.142  66.036  1.00  0.00    -0.078 OA 
HETATM   26  H2  UNL     1     -11.868   5.821  69.972  1.00  0.00     0.000 HD 
HETATM   27  H1  UNL     1     -10.384   5.239  69.350  1.00  0.00     0.000 HD 
HETATM   28  H   UNL     1     -10.161   8.461  65.509  1.00  0.00     0.000 HD 
BRANCH  23  29
HETATM   29  O   UNL     1     -10.308   6.422  66.963  1.00  0.00    -0.188 OA 
BRANCH  29  30
HETATM   30  C   UNL     1      -8.862   6.261  67.035  1.00  0.00    -0.108 C  
HETATM   31  O   UNL     1      -8.508   5.059  67.729  1.00  0.00    -0.105 OA 
HETATM   32  C   UNL     1      -8.878   3.886  66.984  1.00  0.00    -0.126 C  
HETATM   33  C   UNL     1      -8.017   3.804  65.723  1.00  0.00    -0.093 C  
HETATM   34  H   UNL     1      -8.068   7.549  64.094  1.00  0.00     0.000 HD 
HETATM   35  O   UNL     1      -8.291   2.618  64.977  1.00  0.00    -0.089 OA 
HETATM   36  C   UNL     1      -8.277   5.052  64.846  1.00  0.00    -0.132 C  
HETATM   37  H1  UNL     1      -7.555   5.855  63.088  1.00  0.00     0.000 HD 
HETATM   38  H2  UNL     1      -7.469   4.165  63.135  1.00  0.00     0.000 HD 
HETATM   39  C   UNL     1      -8.128   6.341  65.671  1.00  0.00    -0.129 C  
HETATM   40  N   UNL     1      -7.383   5.032  63.666  1.00  0.00    -0.049 NA 
HETATM   41  H   UNL     1      -7.756   2.567  64.193  1.00  0.00     0.000 HD 
HETATM   42  O   UNL     1      -8.518   7.500  64.930  1.00  0.00    -0.082 OA 
BRANCH  32  43
HETATM   43  C   UNL     1      -8.720   2.680  67.911  1.00  0.00    -0.110 C  
HETATM   44  O   UNL     1      -7.687   2.963  68.866  1.00  0.00    -0.047 OA 
HETATM   45  H   UNL     1      -7.589   2.214  69.442  1.00  0.00     0.000 HD 
ENDBRANCH  32  43
ENDBRANCH  29  30
ENDBRANCH  23  29
ENDBRANCH  14  15
ENDBRANCH   8  14
TORSDOF 6
ENDMDL
MODEL      162
REMARK 921   NORMALIZED FREE ENERGY PREDICTED BY IDOCK:   -4.59 KCAL/MOL
REMARK 922        TOTAL FREE ENERGY PREDICTED BY IDOCK:   -7.76 KCAL/MOL
REMARK 923 INTER-LIGAND FREE ENERGY PREDICTED BY IDOCK:   -6.40 KCAL/MOL
REMARK 924 INTRA-LIGAND FREE ENERGY PREDICTED BY IDOCK:   -1.36 KCAL/MOL
REMARK 927      BINDING AFFINITY PREDICTED BY RF-SCORE:    0.00 PKD
ROOT
HETATM    1  C   UNL     1      -8.779  13.494  66.898  1.00  0.00    -0.145 C  
HETATM    2  C   UNL     1     -10.001  14.417  66.827  1.00  0.00    -0.265 C  
HETATM    3  N   UNL     1      -8.313  13.537  68.302  1.00  0.00    -0.162 NA 
HETATM    4  H1  UNL     1      -7.501  12.923  68.350  1.00  0.00     0.000 HD 
HETATM    5  C   UNL     1     -10.792  14.261  65.548  1.00  0.00    -0.325 C  
HETATM    6  H2  UNL     1      -9.040  13.301  68.978  1.00  0.00     0.000 HD 
HETATM    7  C   UNL     1     -11.015  12.795  65.181  1.00  0.00    -0.293 C  
HETATM    8  C   UNL     1      -8.976  12.043  66.287  1.00  0.00    -0.129 C  
HETATM    9  O   UNL     1      -9.790  12.048  65.114  1.00  0.00    -0.248 OA 
ENDROOT
BRANCH   7  10
HETATM   10  C   UNL     1     -11.670  12.762  63.773  1.00  0.00    -0.493 C  
HETATM   11  N   UNL     1     -12.391  13.993  63.451  1.00  0.00    -1.154 NA 
HETATM   12  H1  UNL     1     -12.821  13.971  62.526  1.00  0.00     0.000 HD 
HETATM   13  H2  UNL     1     -11.785  14.807  63.552  1.00  0.00     0.000 HD 
ENDBRANCH   7  10
BRANCH   8  14
HETATM   14  O   UNL     1      -9.398  11.123  67.295  1.00  0.00    -0.159 OA 
BRANCH  14  15
HETATM   15  C   UNL     1      -8.837   9.788  67.378  1.00  0.00    -0.132 C  
HETATM   16  C   UNL     1      -9.921   8.920  66.681  1.00  0.00    -0.276 C  
HETATM   17  N   UNL     1     -10.048   9.269  65.253  1.00  0.00    -0.219 NA 
HETATM   18  C   UNL     1      -9.715   7.419  66.727  1.00  0.00    -0.271 C  
HETATM   19  H2  UNL     1      -9.151   9.208  64.771  1.00  0.00     0.000 HD 
HETATM   20  H1  UNL     1     -10.759   8.699  64.796  1.00  0.00     0.000 HD 
HETATM   21  C   UNL     1      -9.421   6.892  68.122  1.00  0.00    -0.122 C  
HETATM   22  N   UNL     1      -9.302   5.435  67.948  1.00  0.00    -0.110 NA 
HETATM   23  C   UNL     1      -8.170   7.636  68.686  1.00  0.00    -0.128 C  
HETATM   24  C   UNL     1      -8.486   9.187  68.790  1.00  0.00    -0.130 C  
HETATM   25  O   UNL     1      -7.340   9.869  69.333  1.00  0.00    -0.073 OA 
HETATM   26  H2  UNL     1      -8.618   5.154  67.245  1.00  0.00     0.000 HD 
HETATM   27  H1  UNL     1      -9.105   5.080  68.884  1.00  0.00     0.000 HD 
HETATM   28  H   UNL     1      -7.129   9.506  70.185  1.00  0.00     0.000 HD 
BRANCH  23  29
HETATM   29  O   UNL     1      -7.690   7.072  69.948  1.00  0.00    -0.103 OA 
BRANCH  29  30
HETATM   30  C   UNL     1      -8.729   7.060  70.968  1.00  0.00    -0.139 C  
HETATM   31  O   UNL     1      -9.251   5.739  71.160  1.00  0.00    -0.150 OA 
HETATM   32  C   UNL     1      -8.276   4.863  71.751  1.00  0.00    -0.114 C  
HETATM   33  C   UNL     1      -7.999   5.319  73.184  1.00  0.00    -0.101 C  
HETATM   34  H   UNL     1      -7.482   9.365  72.984  1.00  0.00     0.000 HD 
HETATM   35  O   UNL     1      -7.088   4.441  73.847  1.00  0.00    -0.064 OA 
HETATM   36  C   UNL     1      -7.425   6.756  73.159  1.00  0.00    -0.082 C  
HETATM   37  H1  UNL     1      -6.859   8.193  74.528  1.00  0.00     0.000 HD 
HETATM   38  H2  UNL     1      -6.663   6.612  75.100  1.00  0.00     0.000 HD 
HETATM   39  C   UNL     1      -8.320   7.688  72.326  1.00  0.00    -0.108 C  
HETATM   40  N   UNL     1      -7.238   7.245  74.544  1.00  0.00    -0.107 NA 
HETATM   41  H   UNL     1      -6.916   4.724  74.737  1.00  0.00     0.000 HD 
HETATM   42  O   UNL     1      -7.734   8.980  72.152  1.00  0.00    -0.351 OA 
BRANCH  32  43
HETATM   43  C   UNL     1      -8.820   3.436  71.658  1.00  0.00    -0.091 C  
HETATM   44  O   UNL     1     -10.054   3.363  72.386  1.00  0.00    -0.157 OA 
HETATM   45  H   UNL     1     -10.392   2.477  72.329  1.00  0.00     0.000 HD 
ENDBRANCH  32  43
ENDBRANCH  29  30
ENDBRANCH  23  29
ENDBRANCH  14  15
ENDBRANCH   8  14
TORSDOF 6
ENDMDL
MODEL      163
REMARK 921   NORMALIZED FREE ENERGY PREDICTED BY IDOCK:   -4.58 KCAL/MOL
REMARK 922        TOTAL FREE ENERGY PREDICTED BY IDOCK:   -7.74 KCAL/MOL
REMARK 923 INTER-LIGAND FREE ENERGY PREDICTED BY IDOCK:   -5.88 KCAL/MOL
REMARK 924 INTRA-LIGAND FREE ENERGY PREDICTED BY IDOCK:   -1.86 KCAL/MOL
REMARK 927      BINDING AFFINITY PREDICTED BY RF-SCORE:    0.00 PKD
ROOT
HETATM    1  C   UNL     1      -7.848   5.093  63.346  1.00  0.00    -0.084 C  
HETATM    2  C   UNL     1      -7.910   3.615  62.943  1.00  0.00    -0.070 C  
HETATM    3  N   UNL     1      -8.972   5.756  62.651  1.00  0.00    -0.332 NA 
HETATM    4  H1  UNL     1      -8.931   6.739  62.919  1.00  0.00     0.000 HD 
HETATM    5  C   UNL     1      -7.030   2.727  63.793  1.00  0.00    -0.040 C  
HETATM    6  H2  UNL     1      -9.877   5.323  62.836  1.00  0.00     0.000 HD 
HETATM    7  C   UNL     1      -7.161   3.040  65.283  1.00  0.00    -0.061 C  
HETATM    8  C   UNL     1      -7.744   5.377  64.904  1.00  0.00    -0.088 C  
HETATM    9  O   UNL     1      -6.923   4.425  65.581  1.00  0.00    -0.056 OA 
ENDROOT
BRANCH   7  10
HETATM   10  C   UNL     1      -6.088   2.202  66.031  1.00  0.00    -0.023 C  
HETATM   11  N   UNL     1      -6.062   2.462  67.470  1.00  0.00    -0.024 NA 
HETATM   12  H1  UNL     1      -5.358   1.912  67.960  1.00  0.00     0.000 HD 
HETATM   13  H2  UNL     1      -6.985   2.324  67.882  1.00  0.00     0.000 HD 
ENDBRANCH   7  10
BRANCH   8  14
HETATM   14  O   UNL     1      -9.041   5.551  65.474  1.00  0.00    -0.155 OA 
BRANCH  14  15
HETATM   15  C   UNL     1      -9.223   6.245  66.734  1.00  0.00    -0.137 C  
HETATM   16  C   UNL     1      -9.858   5.151  67.636  1.00  0.00    -0.160 C  
HETATM   17  N   UNL     1      -8.919   4.036  67.864  1.00  0.00    -0.116 NA 
HETATM   18  C   UNL     1     -10.322   5.595  69.009  1.00  0.00    -0.314 C  
HETATM   19  H2  UNL     1      -8.032   4.365  68.243  1.00  0.00     0.000 HD 
HETATM   20  H1  UNL     1      -9.337   3.318  68.456  1.00  0.00     0.000 HD 
HETATM   21  C   UNL     1     -11.196   6.839  68.979  1.00  0.00    -0.149 C  
HETATM   22  N   UNL     1     -11.564   7.063  70.387  1.00  0.00    -0.430 NA 
HETATM   23  C   UNL     1     -10.411   7.985  68.268  1.00  0.00    -0.161 C  
HETATM   24  C   UNL     1     -10.096   7.554  66.773  1.00  0.00    -0.243 C  
HETATM   25  O   UNL     1      -9.394   8.622  66.110  1.00  0.00    -0.200 OA 
HETATM   26  H2  UNL     1     -10.768   7.129  71.020  1.00  0.00     0.000 HD 
HETATM   27  H1  UNL     1     -12.151   7.898  70.368  1.00  0.00     0.000 HD 
HETATM   28  H   UNL     1      -9.921   9.412  66.134  1.00  0.00     0.000 HD 
BRANCH  23  29
HETATM   29  O   UNL     1     -11.088   9.279  68.351  1.00  0.00    -0.049 OA 
BRANCH  29  30
HETATM   30  C   UNL     1     -10.257  10.286  68.995  1.00  0.00    -0.210 C  
HETATM   31  O   UNL     1      -9.707  11.197  68.035  1.00  0.00    -0.167 OA 
HETATM   32  C   UNL     1     -10.725  12.020  67.440  1.00  0.00    -0.229 C  
HETATM   33  C   UNL     1     -11.288  12.964  68.503  1.00  0.00    -0.289 C  
HETATM   34  H   UNL     1     -11.982  10.646  71.793  1.00  0.00     0.000 HD 
HETATM   35  O   UNL     1     -12.256  13.858  67.952  1.00  0.00    -0.463 OA 
HETATM   36  C   UNL     1     -11.926  12.129  69.639  1.00  0.00    -0.284 C  
HETATM   37  H1  UNL     1     -12.815  12.476  71.469  1.00  0.00     0.000 HD 
HETATM   38  H2  UNL     1     -13.026  13.748  70.372  1.00  0.00     0.000 HD 
HETATM   39  C   UNL     1     -10.946  11.061  70.150  1.00  0.00     0.006 C  
HETATM   40  N   UNL     1     -12.394  13.027  70.720  1.00  0.00    -0.360 NA 
HETATM   41  H   UNL     1     -12.605  14.444  68.612  1.00  0.00     0.000 HD 
HETATM   42  O   UNL     1     -11.560  10.172  71.086  1.00  0.00    -0.359 OA 
BRANCH  32  43
HETATM   43  C   UNL     1     -10.095  12.746  66.250  1.00  0.00    -0.259 C  
HETATM   44  O   UNL     1      -9.251  11.828  65.541  1.00  0.00    -0.374 OA 
HETATM   45  H   UNL     1      -8.860  12.279  64.803  1.00  0.00     0.000 HD 
ENDBRANCH  32  43
ENDBRANCH  29  30
ENDBRANCH  23  29
ENDBRANCH  14  15
ENDBRANCH   8  14
TORSDOF 6
ENDMDL
MODEL      164
REMARK 921   NORMALIZED FREE ENERGY PREDICTED BY IDOCK:   -4.57 KCAL/MOL
REMARK 922        TOTAL FREE ENERGY PREDICTED BY IDOCK:   -7.74 KCAL/MOL
REMARK 923 INTER-LIGAND FREE ENERGY PREDICTED BY IDOCK:   -6.55 KCAL/MOL
REMARK 924 INTRA-LIGAND FREE ENERGY PREDICTED BY IDOCK:   -1.19 KCAL/MOL
REMARK 927      BINDING AFFINITY PREDICTED BY RF-SCORE:    0.00 PKD
ROOT
HETATM    1  C   UNL     1     -12.491  12.599  64.760  1.00  0.00    -0.484 C  
HETATM    2  C   UNL     1     -12.569  14.044  65.266  1.00  0.00    -0.495 C  
HETATM    3  N   UNL     1     -12.529  12.678  63.283  1.00  0.00    -0.776 NA 
HETATM    4  H1  UNL     1     -12.477  11.717  62.947  1.00  0.00     0.000 HD 
HETATM    5  C   UNL     1     -12.236  14.181  66.734  1.00  0.00    -0.429 C  
HETATM    6  H2  UNL     1     -11.809  13.284  62.890  1.00  0.00     0.000 HD 
HETATM    7  C   UNL     1     -10.992  13.383  67.121  1.00  0.00    -0.280 C  
HETATM    8  C   UNL     1     -11.319  11.719  65.368  1.00  0.00    -0.222 C  
HETATM    9  O   UNL     1     -11.084  11.999  66.749  1.00  0.00    -0.272 OA 
ENDROOT
BRANCH   7  10
HETATM   10  C   UNL     1     -10.857  13.452  68.666  1.00  0.00    -0.263 C  
HETATM   11  N   UNL     1      -9.941  14.501  69.113  1.00  0.00    -0.381 NA 
HETATM   12  H1  UNL     1      -9.852  14.545  70.128  1.00  0.00     0.000 HD 
HETATM   13  H2  UNL     1     -10.210  15.407  68.730  1.00  0.00     0.000 HD 
ENDBRANCH   7  10
BRANCH   8  14
HETATM   14  O   UNL     1     -10.155  11.790  64.544  1.00  0.00    -0.257 OA 
BRANCH  14  15
HETATM   15  C   UNL     1      -9.161  10.733  64.554  1.00  0.00    -0.220 C  
HETATM   16  C   UNL     1      -8.915  10.485  63.040  1.00  0.00    -0.246 C  
HETATM   17  N   UNL     1      -8.312  11.668  62.396  1.00  0.00    -0.579 NA 
HETATM   18  C   UNL     1      -8.020   9.314  62.686  1.00  0.00    -0.129 C  
HETATM   19  H2  UNL     1      -7.458  11.959  62.872  1.00  0.00     0.000 HD 
HETATM   20  H1  UNL     1      -8.150  11.505  61.402  1.00  0.00     0.000 HD 
HETATM   21  C   UNL     1      -8.410   8.022  63.384  1.00  0.00     0.046 C  
HETATM   22  N   UNL     1      -7.455   7.024  62.872  1.00  0.00    -0.082 NA 
HETATM   23  C   UNL     1      -8.411   8.266  64.926  1.00  0.00    -0.135 C  
HETATM   24  C   UNL     1      -9.488   9.375  65.280  1.00  0.00    -0.227 C  
HETATM   25  O   UNL     1      -9.506   9.582  66.704  1.00  0.00    -0.152 OA 
HETATM   26  H2  UNL     1      -6.477   7.284  62.994  1.00  0.00     0.000 HD 
HETATM   27  H1  UNL     1      -7.717   6.156  63.341  1.00  0.00     0.000 HD 
HETATM   28  H   UNL     1      -9.703   8.762  67.142  1.00  0.00     0.000 HD 
BRANCH  23  29
HETATM   29  O   UNL     1      -8.591   7.038  65.699  1.00  0.00    -0.151 OA 
BRANCH  29  30
HETATM   30  C   UNL     1      -7.324   6.367  65.957  1.00  0.00    -0.080 C  
HETATM   31  O   UNL     1      -6.818   6.697  67.257  1.00  0.00    -0.067 OA 
HETATM   32  C   UNL     1      -7.638   6.145  68.302  1.00  0.00    -0.098 C  
HETATM   33  C   UNL     1      -7.518   4.621  68.278  1.00  0.00    -0.066 C  
HETATM   34  H   UNL     1      -7.921   3.533  64.362  1.00  0.00     0.000 HD 
HETATM   35  O   UNL     1      -8.257   4.019  69.342  1.00  0.00    -0.058 OA 
HETATM   36  C   UNL     1      -8.026   4.090  66.916  1.00  0.00    -0.096 C  
HETATM   37  H1  UNL     1      -8.165   2.275  65.945  1.00  0.00     0.000 HD 
HETATM   38  H2  UNL     1      -8.264   2.140  67.629  1.00  0.00     0.000 HD 
HETATM   39  C   UNL     1      -7.344   4.830  65.753  1.00  0.00    -0.077 C  
HETATM   40  N   UNL     1      -7.830   2.625  66.843  1.00  0.00    -0.074 NA 
HETATM   41  H   UNL     1      -8.182   3.073  69.327  1.00  0.00     0.000 HD 
HETATM   42  O   UNL     1      -7.908   4.475  64.488  1.00  0.00    -0.085 OA 
BRANCH  32  43
HETATM   43  C   UNL     1      -7.190   6.773  69.622  1.00  0.00    -0.081 C  
HETATM   44  O   UNL     1      -6.387   5.822  70.337  1.00  0.00    -0.029 OA 
HETATM   45  H   UNL     1      -6.109   6.212  71.158  1.00  0.00     0.000 HD 
ENDBRANCH  32  43
ENDBRANCH  29  30
ENDBRANCH  23  29
ENDBRANCH  14  15
ENDBRANCH   8  14
TORSDOF 6
ENDMDL
MODEL      165
REMARK 921   NORMALIZED FREE ENERGY PREDICTED BY IDOCK:   -4.55 KCAL/MOL
REMARK 922        TOTAL FREE ENERGY PREDICTED BY IDOCK:   -7.70 KCAL/MOL
REMARK 923 INTER-LIGAND FREE ENERGY PREDICTED BY IDOCK:   -6.95 KCAL/MOL
REMARK 924 INTRA-LIGAND FREE ENERGY PREDICTED BY IDOCK:   -0.75 KCAL/MOL
REMARK 927      BINDING AFFINITY PREDICTED BY RF-SCORE:    0.00 PKD
ROOT
HETATM    1  C   UNL     1      -6.947   6.544  66.140  1.00  0.00    -0.062 C  
HETATM    2  C   UNL     1      -8.355   5.936  66.107  1.00  0.00    -0.124 C  
HETATM    3  N   UNL     1      -6.484   6.583  64.735  1.00  0.00    -0.040 NA 
HETATM    4  H1  UNL     1      -5.548   6.986  64.757  1.00  0.00     0.000 HD 
HETATM    5  C   UNL     1      -9.105   6.100  67.410  1.00  0.00    -0.110 C  
HETATM    6  H2  UNL     1      -7.123   7.074  64.110  1.00  0.00     0.000 HD 
HETATM    7  C   UNL     1      -8.978   7.514  67.976  1.00  0.00    -0.129 C  
HETATM    8  C   UNL     1      -6.802   7.903  66.946  1.00  0.00    -0.072 C  
HETATM    9  O   UNL     1      -7.611   7.931  68.122  1.00  0.00    -0.110 OA 
ENDROOT
BRANCH   7  10
HETATM   10  C   UNL     1      -9.627   7.510  69.387  1.00  0.00    -0.155 C  
HETATM   11  N   UNL     1      -9.669   6.178  69.991  1.00  0.00    -0.163 NA 
HETATM   12  H1  UNL     1     -10.095   6.176  70.918  1.00  0.00     0.000 HD 
HETATM   13  H2  UNL     1      -8.738   5.760  70.017  1.00  0.00     0.000 HD 
ENDBRANCH   7  10
BRANCH   8  14
HETATM   14  O   UNL     1      -6.978   9.025  66.080  1.00  0.00    -0.082 OA 
BRANCH  14  15
HETATM   15  C   UNL     1      -8.212   9.785  66.074  1.00  0.00    -0.117 C  
HETATM   16  C   UNL     1      -8.515   9.929  64.557  1.00  0.00    -0.175 C  
HETATM   17  N   UNL     1      -8.789   8.616  63.941  1.00  0.00    -0.399 NA 
HETATM   18  C   UNL     1      -9.685  10.817  64.184  1.00  0.00    -0.364 C  
HETATM   19  H2  UNL     1      -9.537   8.122  64.427  1.00  0.00     0.000 HD 
HETATM   20  H1  UNL     1      -8.988   8.711  62.945  1.00  0.00     0.000 HD 
HETATM   21  C   UNL     1      -9.646  12.182  64.854  1.00  0.00     0.022 C  
HETATM   22  N   UNL     1     -10.828  12.884  64.328  1.00  0.00    -0.373 NA 
HETATM   23  C   UNL     1      -9.581  11.979  66.400  1.00  0.00    -0.228 C  
HETATM   24  C   UNL     1      -8.251  11.196  66.771  1.00  0.00    -0.154 C  
HETATM   25  O   UNL     1      -8.180  11.031  68.198  1.00  0.00    -0.114 OA 
HETATM   26  H2  UNL     1     -11.705  12.381  64.460  1.00  0.00     0.000 HD 
HETATM   27  H1  UNL     1     -10.802  13.800  64.777  1.00  0.00     0.000 HD 
HETATM   28  H   UNL     1      -8.203  11.884  68.619  1.00  0.00     0.000 HD 
BRANCH  23  29
HETATM   29  O   UNL     1      -9.728  13.227  67.148  1.00  0.00    -0.225 OA 
BRANCH  29  30
HETATM   30  C   UNL     1     -11.009  13.869  66.888  1.00  0.00    -0.295 C  
HETATM   31  O   UNL     1     -11.924  13.658  67.970  1.00  0.00    -0.360 OA 
HETATM   32  C   UNL     1     -11.508  14.348  69.161  1.00  0.00    -0.294 C  
HETATM   33  C   UNL     1     -11.617  15.855  68.927  1.00  0.00    -0.388 C  
HETATM   34  H   UNL     1      -9.914  16.542  65.279  1.00  0.00     0.000 HD 
HETATM   35  O   UNL     1     -11.283  16.594  70.102  1.00  0.00    -0.459 OA 
HETATM   36  C   UNL     1     -10.679  16.260  67.764  1.00  0.00    -0.325 C  
HETATM   37  H1  UNL     1     -10.224  17.968  66.699  1.00  0.00     0.000 HD 
HETATM   38  H2  UNL     1     -10.702  18.283  68.293  1.00  0.00     0.000 HD 
HETATM   39  C   UNL     1     -10.924  15.376  66.531  1.00  0.00    -0.271 C  
HETATM   40  N   UNL     1     -10.842  17.701  67.466  1.00  0.00    -0.279 NA 
HETATM   41  H   UNL     1     -11.351  17.531  69.957  1.00  0.00     0.000 HD 
HETATM   42  O   UNL     1      -9.966  15.619  65.497  1.00  0.00    -0.337 OA 
BRANCH  32  43
HETATM   43  C   UNL     1     -12.376  13.845  70.315  1.00  0.00    -0.345 C  
HETATM   44  O   UNL     1     -11.902  14.426  71.538  1.00  0.00    -0.420 OA 
HETATM   45  H   UNL     1     -12.441  14.113  72.255  1.00  0.00     0.000 HD 
ENDBRANCH  32  43
ENDBRANCH  29  30
ENDBRANCH  23  29
ENDBRANCH  14  15
ENDBRANCH   8  14
TORSDOF 6
ENDMDL
MODEL      166
REMARK 921   NORMALIZED FREE ENERGY PREDICTED BY IDOCK:   -4.54 KCAL/MOL
REMARK 922        TOTAL FREE ENERGY PREDICTED BY IDOCK:   -7.68 KCAL/MOL
REMARK 923 INTER-LIGAND FREE ENERGY PREDICTED BY IDOCK:   -6.87 KCAL/MOL
REMARK 924 INTRA-LIGAND FREE ENERGY PREDICTED BY IDOCK:   -0.81 KCAL/MOL
REMARK 927      BINDING AFFINITY PREDICTED BY RF-SCORE:    0.00 PKD
ROOT
HETATM    1  C   UNL     1      -7.500   2.001  67.612  1.00  0.00    -0.055 C  
HETATM    2  C   UNL     1      -6.939   2.129  66.191  1.00  0.00    -0.044 C  
HETATM    3  N   UNL     1      -6.336   1.762  68.493  1.00  0.00    -0.025 NA 
HETATM    4  H1  UNL     1      -6.709   1.677  69.439  1.00  0.00     0.000 HD 
HETATM    5  C   UNL     1      -7.942   2.679  65.202  1.00  0.00    -0.082 C  
HETATM    6  H2  UNL     1      -5.608   2.471  68.407  1.00  0.00     0.000 HD 
HETATM    7  C   UNL     1      -8.697   3.887  65.754  1.00  0.00    -0.114 C  
HETATM    8  C   UNL     1      -8.479   3.162  68.073  1.00  0.00    -0.087 C  
HETATM    9  O   UNL     1      -9.326   3.616  67.017  1.00  0.00    -0.175 OA 
ENDROOT
BRANCH   7  10
HETATM   10  C   UNL     1      -9.812   4.245  64.734  1.00  0.00    -0.158 C  
HETATM   11  N   UNL     1     -11.124   4.409  65.359  1.00  0.00    -0.858 NA 
HETATM   12  H1  UNL     1     -11.856   4.644  64.689  1.00  0.00     0.000 HD 
HETATM   13  H2  UNL     1     -11.086   5.095  66.113  1.00  0.00     0.000 HD 
ENDBRANCH   7  10
BRANCH   8  14
HETATM   14  O   UNL     1      -7.756   4.199  68.737  1.00  0.00    -0.058 OA 
BRANCH  14  15
HETATM   15  C   UNL     1      -8.428   5.378  69.247  1.00  0.00    -0.099 C  
HETATM   16  C   UNL     1      -9.582   4.772  70.093  1.00  0.00    -0.195 C  
HETATM   17  N   UNL     1      -9.057   4.017  71.247  1.00  0.00    -0.111 NA 
HETATM   18  C   UNL     1     -10.590   5.753  70.659  1.00  0.00    -0.346 C  
HETATM   19  H2  UNL     1      -8.433   4.589  71.817  1.00  0.00     0.000 HD 
HETATM   20  H1  UNL     1      -9.814   3.619  71.803  1.00  0.00     0.000 HD 
HETATM   21  C   UNL     1     -11.137   6.722  69.624  1.00  0.00    -0.292 C  
HETATM   22  N   UNL     1     -12.113   7.539  70.365  1.00  0.00    -0.510 NA 
HETATM   23  C   UNL     1      -9.942   7.481  68.967  1.00  0.00    -0.175 C  
HETATM   24  C   UNL     1      -9.000   6.437  68.231  1.00  0.00    -0.116 C  
HETATM   25  O   UNL     1      -7.911   7.141  67.605  1.00  0.00    -0.111 OA 
HETATM   26  H2  UNL     1     -11.732   7.990  71.197  1.00  0.00     0.000 HD 
HETATM   27  H1  UNL     1     -12.481   8.190  69.671  1.00  0.00     0.000 HD 
HETATM   28  H   UNL     1      -8.257   7.780  66.992  1.00  0.00     0.000 HD 
BRANCH  23  29
HETATM   29  O   UNL     1     -10.369   8.571  68.090  1.00  0.00    -0.205 OA 
BRANCH  29  30
HETATM   30  C   UNL     1      -9.640   9.803  68.359  1.00  0.00    -0.148 C  
HETATM   31  O   UNL     1      -9.283  10.470  67.142  1.00  0.00    -0.143 OA 
HETATM   32  C   UNL     1     -10.440  10.980  66.456  1.00  0.00    -0.257 C  
HETATM   33  C   UNL     1     -11.052  12.110  67.285  1.00  0.00    -0.287 C  
HETATM   34  H   UNL     1     -11.208  10.721  71.122  1.00  0.00     0.000 HD 
HETATM   35  O   UNL     1     -12.166  12.705  66.617  1.00  0.00    -0.517 OA 
HETATM   36  C   UNL     1     -11.495  11.553  68.659  1.00  0.00    -0.293 C  
HETATM   37  H1  UNL     1     -12.299  12.287  70.412  1.00  0.00     0.000 HD 
HETATM   38  H2  UNL     1     -12.752  13.178  69.046  1.00  0.00     0.000 HD 
HETATM   39  C   UNL     1     -10.348  10.782  69.331  1.00  0.00    -0.179 C  
HETATM   40  N   UNL     1     -12.007  12.655  69.506  1.00  0.00    -0.297 NA 
HETATM   41  H   UNL     1     -12.547  13.407  67.132  1.00  0.00     0.000 HD 
HETATM   42  O   UNL     1     -10.774  10.121  70.526  1.00  0.00    -0.298 OA 
BRANCH  32  43
HETATM   43  C   UNL     1      -9.994  11.418  65.060  1.00  0.00    -0.266 C  
HETATM   44  O   UNL     1      -8.605  11.098  64.897  1.00  0.00    -0.373 OA 
HETATM   45  H   UNL     1      -8.328  11.371  64.030  1.00  0.00     0.000 HD 
ENDBRANCH  32  43
ENDBRANCH  29  30
ENDBRANCH  23  29
ENDBRANCH  14  15
ENDBRANCH   8  14
TORSDOF 6
ENDMDL
MODEL      167
REMARK 921   NORMALIZED FREE ENERGY PREDICTED BY IDOCK:   -4.53 KCAL/MOL
REMARK 922        TOTAL FREE ENERGY PREDICTED BY IDOCK:   -7.68 KCAL/MOL
REMARK 923 INTER-LIGAND FREE ENERGY PREDICTED BY IDOCK:   -6.26 KCAL/MOL
REMARK 924 INTRA-LIGAND FREE ENERGY PREDICTED BY IDOCK:   -1.42 KCAL/MOL
REMARK 927      BINDING AFFINITY PREDICTED BY RF-SCORE:    0.00 PKD
ROOT
HETATM    1  C   UNL     1      -7.792   5.795  63.131  1.00  0.00    -0.101 C  
HETATM    2  C   UNL     1      -7.872   4.264  63.187  1.00  0.00    -0.071 C  
HETATM    3  N   UNL     1      -8.976   6.240  62.365  1.00  0.00    -0.281 NA 
HETATM    4  H1  UNL     1      -8.923   7.258  62.328  1.00  0.00     0.000 HD 
HETATM    5  C   UNL     1      -6.916   3.654  64.187  1.00  0.00    -0.046 C  
HETATM    6  H2  UNL     1      -9.858   5.894  62.742  1.00  0.00     0.000 HD 
HETATM    7  C   UNL     1      -6.928   4.393  65.524  1.00  0.00    -0.059 C  
HETATM    8  C   UNL     1      -7.564   6.523  64.523  1.00  0.00    -0.101 C  
HETATM    9  O   UNL     1      -6.681   5.800  65.381  1.00  0.00    -0.042 OA 
ENDROOT
BRANCH   7  10
HETATM   10  C   UNL     1      -5.790   3.796  66.396  1.00  0.00    -0.023 C  
HETATM   11  N   UNL     1      -6.073   2.435  66.850  1.00  0.00    -0.023 NA 
HETATM   12  H1  UNL     1      -5.325   2.044  67.422  1.00  0.00     0.000 HD 
HETATM   13  H2  UNL     1      -6.286   1.824  66.061  1.00  0.00     0.000 HD 
ENDBRANCH   7  10
BRANCH   8  14
HETATM   14  O   UNL     1      -8.812   6.876  65.119  1.00  0.00     0.058 OA 
BRANCH  14  15
HETATM   15  C   UNL     1      -8.869   7.649  66.344  1.00  0.00    -0.156 C  
HETATM   16  C   UNL     1      -9.857   6.829  67.219  1.00  0.00    -0.145 C  
HETATM   17  N   UNL     1      -9.303   5.502  67.548  1.00  0.00    -0.110 NA 
HETATM   18  C   UNL     1     -10.264   7.451  68.540  1.00  0.00    -0.201 C  
HETATM   19  H2  UNL     1      -8.386   5.577  67.988  1.00  0.00     0.000 HD 
HETATM   20  H1  UNL     1      -9.952   4.963  68.122  1.00  0.00     0.000 HD 
HETATM   21  C   UNL     1     -10.732   8.892  68.412  1.00  0.00    -0.076 C  
HETATM   22  N   UNL     1     -11.115   9.278  69.780  1.00  0.00    -0.373 NA 
HETATM   23  C   UNL     1      -9.600   9.728  67.737  1.00  0.00    -0.135 C  
HETATM   24  C   UNL     1      -9.323   9.156  66.283  1.00  0.00    -0.216 C  
HETATM   25  O   UNL     1      -8.296   9.943  65.652  1.00  0.00    -0.129 OA 
HETATM   26  H2  UNL     1     -10.379   9.140  70.472  1.00  0.00     0.000 HD 
HETATM   27  H1  UNL     1     -11.429  10.245  69.694  1.00  0.00     0.000 HD 
HETATM   28  H   UNL     1      -8.569  10.852  65.615  1.00  0.00     0.000 HD 
BRANCH  23  29
HETATM   29  O   UNL     1      -9.873  11.164  67.735  1.00  0.00    -0.168 OA 
BRANCH  29  30
HETATM   30  C   UNL     1     -11.253  11.455  67.371  1.00  0.00    -0.305 C  
HETATM   31  O   UNL     1     -12.000  11.923  68.502  1.00  0.00    -0.367 OA 
HETATM   32  C   UNL     1     -11.552  13.218  68.936  1.00  0.00    -0.314 C  
HETATM   33  C   UNL     1     -11.898  14.250  67.862  1.00  0.00    -0.358 C  
HETATM   34  H   UNL     1     -10.737  12.599  64.313  1.00  0.00     0.000 HD 
HETATM   35  O   UNL     1     -11.540  15.572  68.270  1.00  0.00    -0.357 OA 
HETATM   36  C   UNL     1     -11.166  13.886  66.549  1.00  0.00    -0.321 C  
HETATM   37  H1  UNL     1     -11.080  14.584  64.609  1.00  0.00     0.000 HD 
HETATM   38  H2  UNL     1     -11.412  15.798  65.741  1.00  0.00     0.000 HD 
HETATM   39  C   UNL     1     -11.423  12.419  66.168  1.00  0.00    -0.379 C  
HETATM   40  N   UNL     1     -11.563  14.825  65.475  1.00  0.00    -0.330 NA 
HETATM   41  H   UNL     1     -11.755  16.213  67.603  1.00  0.00     0.000 HD 
HETATM   42  O   UNL     1     -10.633  12.008  65.050  1.00  0.00    -0.268 OA 
BRANCH  32  43
HETATM   43  C   UNL     1     -12.203  13.503  70.290  1.00  0.00    -0.347 C  
HETATM   44  O   UNL     1     -11.356  14.391  71.033  1.00  0.00    -0.520 OA 
HETATM   45  H   UNL     1     -11.760  14.568  71.874  1.00  0.00     0.000 HD 
ENDBRANCH  32  43
ENDBRANCH  29  30
ENDBRANCH  23  29
ENDBRANCH  14  15
ENDBRANCH   8  14
TORSDOF 6
ENDMDL
MODEL      168
REMARK 921   NORMALIZED FREE ENERGY PREDICTED BY IDOCK:   -4.51 KCAL/MOL
REMARK 922        TOTAL FREE ENERGY PREDICTED BY IDOCK:   -7.65 KCAL/MOL
REMARK 923 INTER-LIGAND FREE ENERGY PREDICTED BY IDOCK:   -7.53 KCAL/MOL
REMARK 924 INTRA-LIGAND FREE ENERGY PREDICTED BY IDOCK:   -0.11 KCAL/MOL
REMARK 927      BINDING AFFINITY PREDICTED BY RF-SCORE:    0.00 PKD
ROOT
HETATM    1  C   UNL     1      -6.650  16.413  67.155  1.00  0.00    -0.199 C  
HETATM    2  C   UNL     1      -6.213  17.584  68.044  1.00  0.00    -0.153 C  
HETATM    3  N   UNL     1      -5.837  15.251  67.577  1.00  0.00    -0.333 NA 
HETATM    4  H1  UNL     1      -6.127  14.473  66.986  1.00  0.00     0.000 HD 
HETATM    5  C   UNL     1      -7.145  18.771  67.966  1.00  0.00    -0.255 C  
HETATM    6  H2  UNL     1      -5.903  15.050  68.575  1.00  0.00     0.000 HD 
HETATM    7  C   UNL     1      -8.615  18.359  68.045  1.00  0.00    -0.272 C  
HETATM    8  C   UNL     1      -8.214  16.159  67.071  1.00  0.00    -0.216 C  
HETATM    9  O   UNL     1      -8.966  17.373  67.061  1.00  0.00    -0.230 OA 
ENDROOT
BRANCH   7  10
HETATM   10  C   UNL     1      -9.469  19.627  67.774  1.00  0.00    -0.348 C  
HETATM   11  N   UNL     1     -10.786  19.318  67.216  1.00  0.00    -0.478 NA 
HETATM   12  H1  UNL     1     -11.347  20.151  67.038  1.00  0.00     0.000 HD 
HETATM   13  H2  UNL     1     -11.289  18.660  67.812  1.00  0.00     0.000 HD 
ENDBRANCH   7  10
BRANCH   8  14
HETATM   14  O   UNL     1      -8.627  15.216  68.060  1.00  0.00    -0.151 OA 
BRANCH  14  15
HETATM   15  C   UNL     1      -9.253  13.962  67.689  1.00  0.00    -0.199 C  
HETATM   16  C   UNL     1     -10.752  14.227  67.999  1.00  0.00    -0.238 C  
HETATM   17  N   UNL     1     -11.300  15.282  67.125  1.00  0.00    -0.294 NA 
HETATM   18  C   UNL     1     -11.689  13.042  67.861  1.00  0.00    -0.402 C  
HETATM   19  H2  UNL     1     -11.153  15.066  66.140  1.00  0.00     0.000 HD 
HETATM   20  H1  UNL     1     -12.284  15.456  67.329  1.00  0.00     0.000 HD 
HETATM   21  C   UNL     1     -11.203  11.799  68.588  1.00  0.00    -0.257 C  
HETATM   22  N   UNL     1     -12.263  10.803  68.364  1.00  0.00    -0.809 NA 
HETATM   23  C   UNL     1      -9.778  11.437  68.064  1.00  0.00    -0.186 C  
HETATM   24  C   UNL     1      -8.783  12.630  68.385  1.00  0.00    -0.118 C  
HETATM   25  O   UNL     1      -7.464  12.285  67.922  1.00  0.00    -0.100 OA 
HETATM   26  H2  UNL     1     -12.489  10.649  67.381  1.00  0.00     0.000 HD 
HETATM   27  H1  UNL     1     -11.938   9.968  68.852  1.00  0.00     0.000 HD 
HETATM   28  H   UNL     1      -7.180  11.481  68.343  1.00  0.00     0.000 HD 
BRANCH  23  29
HETATM   29  O   UNL     1      -9.295  10.150  68.563  1.00  0.00    -0.143 OA 
BRANCH  29  30
HETATM   30  C   UNL     1     -10.380   9.196  68.747  1.00  0.00    -0.214 C  
HETATM   31  O   UNL     1     -10.409   8.232  67.687  1.00  0.00    -0.221 OA 
HETATM   32  C   UNL     1      -9.266   7.360  67.730  1.00  0.00    -0.131 C  
HETATM   33  C   UNL     1      -9.358   6.480  68.977  1.00  0.00    -0.128 C  
HETATM   34  H   UNL     1     -10.318   8.997  72.047  1.00  0.00     0.000 HD 
HETATM   35  O   UNL     1      -8.284   5.541  69.037  1.00  0.00    -0.097 OA 
HETATM   36  C   UNL     1      -9.344   7.379  70.237  1.00  0.00    -0.162 C  
HETATM   37  H1  UNL     1      -9.515   7.140  72.280  1.00  0.00     0.000 HD 
HETATM   38  H2  UNL     1      -8.835   5.797  71.505  1.00  0.00     0.000 HD 
HETATM   39  C   UNL     1     -10.401   8.489  70.128  1.00  0.00    -0.207 C  
HETATM   40  N   UNL     1      -9.524   6.547  71.449  1.00  0.00    -0.158 NA 
HETATM   41  H   UNL     1      -8.340   4.994  69.811  1.00  0.00     0.000 HD 
HETATM   42  O   UNL     1     -10.305   9.429  71.201  1.00  0.00    -0.301 OA 
BRANCH  32  43
HETATM   43  C   UNL     1      -9.241   6.566  66.423  1.00  0.00    -0.153 C  
HETATM   44  O   UNL     1      -8.979   7.468  65.339  1.00  0.00    -0.376 OA 
HETATM   45  H   UNL     1      -8.964   6.975  64.527  1.00  0.00     0.000 HD 
ENDBRANCH  32  43
ENDBRANCH  29  30
ENDBRANCH  23  29
ENDBRANCH  14  15
ENDBRANCH   8  14
TORSDOF 6
ENDMDL
MODEL      169
REMARK 921   NORMALIZED FREE ENERGY PREDICTED BY IDOCK:   -4.51 KCAL/MOL
REMARK 922        TOTAL FREE ENERGY PREDICTED BY IDOCK:   -7.64 KCAL/MOL
REMARK 923 INTER-LIGAND FREE ENERGY PREDICTED BY IDOCK:   -5.99 KCAL/MOL
REMARK 924 INTRA-LIGAND FREE ENERGY PREDICTED BY IDOCK:   -1.66 KCAL/MOL
REMARK 927      BINDING AFFINITY PREDICTED BY RF-SCORE:    0.00 PKD
ROOT
HETATM    1  C   UNL     1      -8.705   2.235  68.662  1.00  0.00    -0.085 C  
HETATM    2  C   UNL     1      -8.139   1.982  67.260  1.00  0.00    -0.067 C  
HETATM    3  N   UNL     1      -7.768   1.588  69.607  1.00  0.00    -0.042 NA 
HETATM    4  H1  UNL     1      -8.144   1.756  70.539  1.00  0.00     0.000 HD 
HETATM    5  C   UNL     1      -8.794   2.827  66.191  1.00  0.00    -0.140 C  
HETATM    6  H2  UNL     1      -6.802   1.898  69.497  1.00  0.00     0.000 HD 
HETATM    7  C   UNL     1      -8.944   4.286  66.619  1.00  0.00    -0.121 C  
HETATM    8  C   UNL     1      -9.077   3.742  68.993  1.00  0.00    -0.138 C  
HETATM    9  O   UNL     1      -9.635   4.427  67.871  1.00  0.00    -0.152 OA 
ENDROOT
BRANCH   7  10
HETATM   10  C   UNL     1      -9.785   5.006  65.530  1.00  0.00    -0.063 C  
HETATM   11  N   UNL     1     -10.893   4.191  65.033  1.00  0.00    -0.659 NA 
HETATM   12  H1  UNL     1     -11.445   4.664  64.318  1.00  0.00     0.000 HD 
HETATM   13  H2  UNL     1     -11.486   3.875  65.801  1.00  0.00     0.000 HD 
ENDBRANCH   7  10
BRANCH   8  14
HETATM   14  O   UNL     1      -7.975   4.412  69.606  1.00  0.00    -0.057 OA 
BRANCH  14  15
HETATM   15  C   UNL     1      -8.151   5.677  70.294  1.00  0.00    -0.104 C  
HETATM   16  C   UNL     1      -9.140   5.308  71.434  1.00  0.00    -0.145 C  
HETATM   17  N   UNL     1      -8.529   4.359  72.384  1.00  0.00    -0.108 NA 
HETATM   18  C   UNL     1      -9.662   6.459  72.271  1.00  0.00    -0.158 C  
HETATM   19  H2  UNL     1      -7.647   4.712  72.752  1.00  0.00     0.000 HD 
HETATM   20  H1  UNL     1      -9.178   4.117  73.133  1.00  0.00     0.000 HD 
HETATM   21  C   UNL     1     -10.205   7.612  71.443  1.00  0.00    -0.185 C  
HETATM   22  N   UNL     1     -10.692   8.583  72.437  1.00  0.00    -0.342 NA 
HETATM   23  C   UNL     1      -9.086   8.103  70.472  1.00  0.00    -0.150 C  
HETATM   24  C   UNL     1      -8.688   6.920  69.491  1.00  0.00    -0.133 C  
HETATM   25  O   UNL     1      -7.673   7.381  68.581  1.00  0.00    -0.114 OA 
HETATM   26  H2  UNL     1      -9.992   8.859  73.126  1.00  0.00     0.000 HD 
HETATM   27  H1  UNL     1     -11.056   9.357  71.881  1.00  0.00     0.000 HD 
HETATM   28  H   UNL     1      -7.997   8.132  68.097  1.00  0.00     0.000 HD 
BRANCH  23  29
HETATM   29  O   UNL     1      -9.443   9.330  69.761  1.00  0.00    -0.169 OA 
BRANCH  29  30
HETATM   30  C   UNL     1     -10.722   9.209  69.076  1.00  0.00    -0.153 C  
HETATM   31  O   UNL     1     -11.746   9.945  69.756  1.00  0.00    -0.152 OA 
HETATM   32  C   UNL     1     -11.524  11.364  69.674  1.00  0.00    -0.309 C  
HETATM   33  C   UNL     1     -11.703  11.813  68.224  1.00  0.00    -0.310 C  
HETATM   34  H   UNL     1      -9.619   9.128  65.960  1.00  0.00     0.000 HD 
HETATM   35  O   UNL     1     -11.564  13.229  68.092  1.00  0.00    -0.295 OA 
HETATM   36  C   UNL     1     -10.660  11.095  67.334  1.00  0.00    -0.234 C  
HETATM   37  H1  UNL     1     -10.193  10.977  65.328  1.00  0.00     0.000 HD 
HETATM   38  H2  UNL     1     -10.880  12.461  65.767  1.00  0.00     0.000 HD 
HETATM   39  C   UNL     1     -10.695   9.576  67.569  1.00  0.00    -0.245 C  
HETATM   40  N   UNL     1     -10.881  11.451  65.914  1.00  0.00    -0.261 NA 
HETATM   41  H   UNL     1     -11.676  13.508  67.191  1.00  0.00     0.000 HD 
HETATM   42  O   UNL     1      -9.636   8.903  66.883  1.00  0.00    -0.162 OA 
BRANCH  32  43
HETATM   43  C   UNL     1     -12.491  12.040  70.647  1.00  0.00    -0.247 C  
HETATM   44  O   UNL     1     -12.006  13.358  70.940  1.00  0.00    -0.484 OA 
HETATM   45  H   UNL     1     -12.606  13.778  71.545  1.00  0.00     0.000 HD 
ENDBRANCH  32  43
ENDBRANCH  29  30
ENDBRANCH  23  29
ENDBRANCH  14  15
ENDBRANCH   8  14
TORSDOF 6
ENDMDL
MODEL      170
REMARK 921   NORMALIZED FREE ENERGY PREDICTED BY IDOCK:   -4.44 KCAL/MOL
REMARK 922        TOTAL FREE ENERGY PREDICTED BY IDOCK:   -7.55 KCAL/MOL
REMARK 923 INTER-LIGAND FREE ENERGY PREDICTED BY IDOCK:   -5.96 KCAL/MOL
REMARK 924 INTRA-LIGAND FREE ENERGY PREDICTED BY IDOCK:   -1.59 KCAL/MOL
REMARK 927      BINDING AFFINITY PREDICTED BY RF-SCORE:    0.00 PKD
ROOT
HETATM    1  C   UNL     1      -8.710   3.663  64.562  1.00  0.00    -0.105 C  
HETATM    2  C   UNL     1      -7.527   3.726  63.589  1.00  0.00    -0.058 C  
HETATM    3  N   UNL     1      -8.513   2.440  65.371  1.00  0.00    -0.098 NA 
HETATM    4  H1  UNL     1      -9.300   2.398  66.017  1.00  0.00     0.000 HD 
HETATM    5  C   UNL     1      -7.396   5.063  62.896  1.00  0.00    -0.044 C  
HETATM    6  H2  UNL     1      -7.605   2.401  65.834  1.00  0.00     0.000 HD 
HETATM    7  C   UNL     1      -7.554   6.234  63.864  1.00  0.00    -0.091 C  
HETATM    8  C   UNL     1      -8.995   4.989  65.386  1.00  0.00    -0.152 C  
HETATM    9  O   UNL     1      -8.777   6.171  64.615  1.00  0.00     0.037 OA 
ENDROOT
BRANCH   7  10
HETATM   10  C   UNL     1      -7.583   7.536  63.017  1.00  0.00    -0.118 C  
HETATM   11  N   UNL     1      -8.541   8.521  63.519  1.00  0.00    -0.422 NA 
HETATM   12  H1  UNL     1      -8.560   9.376  62.963  1.00  0.00     0.000 HD 
HETATM   13  H2  UNL     1      -8.369   8.729  64.503  1.00  0.00     0.000 HD 
ENDBRANCH   7  10
BRANCH   8  14
HETATM   14  O   UNL     1      -8.309   4.964  66.637  1.00  0.00    -0.107 OA 
BRANCH  14  15
HETATM   15  C   UNL     1      -8.800   5.709  67.780  1.00  0.00    -0.105 C  
HETATM   16  C   UNL     1      -9.720   4.677  68.489  1.00  0.00    -0.142 C  
HETATM   17  N   UNL     1      -8.944   3.530  68.997  1.00  0.00    -0.111 NA 
HETATM   18  C   UNL     1     -10.527   5.189  69.665  1.00  0.00    -0.262 C  
HETATM   19  H2  UNL     1      -8.182   3.832  69.604  1.00  0.00     0.000 HD 
HETATM   20  H1  UNL     1      -9.548   2.852  69.462  1.00  0.00     0.000 HD 
HETATM   21  C   UNL     1     -11.290   6.469  69.364  1.00  0.00    -0.332 C  
HETATM   22  N   UNL     1     -12.027   6.760  70.605  1.00  0.00    -0.473 NA 
HETATM   23  C   UNL     1     -10.278   7.553  68.879  1.00  0.00    -0.208 C  
HETATM   24  C   UNL     1      -9.579   7.057  67.543  1.00  0.00    -0.130 C  
HETATM   25  O   UNL     1      -8.663   8.068  67.083  1.00  0.00    -0.128 OA 
HETATM   26  H2  UNL     1     -11.438   6.812  71.436  1.00  0.00     0.000 HD 
HETATM   27  H1  UNL     1     -12.539   7.619  70.404  1.00  0.00     0.000 HD 
HETATM   28  H   UNL     1      -9.134   8.881  66.940  1.00  0.00     0.000 HD 
BRANCH  23  29
HETATM   29  O   UNL     1     -10.881   8.878  68.740  1.00  0.00    -0.135 OA 
BRANCH  29  30
HETATM   30  C   UNL     1     -10.252   9.857  69.616  1.00  0.00    -0.237 C  
HETATM   31  O   UNL     1      -9.586  10.877  68.860  1.00  0.00    -0.192 OA 
HETATM   32  C   UNL     1     -10.521  11.707  68.149  1.00  0.00    -0.195 C  
HETATM   33  C   UNL     1     -11.333  12.520  69.158  1.00  0.00    -0.274 C  
HETATM   34  H   UNL     1     -12.495   9.875  72.045  1.00  0.00     0.000 HD 
HETATM   35  O   UNL     1     -12.232  13.418  68.506  1.00  0.00    -0.295 OA 
HETATM   36  C   UNL     1     -12.122  11.555  70.075  1.00  0.00    -0.331 C  
HETATM   37  H1  UNL     1     -13.362  11.689  71.719  1.00  0.00     0.000 HD 
HETATM   38  H2  UNL     1     -13.439  13.048  70.712  1.00  0.00     0.000 HD 
HETATM   39  C   UNL     1     -11.193  10.488  70.675  1.00  0.00    -0.198 C  
HETATM   40  N   UNL     1     -12.841  12.326  71.115  1.00  0.00    -0.279 NA 
HETATM   41  H   UNL     1     -12.736  13.924  69.132  1.00  0.00     0.000 HD 
HETATM   42  O   UNL     1     -11.918   9.489  71.396  1.00  0.00    -0.331 OA 
BRANCH  32  43
HETATM   43  C   UNL     1      -9.723  12.569  67.170  1.00  0.00    -0.205 C  
HETATM   44  O   UNL     1     -10.209  12.330  65.841  1.00  0.00    -0.238 OA 
HETATM   45  H   UNL     1      -9.712  12.865  65.233  1.00  0.00     0.000 HD 
ENDBRANCH  32  43
ENDBRANCH  29  30
ENDBRANCH  23  29
ENDBRANCH  14  15
ENDBRANCH   8  14
TORSDOF 6
ENDMDL
MODEL      171
REMARK 921   NORMALIZED FREE ENERGY PREDICTED BY IDOCK:   -4.42 KCAL/MOL
REMARK 922        TOTAL FREE ENERGY PREDICTED BY IDOCK:   -7.52 KCAL/MOL
REMARK 923 INTER-LIGAND FREE ENERGY PREDICTED BY IDOCK:   -7.44 KCAL/MOL
REMARK 924 INTRA-LIGAND FREE ENERGY PREDICTED BY IDOCK:   -0.08 KCAL/MOL
REMARK 927      BINDING AFFINITY PREDICTED BY RF-SCORE:    0.00 PKD
ROOT
HETATM    1  C   UNL     1     -11.124  13.014  64.546  1.00  0.00    -0.351 C  
HETATM    2  C   UNL     1     -10.832  14.445  65.013  1.00  0.00    -0.420 C  
HETATM    3  N   UNL     1     -10.307  12.803  63.330  1.00  0.00    -0.524 NA 
HETATM    4  H1  UNL     1     -10.501  11.852  63.020  1.00  0.00     0.000 HD 
HETATM    5  C   UNL     1     -11.340  14.732  66.407  1.00  0.00    -0.339 C  
HETATM    6  H2  UNL     1      -9.314  12.990  63.471  1.00  0.00     0.000 HD 
HETATM    7  C   UNL     1     -11.006  13.607  67.387  1.00  0.00    -0.276 C  
HETATM    8  C   UNL     1     -10.999  11.888  65.657  1.00  0.00    -0.304 C  
HETATM    9  O   UNL     1     -11.467  12.324  66.934  1.00  0.00    -0.317 OA 
ENDROOT
BRANCH   7  10
HETATM   10  C   UNL     1     -11.728  13.926  68.724  1.00  0.00    -0.357 C  
HETATM   11  N   UNL     1     -12.416  15.216  68.707  1.00  0.00    -0.499 NA 
HETATM   12  H1  UNL     1     -12.890  15.425  69.586  1.00  0.00     0.000 HD 
HETATM   13  H2  UNL     1     -13.064  15.274  67.921  1.00  0.00     0.000 HD 
ENDBRANCH   7  10
BRANCH   8  14
HETATM   14  O   UNL     1      -9.683  11.332  65.668  1.00  0.00    -0.212 OA 
BRANCH  14  15
HETATM   15  C   UNL     1      -9.133  10.725  66.864  1.00  0.00    -0.149 C  
HETATM   16  C   UNL     1      -7.666  10.425  66.448  1.00  0.00    -0.125 C  
HETATM   17  N   UNL     1      -6.919  11.671  66.189  1.00  0.00    -0.341 NA 
HETATM   18  C   UNL     1      -6.832   9.636  67.439  1.00  0.00    -0.083 C  
HETATM   19  H2  UNL     1      -6.961  12.305  66.986  1.00  0.00     0.000 HD 
HETATM   20  H1  UNL     1      -5.956  11.473  65.916  1.00  0.00     0.000 HD 
HETATM   21  C   UNL     1      -7.517   8.373  67.935  1.00  0.00    -0.098 C  
HETATM   22  N   UNL     1      -6.533   7.750  68.835  1.00  0.00    -0.040 NA 
HETATM   23  C   UNL     1      -8.893   8.763  68.562  1.00  0.00    -0.138 C  
HETATM   24  C   UNL     1      -9.807   9.428  67.448  1.00  0.00    -0.172 C  
HETATM   25  O   UNL     1     -11.083   9.764  68.021  1.00  0.00    -0.465 OA 
HETATM   26  H2  UNL     1      -6.201   8.364  69.579  1.00  0.00     0.000 HD 
HETATM   27  H1  UNL     1      -6.992   6.902  69.169  1.00  0.00     0.000 HD 
HETATM   28  H   UNL     1     -11.490   8.981  68.374  1.00  0.00     0.000 HD 
BRANCH  23  29
HETATM   29  O   UNL     1      -9.550   7.645  69.238  1.00  0.00    -0.158 OA 
BRANCH  29  30
HETATM   30  C   UNL     1     -10.057   8.025  70.550  1.00  0.00    -0.192 C  
HETATM   31  O   UNL     1     -10.573   6.890  71.255  1.00  0.00    -0.218 OA 
HETATM   32  C   UNL     1      -9.529   5.970  71.620  1.00  0.00    -0.148 C  
HETATM   33  C   UNL     1      -8.630   6.628  72.667  1.00  0.00    -0.123 C  
HETATM   34  H   UNL     1      -7.859  10.387  71.272  1.00  0.00     0.000 HD 
HETATM   35  O   UNL     1      -7.613   5.733  73.122  1.00  0.00    -0.095 OA 
HETATM   36  C   UNL     1      -7.984   7.897  72.061  1.00  0.00    -0.113 C  
HETATM   37  H1  UNL     1      -6.758   9.431  72.693  1.00  0.00     0.000 HD 
HETATM   38  H2  UNL     1      -6.491   7.979  73.522  1.00  0.00     0.000 HD 
HETATM   39  C   UNL     1      -9.053   8.808  71.436  1.00  0.00    -0.243 C  
HETATM   40  N   UNL     1      -7.183   8.594  73.093  1.00  0.00    -0.341 NA 
HETATM   41  H   UNL     1      -7.055   6.141  73.773  1.00  0.00     0.000 HD 
HETATM   42  O   UNL     1      -8.474   9.908  70.729  1.00  0.00    -0.122 OA 
BRANCH  32  43
HETATM   43  C   UNL     1     -10.196   4.683  72.108  1.00  0.00    -0.193 C  
HETATM   44  O   UNL     1     -11.232   5.024  73.040  1.00  0.00    -0.283 OA 
HETATM   45  H   UNL     1     -11.646   4.224  73.344  1.00  0.00     0.000 HD 
ENDBRANCH  32  43
ENDBRANCH  29  30
ENDBRANCH  23  29
ENDBRANCH  14  15
ENDBRANCH   8  14
TORSDOF 6
ENDMDL
MODEL      172
REMARK 921   NORMALIZED FREE ENERGY PREDICTED BY IDOCK:   -4.38 KCAL/MOL
REMARK 922        TOTAL FREE ENERGY PREDICTED BY IDOCK:   -7.48 KCAL/MOL
REMARK 923 INTER-LIGAND FREE ENERGY PREDICTED BY IDOCK:   -7.60 KCAL/MOL
REMARK 924 INTRA-LIGAND FREE ENERGY PREDICTED BY IDOCK:    0.12 KCAL/MOL
REMARK 927      BINDING AFFINITY PREDICTED BY RF-SCORE:    0.00 PKD
ROOT
HETATM    1  C   UNL     1     -10.848   5.706  71.348  1.00  0.00    -0.222 C  
HETATM    2  C   UNL     1      -9.923   4.592  70.843  1.00  0.00    -0.263 C  
HETATM    3  N   UNL     1     -10.430   5.987  72.739  1.00  0.00    -0.206 NA 
HETATM    4  H1  UNL     1     -11.045   6.728  73.076  1.00  0.00     0.000 HD 
HETATM    5  C   UNL     1      -9.999   4.387  69.347  1.00  0.00    -0.165 C  
HETATM    6  H2  UNL     1      -9.439   6.211  72.828  1.00  0.00     0.000 HD 
HETATM    7  C   UNL     1      -9.968   5.709  68.580  1.00  0.00    -0.162 C  
HETATM    8  C   UNL     1     -10.978   6.974  70.404  1.00  0.00    -0.268 C  
HETATM    9  O   UNL     1     -10.982   6.627  69.018  1.00  0.00    -0.265 OA 
ENDROOT
BRANCH   7  10
HETATM   10  C   UNL     1     -10.233   5.386  67.085  1.00  0.00    -0.224 C  
HETATM   11  N   UNL     1     -11.173   6.316  66.459  1.00  0.00    -0.719 NA 
HETATM   12  H1  UNL     1     -11.347   6.103  65.476  1.00  0.00     0.000 HD 
HETATM   13  H2  UNL     1     -10.861   7.281  66.574  1.00  0.00     0.000 HD 
ENDBRANCH   7  10
BRANCH   8  14
HETATM   14  O   UNL     1     -10.021   7.971  70.761  1.00  0.00    -0.186 OA 
BRANCH  14  15
HETATM   15  C   UNL     1     -10.414   9.352  70.965  1.00  0.00    -0.322 C  
HETATM   16  C   UNL     1     -11.828   9.215  71.593  1.00  0.00    -0.372 C  
HETATM   17  N   UNL     1     -11.764   8.563  72.915  1.00  0.00    -0.196 NA 
HETATM   18  C   UNL     1     -12.602  10.501  71.798  1.00  0.00    -0.445 C  
HETATM   19  H2  UNL     1     -11.121   9.048  73.541  1.00  0.00     0.000 HD 
HETATM   20  H1  UNL     1     -12.692   8.473  73.328  1.00  0.00     0.000 HD 
HETATM   21  C   UNL     1     -12.650  11.383  70.561  1.00  0.00    -0.224 C  
HETATM   22  N   UNL     1     -13.473  12.536  70.961  1.00  0.00     0.403 NA 
HETATM   23  C   UNL     1     -11.188  11.688  70.107  1.00  0.00     0.142 C  
HETATM   24  C   UNL     1     -10.461  10.329  69.731  1.00  0.00    -0.259 C  
HETATM   25  O   UNL     1      -9.121  10.613  69.290  1.00  0.00    -0.300 OA 
HETATM   26  H2  UNL     1     -13.142  13.013  71.799  1.00  0.00     0.000 HD 
HETATM   27  H1  UNL     1     -13.504  13.128  70.131  1.00  0.00     0.000 HD 
HETATM   28  H   UNL     1      -9.150  11.203  68.545  1.00  0.00     0.000 HD 
BRANCH  23  29
HETATM   29  O   UNL     1     -11.116  12.681  69.036  1.00  0.00    -0.253 OA 
BRANCH  29  30
HETATM   30  C   UNL     1     -10.063  12.373  68.078  1.00  0.00    -0.214 C  
HETATM   31  O   UNL     1     -10.610  11.897  66.842  1.00  0.00    -0.217 OA 
HETATM   32  C   UNL     1     -11.323  12.932  66.142  1.00  0.00    -0.317 C  
HETATM   33  C   UNL     1     -10.327  13.994  65.675  1.00  0.00    -0.329 C  
HETATM   34  H   UNL     1      -7.930  14.765  68.890  1.00  0.00     0.000 HD 
HETATM   35  O   UNL     1     -10.970  15.015  64.910  1.00  0.00    -0.388 OA 
HETATM   36  C   UNL     1      -9.630  14.618  66.908  1.00  0.00    -0.244 C  
HETATM   37  H1  UNL     1      -8.139  15.994  67.280  1.00  0.00     0.000 HD 
HETATM   38  H2  UNL     1      -8.980  16.294  65.841  1.00  0.00     0.000 HD 
HETATM   39  C   UNL     1      -9.055  13.524  67.822  1.00  0.00    -0.207 C  
HETATM   40  N   UNL     1      -8.598  15.584  66.467  1.00  0.00    -0.289 NA 
HETATM   41  H   UNL     1     -10.352  15.675  64.620  1.00  0.00     0.000 HD 
HETATM   42  O   UNL     1      -8.547  14.060  69.047  1.00  0.00    -0.008 OA 
BRANCH  32  43
HETATM   43  C   UNL     1     -12.093  12.270  64.998  1.00  0.00    -0.327 C  
HETATM   44  O   UNL     1     -13.305  13.003  64.773  1.00  0.00    -0.555 OA 
HETATM   45  H   UNL     1     -13.784  12.592  64.062  1.00  0.00     0.000 HD 
ENDBRANCH  32  43
ENDBRANCH  29  30
ENDBRANCH  23  29
ENDBRANCH  14  15
ENDBRANCH   8  14
TORSDOF 6
ENDMDL
MODEL      173
REMARK 921   NORMALIZED FREE ENERGY PREDICTED BY IDOCK:   -4.37 KCAL/MOL
REMARK 922        TOTAL FREE ENERGY PREDICTED BY IDOCK:   -7.46 KCAL/MOL
REMARK 923 INTER-LIGAND FREE ENERGY PREDICTED BY IDOCK:   -6.64 KCAL/MOL
REMARK 924 INTRA-LIGAND FREE ENERGY PREDICTED BY IDOCK:   -0.82 KCAL/MOL
REMARK 927      BINDING AFFINITY PREDICTED BY RF-SCORE:    0.00 PKD
ROOT
HETATM    1  C   UNL     1      -7.071  19.971  68.284  1.00  0.00    -0.288 C  
HETATM    2  C   UNL     1      -8.305  19.871  69.189  1.00  0.00     0.093 C  
HETATM    3  N   UNL     1      -5.898  19.947  69.185  1.00  0.00    -0.248 NA 
HETATM    4  H1  UNL     1      -5.077  20.014  68.583  1.00  0.00     0.000 HD 
HETATM    5  C   UNL     1      -9.578  19.573  68.430  1.00  0.00    -0.473 C  
HETATM    6  H2  UNL     1      -5.880  19.138  69.807  1.00  0.00     0.000 HD 
HETATM    7  C   UNL     1      -9.389  18.462  67.398  1.00  0.00    -0.272 C  
HETATM    8  C   UNL     1      -7.023  18.950  67.070  1.00  0.00    -0.203 C  
HETATM    9  O   UNL     1      -8.309  18.728  66.490  1.00  0.00    -0.280 OA 
ENDROOT
BRANCH   7  10
HETATM   10  C   UNL     1     -10.698  18.373  66.566  1.00  0.00    -0.195 C  
HETATM   11  N   UNL     1     -10.540  17.594  65.338  1.00  0.00    -0.625 NA 
HETATM   12  H1  UNL     1     -11.400  17.536  64.792  1.00  0.00     0.000 HD 
HETATM   13  H2  UNL     1     -10.173  16.664  65.541  1.00  0.00     0.000 HD 
ENDBRANCH   7  10
BRANCH   8  14
HETATM   14  O   UNL     1      -6.326  17.760  67.439  1.00  0.00    -0.149 OA 
BRANCH  14  15
HETATM   15  C   UNL     1      -7.033  16.602  67.952  1.00  0.00    -0.144 C  
HETATM   16  C   UNL     1      -6.134  16.152  69.136  1.00  0.00    -0.139 C  
HETATM   17  N   UNL     1      -6.104  17.173  70.201  1.00  0.00    -0.129 NA 
HETATM   18  C   UNL     1      -6.514  14.851  69.814  1.00  0.00    -0.164 C  
HETATM   19  H2  UNL     1      -7.044  17.415  70.515  1.00  0.00     0.000 HD 
HETATM   20  H1  UNL     1      -5.514  16.877  70.979  1.00  0.00     0.000 HD 
HETATM   21  C   UNL     1      -6.732  13.703  68.842  1.00  0.00    -0.108 C  
HETATM   22  N   UNL     1      -7.042  12.547  69.700  1.00  0.00    -0.313 NA 
HETATM   23  C   UNL     1      -7.824  14.123  67.809  1.00  0.00    -0.170 C  
HETATM   24  C   UNL     1      -7.316  15.386  66.993  1.00  0.00    -0.092 C  
HETATM   25  O   UNL     1      -8.313  15.757  66.024  1.00  0.00    -0.299 OA 
HETATM   26  H2  UNL     1      -7.819  12.702  70.342  1.00  0.00     0.000 HD 
HETATM   27  H1  UNL     1      -7.189  11.777  69.047  1.00  0.00     0.000 HD 
HETATM   28  H   UNL     1      -8.483  15.023  65.445  1.00  0.00     0.000 HD 
BRANCH  23  29
HETATM   29  O   UNL     1      -8.245  13.023  66.941  1.00  0.00    -0.110 OA 
BRANCH  29  30
HETATM   30  C   UNL     1      -9.695  12.927  66.849  1.00  0.00    -0.240 C  
HETATM   31  O   UNL     1     -10.089  11.919  65.910  1.00  0.00    -0.221 OA 
HETATM   32  C   UNL     1      -9.756  10.600  66.375  1.00  0.00    -0.196 C  
HETATM   33  C   UNL     1     -10.617  10.269  67.594  1.00  0.00    -0.263 C  
HETATM   34  H   UNL     1     -10.442  13.558  70.008  1.00  0.00     0.000 HD 
HETATM   35  O   UNL     1     -10.380   8.939  68.059  1.00  0.00    -0.204 OA 
HETATM   36  C   UNL     1     -10.315  11.284  68.723  1.00  0.00    -0.205 C  
HETATM   37  H1  UNL     1     -11.008  11.701  70.621  1.00  0.00     0.000 HD 
HETATM   38  H2  UNL     1     -11.148  10.066  70.204  1.00  0.00     0.000 HD 
HETATM   39  C   UNL     1     -10.424  12.726  68.204  1.00  0.00    -0.236 C  
HETATM   40  N   UNL     1     -11.207  11.031  69.877  1.00  0.00    -0.270 NA 
HETATM   41  H   UNL     1     -10.914   8.733  68.816  1.00  0.00     0.000 HD 
HETATM   42  O   UNL     1      -9.995  13.681  69.178  1.00  0.00     0.024 OA 
BRANCH  32  43
HETATM   43  C   UNL     1      -9.955   9.634  65.206  1.00  0.00    -0.089 C  
HETATM   44  O   UNL     1      -9.660   8.302  65.651  1.00  0.00    -0.437 OA 
HETATM   45  H   UNL     1      -9.784   7.702  64.925  1.00  0.00     0.000 HD 
ENDBRANCH  32  43
ENDBRANCH  29  30
ENDBRANCH  23  29
ENDBRANCH  14  15
ENDBRANCH   8  14
TORSDOF 6
ENDMDL
MODEL      174
REMARK 921   NORMALIZED FREE ENERGY PREDICTED BY IDOCK:   -4.36 KCAL/MOL
REMARK 922        TOTAL FREE ENERGY PREDICTED BY IDOCK:   -7.45 KCAL/MOL
REMARK 923 INTER-LIGAND FREE ENERGY PREDICTED BY IDOCK:   -7.26 KCAL/MOL
REMARK 924 INTRA-LIGAND FREE ENERGY PREDICTED BY IDOCK:   -0.19 KCAL/MOL
REMARK 927      BINDING AFFINITY PREDICTED BY RF-SCORE:    0.00 PKD
ROOT
HETATM    1  C   UNL     1     -11.574  13.736  67.163  1.00  0.00    -0.364 C  
HETATM    2  C   UNL     1     -12.415  14.227  65.978  1.00  0.00    -0.392 C  
HETATM    3  N   UNL     1     -12.369  14.021  68.378  1.00  0.00    -0.504 NA 
HETATM    4  H1  UNL     1     -11.810  13.695  69.165  1.00  0.00     0.000 HD 
HETATM    5  C   UNL     1     -11.901  13.742  64.642  1.00  0.00    -0.427 C  
HETATM    6  H2  UNL     1     -13.307  13.621  68.352  1.00  0.00     0.000 HD 
HETATM    7  C   UNL     1     -11.544  12.256  64.664  1.00  0.00    -0.344 C  
HETATM    8  C   UNL     1     -11.015  12.256  67.044  1.00  0.00    -0.268 C  
HETATM    9  O   UNL     1     -10.620  11.924  65.712  1.00  0.00    -0.250 OA 
ENDROOT
BRANCH   7  10
HETATM   10  C   UNL     1     -10.865  11.921  63.308  1.00  0.00    -0.337 C  
HETATM   11  N   UNL     1      -9.409  11.826  63.408  1.00  0.00    -0.560 NA 
HETATM   12  H1  UNL     1      -8.963  11.606  62.518  1.00  0.00     0.000 HD 
HETATM   13  H2  UNL     1      -9.136  11.157  64.128  1.00  0.00     0.000 HD 
ENDBRANCH   7  10
BRANCH   8  14
HETATM   14  O   UNL     1     -11.917  11.325  67.642  1.00  0.00    -0.634 OA 
BRANCH  14  15
HETATM   15  C   UNL     1     -11.437  10.244  68.481  1.00  0.00    -0.100 C  
HETATM   16  C   UNL     1     -10.915  10.994  69.736  1.00  0.00    -0.193 C  
HETATM   17  N   UNL     1     -12.015  11.667  70.453  1.00  0.00    -0.420 NA 
HETATM   18  C   UNL     1     -10.194  10.155  70.772  1.00  0.00     0.220 C  
HETATM   19  H2  UNL     1     -12.762  11.015  70.689  1.00  0.00     0.000 HD 
HETATM   20  H1  UNL     1     -11.672  12.160  71.277  1.00  0.00     0.000 HD 
HETATM   21  C   UNL     1      -9.105   9.271  70.184  1.00  0.00    -0.222 C  
HETATM   22  N   UNL     1      -8.516   8.589  71.348  1.00  0.00    -0.156 NA 
HETATM   23  C   UNL     1      -9.737   8.363  69.084  1.00  0.00    -0.171 C  
HETATM   24  C   UNL     1     -10.327   9.275  67.927  1.00  0.00    -0.227 C  
HETATM   25  O   UNL     1     -10.888   8.436  66.901  1.00  0.00    -0.337 OA 
HETATM   26  H2  UNL     1      -9.192   8.088  71.923  1.00  0.00     0.000 HD 
HETATM   27  H1  UNL     1      -7.785   7.996  70.954  1.00  0.00     0.000 HD 
HETATM   28  H   UNL     1     -10.217   7.851  66.566  1.00  0.00     0.000 HD 
BRANCH  23  29
HETATM   29  O   UNL     1      -8.815   7.344  68.584  1.00  0.00    -0.128 OA 
BRANCH  29  30
HETATM   30  C   UNL     1      -9.375   6.004  68.691  1.00  0.00    -0.117 C  
HETATM   31  O   UNL     1      -8.364   5.044  69.023  1.00  0.00    -0.086 OA 
HETATM   32  C   UNL     1      -7.864   5.239  70.357  1.00  0.00    -0.076 C  
HETATM   33  C   UNL     1      -8.972   4.910  71.358  1.00  0.00    -0.134 C  
HETATM   34  H   UNL     1     -12.321   6.792  69.970  1.00  0.00     0.000 HD 
HETATM   35  O   UNL     1      -8.511   5.018  72.705  1.00  0.00    -0.114 OA 
HETATM   36  C   UNL     1     -10.166   5.869  71.130  1.00  0.00    -0.212 C  
HETATM   37  H1  UNL     1     -12.069   6.135  71.881  1.00  0.00     0.000 HD 
HETATM   38  H2  UNL     1     -10.993   5.476  73.009  1.00  0.00     0.000 HD 
HETATM   39  C   UNL     1     -10.586   5.877  69.652  1.00  0.00    -0.313 C  
HETATM   40  N   UNL     1     -11.282   5.503  72.031  1.00  0.00    -0.203 NA 
HETATM   41  H   UNL     1      -9.199   4.814  73.327  1.00  0.00     0.000 HD 
HETATM   42  O   UNL     1     -11.579   6.870  69.381  1.00  0.00    -0.122 OA 
BRANCH  32  43
HETATM   43  C   UNL     1      -6.619   4.366  70.516  1.00  0.00    -0.035 C  
HETATM   44  O   UNL     1      -7.027   3.039  70.878  1.00  0.00    -0.032 OA 
HETATM   45  H   UNL     1      -6.253   2.497  70.977  1.00  0.00     0.000 HD 
ENDBRANCH  32  43
ENDBRANCH  29  30
ENDBRANCH  23  29
ENDBRANCH  14  15
ENDBRANCH   8  14
TORSDOF 6
ENDMDL
MODEL      175
REMARK 921   NORMALIZED FREE ENERGY PREDICTED BY IDOCK:   -4.36 KCAL/MOL
REMARK 922        TOTAL FREE ENERGY PREDICTED BY IDOCK:   -7.44 KCAL/MOL
REMARK 923 INTER-LIGAND FREE ENERGY PREDICTED BY IDOCK:   -6.29 KCAL/MOL
REMARK 924 INTRA-LIGAND FREE ENERGY PREDICTED BY IDOCK:   -1.15 KCAL/MOL
REMARK 927      BINDING AFFINITY PREDICTED BY RF-SCORE:    0.00 PKD
ROOT
HETATM    1  C   UNL     1      -7.691   1.942  66.900  1.00  0.00    -0.065 C  
HETATM    2  C   UNL     1      -7.643   2.567  65.500  1.00  0.00    -0.076 C  
HETATM    3  N   UNL     1      -6.308   1.518  67.209  1.00  0.00    -0.024 NA 
HETATM    4  H1  UNL     1      -6.340   1.102  68.139  1.00  0.00     0.000 HD 
HETATM    5  C   UNL     1      -8.898   3.330  65.145  1.00  0.00    -0.130 C  
HETATM    6  H2  UNL     1      -5.624   2.270  67.124  1.00  0.00     0.000 HD 
HETATM    7  C   UNL     1      -9.369   4.232  66.285  1.00  0.00    -0.162 C  
HETATM    8  C   UNL     1      -8.406   2.813  68.018  1.00  0.00    -0.079 C  
HETATM    9  O   UNL     1      -9.543   3.519  67.519  1.00  0.00    -0.207 OA 
ENDROOT
BRANCH   7  10
HETATM   10  C   UNL     1     -10.748   4.817  65.876  1.00  0.00    -0.173 C  
HETATM   11  N   UNL     1     -11.015   6.122  66.480  1.00  0.00    -0.713 NA 
HETATM   12  H1  UNL     1     -11.922   6.506  66.211  1.00  0.00     0.000 HD 
HETATM   13  H2  UNL     1     -10.264   6.781  66.272  1.00  0.00     0.000 HD 
ENDBRANCH   7  10
BRANCH   8  14
HETATM   14  O   UNL     1      -7.457   3.629  68.706  1.00  0.00    -0.053 OA 
BRANCH  14  15
HETATM   15  C   UNL     1      -7.844   4.428  69.852  1.00  0.00    -0.053 C  
HETATM   16  C   UNL     1      -8.905   3.532  70.549  1.00  0.00    -0.081 C  
HETATM   17  N   UNL     1      -8.303   2.283  71.051  1.00  0.00    -0.049 NA 
HETATM   18  C   UNL     1      -9.638   4.146  71.726  1.00  0.00    -0.223 C  
HETATM   19  H2  UNL     1      -7.509   2.469  71.664  1.00  0.00     0.000 HD 
HETATM   20  H1  UNL     1      -9.000   1.695  71.508  1.00  0.00     0.000 HD 
HETATM   21  C   UNL     1     -10.209   5.523  71.431  1.00  0.00    -0.215 C  
HETATM   22  N   UNL     1     -10.904   5.907  72.671  1.00  0.00    -0.235 NA 
HETATM   23  C   UNL     1      -9.050   6.456  70.959  1.00  0.00    -0.154 C  
HETATM   24  C   UNL     1      -8.421   5.874  69.623  1.00  0.00    -0.117 C  
HETATM   25  O   UNL     1      -7.369   6.748  69.174  1.00  0.00    -0.088 OA 
HETATM   26  H2  UNL     1     -10.318   5.869  73.505  1.00  0.00     0.000 HD 
HETATM   27  H1  UNL     1     -11.287   6.831  72.474  1.00  0.00     0.000 HD 
HETATM   28  H   UNL     1      -7.718   7.621  69.036  1.00  0.00     0.000 HD 
BRANCH  23  29
HETATM   29  O   UNL     1      -9.458   7.854  70.828  1.00  0.00    -0.157 OA 
BRANCH  29  30
HETATM   30  C   UNL     1     -10.466   8.032  69.792  1.00  0.00    -0.227 C  
HETATM   31  O   UNL     1     -11.779   8.134  70.358  1.00  0.00    -0.153 OA 
HETATM   32  C   UNL     1     -11.941   9.350  71.110  1.00  0.00    -0.337 C  
HETATM   33  C   UNL     1     -11.903  10.538  70.148  1.00  0.00    -0.320 C  
HETATM   34  H   UNL     1      -8.708   9.883  67.691  1.00  0.00     0.000 HD 
HETATM   35  O   UNL     1     -12.130  11.772  70.831  1.00  0.00    -0.367 OA 
HETATM   36  C   UNL     1     -10.530  10.574  69.435  1.00  0.00    -0.240 C  
HETATM   37  H1  UNL     1      -9.607  11.689  67.965  1.00  0.00     0.000 HD 
HETATM   38  H2  UNL     1     -10.754  12.568  68.847  1.00  0.00     0.000 HD 
HETATM   39  C   UNL     1     -10.200   9.207  68.815  1.00  0.00    -0.210 C  
HETATM   40  N   UNL     1     -10.512  11.666  68.435  1.00  0.00    -0.205 NA 
HETATM   41  H   UNL     1     -12.107  12.511  70.235  1.00  0.00     0.000 HD 
HETATM   42  O   UNL     1      -8.871   9.163  68.289  1.00  0.00    -0.129 OA 
BRANCH  32  43
HETATM   43  C   UNL     1     -13.249   9.238  71.893  1.00  0.00    -0.423 C  
HETATM   44  O   UNL     1     -14.232   8.602  71.064  1.00  0.00    -0.627 OA 
HETATM   45  H   UNL     1     -15.045   8.533  71.551  1.00  0.00     0.000 HD 
ENDBRANCH  32  43
ENDBRANCH  29  30
ENDBRANCH  23  29
ENDBRANCH  14  15
ENDBRANCH   8  14
TORSDOF 6
ENDMDL
MODEL      176
REMARK 921   NORMALIZED FREE ENERGY PREDICTED BY IDOCK:   -4.33 KCAL/MOL
REMARK 922        TOTAL FREE ENERGY PREDICTED BY IDOCK:   -7.41 KCAL/MOL
REMARK 923 INTER-LIGAND FREE ENERGY PREDICTED BY IDOCK:   -8.09 KCAL/MOL
REMARK 924 INTRA-LIGAND FREE ENERGY PREDICTED BY IDOCK:    0.68 KCAL/MOL
REMARK 927      BINDING AFFINITY PREDICTED BY RF-SCORE:    0.00 PKD
ROOT
HETATM    1  C   UNL     1      -7.026  19.992  68.070  1.00  0.00    -0.286 C  
HETATM    2  C   UNL     1      -8.232  20.070  69.013  1.00  0.00     0.123 C  
HETATM    3  N   UNL     1      -5.869  19.614  68.911  1.00  0.00    -0.223 NA 
HETATM    4  H1  UNL     1      -5.067  19.562  68.284  1.00  0.00     0.000 HD 
HETATM    5  C   UNL     1      -9.555  20.142  68.286  1.00  0.00    -0.317 C  
HETATM    6  H2  UNL     1      -6.020  18.761  69.449  1.00  0.00     0.000 HD 
HETATM    7  C   UNL     1      -9.641  19.133  67.142  1.00  0.00    -0.319 C  
HETATM    8  C   UNL     1      -7.232  19.119  66.760  1.00  0.00    -0.211 C  
HETATM    9  O   UNL     1      -8.547  19.248  66.218  1.00  0.00    -0.329 OA 
ENDROOT
BRANCH   7  10
HETATM   10  C   UNL     1     -10.953  19.422  66.363  1.00  0.00    -0.180 C  
HETATM   11  N   UNL     1     -11.030  18.707  65.089  1.00  0.00    -0.382 NA 
HETATM   12  H1  UNL     1     -11.891  18.898  64.578  1.00  0.00     0.000 HD 
HETATM   13  H2  UNL     1     -10.900  17.705  65.226  1.00  0.00     0.000 HD 
ENDBRANCH   7  10
BRANCH   8  14
HETATM   14  O   UNL     1      -6.812  17.772  66.979  1.00  0.00    -0.164 OA 
BRANCH  14  15
HETATM   15  C   UNL     1      -7.735  16.766  67.468  1.00  0.00    -0.168 C  
HETATM   16  C   UNL     1      -6.885  16.012  68.528  1.00  0.00    -0.129 C  
HETATM   17  N   UNL     1      -6.537  16.894  69.659  1.00  0.00    -0.205 NA 
HETATM   18  C   UNL     1      -7.513  14.776  69.140  1.00  0.00    -0.153 C  
HETATM   19  H2  UNL     1      -7.367  17.316  70.074  1.00  0.00     0.000 HD 
HETATM   20  H1  UNL     1      -5.979  16.399  70.355  1.00  0.00     0.000 HD 
HETATM   21  C   UNL     1      -8.067  13.805  68.110  1.00  0.00    -0.155 C  
HETATM   22  N   UNL     1      -8.580  12.677  68.905  1.00  0.00    -0.338 NA 
HETATM   23  C   UNL     1      -9.100  14.560  67.216  1.00  0.00    -0.209 C  
HETATM   24  C   UNL     1      -8.366  15.742  66.452  1.00  0.00    -0.232 C  
HETATM   25  O   UNL     1      -9.314  16.423  65.609  1.00  0.00    -0.476 OA 
HETATM   26  H2  UNL     1      -9.249  12.946  69.626  1.00  0.00     0.000 HD 
HETATM   27  H1  UNL     1      -8.952  12.026  68.213  1.00  0.00     0.000 HD 
HETATM   28  H   UNL     1      -9.695  15.805  64.996  1.00  0.00     0.000 HD 
BRANCH  23  29
HETATM   29  O   UNL     1      -9.831  13.673  66.312  1.00  0.00    -0.289 OA 
BRANCH  29  30
HETATM   30  C   UNL     1     -11.267  13.722  66.545  1.00  0.00    -0.312 C  
HETATM   31  O   UNL     1     -11.791  12.419  66.831  1.00  0.00    -0.490 OA 
HETATM   32  C   UNL     1     -11.324  11.924  68.098  1.00  0.00    -0.288 C  
HETATM   33  C   UNL     1     -11.926  12.775  69.217  1.00  0.00    -0.246 C  
HETATM   34  H   UNL     1     -11.430  16.658  68.057  1.00  0.00     0.000 HD 
HETATM   35  O   UNL     1     -11.553  12.285  70.506  1.00  0.00    -0.489 OA 
HETATM   36  C   UNL     1     -11.457  14.240  69.053  1.00  0.00    -0.284 C  
HETATM   37  H1  UNL     1     -11.796  16.059  69.968  1.00  0.00     0.000 HD 
HETATM   38  H2  UNL     1     -11.948  14.743  71.022  1.00  0.00     0.000 HD 
HETATM   39  C   UNL     1     -11.720  14.741  67.624  1.00  0.00    -0.341 C  
HETATM   40  N   UNL     1     -12.105  15.092  70.077  1.00  0.00    -0.326 NA 
HETATM   41  H   UNL     1     -11.927  12.813  71.202  1.00  0.00     0.000 HD 
HETATM   42  O   UNL     1     -11.154  16.034  67.396  1.00  0.00    -0.278 OA 
BRANCH  32  43
HETATM   43  C   UNL     1     -11.700  10.445  68.184  1.00  0.00     0.211 C  
HETATM   44  O   UNL     1     -12.509  10.241  69.352  1.00  0.00    -0.605 OA 
HETATM   45  H   UNL     1     -12.743   9.321  69.405  1.00  0.00     0.000 HD 
ENDBRANCH  32  43
ENDBRANCH  29  30
ENDBRANCH  23  29
ENDBRANCH  14  15
ENDBRANCH   8  14
TORSDOF 6
ENDMDL
MODEL      177
REMARK 921   NORMALIZED FREE ENERGY PREDICTED BY IDOCK:   -4.33 KCAL/MOL
REMARK 922        TOTAL FREE ENERGY PREDICTED BY IDOCK:   -7.40 KCAL/MOL
REMARK 923 INTER-LIGAND FREE ENERGY PREDICTED BY IDOCK:   -6.96 KCAL/MOL
REMARK 924 INTRA-LIGAND FREE ENERGY PREDICTED BY IDOCK:   -0.44 KCAL/MOL
REMARK 927      BINDING AFFINITY PREDICTED BY RF-SCORE:    0.00 PKD
ROOT
HETATM    1  C   UNL     1     -10.638  14.951  66.837  1.00  0.00    -0.300 C  
HETATM    2  C   UNL     1     -12.094  14.486  66.715  1.00  0.00    -0.313 C  
HETATM    3  N   UNL     1     -10.581  15.814  68.038  1.00  0.00    -0.270 NA 
HETATM    4  H1  UNL     1      -9.613  16.123  68.119  1.00  0.00     0.000 HD 
HETATM    5  C   UNL     1     -12.278  13.356  65.729  1.00  0.00    -0.507 C  
HETATM    6  H2  UNL     1     -10.934  15.360  68.881  1.00  0.00     0.000 HD 
HETATM    7  C   UNL     1     -11.219  12.266  65.894  1.00  0.00    -0.340 C  
HETATM    8  C   UNL     1      -9.541  13.806  66.765  1.00  0.00    -0.279 C  
HETATM    9  O   UNL     1      -9.880  12.782  65.830  1.00  0.00    -0.262 OA 
ENDROOT
BRANCH   7  10
HETATM   10  C   UNL     1     -11.398  11.262  64.722  1.00  0.00     0.027 C  
HETATM   11  N   UNL     1     -12.103  11.841  63.579  1.00  0.00    -0.700 NA 
HETATM   12  H1  UNL     1     -12.220  11.181  62.809  1.00  0.00     0.000 HD 
HETATM   13  H2  UNL     1     -11.644  12.694  63.260  1.00  0.00     0.000 HD 
ENDBRANCH   7  10
BRANCH   8  14
HETATM   14  O   UNL     1      -9.220  13.331  68.073  1.00  0.00    -0.202 OA 
BRANCH  14  15
HETATM   15  C   UNL     1      -8.460  12.111  68.264  1.00  0.00    -0.176 C  
HETATM   16  C   UNL     1      -7.561  12.069  66.998  1.00  0.00    -0.111 C  
HETATM   17  N   UNL     1      -6.609  13.196  66.982  1.00  0.00    -0.434 NA 
HETATM   18  C   UNL     1      -6.729  10.816  66.804  1.00  0.00    -0.110 C  
HETATM   19  H2  UNL     1      -6.053  13.230  67.836  1.00  0.00     0.000 HD 
HETATM   20  H1  UNL     1      -6.019  13.168  66.150  1.00  0.00     0.000 HD 
HETATM   21  C   UNL     1      -7.530   9.531  66.935  1.00  0.00    -0.094 C  
HETATM   22  N   UNL     1      -6.555   8.460  66.671  1.00  0.00    -0.056 NA 
HETATM   23  C   UNL     1      -8.228   9.516  68.331  1.00  0.00    -0.113 C  
HETATM   24  C   UNL     1      -9.226  10.746  68.432  1.00  0.00    -0.164 C  
HETATM   25  O   UNL     1      -9.887  10.717  69.710  1.00  0.00    -0.429 OA 
HETATM   26  H2  UNL     1      -5.727   8.496  67.265  1.00  0.00     0.000 HD 
HETATM   27  H1  UNL     1      -7.093   7.598  66.759  1.00  0.00     0.000 HD 
HETATM   28  H   UNL     1     -10.350   9.893  69.811  1.00  0.00     0.000 HD 
BRANCH  23  29
HETATM   29  O   UNL     1      -8.874   8.239  68.635  1.00  0.00    -0.133 OA 
BRANCH  29  30
HETATM   30  C   UNL     1      -8.198   7.531  69.713  1.00  0.00    -0.128 C  
HETATM   31  O   UNL     1      -8.645   7.990  70.995  1.00  0.00    -0.125 OA 
HETATM   32  C   UNL     1     -10.014   7.625  71.243  1.00  0.00    -0.179 C  
HETATM   33  C   UNL     1     -10.106   6.105  71.386  1.00  0.00    -0.194 C  
HETATM   34  H   UNL     1      -7.946   4.561  68.283  1.00  0.00     0.000 HD 
HETATM   35  O   UNL     1     -11.434   5.688  71.704  1.00  0.00    -0.164 OA 
HETATM   36  C   UNL     1      -9.645   5.440  70.067  1.00  0.00    -0.169 C  
HETATM   37  H1  UNL     1      -9.338   3.529  69.352  1.00  0.00     0.000 HD 
HETATM   38  H2  UNL     1     -10.546   3.613  70.535  1.00  0.00     0.000 HD 
HETATM   39  C   UNL     1      -8.276   5.984  69.629  1.00  0.00    -0.115 C  
HETATM   40  N   UNL     1      -9.642   3.967  70.222  1.00  0.00    -0.190 NA 
HETATM   41  H   UNL     1     -11.492   4.744  71.793  1.00  0.00     0.000 HD 
HETATM   42  O   UNL     1      -7.898   5.508  68.335  1.00  0.00    -0.087 OA 
BRANCH  32  43
HETATM   43  C   UNL     1     -10.478   8.385  72.486  1.00  0.00    -0.302 C  
HETATM   44  O   UNL     1     -10.287   7.550  73.637  1.00  0.00    -0.344 OA 
HETATM   45  H   UNL     1     -10.576   8.022  74.409  1.00  0.00     0.000 HD 
ENDBRANCH  32  43
ENDBRANCH  29  30
ENDBRANCH  23  29
ENDBRANCH  14  15
ENDBRANCH   8  14
TORSDOF 6
ENDMDL
MODEL      178
REMARK 921   NORMALIZED FREE ENERGY PREDICTED BY IDOCK:   -4.31 KCAL/MOL
REMARK 922        TOTAL FREE ENERGY PREDICTED BY IDOCK:   -7.38 KCAL/MOL
REMARK 923 INTER-LIGAND FREE ENERGY PREDICTED BY IDOCK:   -6.56 KCAL/MOL
REMARK 924 INTRA-LIGAND FREE ENERGY PREDICTED BY IDOCK:   -0.83 KCAL/MOL
REMARK 927      BINDING AFFINITY PREDICTED BY RF-SCORE:    0.00 PKD
ROOT
HETATM    1  C   UNL     1     -10.092   4.319  70.459  1.00  0.00    -0.056 C  
HETATM    2  C   UNL     1      -9.040   3.382  69.853  1.00  0.00    -0.197 C  
HETATM    3  N   UNL     1      -9.724   4.484  71.882  1.00  0.00    -0.160 NA 
HETATM    4  H1  UNL     1     -10.424   5.107  72.285  1.00  0.00     0.000 HD 
HETATM    5  C   UNL     1      -9.076   3.343  68.342  1.00  0.00    -0.206 C  
HETATM    6  H2  UNL     1      -8.766   4.807  72.019  1.00  0.00     0.000 HD 
HETATM    7  C   UNL     1      -9.188   4.738  67.730  1.00  0.00    -0.125 C  
HETATM    8  C   UNL     1     -10.357   5.664  69.660  1.00  0.00    -0.276 C  
HETATM    9  O   UNL     1     -10.306   5.480  68.245  1.00  0.00    -0.183 OA 
ENDROOT
BRANCH   7  10
HETATM   10  C   UNL     1      -9.399   4.561  66.202  1.00  0.00    -0.156 C  
HETATM   11  N   UNL     1      -8.382   3.713  65.581  1.00  0.00    -0.104 NA 
HETATM   12  H1  UNL     1      -8.521   3.597  64.577  1.00  0.00     0.000 HD 
HETATM   13  H2  UNL     1      -8.326   2.808  66.049  1.00  0.00     0.000 HD 
ENDBRANCH   7  10
BRANCH   8  14
HETATM   14  O   UNL     1      -9.525   6.715  70.151  1.00  0.00    -0.158 OA 
BRANCH  14  15
HETATM   15  C   UNL     1      -8.958   7.706  69.256  1.00  0.00    -0.135 C  
HETATM   16  C   UNL     1      -7.746   8.241  70.067  1.00  0.00    -0.095 C  
HETATM   17  N   UNL     1      -6.734   7.187  70.274  1.00  0.00    -0.051 NA 
HETATM   18  C   UNL     1      -7.004   9.421  69.470  1.00  0.00    -0.053 C  
HETATM   19  H2  UNL     1      -6.440   6.772  69.390  1.00  0.00     0.000 HD 
HETATM   20  H1  UNL     1      -5.938   7.539  70.806  1.00  0.00     0.000 HD 
HETATM   21  C   UNL     1      -7.918  10.563  69.056  1.00  0.00    -0.136 C  
HETATM   22  N   UNL     1      -7.004  11.602  68.553  1.00  0.00    -0.078 NA 
HETATM   23  C   UNL     1      -8.979  10.016  68.050  1.00  0.00    -0.128 C  
HETATM   24  C   UNL     1      -9.855   8.904  68.767  1.00  0.00    -0.173 C  
HETATM   25  O   UNL     1     -10.849   8.417  67.847  1.00  0.00    -0.463 OA 
HETATM   26  H2  UNL     1      -6.376  11.283  67.816  1.00  0.00     0.000 HD 
HETATM   27  H1  UNL     1      -7.617  12.369  68.275  1.00  0.00     0.000 HD 
HETATM   28  H   UNL     1     -11.390   9.141  67.551  1.00  0.00     0.000 HD 
BRANCH  23  29
HETATM   29  O   UNL     1      -9.791  11.071  67.445  1.00  0.00    -0.171 OA 
BRANCH  29  30
HETATM   30  C   UNL     1      -9.019  11.890  66.522  1.00  0.00    -0.199 C  
HETATM   31  O   UNL     1      -9.288  11.532  65.161  1.00  0.00    -0.201 OA 
HETATM   32  C   UNL     1     -10.630  11.876  64.776  1.00  0.00    -0.299 C  
HETATM   33  C   UNL     1     -10.765  13.399  64.749  1.00  0.00    -0.390 C  
HETATM   34  H   UNL     1      -9.062  14.731  68.213  1.00  0.00     0.000 HD 
HETATM   35  O   UNL     1     -12.061  13.803  64.304  1.00  0.00    -0.426 OA 
HETATM   36  C   UNL     1     -10.495  13.961  66.166  1.00  0.00    -0.297 C  
HETATM   37  H1  UNL     1     -10.354  15.811  67.068  1.00  0.00     0.000 HD 
HETATM   38  H2  UNL     1     -11.406  15.794  65.742  1.00  0.00     0.000 HD 
HETATM   39  C   UNL     1      -9.169  13.421  66.723  1.00  0.00    -0.236 C  
HETATM   40  N   UNL     1     -10.533  15.441  66.134  1.00  0.00    -0.303 NA 
HETATM   41  H   UNL     1     -12.145  14.749  64.286  1.00  0.00     0.000 HD 
HETATM   42  O   UNL     1      -8.969  13.794  68.089  1.00  0.00    -0.178 OA 
BRANCH  32  43
HETATM   43  C   UNL     1     -10.909  11.214  63.426  1.00  0.00    -0.129 C  
HETATM   44  O   UNL     1     -12.320  11.260  63.171  1.00  0.00    -0.795 OA 
HETATM   45  H   UNL     1     -12.493  10.848  62.333  1.00  0.00     0.000 HD 
ENDBRANCH  32  43
ENDBRANCH  29  30
ENDBRANCH  23  29
ENDBRANCH  14  15
ENDBRANCH   8  14
TORSDOF 6
ENDMDL
MODEL      179
REMARK 921   NORMALIZED FREE ENERGY PREDICTED BY IDOCK:   -4.30 KCAL/MOL
REMARK 922        TOTAL FREE ENERGY PREDICTED BY IDOCK:   -7.37 KCAL/MOL
REMARK 923 INTER-LIGAND FREE ENERGY PREDICTED BY IDOCK:   -7.56 KCAL/MOL
REMARK 924 INTRA-LIGAND FREE ENERGY PREDICTED BY IDOCK:    0.19 KCAL/MOL
REMARK 927      BINDING AFFINITY PREDICTED BY RF-SCORE:    0.00 PKD
ROOT
HETATM    1  C   UNL     1     -10.403  12.700  67.385  1.00  0.00    -0.220 C  
HETATM    2  C   UNL     1     -11.902  13.016  67.309  1.00  0.00    -0.419 C  
HETATM    3  N   UNL     1     -10.162  12.178  68.748  1.00  0.00    -0.381 NA 
HETATM    4  H1  UNL     1      -9.166  11.968  68.799  1.00  0.00     0.000 HD 
HETATM    5  C   UNL     1     -12.386  13.269  65.900  1.00  0.00    -0.479 C  
HETATM    6  H2  UNL     1     -10.757  11.385  68.991  1.00  0.00     0.000 HD 
HETATM    7  C   UNL     1     -11.850  12.237  64.909  1.00  0.00    -0.358 C  
HETATM    8  C   UNL     1      -9.825  11.815  66.202  1.00  0.00    -0.229 C  
HETATM    9  O   UNL     1     -10.418  12.131  64.941  1.00  0.00    -0.269 OA 
ENDROOT
BRANCH   7  10
HETATM   10  C   UNL     1     -12.260  12.700  63.485  1.00  0.00    -0.547 C  
HETATM   11  N   UNL     1     -12.385  14.154  63.373  1.00  0.00    -1.144 NA 
HETATM   12  H1  UNL     1     -12.654  14.458  62.437  1.00  0.00     0.000 HD 
HETATM   13  H2  UNL     1     -11.527  14.617  63.674  1.00  0.00     0.000 HD 
ENDBRANCH   7  10
BRANCH   8  14
HETATM   14  O   UNL     1      -9.863  10.429  66.542  1.00  0.00    -0.190 OA 
BRANCH  14  15
HETATM   15  C   UNL     1      -9.199   9.927  67.729  1.00  0.00    -0.130 C  
HETATM   16  C   UNL     1      -7.808   9.500  67.185  1.00  0.00    -0.095 C  
HETATM   17  N   UNL     1      -7.045  10.666  66.699  1.00  0.00    -0.116 NA 
HETATM   18  C   UNL     1      -6.896   8.780  68.159  1.00  0.00    -0.069 C  
HETATM   19  H2  UNL     1      -6.963  11.386  67.417  1.00  0.00     0.000 HD 
HETATM   20  H1  UNL     1      -6.131  10.386  66.342  1.00  0.00     0.000 HD 
HETATM   21  C   UNL     1      -7.569   7.620  68.874  1.00  0.00    -0.101 C  
HETATM   22  N   UNL     1      -6.511   7.045  69.721  1.00  0.00    -0.042 NA 
HETATM   23  C   UNL     1      -8.841   8.154  69.605  1.00  0.00    -0.143 C  
HETATM   24  C   UNL     1      -9.853   8.742  68.534  1.00  0.00    -0.168 C  
HETATM   25  O   UNL     1     -11.036   9.211  69.207  1.00  0.00    -0.382 OA 
HETATM   26  H2  UNL     1      -6.067   7.717  70.346  1.00  0.00     0.000 HD 
HETATM   27  H1  UNL     1      -6.963   6.267  70.201  1.00  0.00     0.000 HD 
HETATM   28  H   UNL     1     -11.431   8.496  69.693  1.00  0.00     0.000 HD 
BRANCH  23  29
HETATM   29  O   UNL     1      -9.460   7.156  70.478  1.00  0.00    -0.162 OA 
BRANCH  29  30
HETATM   30  C   UNL     1      -9.816   7.714  71.774  1.00  0.00    -0.165 C  
HETATM   31  O   UNL     1     -10.797   6.906  72.436  1.00  0.00    -0.219 OA 
HETATM   32  C   UNL     1     -10.259   5.630  72.825  1.00  0.00    -0.185 C  
HETATM   33  C   UNL     1      -9.215   5.843  73.921  1.00  0.00    -0.127 C  
HETATM   34  H   UNL     1      -6.859   8.920  72.632  1.00  0.00     0.000 HD 
HETATM   35  O   UNL     1      -8.695   4.601  74.398  1.00  0.00    -0.108 OA 
HETATM   36  C   UNL     1      -8.065   6.718  73.367  1.00  0.00    -0.102 C  
HETATM   37  H1  UNL     1      -6.333   7.585  74.078  1.00  0.00     0.000 HD 
HETATM   38  H2  UNL     1      -6.745   6.157  74.888  1.00  0.00     0.000 HD 
HETATM   39  C   UNL     1      -8.617   7.997  72.717  1.00  0.00    -0.192 C  
HETATM   40  N   UNL     1      -7.091   7.008  74.444  1.00  0.00    -0.096 NA 
HETATM   41  H   UNL     1      -8.046   4.733  75.079  1.00  0.00     0.000 HD 
HETATM   42  O   UNL     1      -7.594   8.747  72.055  1.00  0.00    -0.281 OA 
BRANCH  32  43
HETATM   43  C   UNL     1     -11.430   4.747  73.260  1.00  0.00    -0.273 C  
HETATM   44  O   UNL     1     -11.024   3.373  73.191  1.00  0.00    -0.169 OA 
HETATM   45  H   UNL     1     -11.752   2.825  73.461  1.00  0.00     0.000 HD 
ENDBRANCH  32  43
ENDBRANCH  29  30
ENDBRANCH  23  29
ENDBRANCH  14  15
ENDBRANCH   8  14
TORSDOF 6
ENDMDL
MODEL      180
REMARK 921   NORMALIZED FREE ENERGY PREDICTED BY IDOCK:   -4.29 KCAL/MOL
REMARK 922        TOTAL FREE ENERGY PREDICTED BY IDOCK:   -7.36 KCAL/MOL
REMARK 923 INTER-LIGAND FREE ENERGY PREDICTED BY IDOCK:   -6.80 KCAL/MOL
REMARK 924 INTRA-LIGAND FREE ENERGY PREDICTED BY IDOCK:   -0.55 KCAL/MOL
REMARK 927      BINDING AFFINITY PREDICTED BY RF-SCORE:    0.00 PKD
ROOT
HETATM    1  C   UNL     1     -10.460  17.130  66.734  1.00  0.00    -0.263 C  
HETATM    2  C   UNL     1      -9.973  17.682  68.079  1.00  0.00    -0.326 C  
HETATM    3  N   UNL     1      -9.560  17.699  65.706  1.00  0.00    -0.515 NA 
HETATM    4  H1  UNL     1      -9.884  17.333  64.812  1.00  0.00     0.000 HD 
HETATM    5  C   UNL     1     -10.577  16.971  69.268  1.00  0.00    -0.276 C  
HETATM    6  H2  UNL     1      -8.572  17.517  65.886  1.00  0.00     0.000 HD 
HETATM    7  C   UNL     1     -10.565  15.452  69.102  1.00  0.00    -0.248 C  
HETATM    8  C   UNL     1     -10.666  15.558  66.668  1.00  0.00    -0.306 C  
HETATM    9  O   UNL     1     -11.192  15.023  67.883  1.00  0.00    -0.298 OA 
ENDROOT
BRANCH   7  10
HETATM   10  C   UNL     1     -11.366  14.847  70.287  1.00  0.00    -0.254 C  
HETATM   11  N   UNL     1     -12.806  15.082  70.179  1.00  0.00    -0.611 NA 
HETATM   12  H1  UNL     1     -13.332  14.684  70.958  1.00  0.00     0.000 HD 
HETATM   13  H2  UNL     1     -13.165  14.743  69.286  1.00  0.00     0.000 HD 
ENDBRANCH   7  10
BRANCH   8  14
HETATM   14  O   UNL     1      -9.481  14.912  66.201  1.00  0.00    -0.284 OA 
BRANCH  14  15
HETATM   15  C   UNL     1      -9.423  13.473  66.039  1.00  0.00    -0.088 C  
HETATM   16  C   UNL     1     -10.924  13.074  66.002  1.00  0.00    -0.275 C  
HETATM   17  N   UNL     1     -11.596  13.636  64.815  1.00  0.00    -0.341 NA 
HETATM   18  C   UNL     1     -11.227  11.589  65.990  1.00  0.00    -0.240 C  
HETATM   19  H2  UNL     1     -11.117  13.374  63.954  1.00  0.00     0.000 HD 
HETATM   20  H1  UNL     1     -12.582  13.374  64.790  1.00  0.00     0.000 HD 
HETATM   21  C   UNL     1     -10.494  10.813  67.072  1.00  0.00    -0.247 C  
HETATM   22  N   UNL     1     -10.959   9.426  66.910  1.00  0.00    -0.119 NA 
HETATM   23  C   UNL     1      -8.961  11.062  66.915  1.00  0.00    -0.157 C  
HETATM   24  C   UNL     1      -8.659  12.608  67.110  1.00  0.00    -0.199 C  
HETATM   25  O   UNL     1      -7.242  12.833  66.989  1.00  0.00    -0.359 OA 
HETATM   26  H2  UNL     1     -10.831   9.051  65.970  1.00  0.00     0.000 HD 
HETATM   27  H1  UNL     1     -10.467   8.904  67.636  1.00  0.00     0.000 HD 
HETATM   28  H   UNL     1      -6.781  12.310  67.636  1.00  0.00     0.000 HD 
BRANCH  23  29
HETATM   29  O   UNL     1      -8.151  10.214  67.790  1.00  0.00    -0.108 OA 
BRANCH  29  30
HETATM   30  C   UNL     1      -8.276  10.600  69.188  1.00  0.00    -0.139 C  
HETATM   31  O   UNL     1      -9.278   9.821  69.853  1.00  0.00    -0.212 OA 
HETATM   32  C   UNL     1      -8.882   8.444  69.983  1.00  0.00    -0.137 C  
HETATM   33  C   UNL     1      -7.700   8.355  70.948  1.00  0.00    -0.088 C  
HETATM   34  H   UNL     1      -5.102  11.290  69.805  1.00  0.00     0.000 HD 
HETATM   35  O   UNL     1      -7.307   7.000  71.172  1.00  0.00    -0.074 OA 
HETATM   36  C   UNL     1      -6.510   9.162  70.375  1.00  0.00    -0.051 C  
HETATM   37  H1  UNL     1      -4.605   9.692  70.964  1.00  0.00     0.000 HD 
HETATM   38  H2  UNL     1      -5.117   8.213  71.612  1.00  0.00     0.000 HD 
HETATM   39  C   UNL     1      -6.949  10.584  69.992  1.00  0.00    -0.146 C  
HETATM   40  N   UNL     1      -5.389   9.159  71.342  1.00  0.00    -0.041 NA 
HETATM   41  H   UNL     1      -6.573   6.944  71.772  1.00  0.00     0.000 HD 
HETATM   42  O   UNL     1      -5.915  11.300  69.313  1.00  0.00    -0.046 OA 
BRANCH  32  43
HETATM   43  C   UNL     1     -10.107   7.652  70.441  1.00  0.00    -0.190 C  
HETATM   44  O   UNL     1     -10.004   6.311  69.943  1.00  0.00    -0.164 OA 
HETATM   45  H   UNL     1     -10.765   5.819  70.228  1.00  0.00     0.000 HD 
ENDBRANCH  32  43
ENDBRANCH  29  30
ENDBRANCH  23  29
ENDBRANCH  14  15
ENDBRANCH   8  14
TORSDOF 6
ENDMDL
MODEL      181
REMARK 921   NORMALIZED FREE ENERGY PREDICTED BY IDOCK:   -4.28 KCAL/MOL
REMARK 922        TOTAL FREE ENERGY PREDICTED BY IDOCK:   -7.33 KCAL/MOL
REMARK 923 INTER-LIGAND FREE ENERGY PREDICTED BY IDOCK:   -5.94 KCAL/MOL
REMARK 924 INTRA-LIGAND FREE ENERGY PREDICTED BY IDOCK:   -1.39 KCAL/MOL
REMARK 927      BINDING AFFINITY PREDICTED BY RF-SCORE:    0.00 PKD
ROOT
HETATM    1  C   UNL     1     -11.662  12.221  67.904  1.00  0.00    -0.347 C  
HETATM    2  C   UNL     1     -11.498  13.197  69.074  1.00  0.00    -0.345 C  
HETATM    3  N   UNL     1     -10.665  12.626  66.888  1.00  0.00    -0.240 NA 
HETATM    4  H1  UNL     1     -10.774  11.976  66.110  1.00  0.00     0.000 HD 
HETATM    5  C   UNL     1     -12.219  12.753  70.327  1.00  0.00    -0.351 C  
HETATM    6  H2  UNL     1      -9.712  12.670  67.249  1.00  0.00     0.000 HD 
HETATM    7  C   UNL     1     -11.992  11.272  70.629  1.00  0.00    -0.336 C  
HETATM    8  C   UNL     1     -11.660  10.681  68.287  1.00  0.00    -0.167 C  
HETATM    9  O   UNL     1     -12.330  10.423  69.522  1.00  0.00    -0.116 OA 
ENDROOT
BRANCH   7  10
HETATM   10  C   UNL     1     -12.917  10.893  71.818  1.00  0.00    -0.451 C  
HETATM   11  N   UNL     1     -13.329   9.490  71.795  1.00  0.00    -0.399 NA 
HETATM   12  H1  UNL     1     -13.936   9.242  72.576  1.00  0.00     0.000 HD 
HETATM   13  H2  UNL     1     -12.518   8.873  71.753  1.00  0.00     0.000 HD 
ENDBRANCH   7  10
BRANCH   8  14
HETATM   14  O   UNL     1     -10.341  10.141  68.206  1.00  0.00    -0.168 OA 
BRANCH  14  15
HETATM   15  C   UNL     1     -10.019   8.851  68.785  1.00  0.00    -0.184 C  
HETATM   16  C   UNL     1      -8.648   9.117  69.466  1.00  0.00    -0.138 C  
HETATM   17  N   UNL     1      -8.779  10.088  70.569  1.00  0.00    -0.338 NA 
HETATM   18  C   UNL     1      -7.941   7.912  70.052  1.00  0.00    -0.111 C  
HETATM   19  H2  UNL     1      -9.482   9.794  71.245  1.00  0.00     0.000 HD 
HETATM   20  H1  UNL     1      -7.878  10.263  71.015  1.00  0.00     0.000 HD 
HETATM   21  C   UNL     1      -7.842   6.740  69.088  1.00  0.00    -0.111 C  
HETATM   22  N   UNL     1      -7.094   5.713  69.832  1.00  0.00    -0.065 NA 
HETATM   23  C   UNL     1      -9.279   6.358  68.615  1.00  0.00    -0.125 C  
HETATM   24  C   UNL     1      -9.923   7.589  67.849  1.00  0.00    -0.165 C  
HETATM   25  O   UNL     1     -11.239   7.227  67.392  1.00  0.00    -0.565 OA 
HETATM   26  H2  UNL     1      -7.502   5.474  70.736  1.00  0.00     0.000 HD 
HETATM   27  H1  UNL     1      -7.028   4.927  69.185  1.00  0.00     0.000 HD 
HETATM   28  H   UNL     1     -11.181   6.465  66.826  1.00  0.00     0.000 HD 
BRANCH  23  29
HETATM   29  O   UNL     1      -9.314   5.124  67.830  1.00  0.00    -0.113 OA 
BRANCH  29  30
HETATM   30  C   UNL     1      -8.810   5.325  66.479  1.00  0.00    -0.116 C  
HETATM   31  O   UNL     1      -7.404   5.057  66.405  1.00  0.00    -0.082 OA 
HETATM   32  C   UNL     1      -7.117   3.662  66.600  1.00  0.00    -0.059 C  
HETATM   33  C   UNL     1      -7.666   2.870  65.413  1.00  0.00    -0.081 C  
HETATM   34  H   UNL     1     -11.452   4.270  64.795  1.00  0.00     0.000 HD 
HETATM   35  O   UNL     1      -7.348   1.481  65.518  1.00  0.00    -0.050 OA 
HETATM   36  C   UNL     1      -9.201   3.056  65.342  1.00  0.00    -0.141 C  
HETATM   37  H1  UNL     1     -10.746   2.492  64.096  1.00  0.00     0.000 HD 
HETATM   38  H2  UNL     1      -9.466   1.385  64.114  1.00  0.00     0.000 HD 
HETATM   39  C   UNL     1      -9.572   4.547  65.375  1.00  0.00    -0.179 C  
HETATM   40  N   UNL     1      -9.735   2.369  64.144  1.00  0.00    -0.141 NA 
HETATM   41  H   UNL     1      -7.689   0.989  64.780  1.00  0.00     0.000 HD 
HETATM   42  O   UNL     1     -10.985   4.746  65.471  1.00  0.00    -0.221 OA 
BRANCH  32  43
HETATM   43  C   UNL     1      -5.605   3.521  66.782  1.00  0.00    -0.022 C  
HETATM   44  O   UNL     1      -5.340   2.339  67.551  1.00  0.00    -0.015 OA 
HETATM   45  H   UNL     1      -4.400   2.252  67.664  1.00  0.00     0.000 HD 
ENDBRANCH  32  43
ENDBRANCH  29  30
ENDBRANCH  23  29
ENDBRANCH  14  15
ENDBRANCH   8  14
TORSDOF 6
ENDMDL
MODEL      182
REMARK 921   NORMALIZED FREE ENERGY PREDICTED BY IDOCK:   -4.27 KCAL/MOL
REMARK 922        TOTAL FREE ENERGY PREDICTED BY IDOCK:   -7.33 KCAL/MOL
REMARK 923 INTER-LIGAND FREE ENERGY PREDICTED BY IDOCK:   -6.89 KCAL/MOL
REMARK 924 INTRA-LIGAND FREE ENERGY PREDICTED BY IDOCK:   -0.44 KCAL/MOL
REMARK 927      BINDING AFFINITY PREDICTED BY RF-SCORE:    0.00 PKD
ROOT
HETATM    1  C   UNL     1      -9.574   7.485  66.871  1.00  0.00    -0.187 C  
HETATM    2  C   UNL     1      -8.565   6.636  66.088  1.00  0.00    -0.148 C  
HETATM    3  N   UNL     1      -9.422   7.098  68.291  1.00  0.00    -0.133 NA 
HETATM    4  H1  UNL     1     -10.093   7.662  68.811  1.00  0.00     0.000 HD 
HETATM    5  C   UNL     1      -8.362   7.111  64.667  1.00  0.00     0.048 C  
HETATM    6  H2  UNL     1      -8.466   7.185  68.635  1.00  0.00     0.000 HD 
HETATM    7  C   UNL     1      -8.198   8.628  64.583  1.00  0.00    -0.165 C  
HETATM    8  C   UNL     1      -9.536   9.044  66.579  1.00  0.00    -0.206 C  
HETATM    9  O   UNL     1      -9.281   9.338  65.204  1.00  0.00    -0.234 OA 
ENDROOT
BRANCH   7  10
HETATM   10  C   UNL     1      -8.181   9.011  63.078  1.00  0.00    -0.184 C  
HETATM   11  N   UNL     1      -9.516   9.030  62.479  1.00  0.00    -0.393 NA 
HETATM   12  H1  UNL     1      -9.504   9.282  61.491  1.00  0.00     0.000 HD 
HETATM   13  H2  UNL     1     -10.142   9.641  63.004  1.00  0.00     0.000 HD 
ENDBRANCH   7  10
BRANCH   8  14
HETATM   14  O   UNL     1      -8.667   9.709  67.496  1.00  0.00    -0.125 OA 
BRANCH  14  15
HETATM   15  C   UNL     1      -9.088  10.905  68.199  1.00  0.00    -0.155 C  
HETATM   16  C   UNL     1     -10.225  10.377  69.118  1.00  0.00    -0.222 C  
HETATM   17  N   UNL     1      -9.704   9.425  70.118  1.00  0.00    -0.218 NA 
HETATM   18  C   UNL     1     -11.000  11.420  69.898  1.00  0.00    -0.030 C  
HETATM   19  H2  UNL     1      -8.942   9.831  70.660  1.00  0.00     0.000 HD 
HETATM   20  H1  UNL     1     -10.450   9.079  70.721  1.00  0.00     0.000 HD 
HETATM   21  C   UNL     1     -11.497  12.572  69.039  1.00  0.00    -0.304 C  
HETATM   22  N   UNL     1     -12.248  13.429  69.972  1.00  0.00    -0.321 NA 
HETATM   23  C   UNL     1     -10.275  13.222  68.318  1.00  0.00    -0.250 C  
HETATM   24  C   UNL     1      -9.592  12.146  67.372  1.00  0.00    -0.177 C  
HETATM   25  O   UNL     1      -8.481  12.753  66.688  1.00  0.00    -0.401 OA 
HETATM   26  H2  UNL     1     -11.715  13.721  70.791  1.00  0.00     0.000 HD 
HETATM   27  H1  UNL     1     -12.582  14.203  69.396  1.00  0.00     0.000 HD 
HETATM   28  H   UNL     1      -8.785  13.503  66.189  1.00  0.00     0.000 HD 
BRANCH  23  29
HETATM   29  O   UNL     1     -10.618  14.457  67.612  1.00  0.00    -0.256 OA 
BRANCH  29  30
HETATM   30  C   UNL     1      -9.434  15.155  67.132  1.00  0.00    -0.216 C  
HETATM   31  O   UNL     1      -9.663  15.739  65.844  1.00  0.00    -0.310 OA 
HETATM   32  C   UNL     1     -10.610  16.820  65.911  1.00  0.00    -0.248 C  
HETATM   33  C   UNL     1      -9.990  17.978  66.693  1.00  0.00    -0.362 C  
HETATM   34  H   UNL     1      -8.323  16.307  70.025  1.00  0.00     0.000 HD 
HETATM   35  O   UNL     1     -10.860  19.110  66.731  1.00  0.00    -0.419 OA 
HETATM   36  C   UNL     1      -9.669  17.509  68.132  1.00  0.00    -0.302 C  
HETATM   37  H1  UNL     1      -8.774  18.283  69.822  1.00  0.00     0.000 HD 
HETATM   38  H2  UNL     1      -9.520  19.461  68.863  1.00  0.00     0.000 HD 
HETATM   39  C   UNL     1      -8.853  16.207  68.113  1.00  0.00    -0.184 C  
HETATM   40  N   UNL     1      -8.985  18.593  68.873  1.00  0.00    -0.240 NA 
HETATM   41  H   UNL     1     -10.475  19.830  67.217  1.00  0.00     0.000 HD 
HETATM   42  O   UNL     1      -8.678  15.663  69.424  1.00  0.00    -0.247 OA 
BRANCH  32  43
HETATM   43  C   UNL     1     -10.995  17.187  64.477  1.00  0.00     0.896 C  
HETATM   44  O   UNL     1     -11.541  16.027  63.833  1.00  0.00    -1.193 OA 
HETATM   45  H   UNL     1     -11.780  16.255  62.942  1.00  0.00     0.000 HD 
ENDBRANCH  32  43
ENDBRANCH  29  30
ENDBRANCH  23  29
ENDBRANCH  14  15
ENDBRANCH   8  14
TORSDOF 6
ENDMDL
MODEL      183
REMARK 921   NORMALIZED FREE ENERGY PREDICTED BY IDOCK:   -4.27 KCAL/MOL
REMARK 922        TOTAL FREE ENERGY PREDICTED BY IDOCK:   -7.32 KCAL/MOL
REMARK 923 INTER-LIGAND FREE ENERGY PREDICTED BY IDOCK:   -6.73 KCAL/MOL
REMARK 924 INTRA-LIGAND FREE ENERGY PREDICTED BY IDOCK:   -0.59 KCAL/MOL
REMARK 927      BINDING AFFINITY PREDICTED BY RF-SCORE:    0.00 PKD
ROOT
HETATM    1  C   UNL     1     -12.262  13.949  64.873  1.00  0.00    -0.422 C  
HETATM    2  C   UNL     1     -11.565  15.025  64.031  1.00  0.00     0.117 C  
HETATM    3  N   UNL     1     -12.204  12.703  64.077  1.00  0.00    -0.464 NA 
HETATM    4  H1  UNL     1     -12.668  11.988  64.637  1.00  0.00     0.000 HD 
HETATM    5  C   UNL     1     -11.258  16.284  64.809  1.00  0.00    -0.267 C  
HETATM    6  H2  UNL     1     -11.259  12.446  63.793  1.00  0.00     0.000 HD 
HETATM    7  C   UNL     1     -10.654  15.984  66.180  1.00  0.00    -0.297 C  
HETATM    8  C   UNL     1     -11.769  13.824  66.376  1.00  0.00    -0.379 C  
HETATM    9  O   UNL     1     -11.466  15.092  66.960  1.00  0.00    -0.344 OA 
ENDROOT
BRANCH   7  10
HETATM   10  C   UNL     1     -10.553  17.329  66.949  1.00  0.00    -0.213 C  
HETATM   11  N   UNL     1     -10.323  17.151  68.382  1.00  0.00    -0.340 NA 
HETATM   12  H1  UNL     1     -10.257  18.035  68.887  1.00  0.00     0.000 HD 
HETATM   13  H2  UNL     1      -9.500  16.573  68.550  1.00  0.00     0.000 HD 
ENDBRANCH   7  10
BRANCH   8  14
HETATM   14  O   UNL     1     -10.725  12.857  66.487  1.00  0.00    -0.265 OA 
BRANCH  14  15
HETATM   15  C   UNL     1     -10.156  12.508  67.774  1.00  0.00    -0.218 C  
HETATM   16  C   UNL     1      -8.628  12.611  67.508  1.00  0.00    -0.185 C  
HETATM   17  N   UNL     1      -8.232  13.998  67.199  1.00  0.00    -0.324 NA 
HETATM   18  C   UNL     1      -7.717  12.157  68.631  1.00  0.00    -0.089 C  
HETATM   19  H2  UNL     1      -8.530  14.645  67.929  1.00  0.00     0.000 HD 
HETATM   20  H1  UNL     1      -7.229  14.066  67.024  1.00  0.00     0.000 HD 
HETATM   21  C   UNL     1      -8.073  10.786  69.183  1.00  0.00    -0.131 C  
HETATM   22  N   UNL     1      -7.054  10.527  70.212  1.00  0.00    -0.419 NA 
HETATM   23  C   UNL     1      -9.560  10.808  69.657  1.00  0.00     0.175 C  
HETATM   24  C   UNL     1     -10.501  11.113  68.417  1.00  0.00    -0.188 C  
HETATM   25  O   UNL     1     -11.874  11.110  68.851  1.00  0.00    -0.318 OA 
HETATM   26  H2  UNL     1      -6.984  11.256  70.922  1.00  0.00     0.000 HD 
HETATM   27  H1  UNL     1      -7.293   9.607  70.583  1.00  0.00     0.000 HD 
HETATM   28  H   UNL     1     -12.082  10.267  69.239  1.00  0.00     0.000 HD 
BRANCH  23  29
HETATM   29  O   UNL     1      -9.950   9.596  70.376  1.00  0.00    -0.252 OA 
BRANCH  29  30
HETATM   30  C   UNL     1      -8.880   8.608  70.396  1.00  0.00    -0.157 C  
HETATM   31  O   UNL     1      -8.531   8.248  71.738  1.00  0.00    -0.130 OA 
HETATM   32  C   UNL     1      -9.589   7.519  72.385  1.00  0.00    -0.159 C  
HETATM   33  C   UNL     1      -9.742   6.157  71.707  1.00  0.00    -0.153 C  
HETATM   34  H   UNL     1      -9.720   6.902  67.692  1.00  0.00     0.000 HD 
HETATM   35  O   UNL     1     -10.734   5.357  72.353  1.00  0.00    -0.215 OA 
HETATM   36  C   UNL     1     -10.119   6.366  70.220  1.00  0.00    -0.181 C  
HETATM   37  H1  UNL     1     -10.429   5.196  68.549  1.00  0.00     0.000 HD 
HETATM   38  H2  UNL     1     -10.812   4.406  69.997  1.00  0.00     0.000 HD 
HETATM   39  C   UNL     1      -9.144   7.341  69.542  1.00  0.00    -0.143 C  
HETATM   40  N   UNL     1     -10.181   5.058  69.529  1.00  0.00    -0.236 NA 
HETATM   41  H   UNL     1     -10.829   4.511  71.932  1.00  0.00     0.000 HD 
HETATM   42  O   UNL     1      -9.558   7.678  68.215  1.00  0.00    -0.150 OA 
BRANCH  32  43
HETATM   43  C   UNL     1      -9.246   7.426  73.872  1.00  0.00    -0.265 C  
HETATM   44  O   UNL     1      -8.626   6.157  74.125  1.00  0.00    -0.115 OA 
HETATM   45  H   UNL     1      -8.413   6.100  75.050  1.00  0.00     0.000 HD 
ENDBRANCH  32  43
ENDBRANCH  29  30
ENDBRANCH  23  29
ENDBRANCH  14  15
ENDBRANCH   8  14
TORSDOF 6
ENDMDL
MODEL      184
REMARK 921   NORMALIZED FREE ENERGY PREDICTED BY IDOCK:   -4.23 KCAL/MOL
REMARK 922        TOTAL FREE ENERGY PREDICTED BY IDOCK:   -7.27 KCAL/MOL
REMARK 923 INTER-LIGAND FREE ENERGY PREDICTED BY IDOCK:   -5.71 KCAL/MOL
REMARK 924 INTRA-LIGAND FREE ENERGY PREDICTED BY IDOCK:   -1.56 KCAL/MOL
REMARK 927      BINDING AFFINITY PREDICTED BY RF-SCORE:    0.00 PKD
ROOT
HETATM    1  C   UNL     1      -6.608   7.105  72.020  1.00  0.00    -0.055 C  
HETATM    2  C   UNL     1      -7.718   6.197  71.477  1.00  0.00    -0.101 C  
HETATM    3  N   UNL     1      -5.330   6.470  71.632  1.00  0.00    -0.026 NA 
HETATM    4  H1  UNL     1      -4.592   7.074  71.993  1.00  0.00     0.000 HD 
HETATM    5  C   UNL     1      -9.085   6.841  71.510  1.00  0.00    -0.145 C  
HETATM    6  H2  UNL     1      -5.253   6.290  70.631  1.00  0.00     0.000 HD 
HETATM    7  C   UNL     1      -9.059   8.279  70.994  1.00  0.00    -0.158 C  
HETATM    8  C   UNL     1      -6.743   8.645  71.661  1.00  0.00    -0.083 C  
HETATM    9  O   UNL     1      -8.098   9.096  71.680  1.00  0.00    -0.346 OA 
ENDROOT
BRANCH   7  10
HETATM   10  C   UNL     1     -10.466   8.888  71.245  1.00  0.00    -0.287 C  
HETATM   11  N   UNL     1     -10.635  10.204  70.629  1.00  0.00    -0.404 NA 
HETATM   12  H1  UNL     1     -11.559  10.603  70.793  1.00  0.00     0.000 HD 
HETATM   13  H2  UNL     1     -10.426  10.168  69.631  1.00  0.00     0.000 HD 
ENDBRANCH   7  10
BRANCH   8  14
HETATM   14  O   UNL     1      -6.036   8.948  70.458  1.00  0.00    -0.030 OA 
BRANCH  14  15
HETATM   15  C   UNL     1      -6.733   9.120  69.199  1.00  0.00    -0.050 C  
HETATM   16  C   UNL     1      -5.803   8.387  68.193  1.00  0.00    -0.038 C  
HETATM   17  N   UNL     1      -5.740   6.941  68.481  1.00  0.00    -0.017 NA 
HETATM   18  C   UNL     1      -6.169   8.505  66.727  1.00  0.00    -0.055 C  
HETATM   19  H2  UNL     1      -6.670   6.523  68.506  1.00  0.00     0.000 HD 
HETATM   20  H1  UNL     1      -5.130   6.459  67.820  1.00  0.00     0.000 HD 
HETATM   21  C   UNL     1      -6.419   9.936  66.279  1.00  0.00    -0.077 C  
HETATM   22  N   UNL     1      -6.709   9.827  64.840  1.00  0.00    -0.105 NA 
HETATM   23  C   UNL     1      -7.537  10.554  67.176  1.00  0.00    -0.097 C  
HETATM   24  C   UNL     1      -7.046  10.575  68.685  1.00  0.00    -0.077 C  
HETATM   25  O   UNL     1      -8.068  11.167  69.508  1.00  0.00    -0.369 OA 
HETATM   26  H2  UNL     1      -7.468   9.183  64.616  1.00  0.00     0.000 HD 
HETATM   27  H1  UNL     1      -6.877  10.788  64.540  1.00  0.00     0.000 HD 
HETATM   28  H   UNL     1      -8.257  12.046  69.198  1.00  0.00     0.000 HD 
BRANCH  23  29
HETATM   29  O   UNL     1      -7.985  11.866  66.710  1.00  0.00    -0.153 OA 
BRANCH  29  30
HETATM   30  C   UNL     1      -9.098  11.760  65.777  1.00  0.00    -0.083 C  
HETATM   31  O   UNL     1      -9.704  10.463  65.837  1.00  0.00    -0.192 OA 
HETATM   32  C   UNL     1     -10.375  10.247  67.090  1.00  0.00    -0.238 C  
HETATM   33  C   UNL     1     -11.584  11.180  67.174  1.00  0.00     0.053 C  
HETATM   34  H   UNL     1     -10.241  14.854  66.005  1.00  0.00     0.000 HD 
HETATM   35  O   UNL     1     -12.334  10.960  68.370  1.00  0.00    -0.803 OA 
HETATM   36  C   UNL     1     -11.101  12.649  67.117  1.00  0.00    -0.280 C  
HETATM   37  H1  UNL     1     -11.947  14.529  67.067  1.00  0.00     0.000 HD 
HETATM   38  H2  UNL     1     -12.892  13.394  67.894  1.00  0.00     0.000 HD 
HETATM   39  C   UNL     1     -10.172  12.871  65.912  1.00  0.00    -0.290 C  
HETATM   40  N   UNL     1     -12.267  13.561  67.105  1.00  0.00    -0.332 NA 
HETATM   41  H   UNL     1     -13.085  11.539  68.423  1.00  0.00     0.000 HD 
HETATM   42  O   UNL     1      -9.583  14.174  65.922  1.00  0.00    -0.264 OA 
BRANCH  32  43
HETATM   43  C   UNL     1     -10.740   8.764  67.170  1.00  0.00    -0.134 C  
HETATM   44  O   UNL     1      -9.988   8.048  66.181  1.00  0.00    -0.469 OA 
HETATM   45  H   UNL     1     -10.215   7.127  66.230  1.00  0.00     0.000 HD 
ENDBRANCH  32  43
ENDBRANCH  29  30
ENDBRANCH  23  29
ENDBRANCH  14  15
ENDBRANCH   8  14
TORSDOF 6
ENDMDL
MODEL      185
REMARK 921   NORMALIZED FREE ENERGY PREDICTED BY IDOCK:   -4.22 KCAL/MOL
REMARK 922        TOTAL FREE ENERGY PREDICTED BY IDOCK:   -7.26 KCAL/MOL
REMARK 923 INTER-LIGAND FREE ENERGY PREDICTED BY IDOCK:   -7.34 KCAL/MOL
REMARK 924 INTRA-LIGAND FREE ENERGY PREDICTED BY IDOCK:    0.08 KCAL/MOL
REMARK 927      BINDING AFFINITY PREDICTED BY RF-SCORE:    0.00 PKD
ROOT
HETATM    1  C   UNL     1     -10.219   4.951  70.234  1.00  0.00    -0.229 C  
HETATM    2  C   UNL     1      -9.161   3.983  69.691  1.00  0.00    -0.217 C  
HETATM    3  N   UNL     1      -9.800   5.286  71.613  1.00  0.00    -0.164 NA 
HETATM    4  H1  UNL     1     -10.503   5.930  71.974  1.00  0.00     0.000 HD 
HETATM    5  C   UNL     1      -9.257   3.774  68.197  1.00  0.00    -0.214 C  
HETATM    6  H2  UNL     1      -8.849   5.650  71.671  1.00  0.00     0.000 HD 
HETATM    7  C   UNL     1      -9.440   5.088  67.439  1.00  0.00    -0.137 C  
HETATM    8  C   UNL     1     -10.561   6.190  69.303  1.00  0.00    -0.285 C  
HETATM    9  O   UNL     1     -10.561   5.850  67.916  1.00  0.00    -0.218 OA 
ENDROOT
BRANCH   7  10
HETATM   10  C   UNL     1      -9.707   4.733  65.950  1.00  0.00    -0.193 C  
HETATM   11  N   UNL     1     -11.118   4.472  65.671  1.00  0.00    -0.806 NA 
HETATM   12  H1  UNL     1     -11.293   4.239  64.693  1.00  0.00     0.000 HD 
HETATM   13  H2  UNL     1     -11.700   5.255  65.969  1.00  0.00     0.000 HD 
ENDBRANCH   7  10
BRANCH   8  14
HETATM   14  O   UNL     1      -9.746   7.314  69.637  1.00  0.00    -0.159 OA 
BRANCH  14  15
HETATM   15  C   UNL     1      -9.121   8.122  68.608  1.00  0.00    -0.143 C  
HETATM   16  C   UNL     1      -7.691   8.345  69.172  1.00  0.00    -0.092 C  
HETATM   17  N   UNL     1      -6.948   7.073  69.261  1.00  0.00    -0.071 NA 
HETATM   18  C   UNL     1      -6.800   9.295  68.397  1.00  0.00    -0.063 C  
HETATM   19  H2  UNL     1      -6.926   6.588  68.364  1.00  0.00     0.000 HD 
HETATM   20  H1  UNL     1      -6.009   7.219  69.632  1.00  0.00     0.000 HD 
HETATM   21  C   UNL     1      -7.465  10.626  68.082  1.00  0.00    -0.090 C  
HETATM   22  N   UNL     1      -6.428  11.398  67.378  1.00  0.00    -0.074 NA 
HETATM   23  C   UNL     1      -8.788  10.352  67.302  1.00  0.00    -0.132 C  
HETATM   24  C   UNL     1      -9.769   9.502  68.214  1.00  0.00    -0.147 C  
HETATM   25  O   UNL     1     -10.999   9.271  67.502  1.00  0.00    -0.457 OA 
HETATM   26  H2  UNL     1      -6.038  10.925  66.563  1.00  0.00     0.000 HD 
HETATM   27  H1  UNL     1      -6.874  12.291  67.167  1.00  0.00     0.000 HD 
HETATM   28  H   UNL     1     -11.390  10.104  67.265  1.00  0.00     0.000 HD 
BRANCH  23  29
HETATM   29  O   UNL     1      -9.412  11.571  66.787  1.00  0.00    -0.182 OA 
BRANCH  29  30
HETATM   30  C   UNL     1     -10.836  11.392  66.543  1.00  0.00    -0.283 C  
HETATM   31  O   UNL     1     -11.617  11.894  67.635  1.00  0.00    -0.363 OA 
HETATM   32  C   UNL     1     -11.533  13.326  67.734  1.00  0.00    -0.317 C  
HETATM   33  C   UNL     1     -12.224  13.951  66.522  1.00  0.00    -0.442 C  
HETATM   34  H   UNL     1     -10.852  11.889  63.274  1.00  0.00     0.000 HD 
HETATM   35  O   UNL     1     -12.235  15.377  66.601  1.00  0.00     0.258 OA 
HETATM   36  C   UNL     1     -11.497  13.499  65.232  1.00  0.00    -0.299 C  
HETATM   37  H1  UNL     1     -11.731  13.725  63.194  1.00  0.00     0.000 HD 
HETATM   38  H2  UNL     1     -12.329  15.035  64.084  1.00  0.00     0.000 HD 
HETATM   39  C   UNL     1     -11.346  11.970  65.197  1.00  0.00    -0.304 C  
HETATM   40  N   UNL     1     -12.210  14.023  64.044  1.00  0.00    -0.625 NA 
HETATM   41  H   UNL     1     -12.664  15.765  65.848  1.00  0.00     0.000 HD 
HETATM   42  O   UNL     1     -10.540  11.535  64.099  1.00  0.00    -0.306 OA 
BRANCH  32  43
HETATM   43  C   UNL     1     -12.157  13.734  69.070  1.00  0.00    -0.322 C  
HETATM   44  O   UNL     1     -11.534  14.946  69.520  1.00  0.00    -0.264 OA 
HETATM   45  H   UNL     1     -11.921  15.199  70.350  1.00  0.00     0.000 HD 
ENDBRANCH  32  43
ENDBRANCH  29  30
ENDBRANCH  23  29
ENDBRANCH  14  15
ENDBRANCH   8  14
TORSDOF 6
ENDMDL
MODEL      186
REMARK 921   NORMALIZED FREE ENERGY PREDICTED BY IDOCK:   -4.19 KCAL/MOL
REMARK 922        TOTAL FREE ENERGY PREDICTED BY IDOCK:   -7.22 KCAL/MOL
REMARK 923 INTER-LIGAND FREE ENERGY PREDICTED BY IDOCK:   -6.44 KCAL/MOL
REMARK 924 INTRA-LIGAND FREE ENERGY PREDICTED BY IDOCK:   -0.78 KCAL/MOL
REMARK 927      BINDING AFFINITY PREDICTED BY RF-SCORE:    0.00 PKD
ROOT
HETATM    1  C   UNL     1      -8.587  12.105  67.518  1.00  0.00    -0.171 C  
HETATM    2  C   UNL     1      -9.125  13.503  67.190  1.00  0.00    -0.232 C  
HETATM    3  N   UNL     1      -7.838  12.240  68.786  1.00  0.00    -0.302 NA 
HETATM    4  H1  UNL     1      -7.480  11.310  69.004  1.00  0.00     0.000 HD 
HETATM    5  C   UNL     1     -10.169  13.499  66.096  1.00  0.00    -0.303 C  
HETATM    6  H2  UNL     1      -8.387  12.650  69.541  1.00  0.00     0.000 HD 
HETATM    7  C   UNL     1     -11.204  12.391  66.289  1.00  0.00    -0.317 C  
HETATM    8  C   UNL     1      -9.653  10.930  67.475  1.00  0.00    -0.155 C  
HETATM    9  O   UNL     1     -10.606  11.092  66.424  1.00  0.00    -0.252 OA 
ENDROOT
BRANCH   7  10
HETATM   10  C   UNL     1     -12.104  12.371  65.024  1.00  0.00    -0.407 C  
HETATM   11  N   UNL     1     -12.003  13.597  64.232  1.00  0.00    -0.429 NA 
HETATM   12  H1  UNL     1     -12.594  13.583  63.401  1.00  0.00     0.000 HD 
HETATM   13  H2  UNL     1     -11.032  13.792  63.986  1.00  0.00     0.000 HD 
ENDBRANCH   7  10
BRANCH   8  14
HETATM   14  O   UNL     1     -10.227  10.721  68.766  1.00  0.00    -0.176 OA 
BRANCH  14  15
HETATM   15  C   UNL     1     -10.556   9.390  69.237  1.00  0.00    -0.225 C  
HETATM   16  C   UNL     1     -11.155   9.666  70.644  1.00  0.00    -0.319 C  
HETATM   17  N   UNL     1     -12.411  10.434  70.548  1.00  0.00    -0.346 NA 
HETATM   18  C   UNL     1     -11.472   8.450  71.492  1.00  0.00    -0.335 C  
HETATM   19  H2  UNL     1     -13.085   9.975  69.937  1.00  0.00     0.000 HD 
HETATM   20  H1  UNL     1     -12.804  10.615  71.472  1.00  0.00     0.000 HD 
HETATM   21  C   UNL     1     -10.323   7.459  71.584  1.00  0.00    -0.196 C  
HETATM   22  N   UNL     1     -10.821   6.398  72.473  1.00  0.00    -0.227 NA 
HETATM   23  C   UNL     1      -9.914   7.031  70.140  1.00  0.00    -0.182 C  
HETATM   24  C   UNL     1      -9.418   8.306  69.336  1.00  0.00    -0.159 C  
HETATM   25  O   UNL     1      -9.018   7.906  68.012  1.00  0.00    -0.128 OA 
HETATM   26  H2  UNL     1     -11.704   5.984  72.173  1.00  0.00     0.000 HD 
HETATM   27  H1  UNL     1     -10.050   5.733  72.535  1.00  0.00     0.000 HD 
HETATM   28  H   UNL     1      -8.332   7.251  68.071  1.00  0.00     0.000 HD 
BRANCH  23  29
HETATM   29  O   UNL     1      -8.941   5.939  70.121  1.00  0.00    -0.139 OA 
BRANCH  29  30
HETATM   30  C   UNL     1      -9.566   4.659  69.820  1.00  0.00    -0.188 C  
HETATM   31  O   UNL     1     -10.476   4.773  68.718  1.00  0.00    -0.009 OA 
HETATM   32  C   UNL     1      -9.787   5.039  67.484  1.00  0.00    -0.165 C  
HETATM   33  C   UNL     1      -8.959   3.811  67.102  1.00  0.00    -0.143 C  
HETATM   34  H   UNL     1      -7.011   2.677  70.507  1.00  0.00     0.000 HD 
HETATM   35  O   UNL     1      -8.305   3.991  65.845  1.00  0.00    -0.108 OA 
HETATM   36  C   UNL     1      -7.911   3.538  68.208  1.00  0.00    -0.067 C  
HETATM   37  H1  UNL     1      -6.472   2.120  68.624  1.00  0.00     0.000 HD 
HETATM   38  H2  UNL     1      -6.741   2.330  66.966  1.00  0.00     0.000 HD 
HETATM   39  C   UNL     1      -8.578   3.486  69.591  1.00  0.00    -0.067 C  
HETATM   40  N   UNL     1      -7.162   2.300  67.895  1.00  0.00    -0.047 NA 
HETATM   41  H   UNL     1      -7.791   3.228  65.607  1.00  0.00     0.000 HD 
HETATM   42  O   UNL     1      -7.617   3.395  70.647  1.00  0.00    -0.040 OA 
BRANCH  32  43
HETATM   43  C   UNL     1     -10.838   5.416  66.440  1.00  0.00    -0.131 C  
HETATM   44  O   UNL     1     -11.127   6.816  66.560  1.00  0.00    -0.480 OA 
HETATM   45  H   UNL     1     -11.780   7.051  65.911  1.00  0.00     0.000 HD 
ENDBRANCH  32  43
ENDBRANCH  29  30
ENDBRANCH  23  29
ENDBRANCH  14  15
ENDBRANCH   8  14
TORSDOF 6
ENDMDL
MODEL      187
REMARK 921   NORMALIZED FREE ENERGY PREDICTED BY IDOCK:   -4.18 KCAL/MOL
REMARK 922        TOTAL FREE ENERGY PREDICTED BY IDOCK:   -7.20 KCAL/MOL
REMARK 923 INTER-LIGAND FREE ENERGY PREDICTED BY IDOCK:   -5.55 KCAL/MOL
REMARK 924 INTRA-LIGAND FREE ENERGY PREDICTED BY IDOCK:   -1.64 KCAL/MOL
REMARK 927      BINDING AFFINITY PREDICTED BY RF-SCORE:    0.00 PKD
ROOT
HETATM    1  C   UNL     1      -9.743  14.510  67.419  1.00  0.00    -0.222 C  
HETATM    2  C   UNL     1     -11.126  15.065  67.057  1.00  0.00    -0.334 C  
HETATM    3  N   UNL     1      -9.410  15.069  68.748  1.00  0.00    -0.194 NA 
HETATM    4  H1  UNL     1      -8.490  14.700  68.988  1.00  0.00     0.000 HD 
HETATM    5  C   UNL     1     -11.760  14.363  65.879  1.00  0.00    -0.371 C  
HETATM    6  H2  UNL     1     -10.120  14.884  69.456  1.00  0.00     0.000 HD 
HETATM    7  C   UNL     1     -11.633  12.843  65.975  1.00  0.00    -0.375 C  
HETATM    8  C   UNL     1      -9.574  12.938  67.278  1.00  0.00    -0.220 C  
HETATM    9  O   UNL     1     -10.274  12.411  66.150  1.00  0.00    -0.233 OA 
ENDROOT
BRANCH   7  10
HETATM   10  C   UNL     1     -12.152  12.248  64.637  1.00  0.00    -0.374 C  
HETATM   11  N   UNL     1     -11.219  12.440  63.528  1.00  0.00    -0.530 NA 
HETATM   12  H1  UNL     1     -11.560  12.049  62.649  1.00  0.00     0.000 HD 
HETATM   13  H2  UNL     1     -10.296  12.070  63.758  1.00  0.00     0.000 HD 
ENDBRANCH   7  10
BRANCH   8  14
HETATM   14  O   UNL     1      -9.866  12.285  68.513  1.00  0.00    -0.207 OA 
BRANCH  14  15
HETATM   15  C   UNL     1      -9.046  11.192  68.999  1.00  0.00    -0.023 C  
HETATM   16  C   UNL     1      -7.607  11.670  68.660  1.00  0.00    -0.133 C  
HETATM   17  N   UNL     1      -7.251  12.878  69.429  1.00  0.00    -0.314 NA 
HETATM   18  C   UNL     1      -6.490  10.675  68.906  1.00  0.00    -0.049 C  
HETATM   19  H2  UNL     1      -7.373  12.734  70.431  1.00  0.00     0.000 HD 
HETATM   20  H1  UNL     1      -6.307  13.193  69.207  1.00  0.00     0.000 HD 
HETATM   21  C   UNL     1      -6.756   9.306  68.300  1.00  0.00    -0.060 C  
HETATM   22  N   UNL     1      -5.548   8.524  68.613  1.00  0.00    -0.036 NA 
HETATM   23  C   UNL     1      -8.108   8.764  68.861  1.00  0.00    -0.114 C  
HETATM   24  C   UNL     1      -9.282   9.742  68.432  1.00  0.00    -0.130 C  
HETATM   25  O   UNL     1     -10.532   9.228  68.929  1.00  0.00    -0.210 OA 
HETATM   26  H2  UNL     1      -5.313   8.502  69.605  1.00  0.00     0.000 HD 
HETATM   27  H1  UNL     1      -5.726   7.606  68.207  1.00  0.00     0.000 HD 
HETATM   28  H   UNL     1     -10.674   8.353  68.587  1.00  0.00     0.000 HD 
BRANCH  23  29
HETATM   29  O   UNL     1      -8.366   7.374  68.486  1.00  0.00    -0.124 OA 
BRANCH  29  30
HETATM   30  C   UNL     1      -8.210   7.159  67.055  1.00  0.00    -0.117 C  
HETATM   31  O   UNL     1      -7.084   6.316  66.777  1.00  0.00    -0.069 OA 
HETATM   32  C   UNL     1      -7.303   4.970  67.235  1.00  0.00    -0.082 C  
HETATM   33  C   UNL     1      -8.408   4.331  66.394  1.00  0.00    -0.105 C  
HETATM   34  H   UNL     1     -11.404   7.100  66.203  1.00  0.00     0.000 HD 
HETATM   35  O   UNL     1      -8.621   2.966  66.758  1.00  0.00    -0.096 OA 
HETATM   36  C   UNL     1      -9.718   5.136  66.577  1.00  0.00    -0.171 C  
HETATM   37  H1  UNL     1     -11.636   5.114  65.818  1.00  0.00     0.000 HD 
HETATM   38  H2  UNL     1     -10.913   3.583  65.849  1.00  0.00     0.000 HD 
HETATM   39  C   UNL     1      -9.477   6.634  66.330  1.00  0.00    -0.123 C  
HETATM   40  N   UNL     1     -10.773   4.583  65.698  1.00  0.00    -0.236 NA 
HETATM   41  H   UNL     1      -9.308   2.569  66.235  1.00  0.00     0.000 HD 
HETATM   42  O   UNL     1     -10.628   7.422  66.646  1.00  0.00    -0.257 OA 
BRANCH  32  43
HETATM   43  C   UNL     1      -5.967   4.231  67.151  1.00  0.00    -0.024 C  
HETATM   44  O   UNL     1      -5.951   3.191  68.139  1.00  0.00    -0.023 OA 
HETATM   45  H   UNL     1      -5.120   2.731  68.087  1.00  0.00     0.000 HD 
ENDBRANCH  32  43
ENDBRANCH  29  30
ENDBRANCH  23  29
ENDBRANCH  14  15
ENDBRANCH   8  14
TORSDOF 6
ENDMDL
MODEL      188
REMARK 921   NORMALIZED FREE ENERGY PREDICTED BY IDOCK:   -4.17 KCAL/MOL
REMARK 922        TOTAL FREE ENERGY PREDICTED BY IDOCK:   -7.18 KCAL/MOL
REMARK 923 INTER-LIGAND FREE ENERGY PREDICTED BY IDOCK:   -6.95 KCAL/MOL
REMARK 924 INTRA-LIGAND FREE ENERGY PREDICTED BY IDOCK:   -0.23 KCAL/MOL
REMARK 927      BINDING AFFINITY PREDICTED BY RF-SCORE:    0.00 PKD
ROOT
HETATM    1  C   UNL     1     -10.968  14.643  69.467  1.00  0.00    -0.245 C  
HETATM    2  C   UNL     1     -11.908  15.774  69.035  1.00  0.00    -0.367 C  
HETATM    3  N   UNL     1     -11.827  13.603  70.075  1.00  0.00    -0.388 NA 
HETATM    4  H1  UNL     1     -11.202  12.851  70.362  1.00  0.00     0.000 HD 
HETATM    5  C   UNL     1     -11.248  16.782  68.122  1.00  0.00    -0.154 C  
HETATM    6  H2  UNL     1     -12.583  13.292  69.464  1.00  0.00     0.000 HD 
HETATM    7  C   UNL     1     -10.426  16.113  67.021  1.00  0.00    -0.306 C  
HETATM    8  C   UNL     1      -9.954  14.130  68.359  1.00  0.00    -0.235 C  
HETATM    9  O   UNL     1      -9.457  15.188  67.539  1.00  0.00    -0.203 OA 
ENDROOT
BRANCH   7  10
HETATM   10  C   UNL     1      -9.658  17.234  66.268  1.00  0.00    -0.248 C  
HETATM   11  N   UNL     1     -10.507  17.985  65.345  1.00  0.00    -0.564 NA 
HETATM   12  H1  UNL     1     -10.002  18.721  64.851  1.00  0.00     0.000 HD 
HETATM   13  H2  UNL     1     -11.324  18.363  65.826  1.00  0.00     0.000 HD 
ENDBRANCH   7  10
BRANCH   8  14
HETATM   14  O   UNL     1     -10.510  13.032  67.635  1.00  0.00    -0.221 OA 
BRANCH  14  15
HETATM   15  C   UNL     1      -9.681  11.932  67.181  1.00  0.00    -0.185 C  
HETATM   16  C   UNL     1      -9.959  11.904  65.653  1.00  0.00    -0.241 C  
HETATM   17  N   UNL     1      -9.474  13.135  65.000  1.00  0.00    -0.306 NA 
HETATM   18  C   UNL     1      -9.351  10.752  64.878  1.00  0.00    -0.261 C  
HETATM   19  H2  UNL     1      -8.488  13.302  65.199  1.00  0.00     0.000 HD 
HETATM   20  H1  UNL     1      -9.657  13.117  63.996  1.00  0.00     0.000 HD 
HETATM   21  C   UNL     1      -9.628   9.392  65.498  1.00  0.00    -0.258 C  
HETATM   22  N   UNL     1      -8.997   8.432  64.578  1.00  0.00    -0.352 NA 
HETATM   23  C   UNL     1      -9.111   9.398  66.970  1.00  0.00    -0.134 C  
HETATM   24  C   UNL     1      -9.898  10.500  67.798  1.00  0.00    -0.165 C  
HETATM   25  O   UNL     1      -9.437  10.487  69.161  1.00  0.00    -0.195 OA 
HETATM   26  H2  UNL     1      -8.009   8.614  64.400  1.00  0.00     0.000 HD 
HETATM   27  H1  UNL     1      -9.183   7.519  64.993  1.00  0.00     0.000 HD 
HETATM   28  H   UNL     1      -9.568   9.623  69.534  1.00  0.00     0.000 HD 
BRANCH  23  29
HETATM   29  O   UNL     1      -9.160   8.078  67.599  1.00  0.00    -0.137 OA 
BRANCH  29  30
HETATM   30  C   UNL     1      -8.817   8.137  69.013  1.00  0.00    -0.144 C  
HETATM   31  O   UNL     1      -9.964   7.890  69.836  1.00  0.00    -0.187 OA 
HETATM   32  C   UNL     1     -10.418   6.530  69.720  1.00  0.00    -0.211 C  
HETATM   33  C   UNL     1      -9.369   5.600  70.329  1.00  0.00    -0.152 C  
HETATM   34  H   UNL     1      -5.776   6.850  68.845  1.00  0.00     0.000 HD 
HETATM   35  O   UNL     1      -9.799   4.238  70.307  1.00  0.00    -0.200 OA 
HETATM   36  C   UNL     1      -8.041   5.748  69.549  1.00  0.00    -0.108 C  
HETATM   37  H1  UNL     1      -6.114   5.019  69.670  1.00  0.00     0.000 HD 
HETATM   38  H2  UNL     1      -7.273   3.946  70.278  1.00  0.00     0.000 HD 
HETATM   39  C   UNL     1      -7.635   7.226  69.437  1.00  0.00    -0.097 C  
HETATM   40  N   UNL     1      -6.990   4.921  70.185  1.00  0.00    -0.047 NA 
HETATM   41  H   UNL     1      -9.147   3.660  70.686  1.00  0.00     0.000 HD 
HETATM   42  O   UNL     1      -6.500   7.408  68.586  1.00  0.00    -0.041 OA 
BRANCH  32  43
HETATM   43  C   UNL     1     -11.785   6.440  70.401  1.00  0.00    -0.321 C  
HETATM   44  O   UNL     1     -11.788   7.301  71.548  1.00  0.00    -0.275 OA 
HETATM   45  H   UNL     1     -12.636   7.244  71.971  1.00  0.00     0.000 HD 
ENDBRANCH  32  43
ENDBRANCH  29  30
ENDBRANCH  23  29
ENDBRANCH  14  15
ENDBRANCH   8  14
TORSDOF 6
ENDMDL
MODEL      189
REMARK 921   NORMALIZED FREE ENERGY PREDICTED BY IDOCK:   -4.16 KCAL/MOL
REMARK 922        TOTAL FREE ENERGY PREDICTED BY IDOCK:   -7.18 KCAL/MOL
REMARK 923 INTER-LIGAND FREE ENERGY PREDICTED BY IDOCK:   -6.88 KCAL/MOL
REMARK 924 INTRA-LIGAND FREE ENERGY PREDICTED BY IDOCK:   -0.30 KCAL/MOL
REMARK 927      BINDING AFFINITY PREDICTED BY RF-SCORE:    0.00 PKD
ROOT
HETATM    1  C   UNL     1     -10.725  12.638  65.687  1.00  0.00    -0.269 C  
HETATM    2  C   UNL     1     -10.422  14.141  65.666  1.00  0.00    -0.333 C  
HETATM    3  N   UNL     1      -9.670  11.994  64.873  1.00  0.00    -0.423 NA 
HETATM    4  H1  UNL     1      -9.872  10.995  64.887  1.00  0.00     0.000 HD 
HETATM    5  C   UNL     1     -11.211  14.923  66.691  1.00  0.00    -0.340 C  
HETATM    6  H2  UNL     1      -8.724  12.222  65.180  1.00  0.00     0.000 HD 
HETATM    7  C   UNL     1     -11.217  14.242  68.058  1.00  0.00    -0.280 C  
HETATM    8  C   UNL     1     -10.963  12.004  67.122  1.00  0.00    -0.270 C  
HETATM    9  O   UNL     1     -11.674  12.881  67.997  1.00  0.00    -0.321 OA 
ENDROOT
BRANCH   7  10
HETATM   10  C   UNL     1     -12.198  15.031  68.967  1.00  0.00    -0.125 C  
HETATM   11  N   UNL     1     -12.752  14.218  70.050  1.00  0.00    -0.466 NA 
HETATM   12  H1  UNL     1     -13.396  14.738  70.646  1.00  0.00     0.000 HD 
HETATM   13  H2  UNL     1     -12.008  13.790  70.601  1.00  0.00     0.000 HD 
ENDBRANCH   7  10
BRANCH   8  14
HETATM   14  O   UNL     1      -9.742  11.495  67.659  1.00  0.00    -0.170 OA 
BRANCH  14  15
HETATM   15  C   UNL     1      -9.685  10.196  68.300  1.00  0.00    -0.141 C  
HETATM   16  C   UNL     1      -9.771  10.557  69.809  1.00  0.00     0.035 C  
HETATM   17  N   UNL     1     -11.073  11.168  70.139  1.00  0.00    -0.479 NA 
HETATM   18  C   UNL     1      -9.586   9.415  70.788  1.00  0.00    -0.322 C  
HETATM   19  H2  UNL     1     -11.849  10.573  69.851  1.00  0.00     0.000 HD 
HETATM   20  H1  UNL     1     -11.129  11.405  71.129  1.00  0.00     0.000 HD 
HETATM   21  C   UNL     1      -8.351   8.573  70.508  1.00  0.00    -0.135 C  
HETATM   22  N   UNL     1      -8.340   7.567  71.583  1.00  0.00    -0.106 NA 
HETATM   23  C   UNL     1      -8.433   8.035  69.045  1.00  0.00    -0.130 C  
HETATM   24  C   UNL     1      -8.447   9.260  68.037  1.00  0.00    -0.120 C  
HETATM   25  O   UNL     1      -8.497   8.763  66.687  1.00  0.00    -0.105 OA 
HETATM   26  H2  UNL     1      -9.203   7.028  71.658  1.00  0.00     0.000 HD 
HETATM   27  H1  UNL     1      -7.512   7.002  71.395  1.00  0.00     0.000 HD 
HETATM   28  H   UNL     1      -7.750   8.198  66.528  1.00  0.00     0.000 HD 
BRANCH  23  29
HETATM   29  O   UNL     1      -7.387   7.061  68.734  1.00  0.00    -0.088 OA 
BRANCH  29  30
HETATM   30  C   UNL     1      -7.905   5.700  68.699  1.00  0.00    -0.096 C  
HETATM   31  O   UNL     1      -9.211   5.627  69.284  1.00  0.00    -0.115 OA 
HETATM   32  C   UNL     1     -10.190   6.314  68.485  1.00  0.00    -0.176 C  
HETATM   33  C   UNL     1     -10.376   5.559  67.168  1.00  0.00    -0.248 C  
HETATM   34  H   UNL     1      -6.612   4.744  65.810  1.00  0.00     0.000 HD 
HETATM   35  O   UNL     1     -11.391   6.157  66.360  1.00  0.00    -0.715 OA 
HETATM   36  C   UNL     1      -9.033   5.538  66.398  1.00  0.00    -0.131 C  
HETATM   37  H1  UNL     1      -8.290   4.719  64.657  1.00  0.00     0.000 HD 
HETATM   38  H2  UNL     1      -9.947   5.058  64.580  1.00  0.00     0.000 HD 
HETATM   39  C   UNL     1      -7.895   5.033  67.299  1.00  0.00    -0.096 C  
HETATM   40  N   UNL     1      -9.175   4.733  65.164  1.00  0.00    -0.155 NA 
HETATM   41  H   UNL     1     -11.507   5.688  65.542  1.00  0.00     0.000 HD 
HETATM   42  O   UNL     1      -6.618   5.153  66.668  1.00  0.00    -0.046 OA 
BRANCH  32  43
HETATM   43  C   UNL     1     -11.471   6.421  69.314  1.00  0.00    -0.248 C  
HETATM   44  O   UNL     1     -11.126   6.383  70.706  1.00  0.00    -0.269 OA 
HETATM   45  H   UNL     1     -11.922   6.449  71.220  1.00  0.00     0.000 HD 
ENDBRANCH  32  43
ENDBRANCH  29  30
ENDBRANCH  23  29
ENDBRANCH  14  15
ENDBRANCH   8  14
TORSDOF 6
ENDMDL
MODEL      190
REMARK 921   NORMALIZED FREE ENERGY PREDICTED BY IDOCK:   -4.14 KCAL/MOL
REMARK 922        TOTAL FREE ENERGY PREDICTED BY IDOCK:   -7.15 KCAL/MOL
REMARK 923 INTER-LIGAND FREE ENERGY PREDICTED BY IDOCK:   -6.95 KCAL/MOL
REMARK 924 INTRA-LIGAND FREE ENERGY PREDICTED BY IDOCK:   -0.20 KCAL/MOL
REMARK 927      BINDING AFFINITY PREDICTED BY RF-SCORE:    0.00 PKD
ROOT
HETATM    1  C   UNL     1     -11.295  12.411  67.498  1.00  0.00    -0.315 C  
HETATM    2  C   UNL     1     -10.445  13.674  67.320  1.00  0.00    -0.260 C  
HETATM    3  N   UNL     1     -10.505  11.299  66.926  1.00  0.00    -0.234 NA 
HETATM    4  H1  UNL     1     -11.070  10.459  67.045  1.00  0.00     0.000 HD 
HETATM    5  C   UNL     1     -10.955  14.853  68.117  1.00  0.00    -0.276 C  
HETATM    6  H2  UNL     1      -9.569  11.218  67.324  1.00  0.00     0.000 HD 
HETATM    7  C   UNL     1     -11.321  14.468  69.549  1.00  0.00    -0.275 C  
HETATM    8  C   UNL     1     -11.863  12.164  68.960  1.00  0.00    -0.306 C  
HETATM    9  O   UNL     1     -12.253  13.376  69.608  1.00  0.00    -0.291 OA 
ENDROOT
BRANCH   7  10
HETATM   10  C   UNL     1     -11.996  15.703  70.206  1.00  0.00    -0.374 C  
HETATM   11  N   UNL     1     -13.435  15.531  70.398  1.00  0.00    -0.780 NA 
HETATM   12  H1  UNL     1     -13.878  16.343  70.829  1.00  0.00     0.000 HD 
HETATM   13  H2  UNL     1     -13.634  14.683  70.928  1.00  0.00     0.000 HD 
ENDBRANCH   7  10
BRANCH   8  14
HETATM   14  O   UNL     1     -10.969  11.349  69.718  1.00  0.00    -0.181 OA 
BRANCH  14  15
HETATM   15  C   UNL     1     -11.308   9.983  70.066  1.00  0.00    -0.275 C  
HETATM   16  C   UNL     1     -11.864  10.127  71.510  1.00  0.00    -0.272 C  
HETATM   17  N   UNL     1     -13.108  10.920  71.526  1.00  0.00    -0.415 NA 
HETATM   18  C   UNL     1     -12.180   8.839  72.243  1.00  0.00    -0.429 C  
HETATM   19  H2  UNL     1     -13.807  10.534  70.892  1.00  0.00     0.000 HD 
HETATM   20  H1  UNL     1     -13.473  11.015  72.474  1.00  0.00     0.000 HD 
HETATM   21  C   UNL     1     -11.046   7.827  72.204  1.00  0.00    -0.279 C  
HETATM   22  N   UNL     1     -11.539   6.690  72.999  1.00  0.00    -0.480 NA 
HETATM   23  C   UNL     1     -10.685   7.537  70.714  1.00  0.00    -0.229 C  
HETATM   24  C   UNL     1     -10.188   8.877  70.024  1.00  0.00    -0.199 C  
HETATM   25  O   UNL     1      -9.832   8.604  68.657  1.00  0.00    -0.161 OA 
HETATM   26  H2  UNL     1     -12.437   6.321  72.685  1.00  0.00     0.000 HD 
HETATM   27  H1  UNL     1     -10.779   6.011  72.973  1.00  0.00     0.000 HD 
HETATM   28  H   UNL     1      -9.156   7.936  68.632  1.00  0.00     0.000 HD 
BRANCH  23  29
HETATM   29  O   UNL     1      -9.732   6.437  70.559  1.00  0.00    -0.168 OA 
BRANCH  29  30
HETATM   30  C   UNL     1      -8.488   6.878  69.946  1.00  0.00    -0.140 C  
HETATM   31  O   UNL     1      -7.670   7.588  70.884  1.00  0.00    -0.087 OA 
HETATM   32  C   UNL     1      -7.173   6.721  71.919  1.00  0.00    -0.080 C  
HETATM   33  C   UNL     1      -6.185   5.728  71.305  1.00  0.00    -0.039 C  
HETATM   34  H   UNL     1      -7.985   4.309  67.925  1.00  0.00     0.000 HD 
HETATM   35  O   UNL     1      -5.604   4.884  72.301  1.00  0.00    -0.007 OA 
HETATM   36  C   UNL     1      -6.917   4.869  70.246  1.00  0.00    -0.048 C  
HETATM   37  H1  UNL     1      -6.435   3.399  68.881  1.00  0.00     0.000 HD 
HETATM   38  H2  UNL     1      -5.437   3.393  70.249  1.00  0.00     0.000 HD 
HETATM   39  C   UNL     1      -7.671   5.760  69.246  1.00  0.00    -0.089 C  
HETATM   40  N   UNL     1      -5.952   3.965  69.579  1.00  0.00    -0.022 NA 
HETATM   41  H   UNL     1      -4.990   4.268  71.920  1.00  0.00     0.000 HD 
HETATM   42  O   UNL     1      -8.485   4.995  68.354  1.00  0.00    -0.095 OA 
BRANCH  32  43
HETATM   43  C   UNL     1      -6.558   7.603  73.006  1.00  0.00    -0.068 C  
HETATM   44  O   UNL     1      -6.463   6.844  74.219  1.00  0.00    -0.075 OA 
HETATM   45  H   UNL     1      -6.081   7.393  74.895  1.00  0.00     0.000 HD 
ENDBRANCH  32  43
ENDBRANCH  29  30
ENDBRANCH  23  29
ENDBRANCH  14  15
ENDBRANCH   8  14
TORSDOF 6
ENDMDL
MODEL      191
REMARK 921   NORMALIZED FREE ENERGY PREDICTED BY IDOCK:   -4.14 KCAL/MOL
REMARK 922        TOTAL FREE ENERGY PREDICTED BY IDOCK:   -7.14 KCAL/MOL
REMARK 923 INTER-LIGAND FREE ENERGY PREDICTED BY IDOCK:   -7.29 KCAL/MOL
REMARK 924 INTRA-LIGAND FREE ENERGY PREDICTED BY IDOCK:    0.14 KCAL/MOL
REMARK 927      BINDING AFFINITY PREDICTED BY RF-SCORE:    0.00 PKD
ROOT
HETATM    1  C   UNL     1     -11.643  13.714  66.663  1.00  0.00    -0.364 C  
HETATM    2  C   UNL     1     -11.488  14.514  65.364  1.00  0.00    -0.348 C  
HETATM    3  N   UNL     1     -12.266  12.427  66.282  1.00  0.00    -0.583 NA 
HETATM    4  H1  UNL     1     -12.369  11.896  67.145  1.00  0.00     0.000 HD 
HETATM    5  C   UNL     1     -10.594  15.724  65.512  1.00  0.00    -0.424 C  
HETATM    6  H2  UNL     1     -11.752  11.927  65.556  1.00  0.00     0.000 HD 
HETATM    7  C   UNL     1      -9.313  15.405  66.281  1.00  0.00    -0.316 C  
HETATM    8  C   UNL     1     -10.341  13.604  67.563  1.00  0.00    -0.241 C  
HETATM    9  O   UNL     1      -9.570  14.806  67.561  1.00  0.00    -0.205 OA 
ENDROOT
BRANCH   7  10
HETATM   10  C   UNL     1      -8.572  16.748  66.526  1.00  0.00    -0.277 C  
HETATM   11  N   UNL     1      -9.415  17.755  67.169  1.00  0.00    -0.260 NA 
HETATM   12  H1  UNL     1      -8.927  18.637  67.330  1.00  0.00     0.000 HD 
HETATM   13  H2  UNL     1      -9.815  17.396  68.036  1.00  0.00     0.000 HD 
ENDBRANCH   7  10
BRANCH   8  14
HETATM   14  O   UNL     1      -9.602  12.426  67.239  1.00  0.00    -0.193 OA 
BRANCH  14  15
HETATM   15  C   UNL     1      -9.486  11.328  68.179  1.00  0.00    -0.184 C  
HETATM   16  C   UNL     1      -7.948  11.156  68.314  1.00  0.00    -0.127 C  
HETATM   17  N   UNL     1      -7.330  12.346  68.930  1.00  0.00    -0.249 NA 
HETATM   18  C   UNL     1      -7.470   9.969  69.126  1.00  0.00    -0.092 C  
HETATM   19  H2  UNL     1      -7.762  12.571  69.826  1.00  0.00     0.000 HD 
HETATM   20  H1  UNL     1      -6.320  12.233  69.018  1.00  0.00     0.000 HD 
HETATM   21  C   UNL     1      -8.122   8.657  68.721  1.00  0.00    -0.116 C  
HETATM   22  N   UNL     1      -7.493   7.649  69.590  1.00  0.00    -0.089 NA 
HETATM   23  C   UNL     1      -9.671   8.812  68.832  1.00  0.00    -0.172 C  
HETATM   24  C   UNL     1     -10.157   9.946  67.835  1.00  0.00    -0.173 C  
HETATM   25  O   UNL     1     -11.589  10.071  67.921  1.00  0.00    -0.629 OA 
HETATM   26  H2  UNL     1      -7.562   7.857  70.586  1.00  0.00     0.000 HD 
HETATM   27  H1  UNL     1      -7.930   6.768  69.318  1.00  0.00     0.000 HD 
HETATM   28  H   UNL     1     -11.994   9.237  67.713  1.00  0.00     0.000 HD 
BRANCH  23  29
HETATM   29  O   UNL     1     -10.387   7.550  68.644  1.00  0.00    -0.194 OA 
BRANCH  29  30
HETATM   30  C   UNL     1     -11.263   7.250  69.768  1.00  0.00    -0.126 C  
HETATM   31  O   UNL     1     -11.278   5.845  70.053  1.00  0.00    -0.364 OA 
HETATM   32  C   UNL     1     -10.012   5.393  70.563  1.00  0.00    -0.221 C  
HETATM   33  C   UNL     1      -9.784   6.007  71.945  1.00  0.00    -0.153 C  
HETATM   34  H   UNL     1     -10.715   9.966  71.573  1.00  0.00     0.000 HD 
HETATM   35  O   UNL     1      -8.571   5.536  72.534  1.00  0.00    -0.121 OA 
HETATM   36  C   UNL     1      -9.746   7.549  71.818  1.00  0.00    -0.160 C  
HETATM   37  H1  UNL     1      -9.592   9.177  73.076  1.00  0.00     0.000 HD 
HETATM   38  H2  UNL     1      -8.811   7.797  73.671  1.00  0.00     0.000 HD 
HETATM   39  C   UNL     1     -10.977   8.065  71.056  1.00  0.00    -0.241 C  
HETATM   40  N   UNL     1      -9.617   8.160  73.160  1.00  0.00    -0.264 NA 
HETATM   41  H   UNL     1      -8.429   5.917  73.392  1.00  0.00     0.000 HD 
HETATM   42  O   UNL     1     -10.891   9.466  70.784  1.00  0.00    -0.253 OA 
BRANCH  32  43
HETATM   43  C   UNL     1     -10.036   3.864  70.570  1.00  0.00     0.000 C  
HETATM   44  O   UNL     1      -9.314   3.384  69.427  1.00  0.00    -0.147 OA 
HETATM   45  H   UNL     1      -9.329   2.435  69.431  1.00  0.00     0.000 HD 
ENDBRANCH  32  43
ENDBRANCH  29  30
ENDBRANCH  23  29
ENDBRANCH  14  15
ENDBRANCH   8  14
TORSDOF 6
ENDMDL
MODEL      192
REMARK 921   NORMALIZED FREE ENERGY PREDICTED BY IDOCK:   -4.11 KCAL/MOL
REMARK 922        TOTAL FREE ENERGY PREDICTED BY IDOCK:   -7.10 KCAL/MOL
REMARK 923 INTER-LIGAND FREE ENERGY PREDICTED BY IDOCK:   -6.49 KCAL/MOL
REMARK 924 INTRA-LIGAND FREE ENERGY PREDICTED BY IDOCK:   -0.61 KCAL/MOL
REMARK 927      BINDING AFFINITY PREDICTED BY RF-SCORE:    0.00 PKD
ROOT
HETATM    1  C   UNL     1     -10.844  13.675  65.035  1.00  0.00    -0.352 C  
HETATM    2  C   UNL     1     -10.439  15.152  65.115  1.00  0.00    -0.437 C  
HETATM    3  N   UNL     1     -10.403  13.200  63.705  1.00  0.00    -0.657 NA 
HETATM    4  H1  UNL     1     -10.672  12.218  63.652  1.00  0.00     0.000 HD 
HETATM    5  C   UNL     1     -10.533  15.720  66.513  1.00  0.00    -0.304 C  
HETATM    6  H2  UNL     1      -9.411  13.359  63.526  1.00  0.00     0.000 HD 
HETATM    7  C   UNL     1      -9.931  14.784  67.560  1.00  0.00    -0.219 C  
HETATM    8  C   UNL     1     -10.404  12.773  66.264  1.00  0.00    -0.258 C  
HETATM    9  O   UNL     1     -10.495  13.464  67.511  1.00  0.00    -0.234 OA 
ENDROOT
BRANCH   7  10
HETATM   10  C   UNL     1     -10.247  15.384  68.957  1.00  0.00    -0.233 C  
HETATM   11  N   UNL     1     -11.589  15.961  69.039  1.00  0.00    -0.390 NA 
HETATM   12  H1  UNL     1     -11.796  16.355  69.957  1.00  0.00     0.000 HD 
HETATM   13  H2  UNL     1     -12.297  15.279  68.767  1.00  0.00     0.000 HD 
ENDBRANCH   7  10
BRANCH   8  14
HETATM   14  O   UNL     1      -9.137  12.164  66.016  1.00  0.00    -0.173 OA 
BRANCH  14  15
HETATM   15  C   UNL     1      -8.488  11.343  67.020  1.00  0.00    -0.159 C  
HETATM   16  C   UNL     1      -6.983  11.661  66.797  1.00  0.00    -0.080 C  
HETATM   17  N   UNL     1      -6.685  13.073  67.105  1.00  0.00    -0.439 NA 
HETATM   18  C   UNL     1      -5.994  10.840  67.601  1.00  0.00    -0.044 C  
HETATM   19  H2  UNL     1      -6.985  13.322  68.047  1.00  0.00     0.000 HD 
HETATM   20  H1  UNL     1      -5.697  13.281  66.959  1.00  0.00     0.000 HD 
HETATM   21  C   UNL     1      -6.243   9.342  67.518  1.00  0.00    -0.058 C  
HETATM   22  N   UNL     1      -5.163   8.744  68.319  1.00  0.00    -0.034 NA 
HETATM   23  C   UNL     1      -7.705   9.051  67.982  1.00  0.00    -0.097 C  
HETATM   24  C   UNL     1      -8.720   9.786  67.009  1.00  0.00    -0.135 C  
HETATM   25  O   UNL     1     -10.068   9.497  67.423  1.00  0.00    -0.181 OA 
HETATM   26  H2  UNL     1      -5.103   9.104  69.272  1.00  0.00     0.000 HD 
HETATM   27  H1  UNL     1      -5.330   7.739  68.264  1.00  0.00     0.000 HD 
HETATM   28  H   UNL     1     -10.208   8.557  67.417  1.00  0.00     0.000 HD 
BRANCH  23  29
HETATM   29  O   UNL     1      -7.988   7.623  68.119  1.00  0.00    -0.119 OA 
BRANCH  29  30
HETATM   30  C   UNL     1      -9.294   7.382  68.715  1.00  0.00    -0.144 C  
HETATM   31  O   UNL     1     -10.161   6.693  67.805  1.00  0.00    -0.144 OA 
HETATM   32  C   UNL     1      -9.717   5.347  67.564  1.00  0.00    -0.137 C  
HETATM   33  C   UNL     1      -9.875   4.533  68.849  1.00  0.00    -0.120 C  
HETATM   34  H   UNL     1      -8.334   6.854  71.834  1.00  0.00     0.000 HD 
HETATM   35  O   UNL     1      -9.515   3.165  68.651  1.00  0.00    -0.176 OA 
HETATM   36  C   UNL     1      -8.994   5.155  69.959  1.00  0.00    -0.122 C  
HETATM   37  H1  UNL     1      -8.626   4.843  71.965  1.00  0.00     0.000 HD 
HETATM   38  H2  UNL     1      -9.050   3.429  71.136  1.00  0.00     0.000 HD 
HETATM   39  C   UNL     1      -9.264   6.663  70.089  1.00  0.00    -0.155 C  
HETATM   40  N   UNL     1      -9.207   4.432  71.233  1.00  0.00    -0.130 NA 
HETATM   41  H   UNL     1      -9.614   2.659  69.449  1.00  0.00     0.000 HD 
HETATM   42  O   UNL     1      -8.353   7.295  70.993  1.00  0.00    -0.117 OA 
BRANCH  32  43
HETATM   43  C   UNL     1     -10.526   4.796  66.389  1.00  0.00    -0.239 C  
HETATM   44  O   UNL     1      -9.925   3.570  65.947  1.00  0.00    -0.406 OA 
HETATM   45  H   UNL     1     -10.428   3.229  65.217  1.00  0.00     0.000 HD 
ENDBRANCH  32  43
ENDBRANCH  29  30
ENDBRANCH  23  29
ENDBRANCH  14  15
ENDBRANCH   8  14
TORSDOF 6
ENDMDL
MODEL      193
REMARK 921   NORMALIZED FREE ENERGY PREDICTED BY IDOCK:   -4.10 KCAL/MOL
REMARK 922        TOTAL FREE ENERGY PREDICTED BY IDOCK:   -7.10 KCAL/MOL
REMARK 923 INTER-LIGAND FREE ENERGY PREDICTED BY IDOCK:   -6.56 KCAL/MOL
REMARK 924 INTRA-LIGAND FREE ENERGY PREDICTED BY IDOCK:   -0.54 KCAL/MOL
REMARK 927      BINDING AFFINITY PREDICTED BY RF-SCORE:    0.00 PKD
ROOT
HETATM    1  C   UNL     1     -11.644  14.290  67.088  1.00  0.00    -0.380 C  
HETATM    2  C   UNL     1     -12.488  14.540  65.833  1.00  0.00    -0.203 C  
HETATM    3  N   UNL     1     -12.407  14.868  68.218  1.00  0.00    -0.556 NA 
HETATM    4  H1  UNL     1     -11.846  14.702  69.052  1.00  0.00     0.000 HD 
HETATM    5  C   UNL     1     -12.016  13.753  64.632  1.00  0.00    -0.445 C  
HETATM    6  H2  UNL     1     -13.359  14.508  68.290  1.00  0.00     0.000 HD 
HETATM    7  C   UNL     1     -11.713  12.296  64.978  1.00  0.00    -0.352 C  
HETATM    8  C   UNL     1     -11.141  12.800  67.295  1.00  0.00    -0.276 C  
HETATM    9  O   UNL     1     -10.783  12.168  66.065  1.00  0.00    -0.256 OA 
ENDROOT
BRANCH   7  10
HETATM   10  C   UNL     1     -11.070  11.643  63.724  1.00  0.00    -0.420 C  
HETATM   11  N   UNL     1      -9.690  12.072  63.502  1.00  0.00    -0.582 NA 
HETATM   12  H1  UNL     1      -9.268  11.643  62.678  1.00  0.00     0.000 HD 
HETATM   13  H2  UNL     1      -9.119  11.907  64.332  1.00  0.00     0.000 HD 
ENDBRANCH   7  10
BRANCH   8  14
HETATM   14  O   UNL     1     -12.065  12.060  68.092  1.00  0.00    -0.480 OA 
BRANCH  14  15
HETATM   15  C   UNL     1     -11.701  10.784  68.679  1.00  0.00    -0.219 C  
HETATM   16  C   UNL     1     -11.297  11.179  70.126  1.00  0.00    -0.209 C  
HETATM   17  N   UNL     1     -12.451  11.709  70.877  1.00  0.00    -0.377 NA 
HETATM   18  C   UNL     1     -10.709  10.078  70.986  1.00  0.00    -0.101 C  
HETATM   19  H2  UNL     1     -13.234  11.055  70.871  1.00  0.00     0.000 HD 
HETATM   20  H1  UNL     1     -12.186  11.968  71.827  1.00  0.00     0.000 HD 
HETATM   21  C   UNL     1      -9.584   9.314  70.305  1.00  0.00    -0.235 C  
HETATM   22  N   UNL     1      -9.137   8.340  71.314  1.00  0.00    -0.148 NA 
HETATM   23  C   UNL     1     -10.117   8.734  68.957  1.00  0.00    -0.198 C  
HETATM   24  C   UNL     1     -10.561   9.928  68.012  1.00  0.00    -0.242 C  
HETATM   25  O   UNL     1     -11.029   9.393  66.760  1.00  0.00    -0.049 OA 
HETATM   26  H2  UNL     1      -9.882   7.746  71.679  1.00  0.00     0.000 HD 
HETATM   27  H1  UNL     1      -8.382   7.827  70.857  1.00  0.00     0.000 HD 
HETATM   28  H   UNL     1     -10.340   8.876  66.357  1.00  0.00     0.000 HD 
BRANCH  23  29
HETATM   29  O   UNL     1      -9.171   7.825  68.312  1.00  0.00    -0.140 OA 
BRANCH  29  30
HETATM   30  C   UNL     1      -7.792   8.258  68.491  1.00  0.00    -0.121 C  
HETATM   31  O   UNL     1      -6.948   7.161  68.862  1.00  0.00    -0.073 OA 
HETATM   32  C   UNL     1      -6.801   6.217  67.787  1.00  0.00    -0.063 C  
HETATM   33  C   UNL     1      -6.012   6.871  66.653  1.00  0.00    -0.029 C  
HETATM   34  H   UNL     1      -7.678  10.562  66.122  1.00  0.00     0.000 HD 
HETATM   35  O   UNL     1      -5.772   5.955  65.584  1.00  0.00    -0.019 OA 
HETATM   36  C   UNL     1      -6.794   8.100  66.130  1.00  0.00    -0.058 C  
HETATM   37  H1  UNL     1      -6.515   9.607  64.749  1.00  0.00     0.000 HD 
HETATM   38  H2  UNL     1      -5.720   8.171  64.338  1.00  0.00     0.000 HD 
HETATM   39  C   UNL     1      -7.188   9.030  67.289  1.00  0.00    -0.083 C  
HETATM   40  N   UNL     1      -5.999   8.797  65.093  1.00  0.00    -0.055 NA 
HETATM   41  H   UNL     1      -5.282   6.361  64.879  1.00  0.00     0.000 HD 
HETATM   42  O   UNL     1      -8.047  10.089  66.859  1.00  0.00    -0.116 OA 
BRANCH  32  43
HETATM   43  C   UNL     1      -6.128   4.968  68.358  1.00  0.00    -0.030 C  
HETATM   44  O   UNL     1      -6.789   4.603  69.578  1.00  0.00    -0.046 OA 
HETATM   45  H   UNL     1      -6.371   3.827  69.933  1.00  0.00     0.000 HD 
ENDBRANCH  32  43
ENDBRANCH  29  30
ENDBRANCH  23  29
ENDBRANCH  14  15
ENDBRANCH   8  14
TORSDOF 6
ENDMDL
MODEL      194
REMARK 921   NORMALIZED FREE ENERGY PREDICTED BY IDOCK:   -4.10 KCAL/MOL
REMARK 922        TOTAL FREE ENERGY PREDICTED BY IDOCK:   -7.09 KCAL/MOL
REMARK 923 INTER-LIGAND FREE ENERGY PREDICTED BY IDOCK:   -7.22 KCAL/MOL
REMARK 924 INTRA-LIGAND FREE ENERGY PREDICTED BY IDOCK:    0.13 KCAL/MOL
REMARK 927      BINDING AFFINITY PREDICTED BY RF-SCORE:    0.00 PKD
ROOT
HETATM    1  C   UNL     1     -10.684  13.644  67.520  1.00  0.00    -0.259 C  
HETATM    2  C   UNL     1     -12.147  13.998  67.226  1.00  0.00    -0.405 C  
HETATM    3  N   UNL     1     -10.597  13.434  68.982  1.00  0.00    -0.408 NA 
HETATM    4  H1  UNL     1      -9.625  13.198  69.177  1.00  0.00     0.000 HD 
HETATM    5  C   UNL     1     -12.489  13.946  65.755  1.00  0.00    -0.530 C  
HETATM    6  H2  UNL     1     -11.260  12.743  69.333  1.00  0.00     0.000 HD 
HETATM    7  C   UNL     1     -11.934  12.694  65.076  1.00  0.00    -0.419 C  
HETATM    8  C   UNL     1     -10.062  12.489  66.626  1.00  0.00    -0.230 C  
HETATM    9  O   UNL     1     -10.520  12.537  65.274  1.00  0.00    -0.275 OA 
ENDROOT
BRANCH   7  10
HETATM   10  C   UNL     1     -12.188  12.840  63.551  1.00  0.00    -0.525 C  
HETATM   11  N   UNL     1     -12.347  11.554  62.874  1.00  0.00    -0.871 NA 
HETATM   12  H1  UNL     1     -12.513  11.651  61.872  1.00  0.00     0.000 HD 
HETATM   13  H2  UNL     1     -13.081  10.999  63.313  1.00  0.00     0.000 HD 
ENDBRANCH   7  10
BRANCH   8  14
HETATM   14  O   UNL     1     -10.219  11.219  67.259  1.00  0.00    -0.186 OA 
BRANCH  14  15
HETATM   15  C   UNL     1      -9.075  10.381  67.558  1.00  0.00    -0.134 C  
HETATM   16  C   UNL     1      -8.437  10.165  66.158  1.00  0.00    -0.130 C  
HETATM   17  N   UNL     1      -7.934  11.434  65.599  1.00  0.00    -0.348 NA 
HETATM   18  C   UNL     1      -7.279   9.190  66.088  1.00  0.00    -0.090 C  
HETATM   19  H2  UNL     1      -7.287  11.895  66.238  1.00  0.00     0.000 HD 
HETATM   20  H1  UNL     1      -7.515  11.292  64.679  1.00  0.00     0.000 HD 
HETATM   21  C   UNL     1      -7.570   7.855  66.755  1.00  0.00    -0.098 C  
HETATM   22  N   UNL     1      -6.351   7.059  66.535  1.00  0.00    -0.048 NA 
HETATM   23  C   UNL     1      -7.980   8.116  68.238  1.00  0.00    -0.123 C  
HETATM   24  C   UNL     1      -9.301   8.995  68.270  1.00  0.00    -0.139 C  
HETATM   25  O   UNL     1      -9.691   9.215  69.638  1.00  0.00    -0.166 OA 
HETATM   26  H2  UNL     1      -5.496   7.509  66.861  1.00  0.00     0.000 HD 
HETATM   27  H1  UNL     1      -6.547   6.164  66.983  1.00  0.00     0.000 HD 
HETATM   28  H   UNL     1      -9.828   8.378  70.068  1.00  0.00     0.000 HD 
BRANCH  23  29
HETATM   29  O   UNL     1      -8.101   6.888  69.023  1.00  0.00    -0.114 OA 
BRANCH  29  30
HETATM   30  C   UNL     1      -9.428   6.299  68.909  1.00  0.00    -0.127 C  
HETATM   31  O   UNL     1      -9.618   5.692  67.625  1.00  0.00    -0.113 OA 
HETATM   32  C   UNL     1      -8.787   4.531  67.457  1.00  0.00    -0.107 C  
HETATM   33  C   UNL     1      -9.264   3.436  68.412  1.00  0.00    -0.173 C  
HETATM   34  H   UNL     1      -9.787   5.261  72.028  1.00  0.00     0.000 HD 
HETATM   35  O   UNL     1      -8.518   2.229  68.241  1.00  0.00    -0.064 OA 
HETATM   36  C   UNL     1      -9.129   3.936  69.871  1.00  0.00    -0.122 C  
HETATM   37  H1  UNL     1      -9.583   3.252  71.763  1.00  0.00     0.000 HD 
HETATM   38  H2  UNL     1      -9.238   2.007  70.669  1.00  0.00     0.000 HD 
HETATM   39  C   UNL     1      -9.803   5.307  70.042  1.00  0.00    -0.218 C  
HETATM   40  N   UNL     1      -9.672   2.921  70.802  1.00  0.00    -0.119 NA 
HETATM   41  H   UNL     1      -8.814   1.549  68.834  1.00  0.00     0.000 HD 
HETATM   42  O   UNL     1      -9.558   5.868  71.334  1.00  0.00    -0.162 OA 
BRANCH  32  43
HETATM   43  C   UNL     1      -8.849   4.126  65.984  1.00  0.00    -0.121 C  
HETATM   44  O   UNL     1     -10.054   3.380  65.759  1.00  0.00    -0.398 OA 
HETATM   45  H   UNL     1     -10.092   3.128  64.844  1.00  0.00     0.000 HD 
ENDBRANCH  32  43
ENDBRANCH  29  30
ENDBRANCH  23  29
ENDBRANCH  14  15
ENDBRANCH   8  14
TORSDOF 6
ENDMDL
MODEL      195
REMARK 921   NORMALIZED FREE ENERGY PREDICTED BY IDOCK:   -4.09 KCAL/MOL
REMARK 922        TOTAL FREE ENERGY PREDICTED BY IDOCK:   -7.08 KCAL/MOL
REMARK 923 INTER-LIGAND FREE ENERGY PREDICTED BY IDOCK:   -7.13 KCAL/MOL
REMARK 924 INTRA-LIGAND FREE ENERGY PREDICTED BY IDOCK:    0.05 KCAL/MOL
REMARK 927      BINDING AFFINITY PREDICTED BY RF-SCORE:    0.00 PKD
ROOT
HETATM    1  C   UNL     1      -9.073  19.863  68.386  1.00  0.00    -0.208 C  
HETATM    2  C   UNL     1      -9.402  20.149  66.916  1.00  0.00    -0.522 C  
HETATM    3  N   UNL     1     -10.339  20.037  69.131  1.00  0.00    -0.561 NA 
HETATM    4  H1  UNL     1     -10.121  19.847  70.109  1.00  0.00     0.000 HD 
HETATM    5  C   UNL     1      -8.305  19.723  65.966  1.00  0.00    -0.314 C  
HETATM    6  H2  UNL     1     -11.105  19.468  68.769  1.00  0.00     0.000 HD 
HETATM    7  C   UNL     1      -7.766  18.331  66.293  1.00  0.00    -0.248 C  
HETATM    8  C   UNL     1      -8.294  18.509  68.667  1.00  0.00    -0.304 C  
HETATM    9  O   UNL     1      -7.330  18.213  67.656  1.00  0.00    -0.208 OA 
ENDROOT
BRANCH   7  10
HETATM   10  C   UNL     1      -6.536  18.083  65.378  1.00  0.00    -0.058 C  
HETATM   11  N   UNL     1      -5.438  17.407  66.070  1.00  0.00    -0.294 NA 
HETATM   12  H1  UNL     1      -4.630  17.244  65.468  1.00  0.00     0.000 HD 
HETATM   13  H2  UNL     1      -5.757  16.537  66.497  1.00  0.00     0.000 HD 
ENDBRANCH   7  10
BRANCH   8  14
HETATM   14  O   UNL     1      -9.209  17.448  68.942  1.00  0.00    -0.252 OA 
BRANCH  14  15
HETATM   15  C   UNL     1      -8.852  16.064  68.694  1.00  0.00    -0.210 C  
HETATM   16  C   UNL     1      -7.315  16.065  68.917  1.00  0.00    -0.176 C  
HETATM   17  N   UNL     1      -6.979  16.374  70.320  1.00  0.00     0.671 NA 
HETATM   18  C   UNL     1      -6.585  14.778  68.586  1.00  0.00    -0.084 C  
HETATM   19  H2  UNL     1      -7.452  15.743  70.966  1.00  0.00     0.000 HD 
HETATM   20  H1  UNL     1      -5.969  16.374  70.466  1.00  0.00     0.000 HD 
HETATM   21  C   UNL     1      -6.927  14.224  67.212  1.00  0.00     0.129 C  
HETATM   22  N   UNL     1      -6.091  13.020  67.082  1.00  0.00    -0.471 NA 
HETATM   23  C   UNL     1      -8.472  14.018  67.126  1.00  0.00    -0.190 C  
HETATM   24  C   UNL     1      -9.198  15.418  67.300  1.00  0.00    -0.207 C  
HETATM   25  O   UNL     1     -10.621  15.231  67.196  1.00  0.00    -0.288 OA 
HETATM   26  H2  UNL     1      -6.205  12.349  67.841  1.00  0.00     0.000 HD 
HETATM   27  H1  UNL     1      -6.320  12.648  66.160  1.00  0.00     0.000 HD 
HETATM   28  H   UNL     1     -10.830  14.841  66.354  1.00  0.00     0.000 HD 
BRANCH  23  29
HETATM   29  O   UNL     1      -8.888  13.314  65.913  1.00  0.00     0.342 OA 
BRANCH  29  30
HETATM   30  C   UNL     1      -9.663  12.120  66.216  1.00  0.00    -0.238 C  
HETATM   31  O   UNL     1     -10.942  12.153  65.570  1.00  0.00    -0.282 OA 
HETATM   32  C   UNL     1     -10.819  12.044  64.142  1.00  0.00    -0.352 C  
HETATM   33  C   UNL     1     -10.309  10.646  63.790  1.00  0.00    -0.113 C  
HETATM   34  H   UNL     1      -7.188   9.930  66.325  1.00  0.00     0.000 HD 
HETATM   35  O   UNL     1     -10.233  10.455  62.377  1.00  0.00    -0.722 OA 
HETATM   36  C   UNL     1      -8.913  10.438  64.426  1.00  0.00    -0.223 C  
HETATM   37  H1  UNL     1      -7.526   8.919  64.590  1.00  0.00     0.000 HD 
HETATM   38  H2  UNL     1      -8.453   8.827  63.176  1.00  0.00     0.000 HD 
HETATM   39  C   UNL     1      -8.939  10.779  65.925  1.00  0.00    -0.184 C  
HETATM   40  N   UNL     1      -8.446   9.056  64.171  1.00  0.00    -0.184 NA 
HETATM   41  H   UNL     1      -9.917   9.587  62.158  1.00  0.00     0.000 HD 
HETATM   42  O   UNL     1      -7.632  10.751  66.504  1.00  0.00    -0.126 OA 
BRANCH  32  43
HETATM   43  C   UNL     1     -12.185  12.367  63.534  1.00  0.00    -0.563 C  
HETATM   44  O   UNL     1     -12.932  13.157  64.469  1.00  0.00    -0.688 OA 
HETATM   45  H   UNL     1     -13.781  13.357  64.091  1.00  0.00     0.000 HD 
ENDBRANCH  32  43
ENDBRANCH  29  30
ENDBRANCH  23  29
ENDBRANCH  14  15
ENDBRANCH   8  14
TORSDOF 6
ENDMDL
MODEL      196
REMARK 921   NORMALIZED FREE ENERGY PREDICTED BY IDOCK:   -4.08 KCAL/MOL
REMARK 922        TOTAL FREE ENERGY PREDICTED BY IDOCK:   -7.07 KCAL/MOL
REMARK 923 INTER-LIGAND FREE ENERGY PREDICTED BY IDOCK:   -6.51 KCAL/MOL
REMARK 924 INTRA-LIGAND FREE ENERGY PREDICTED BY IDOCK:   -0.56 KCAL/MOL
REMARK 927      BINDING AFFINITY PREDICTED BY RF-SCORE:    0.00 PKD
ROOT
HETATM    1  C   UNL     1      -8.357   5.121  63.748  1.00  0.00    -0.130 C  
HETATM    2  C   UNL     1      -9.407   4.025  63.527  1.00  0.00    -0.139 C  
HETATM    3  N   UNL     1      -8.657   6.183  62.763  1.00  0.00    -0.334 NA 
HETATM    4  H1  UNL     1      -7.959   6.911  62.910  1.00  0.00     0.000 HD 
HETATM    5  C   UNL     1      -9.447   3.004  64.641  1.00  0.00    -0.150 C  
HETATM    6  H2  UNL     1      -9.617   6.524  62.814  1.00  0.00     0.000 HD 
HETATM    7  C   UNL     1      -9.412   3.654  66.023  1.00  0.00    -0.160 C  
HETATM    8  C   UNL     1      -8.178   5.609  65.247  1.00  0.00    -0.134 C  
HETATM    9  O   UNL     1      -8.295   4.542  66.189  1.00  0.00    -0.112 OA 
ENDROOT
BRANCH   7  10
HETATM   10  C   UNL     1      -9.273   2.516  67.070  1.00  0.00    -0.094 C  
HETATM   11  N   UNL     1      -8.916   3.006  68.401  1.00  0.00    -0.124 NA 
HETATM   12  H1  UNL     1      -8.825   2.257  69.088  1.00  0.00     0.000 HD 
HETATM   13  H2  UNL     1      -9.577   3.714  68.718  1.00  0.00     0.000 HD 
ENDBRANCH   7  10
BRANCH   8  14
HETATM   14  O   UNL     1      -9.019   6.731  65.517  1.00  0.00    -0.038 OA 
BRANCH  14  15
HETATM   15  C   UNL     1      -8.894   7.487  66.749  1.00  0.00    -0.140 C  
HETATM   16  C   UNL     1      -7.356   7.656  66.889  1.00  0.00    -0.090 C  
HETATM   17  N   UNL     1      -6.807   8.480  65.796  1.00  0.00    -0.067 NA 
HETATM   18  C   UNL     1      -6.862   8.286  68.176  1.00  0.00    -0.069 C  
HETATM   19  H2  UNL     1      -7.280   9.382  65.733  1.00  0.00     0.000 HD 
HETATM   20  H1  UNL     1      -5.797   8.591  65.888  1.00  0.00     0.000 HD 
HETATM   21  C   UNL     1      -7.447   7.648  69.426  1.00  0.00    -0.089 C  
HETATM   22  N   UNL     1      -6.810   8.369  70.540  1.00  0.00    -0.036 NA 
HETATM   23  C   UNL     1      -9.004   7.718  69.342  1.00  0.00    -0.142 C  
HETATM   24  C   UNL     1      -9.498   6.897  68.078  1.00  0.00    -0.124 C  
HETATM   25  O   UNL     1     -10.935   6.942  68.015  1.00  0.00    -0.414 OA 
HETATM   26  H2  UNL     1      -6.923   9.382  70.499  1.00  0.00     0.000 HD 
HETATM   27  H1  UNL     1      -7.203   7.942  71.379  1.00  0.00     0.000 HD 
HETATM   28  H   UNL     1     -11.300   6.586  68.818  1.00  0.00     0.000 HD 
BRANCH  23  29
HETATM   29  O   UNL     1      -9.663   7.300  70.579  1.00  0.00    -0.176 OA 
BRANCH  29  30
HETATM   30  C   UNL     1      -9.793   8.400  71.524  1.00  0.00    -0.208 C  
HETATM   31  O   UNL     1      -9.867   9.661  70.846  1.00  0.00    -0.245 OA 
HETATM   32  C   UNL     1     -11.091   9.792  70.102  1.00  0.00    -0.285 C  
HETATM   33  C   UNL     1     -12.263   9.875  71.081  1.00  0.00    -0.373 C  
HETATM   34  H   UNL     1     -11.655   6.890  73.801  1.00  0.00     0.000 HD 
HETATM   35  O   UNL     1     -13.502  10.078  70.400  1.00  0.00    -0.561 OA 
HETATM   36  C   UNL     1     -12.325   8.571  71.913  1.00  0.00    -0.352 C  
HETATM   37  H1  UNL     1     -13.439   7.815  73.476  1.00  0.00     0.000 HD 
HETATM   38  H2  UNL     1     -14.300   8.907  72.510  1.00  0.00     0.000 HD 
HETATM   39  C   UNL     1     -10.957   8.257  72.539  1.00  0.00    -0.354 C  
HETATM   40  N   UNL     1     -13.399   8.674  72.928  1.00  0.00    -0.198 NA 
HETATM   41  H   UNL     1     -14.230  10.130  71.008  1.00  0.00     0.000 HD 
HETATM   42  O   UNL     1     -10.941   6.978  73.180  1.00  0.00    -0.295 OA 
BRANCH  32  43
HETATM   43  C   UNL     1     -10.957  11.023  69.205  1.00  0.00    -0.237 C  
HETATM   44  O   UNL     1     -11.770  10.836  68.038  1.00  0.00    -0.641 OA 
HETATM   45  H   UNL     1     -11.686  11.601  67.480  1.00  0.00     0.000 HD 
ENDBRANCH  32  43
ENDBRANCH  29  30
ENDBRANCH  23  29
ENDBRANCH  14  15
ENDBRANCH   8  14
TORSDOF 6
ENDMDL
MODEL      197
REMARK 921   NORMALIZED FREE ENERGY PREDICTED BY IDOCK:   -4.07 KCAL/MOL
REMARK 922        TOTAL FREE ENERGY PREDICTED BY IDOCK:   -7.06 KCAL/MOL
REMARK 923 INTER-LIGAND FREE ENERGY PREDICTED BY IDOCK:   -6.30 KCAL/MOL
REMARK 924 INTRA-LIGAND FREE ENERGY PREDICTED BY IDOCK:   -0.76 KCAL/MOL
REMARK 927      BINDING AFFINITY PREDICTED BY RF-SCORE:    0.00 PKD
ROOT
HETATM    1  C   UNL     1      -9.223   4.460  67.999  1.00  0.00    -0.136 C  
HETATM    2  C   UNL     1      -9.295   3.203  68.874  1.00  0.00    -0.231 C  
HETATM    3  N   UNL     1     -10.481   4.491  67.221  1.00  0.00    -0.000 NA 
HETATM    4  H1  UNL     1     -10.434   5.327  66.639  1.00  0.00     0.000 HD 
HETATM    5  C   UNL     1      -8.240   3.169  69.957  1.00  0.00    -0.067 C  
HETATM    6  H2  UNL     1     -11.319   4.448  67.802  1.00  0.00     0.000 HD 
HETATM    7  C   UNL     1      -8.114   4.507  70.683  1.00  0.00    -0.074 C  
HETATM    8  C   UNL     1      -8.853   5.805  68.756  1.00  0.00    -0.110 C  
HETATM    9  O   UNL     1      -7.885   5.605  69.786  1.00  0.00    -0.084 OA 
ENDROOT
BRANCH   7  10
HETATM   10  C   UNL     1      -6.890   4.408  71.634  1.00  0.00    -0.031 C  
HETATM   11  N   UNL     1      -6.560   5.681  72.274  1.00  0.00    -0.060 NA 
HETATM   12  H1  UNL     1      -5.757   5.615  72.899  1.00  0.00     0.000 HD 
HETATM   13  H2  UNL     1      -7.370   6.065  72.762  1.00  0.00     0.000 HD 
ENDBRANCH   7  10
BRANCH   8  14
HETATM   14  O   UNL     1     -10.034   6.489  69.177  1.00  0.00    -0.142 OA 
BRANCH  14  15
HETATM   15  C   UNL     1     -10.070   7.935  69.278  1.00  0.00    -0.197 C  
HETATM   16  C   UNL     1     -10.481   8.162  70.759  1.00  0.00    -0.202 C  
HETATM   17  N   UNL     1      -9.441   7.671  71.682  1.00  0.00    -0.145 NA 
HETATM   18  C   UNL     1     -10.761   9.595  71.168  1.00  0.00    -0.365 C  
HETATM   19  H2  UNL     1      -8.532   8.085  71.478  1.00  0.00     0.000 HD 
HETATM   20  H1  UNL     1      -9.710   7.820  72.655  1.00  0.00     0.000 HD 
HETATM   21  C   UNL     1     -11.716  10.316  70.231  1.00  0.00    -0.306 C  
HETATM   22  N   UNL     1     -11.881  11.651  70.829  1.00  0.00    -0.417 NA 
HETATM   23  C   UNL     1     -11.133  10.263  68.784  1.00  0.00    -0.228 C  
HETATM   24  C   UNL     1     -11.019   8.749  68.321  1.00  0.00     0.156 C  
HETATM   25  O   UNL     1     -10.504   8.702  66.977  1.00  0.00    -0.295 OA 
HETATM   26  H2  UNL     1     -11.003  12.146  70.991  1.00  0.00     0.000 HD 
HETATM   27  H1  UNL     1     -12.521  12.136  70.200  1.00  0.00     0.000 HD 
HETATM   28  H   UNL     1     -11.077   9.193  66.400  1.00  0.00     0.000 HD 
BRANCH  23  29
HETATM   29  O   UNL     1     -11.880  11.088  67.835  1.00  0.00    -0.600 OA 
BRANCH  29  30
HETATM   30  C   UNL     1     -11.174  12.320  67.513  1.00  0.00    -0.297 C  
HETATM   31  O   UNL     1      -9.781  12.220  67.837  1.00  0.00    -0.190 OA 
HETATM   32  C   UNL     1      -9.103  11.283  66.982  1.00  0.00    -0.163 C  
HETATM   33  C   UNL     1      -9.071  11.840  65.559  1.00  0.00     0.019 C  
HETATM   34  H   UNL     1     -12.856  13.168  64.796  1.00  0.00     0.000 HD 
HETATM   35  O   UNL     1      -8.345  10.983  64.676  1.00  0.00    -0.375 OA 
HETATM   36  C   UNL     1     -10.521  12.018  65.048  1.00  0.00    -0.287 C  
HETATM   37  H1  UNL     1     -11.462  12.760  63.369  1.00  0.00     0.000 HD 
HETATM   38  H2  UNL     1      -9.928  12.121  63.045  1.00  0.00     0.000 HD 
HETATM   39  C   UNL     1     -11.361  12.819  66.056  1.00  0.00    -0.321 C  
HETATM   40  N   UNL     1     -10.506  12.643  63.705  1.00  0.00    -0.417 NA 
HETATM   41  H   UNL     1      -8.324  11.329  63.792  1.00  0.00     0.000 HD 
HETATM   42  O   UNL     1     -12.742  12.863  65.688  1.00  0.00    -0.537 OA 
BRANCH  32  43
HETATM   43  C   UNL     1      -7.714  11.038  67.574  1.00  0.00    -0.114 C  
HETATM   44  O   UNL     1      -7.536   9.628  67.770  1.00  0.00    -0.087 OA 
HETATM   45  H   UNL     1      -6.674   9.476  68.138  1.00  0.00     0.000 HD 
ENDBRANCH  32  43
ENDBRANCH  29  30
ENDBRANCH  23  29
ENDBRANCH  14  15
ENDBRANCH   8  14
TORSDOF 6
ENDMDL
MODEL      198
REMARK 921   NORMALIZED FREE ENERGY PREDICTED BY IDOCK:   -4.07 KCAL/MOL
REMARK 922        TOTAL FREE ENERGY PREDICTED BY IDOCK:   -7.05 KCAL/MOL
REMARK 923 INTER-LIGAND FREE ENERGY PREDICTED BY IDOCK:   -6.18 KCAL/MOL
REMARK 924 INTRA-LIGAND FREE ENERGY PREDICTED BY IDOCK:   -0.87 KCAL/MOL
REMARK 927      BINDING AFFINITY PREDICTED BY RF-SCORE:    0.00 PKD
ROOT
HETATM    1  C   UNL     1      -8.784   9.126  67.948  1.00  0.00    -0.128 C  
HETATM    2  C   UNL     1      -8.445   8.225  69.142  1.00  0.00    -0.127 C  
HETATM    3  N   UNL     1     -10.183   8.815  67.583  1.00  0.00    -0.223 NA 
HETATM    4  H1  UNL     1     -10.409   9.414  66.789  1.00  0.00     0.000 HD 
HETATM    5  C   UNL     1      -7.165   8.620  69.842  1.00  0.00    -0.051 C  
HETATM    6  H2  UNL     1     -10.837   8.910  68.361  1.00  0.00     0.000 HD 
HETATM    7  C   UNL     1      -7.072  10.128  70.070  1.00  0.00    -0.154 C  
HETATM    8  C   UNL     1      -8.451  10.667  68.132  1.00  0.00    -0.122 C  
HETATM    9  O   UNL     1      -7.241  10.883  68.860  1.00  0.00    -0.079 OA 
ENDROOT
BRANCH   7  10
HETATM   10  C   UNL     1      -5.652  10.429  70.623  1.00  0.00    -0.088 C  
HETATM   11  N   UNL     1      -5.244  11.819  70.419  1.00  0.00    -0.094 NA 
HETATM   12  H1  UNL     1      -4.311  12.016  70.783  1.00  0.00     0.000 HD 
HETATM   13  H2  UNL     1      -5.932  12.462  70.811  1.00  0.00     0.000 HD 
ENDBRANCH   7  10
BRANCH   8  14
HETATM   14  O   UNL     1      -9.582  11.371  68.644  1.00  0.00    -0.195 OA 
BRANCH  14  15
HETATM   15  C   UNL     1     -10.078  12.571  67.998  1.00  0.00    -0.220 C  
HETATM   16  C   UNL     1     -11.001  12.001  66.886  1.00  0.00    -0.281 C  
HETATM   17  N   UNL     1     -12.157  11.289  67.464  1.00  0.00    -0.330 NA 
HETATM   18  C   UNL     1     -11.576  13.006  65.907  1.00  0.00    -0.405 C  
HETATM   19  H2  UNL     1     -12.674  11.880  68.115  1.00  0.00     0.000 HD 
HETATM   20  H1  UNL     1     -12.763  10.915  66.734  1.00  0.00     0.000 HD 
HETATM   21  C   UNL     1     -10.532  13.936  65.311  1.00  0.00    -0.371 C  
HETATM   22  N   UNL     1     -11.286  14.784  64.373  1.00  0.00    -0.638 NA 
HETATM   23  C   UNL     1      -9.790  14.666  66.475  1.00  0.00    -0.275 C  
HETATM   24  C   UNL     1      -9.051  13.592  67.379  1.00  0.00    -0.219 C  
HETATM   25  O   UNL     1      -8.347  14.267  68.437  1.00  0.00    -0.152 OA 
HETATM   26  H2  UNL     1     -12.081  15.265  64.794  1.00  0.00     0.000 HD 
HETATM   27  H1  UNL     1     -10.586  15.408  63.973  1.00  0.00     0.000 HD 
HETATM   28  H   UNL     1      -7.727  14.883  68.064  1.00  0.00     0.000 HD 
BRANCH  23  29
HETATM   29  O   UNL     1      -8.893  15.722  66.007  1.00  0.00    -0.327 OA 
BRANCH  29  30
HETATM   30  C   UNL     1      -9.588  16.991  65.841  1.00  0.00    -0.112 C  
HETATM   31  O   UNL     1     -10.837  16.994  66.544  1.00  0.00    -0.133 OA 
HETATM   32  C   UNL     1     -10.646  16.971  67.969  1.00  0.00    -0.373 C  
HETATM   33  C   UNL     1     -10.017  18.293  68.409  1.00  0.00    -0.382 C  
HETATM   34  H   UNL     1      -6.962  19.000  65.792  1.00  0.00     0.000 HD 
HETATM   35  O   UNL     1      -9.868  18.356  69.828  1.00  0.00     0.250 OA 
HETATM   36  C   UNL     1      -8.638  18.455  67.725  1.00  0.00    -0.267 C  
HETATM   37  H1  UNL     1      -7.149  19.879  67.619  1.00  0.00     0.000 HD 
HETATM   38  H2  UNL     1      -8.005  19.916  69.079  1.00  0.00     0.000 HD 
HETATM   39  C   UNL     1      -8.753  18.246  66.207  1.00  0.00    -0.178 C  
HETATM   40  N   UNL     1      -8.058  19.773  68.071  1.00  0.00    -0.307 NA 
HETATM   41  H   UNL     1      -9.477  19.178  70.102  1.00  0.00     0.000 HD 
HETATM   42  O   UNL     1      -7.474  18.231  65.568  1.00  0.00    -0.537 OA 
BRANCH  32  43
HETATM   43  C   UNL     1     -12.005  16.696  68.614  1.00  0.00     0.648 C  
HETATM   44  O   UNL     1     -11.794  16.099  69.901  1.00  0.00    -0.313 OA 
HETATM   45  H   UNL     1     -12.638  15.928  70.301  1.00  0.00     0.000 HD 
ENDBRANCH  32  43
ENDBRANCH  29  30
ENDBRANCH  23  29
ENDBRANCH  14  15
ENDBRANCH   8  14
TORSDOF 6
ENDMDL
MODEL      199
REMARK 921   NORMALIZED FREE ENERGY PREDICTED BY IDOCK:   -4.02 KCAL/MOL
REMARK 922        TOTAL FREE ENERGY PREDICTED BY IDOCK:   -6.99 KCAL/MOL
REMARK 923 INTER-LIGAND FREE ENERGY PREDICTED BY IDOCK:   -5.95 KCAL/MOL
REMARK 924 INTRA-LIGAND FREE ENERGY PREDICTED BY IDOCK:   -1.04 KCAL/MOL
REMARK 927      BINDING AFFINITY PREDICTED BY RF-SCORE:    0.00 PKD
ROOT
HETATM    1  C   UNL     1     -10.288  17.152  69.369  1.00  0.00    -0.195 C  
HETATM    2  C   UNL     1     -10.844  17.647  68.028  1.00  0.00    -0.240 C  
HETATM    3  N   UNL     1     -11.452  16.666  70.142  1.00  0.00    -0.331 NA 
HETATM    4  H1  UNL     1     -11.082  16.337  71.034  1.00  0.00     0.000 HD 
HETATM    5  C   UNL     1      -9.771  17.894  66.992  1.00  0.00    -0.298 C  
HETATM    6  H2  UNL     1     -12.004  15.965  69.648  1.00  0.00     0.000 HD 
HETATM    7  C   UNL     1      -8.749  16.760  66.937  1.00  0.00    -0.216 C  
HETATM    8  C   UNL     1      -9.061  16.150  69.277  1.00  0.00    -0.213 C  
HETATM    9  O   UNL     1      -8.162  16.480  68.217  1.00  0.00    -0.172 OA 
ENDROOT
BRANCH   7  10
HETATM   10  C   UNL     1      -7.610  17.206  65.980  1.00  0.00    -0.150 C  
HETATM   11  N   UNL     1      -6.278  16.877  66.486  1.00  0.00    -0.280 NA 
HETATM   12  H1  UNL     1      -5.531  17.170  65.858  1.00  0.00     0.000 HD 
HETATM   13  H2  UNL     1      -6.206  15.882  66.701  1.00  0.00     0.000 HD 
ENDBRANCH   7  10
BRANCH   8  14
HETATM   14  O   UNL     1      -9.514  14.796  69.268  1.00  0.00    -0.157 OA 
BRANCH  14  15
HETATM   15  C   UNL     1      -9.829  14.115  68.027  1.00  0.00    -0.223 C  
HETATM   16  C   UNL     1     -11.209  13.470  68.334  1.00  0.00    -0.278 C  
HETATM   17  N   UNL     1     -12.241  14.500  68.559  1.00  0.00    -0.602 NA 
HETATM   18  C   UNL     1     -11.769  12.542  67.274  1.00  0.00    -0.431 C  
HETATM   19  H2  UNL     1     -12.297  15.152  67.777  1.00  0.00     0.000 HD 
HETATM   20  H1  UNL     1     -13.147  14.077  68.760  1.00  0.00     0.000 HD 
HETATM   21  C   UNL     1     -10.777  11.489  66.807  1.00  0.00    -0.270 C  
HETATM   22  N   UNL     1     -11.529  10.683  65.831  1.00  0.00     0.451 NA 
HETATM   23  C   UNL     1      -9.493  12.206  66.285  1.00  0.00    -0.232 C  
HETATM   24  C   UNL     1      -8.834  13.029  67.471  1.00  0.00    -0.195 C  
HETATM   25  O   UNL     1      -7.637  13.671  66.995  1.00  0.00    -0.364 OA 
HETATM   26  H2  UNL     1     -11.945  11.226  65.075  1.00  0.00     0.000 HD 
HETATM   27  H1  UNL     1     -10.863   9.976  65.517  1.00  0.00     0.000 HD 
HETATM   28  H   UNL     1      -7.036  13.015  66.659  1.00  0.00     0.000 HD 
BRANCH  23  29
HETATM   29  O   UNL     1      -8.550  11.294  65.640  1.00  0.00    -0.137 OA 
BRANCH  29  30
HETATM   30  C   UNL     1      -7.712  10.602  66.609  1.00  0.00    -0.132 C  
HETATM   31  O   UNL     1      -8.424   9.530  67.239  1.00  0.00    -0.126 OA 
HETATM   32  C   UNL     1      -8.708   8.465  66.314  1.00  0.00    -0.142 C  
HETATM   33  C   UNL     1      -7.396   7.796  65.907  1.00  0.00    -0.073 C  
HETATM   34  H   UNL     1      -4.817  10.838  65.031  1.00  0.00     0.000 HD 
HETATM   35  O   UNL     1      -7.622   6.682  65.042  1.00  0.00    -0.086 OA 
HETATM   36  C   UNL     1      -6.489   8.835  65.205  1.00  0.00    -0.064 C  
HETATM   37  H1  UNL     1      -4.581   8.909  64.424  1.00  0.00     0.000 HD 
HETATM   38  H2  UNL     1      -5.277   7.368  64.339  1.00  0.00     0.000 HD 
HETATM   39  C   UNL     1      -6.350  10.105  66.059  1.00  0.00    -0.094 C  
HETATM   40  N   UNL     1      -5.178   8.223  64.886  1.00  0.00    -0.035 NA 
HETATM   41  H   UNL     1      -6.806   6.265  64.789  1.00  0.00     0.000 HD 
HETATM   42  O   UNL     1      -5.651  11.143  65.368  1.00  0.00    -0.149 OA 
BRANCH  32  43
HETATM   43  C   UNL     1      -9.695   7.514  66.993  1.00  0.00    -0.198 C  
HETATM   44  O   UNL     1     -11.027   7.862  66.587  1.00  0.00    -0.313 OA 
HETATM   45  H   UNL     1     -11.640   7.271  67.009  1.00  0.00     0.000 HD 
ENDBRANCH  32  43
ENDBRANCH  29  30
ENDBRANCH  23  29
ENDBRANCH  14  15
ENDBRANCH   8  14
TORSDOF 6
ENDMDL
MODEL      200
REMARK 921   NORMALIZED FREE ENERGY PREDICTED BY IDOCK:   -4.01 KCAL/MOL
REMARK 922        TOTAL FREE ENERGY PREDICTED BY IDOCK:   -6.97 KCAL/MOL
REMARK 923 INTER-LIGAND FREE ENERGY PREDICTED BY IDOCK:   -5.43 KCAL/MOL
REMARK 924 INTRA-LIGAND FREE ENERGY PREDICTED BY IDOCK:   -1.54 KCAL/MOL
REMARK 927      BINDING AFFINITY PREDICTED BY RF-SCORE:    0.00 PKD
ROOT
HETATM    1  C   UNL     1     -10.180  11.167  64.620  1.00  0.00    -0.317 C  
HETATM    2  C   UNL     1     -10.648  12.613  64.825  1.00  0.00    -0.341 C  
HETATM    3  N   UNL     1      -9.083  11.226  63.630  1.00  0.00    -0.422 NA 
HETATM    4  H1  UNL     1      -8.772  10.265  63.493  1.00  0.00     0.000 HD 
HETATM    5  C   UNL     1     -11.552  12.783  66.025  1.00  0.00    -0.432 C  
HETATM    6  H2  UNL     1      -8.331  11.863  63.895  1.00  0.00     0.000 HD 
HETATM    7  C   UNL     1     -11.021  12.050  67.257  1.00  0.00    -0.262 C  
HETATM    8  C   UNL     1      -9.863  10.352  65.945  1.00  0.00    -0.235 C  
HETATM    9  O   UNL     1     -10.767  10.659  67.007  1.00  0.00    -0.257 OA 
ENDROOT
BRANCH   7  10
HETATM   10  C   UNL     1     -12.111  12.144  68.359  1.00  0.00    -0.036 C  
HETATM   11  N   UNL     1     -11.957  11.128  69.401  1.00  0.00    -0.337 NA 
HETATM   12  H1  UNL     1     -12.672  11.190  70.124  1.00  0.00     0.000 HD 
HETATM   13  H2  UNL     1     -11.022  11.163  69.808  1.00  0.00     0.000 HD 
ENDBRANCH   7  10
BRANCH   8  14
HETATM   14  O   UNL     1      -8.482  10.469  66.291  1.00  0.00    -0.139 OA 
BRANCH  14  15
HETATM   15  C   UNL     1      -7.873   9.581  67.262  1.00  0.00    -0.098 C  
HETATM   16  C   UNL     1      -7.285   8.453  66.370  1.00  0.00    -0.072 C  
HETATM   17  N   UNL     1      -6.216   8.968  65.493  1.00  0.00    -0.062 NA 
HETATM   18  C   UNL     1      -6.694   7.260  67.093  1.00  0.00    -0.068 C  
HETATM   19  H2  UNL     1      -5.487   9.441  66.029  1.00  0.00     0.000 HD 
HETATM   20  H1  UNL     1      -5.830   8.228  64.907  1.00  0.00     0.000 HD 
HETATM   21  C   UNL     1      -7.615   6.679  68.154  1.00  0.00    -0.104 C  
HETATM   22  N   UNL     1      -6.876   5.524  68.691  1.00  0.00    -0.057 NA 
HETATM   23  C   UNL     1      -7.987   7.807  69.167  1.00  0.00    -0.119 C  
HETATM   24  C   UNL     1      -8.762   8.962  68.404  1.00  0.00    -0.134 C  
HETATM   25  O   UNL     1      -9.126   9.990  69.343  1.00  0.00    -0.189 OA 
HETATM   26  H2  UNL     1      -5.941   5.750  69.030  1.00  0.00     0.000 HD 
HETATM   27  H1  UNL     1      -7.494   5.134  69.403  1.00  0.00     0.000 HD 
HETATM   28  H   UNL     1      -9.663   9.616  70.032  1.00  0.00     0.000 HD 
BRANCH  23  29
HETATM   29  O   UNL     1      -8.718   7.311  70.332  1.00  0.00    -0.143 OA 
BRANCH  29  30
HETATM   30  C   UNL     1      -9.654   6.254  69.977  1.00  0.00    -0.158 C  
HETATM   31  O   UNL     1      -9.131   4.963  70.315  1.00  0.00    -0.110 OA 
HETATM   32  C   UNL     1      -9.040   4.782  71.739  1.00  0.00    -0.135 C  
HETATM   33  C   UNL     1     -10.451   4.729  72.325  1.00  0.00    -0.189 C  
HETATM   34  H   UNL     1     -12.479   7.842  70.631  1.00  0.00     0.000 HD 
HETATM   35  O   UNL     1     -10.425   4.479  73.731  1.00  0.00    -0.184 OA 
HETATM   36  C   UNL     1     -11.173   6.068  72.040  1.00  0.00    -0.288 C  
HETATM   37  H1  UNL     1     -13.046   6.880  72.334  1.00  0.00     0.000 HD 
HETATM   38  H2  UNL     1     -12.624   5.735  73.507  1.00  0.00     0.000 HD 
HETATM   39  C   UNL     1     -11.086   6.428  70.548  1.00  0.00    -0.328 C  
HETATM   40  N   UNL     1     -12.571   5.997  72.522  1.00  0.00     0.072 NA 
HETATM   41  H   UNL     1     -11.302   4.446  74.096  1.00  0.00     0.000 HD 
HETATM   42  O   UNL     1     -11.603   7.734  70.281  1.00  0.00    -0.181 OA 
BRANCH  32  43
HETATM   43  C   UNL     1      -8.225   3.513  71.992  1.00  0.00    -0.071 C  
HETATM   44  O   UNL     1      -7.202   3.412  70.991  1.00  0.00    -0.033 OA 
HETATM   45  H   UNL     1      -6.695   2.624  71.149  1.00  0.00     0.000 HD 
ENDBRANCH  32  43
ENDBRANCH  29  30
ENDBRANCH  23  29
ENDBRANCH  14  15
ENDBRANCH   8  14
TORSDOF 6
ENDMDL
MODEL      201
REMARK 921   NORMALIZED FREE ENERGY PREDICTED BY IDOCK:   -3.98 KCAL/MOL
REMARK 922        TOTAL FREE ENERGY PREDICTED BY IDOCK:   -6.93 KCAL/MOL
REMARK 923 INTER-LIGAND FREE ENERGY PREDICTED BY IDOCK:   -7.52 KCAL/MOL
REMARK 924 INTRA-LIGAND FREE ENERGY PREDICTED BY IDOCK:    0.59 KCAL/MOL
REMARK 927      BINDING AFFINITY PREDICTED BY RF-SCORE:    0.00 PKD
ROOT
HETATM    1  C   UNL     1      -9.653  13.375  67.380  1.00  0.00    -0.223 C  
HETATM    2  C   UNL     1     -10.473  14.640  67.661  1.00  0.00    -0.243 C  
HETATM    3  N   UNL     1      -9.292  12.816  68.701  1.00  0.00    -0.405 NA 
HETATM    4  H1  UNL     1      -8.747  11.975  68.514  1.00  0.00     0.000 HD 
HETATM    5  C   UNL     1     -11.185  15.173  66.439  1.00  0.00    -0.277 C  
HETATM    6  H2  UNL     1     -10.097  12.651  69.306  1.00  0.00     0.000 HD 
HETATM    7  C   UNL     1     -11.878  14.066  65.645  1.00  0.00    -0.377 C  
HETATM    8  C   UNL     1     -10.300  12.349  66.357  1.00  0.00    -0.234 C  
HETATM    9  O   UNL     1     -10.984  13.000  65.286  1.00  0.00    -0.278 OA 
ENDROOT
BRANCH   7  10
HETATM   10  C   UNL     1     -12.412  14.701  64.332  1.00  0.00    -0.288 C  
HETATM   11  N   UNL     1     -11.762  15.970  64.006  1.00  0.00    -1.249 NA 
HETATM   12  H1  UNL     1     -12.113  16.387  63.144  1.00  0.00     0.000 HD 
HETATM   13  H2  UNL     1     -10.748  15.863  63.973  1.00  0.00     0.000 HD 
ENDBRANCH   7  10
BRANCH   8  14
HETATM   14  O   UNL     1     -11.077  11.370  67.046  1.00  0.00    -0.281 OA 
BRANCH  14  15
HETATM   15  C   UNL     1     -10.452  10.236  67.699  1.00  0.00    -0.239 C  
HETATM   16  C   UNL     1     -10.658   9.093  66.667  1.00  0.00    -0.087 C  
HETATM   17  N   UNL     1      -9.918   9.361  65.419  1.00  0.00    -0.407 NA 
HETATM   18  C   UNL     1     -10.245   7.703  67.108  1.00  0.00    -0.360 C  
HETATM   19  H2  UNL     1      -8.929   9.530  65.599  1.00  0.00     0.000 HD 
HETATM   20  H1  UNL     1     -10.054   8.611  64.741  1.00  0.00     0.000 HD 
HETATM   21  C   UNL     1     -10.805   7.307  68.464  1.00  0.00    -0.060 C  
HETATM   22  N   UNL     1     -10.325   5.931  68.674  1.00  0.00    -0.192 NA 
HETATM   23  C   UNL     1     -10.366   8.371  69.518  1.00  0.00    -0.219 C  
HETATM   24  C   UNL     1     -10.966   9.784  69.117  1.00  0.00    -0.175 C  
HETATM   25  O   UNL     1     -10.581  10.760  70.103  1.00  0.00    -0.458 OA 
HETATM   26  H2  UNL     1      -9.314   5.826  68.595  1.00  0.00     0.000 HD 
HETATM   27  H1  UNL     1     -10.701   5.665  69.584  1.00  0.00     0.000 HD 
HETATM   28  H   UNL     1     -10.891  10.488  70.959  1.00  0.00     0.000 HD 
BRANCH  23  29
HETATM   29  O   UNL     1     -10.695   7.987  70.891  1.00  0.00    -0.216 OA 
BRANCH  29  30
HETATM   30  C   UNL     1      -9.528   8.029  71.761  1.00  0.00    -0.169 C  
HETATM   31  O   UNL     1      -9.631   7.060  72.812  1.00  0.00    -0.144 OA 
HETATM   32  C   UNL     1      -9.549   5.716  72.307  1.00  0.00    -0.151 C  
HETATM   33  C   UNL     1      -8.139   5.471  71.770  1.00  0.00    -0.118 C  
HETATM   34  H   UNL     1      -7.231   8.735  69.490  1.00  0.00     0.000 HD 
HETATM   35  O   UNL     1      -7.976   4.126  71.318  1.00  0.00    -0.069 OA 
HETATM   36  C   UNL     1      -7.856   6.456  70.610  1.00  0.00    -0.107 C  
HETATM   37  H1  UNL     1      -6.275   6.941  69.376  1.00  0.00     0.000 HD 
HETATM   38  H2  UNL     1      -6.254   5.326  69.884  1.00  0.00     0.000 HD 
HETATM   39  C   UNL     1      -8.164   7.901  71.033  1.00  0.00    -0.100 C  
HETATM   40  N   UNL     1      -6.461   6.291  70.141  1.00  0.00    -0.039 NA 
HETATM   41  H   UNL     1      -7.100   3.973  70.985  1.00  0.00     0.000 HD 
HETATM   42  O   UNL     1      -8.066   8.813  69.936  1.00  0.00    -0.100 OA 
BRANCH  32  43
HETATM   43  C   UNL     1      -9.944   4.770  73.442  1.00  0.00    -0.155 C  
HETATM   44  O   UNL     1      -8.759   4.374  74.147  1.00  0.00    -0.103 OA 
HETATM   45  H   UNL     1      -9.005   3.786  74.852  1.00  0.00     0.000 HD 
ENDBRANCH  32  43
ENDBRANCH  29  30
ENDBRANCH  23  29
ENDBRANCH  14  15
ENDBRANCH   8  14
TORSDOF 6
ENDMDL
MODEL      202
REMARK 921   NORMALIZED FREE ENERGY PREDICTED BY IDOCK:   -3.97 KCAL/MOL
REMARK 922        TOTAL FREE ENERGY PREDICTED BY IDOCK:   -6.92 KCAL/MOL
REMARK 923 INTER-LIGAND FREE ENERGY PREDICTED BY IDOCK:   -6.53 KCAL/MOL
REMARK 924 INTRA-LIGAND FREE ENERGY PREDICTED BY IDOCK:   -0.39 KCAL/MOL
REMARK 927      BINDING AFFINITY PREDICTED BY RF-SCORE:    0.00 PKD
ROOT
HETATM    1  C   UNL     1     -12.939   9.528  72.251  1.00  0.00    -0.384 C  
HETATM    2  C   UNL     1     -13.493  10.149  70.962  1.00  0.00    -0.220 C  
HETATM    3  N   UNL     1     -14.048   8.745  72.839  1.00  0.00    -1.064 NA 
HETATM    4  H1  UNL     1     -13.679   8.333  73.696  1.00  0.00     0.000 HD 
HETATM    5  C   UNL     1     -12.419  10.729  70.071  1.00  0.00    -0.317 C  
HETATM    6  H2  UNL     1     -14.446   8.060  72.198  1.00  0.00     0.000 HD 
HETATM    7  C   UNL     1     -11.221   9.793  69.923  1.00  0.00    -0.229 C  
HETATM    8  C   UNL     1     -11.559   8.758  72.105  1.00  0.00    -0.364 C  
HETATM    9  O   UNL     1     -10.669   9.396  71.189  1.00  0.00    -0.298 OA 
ENDROOT
BRANCH   7  10
HETATM   10  C   UNL     1     -10.120  10.564  69.146  1.00  0.00    -0.224 C  
HETATM   11  N   UNL     1      -8.785  10.379  69.714  1.00  0.00    -0.385 NA 
HETATM   12  H1  UNL     1      -8.062  10.886  69.204  1.00  0.00     0.000 HD 
HETATM   13  H2  UNL     1      -8.554   9.388  69.787  1.00  0.00     0.000 HD 
ENDBRANCH   7  10
BRANCH   8  14
HETATM   14  O   UNL     1     -11.780   7.371  71.847  1.00  0.00    -0.271 OA 
BRANCH  14  15
HETATM   15  C   UNL     1     -10.676   6.433  71.782  1.00  0.00    -0.233 C  
HETATM   16  C   UNL     1      -9.859   6.779  73.058  1.00  0.00    -0.171 C  
HETATM   17  N   UNL     1     -10.631   6.485  74.281  1.00  0.00    -0.419 NA 
HETATM   18  C   UNL     1      -8.530   6.069  73.221  1.00  0.00    -0.117 C  
HETATM   19  H2  UNL     1     -10.957   5.519  74.295  1.00  0.00     0.000 HD 
HETATM   20  H1  UNL     1     -10.095   6.712  75.118  1.00  0.00     0.000 HD 
HETATM   21  C   UNL     1      -7.649   6.143  71.985  1.00  0.00    -0.096 C  
HETATM   22  N   UNL     1      -6.413   5.442  72.370  1.00  0.00    -0.050 NA 
HETATM   23  C   UNL     1      -8.438   5.560  70.771  1.00  0.00    -0.122 C  
HETATM   24  C   UNL     1      -9.736   6.438  70.519  1.00  0.00    -0.168 C  
HETATM   25  O   UNL     1     -10.450   5.914  69.385  1.00  0.00    -0.218 OA 
HETATM   26  H2  UNL     1      -6.564   4.494  72.717  1.00  0.00     0.000 HD 
HETATM   27  H1  UNL     1      -5.822   5.491  71.541  1.00  0.00     0.000 HD 
HETATM   28  H   UNL     1      -9.882   5.917  68.622  1.00  0.00     0.000 HD 
BRANCH  23  29
HETATM   29  O   UNL     1      -7.615   5.413  69.571  1.00  0.00    -0.068 OA 
BRANCH  29  30
HETATM   30  C   UNL     1      -6.928   4.129  69.537  1.00  0.00    -0.046 C  
HETATM   31  O   UNL     1      -7.613   3.153  70.333  1.00  0.00    -0.043 OA 
HETATM   32  C   UNL     1      -8.885   2.800  69.763  1.00  0.00    -0.086 C  
HETATM   33  C   UNL     1      -8.652   2.049  68.452  1.00  0.00    -0.071 C  
HETATM   34  H   UNL     1      -5.856   4.215  66.411  1.00  0.00     0.000 HD 
HETATM   35  O   UNL     1      -9.882   1.609  67.874  1.00  0.00    -0.400 OA 
HETATM   36  C   UNL     1      -7.904   2.973  67.461  1.00  0.00    -0.076 C  
HETATM   37  H1  UNL     1      -7.097   2.839  65.567  1.00  0.00     0.000 HD 
HETATM   38  H2  UNL     1      -8.423   1.813  65.802  1.00  0.00     0.000 HD 
HETATM   39  C   UNL     1      -6.649   3.574  68.115  1.00  0.00    -0.038 C  
HETATM   40  N   UNL     1      -7.591   2.230  66.220  1.00  0.00    -0.070 NA 
HETATM   41  H   UNL     1      -9.737   1.142  67.059  1.00  0.00     0.000 HD 
HETATM   42  O   UNL     1      -6.026   4.554  67.281  1.00  0.00    -0.022 OA 
BRANCH  32  43
HETATM   43  C   UNL     1      -9.649   1.983  70.807  1.00  0.00    -0.097 C  
HETATM   44  O   UNL     1      -9.940   2.826  71.931  1.00  0.00    -0.164 OA 
HETATM   45  H   UNL     1     -10.414   2.319  72.580  1.00  0.00     0.000 HD 
ENDBRANCH  32  43
ENDBRANCH  29  30
ENDBRANCH  23  29
ENDBRANCH  14  15
ENDBRANCH   8  14
TORSDOF 6
ENDMDL
MODEL      203
REMARK 921   NORMALIZED FREE ENERGY PREDICTED BY IDOCK:   -3.92 KCAL/MOL
REMARK 922        TOTAL FREE ENERGY PREDICTED BY IDOCK:   -6.85 KCAL/MOL
REMARK 923 INTER-LIGAND FREE ENERGY PREDICTED BY IDOCK:   -6.67 KCAL/MOL
REMARK 924 INTRA-LIGAND FREE ENERGY PREDICTED BY IDOCK:   -0.19 KCAL/MOL
REMARK 927      BINDING AFFINITY PREDICTED BY RF-SCORE:    0.00 PKD
ROOT
HETATM    1  C   UNL     1      -9.691  12.761  67.274  1.00  0.00    -0.206 C  
HETATM    2  C   UNL     1     -10.564  13.909  66.752  1.00  0.00    -0.277 C  
HETATM    3  N   UNL     1      -9.525  12.998  68.725  1.00  0.00    -0.410 NA 
HETATM    4  H1  UNL     1      -8.944  12.235  69.071  1.00  0.00     0.000 HD 
HETATM    5  C   UNL     1     -11.092  13.669  65.356  1.00  0.00    -0.304 C  
HETATM    6  H2  UNL     1     -10.409  13.094  69.224  1.00  0.00     0.000 HD 
HETATM    7  C   UNL     1     -11.639  12.253  65.180  1.00  0.00    -0.351 C  
HETATM    8  C   UNL     1     -10.160  11.300  66.868  1.00  0.00    -0.212 C  
HETATM    9  O   UNL     1     -10.685  11.242  65.542  1.00  0.00    -0.267 OA 
ENDROOT
BRANCH   7  10
HETATM   10  C   UNL     1     -11.979  12.069  63.676  1.00  0.00    -0.515 C  
HETATM   11  N   UNL     1     -10.990  11.261  62.963  1.00  0.00    -0.836 NA 
HETATM   12  H1  UNL     1     -11.214  11.140  61.975  1.00  0.00     0.000 HD 
HETATM   13  H2  UNL     1     -10.860  10.358  63.420  1.00  0.00     0.000 HD 
ENDBRANCH   7  10
BRANCH   8  14
HETATM   14  O   UNL     1     -11.016  10.749  67.868  1.00  0.00    -0.243 OA 
BRANCH  14  15
HETATM   15  C   UNL     1     -10.729   9.466  68.481  1.00  0.00    -0.161 C  
HETATM   16  C   UNL     1      -9.984   9.871  69.783  1.00  0.00    -0.243 C  
HETATM   17  N   UNL     1     -10.870  10.619  70.695  1.00  0.00    -0.312 NA 
HETATM   18  C   UNL     1      -9.399   8.739  70.604  1.00  0.00    -0.234 C  
HETATM   19  H2  UNL     1     -11.724  10.100  70.897  1.00  0.00     0.000 HD 
HETATM   20  H1  UNL     1     -10.381  10.885  71.549  1.00  0.00     0.000 HD 
HETATM   21  C   UNL     1      -8.562   7.768  69.787  1.00  0.00    -0.134 C  
HETATM   22  N   UNL     1      -8.063   6.793  70.771  1.00  0.00    -0.117 NA 
HETATM   23  C   UNL     1      -9.438   7.207  68.624  1.00  0.00    -0.140 C  
HETATM   24  C   UNL     1      -9.887   8.403  67.682  1.00  0.00    -0.173 C  
HETATM   25  O   UNL     1     -10.675   7.881  66.597  1.00  0.00    -0.412 OA 
HETATM   26  H2  UNL     1      -8.796   6.348  71.323  1.00  0.00     0.000 HD 
HETATM   27  H1  UNL     1      -7.501   6.141  70.223  1.00  0.00     0.000 HD 
HETATM   28  H   UNL     1     -10.166   7.239  66.114  1.00  0.00     0.000 HD 
BRANCH  23  29
HETATM   29  O   UNL     1      -8.787   6.124  67.889  1.00  0.00    -0.113 OA 
BRANCH  29  30
HETATM   30  C   UNL     1      -8.787   6.365  66.453  1.00  0.00    -0.141 C  
HETATM   31  O   UNL     1      -7.517   6.858  66.009  1.00  0.00    -0.077 OA 
HETATM   32  C   UNL     1      -6.490   5.857  66.119  1.00  0.00    -0.046 C  
HETATM   33  C   UNL     1      -6.776   4.738  65.118  1.00  0.00    -0.048 C  
HETATM   34  H   UNL     1     -10.746   3.868  65.524  1.00  0.00     0.000 HD 
HETATM   35  O   UNL     1      -5.748   3.746  65.131  1.00  0.00    -0.020 OA 
HETATM   36  C   UNL     1      -8.140   4.089  65.454  1.00  0.00    -0.101 C  
HETATM   37  H1  UNL     1      -9.373   2.637  64.661  1.00  0.00     0.000 HD 
HETATM   38  H2  UNL     1      -7.732   2.370  64.337  1.00  0.00     0.000 HD 
HETATM   39  C   UNL     1      -9.236   5.158  65.587  1.00  0.00    -0.151 C  
HETATM   40  N   UNL     1      -8.473   3.064  64.439  1.00  0.00    -0.093 NA 
HETATM   41  H   UNL     1      -5.926   3.051  64.509  1.00  0.00     0.000 HD 
HETATM   42  O   UNL     1     -10.470   4.607  66.054  1.00  0.00    -0.290 OA 
BRANCH  32  43
HETATM   43  C   UNL     1      -5.144   6.548  65.894  1.00  0.00    -0.017 C  
HETATM   44  O   UNL     1      -5.297   7.952  66.148  1.00  0.00    -0.025 OA 
HETATM   45  H   UNL     1      -4.461   8.382  66.008  1.00  0.00     0.000 HD 
ENDBRANCH  32  43
ENDBRANCH  29  30
ENDBRANCH  23  29
ENDBRANCH  14  15
ENDBRANCH   8  14
TORSDOF 6
ENDMDL
MODEL      204
REMARK 921   NORMALIZED FREE ENERGY PREDICTED BY IDOCK:   -3.92 KCAL/MOL
REMARK 922        TOTAL FREE ENERGY PREDICTED BY IDOCK:   -6.85 KCAL/MOL
REMARK 923 INTER-LIGAND FREE ENERGY PREDICTED BY IDOCK:   -6.98 KCAL/MOL
REMARK 924 INTRA-LIGAND FREE ENERGY PREDICTED BY IDOCK:    0.13 KCAL/MOL
REMARK 927      BINDING AFFINITY PREDICTED BY RF-SCORE:    0.00 PKD
ROOT
HETATM    1  C   UNL     1      -6.278  20.134  69.181  1.00  0.00    -0.324 C  
HETATM    2  C   UNL     1      -7.484  19.973  70.115  1.00  0.00     0.519 C  
HETATM    3  N   UNL     1      -5.138  19.486  69.867  1.00  0.00    -0.185 NA 
HETATM    4  H1  UNL     1      -4.336  19.593  69.246  1.00  0.00     0.000 HD 
HETATM    5  C   UNL     1      -8.800  20.301  69.449  1.00  0.00     0.752 C  
HETATM    6  H2  UNL     1      -5.320  18.518  70.131  1.00  0.00     0.000 HD 
HETATM    7  C   UNL     1      -8.918  19.676  68.060  1.00  0.00    -0.322 C  
HETATM    8  C   UNL     1      -6.510  19.693  67.675  1.00  0.00    -0.213 C  
HETATM    9  O   UNL     1      -7.817  20.021  67.203  1.00  0.00    -0.279 OA 
ENDROOT
BRANCH   7  10
HETATM   10  C   UNL     1     -10.216  20.227  67.410  1.00  0.00    -0.354 C  
HETATM   11  N   UNL     1     -10.231  20.082  65.954  1.00  0.00    -0.481 NA 
HETATM   12  H1  UNL     1     -11.084  20.444  65.528  1.00  0.00     0.000 HD 
HETATM   13  H2  UNL     1     -10.070  19.112  65.683  1.00  0.00     0.000 HD 
ENDBRANCH   7  10
BRANCH   8  14
HETATM   14  O   UNL     1      -6.138  18.327  67.485  1.00  0.00    -0.166 OA 
BRANCH  14  15
HETATM   15  C   UNL     1      -7.111  17.259  67.602  1.00  0.00    -0.164 C  
HETATM   16  C   UNL     1      -6.283  16.115  68.251  1.00  0.00    -0.118 C  
HETATM   17  N   UNL     1      -5.845  16.480  69.612  1.00  0.00    -0.179 NA 
HETATM   18  C   UNL     1      -6.973  14.772  68.380  1.00  0.00    -0.114 C  
HETATM   19  H2  UNL     1      -6.633  16.752  70.199  1.00  0.00     0.000 HD 
HETATM   20  H1  UNL     1      -5.301  15.729  70.038  1.00  0.00     0.000 HD 
HETATM   21  C   UNL     1      -7.621  14.298  67.089  1.00  0.00     0.032 C  
HETATM   22  N   UNL     1      -8.184  12.980  67.421  1.00  0.00    -0.177 NA 
HETATM   23  C   UNL     1      -8.626  15.389  66.603  1.00  0.00    -0.283 C  
HETATM   24  C   UNL     1      -7.838  16.734  66.308  1.00  0.00    -0.299 C  
HETATM   25  O   UNL     1      -8.762  17.732  65.837  1.00  0.00    -0.514 OA 
HETATM   26  H2  UNL     1      -8.813  12.986  68.224  1.00  0.00     0.000 HD 
HETATM   27  H1  UNL     1      -8.619  12.661  66.555  1.00  0.00     0.000 HD 
HETATM   28  H   UNL     1      -9.201  17.415  65.055  1.00  0.00     0.000 HD 
BRANCH  23  29
HETATM   29  O   UNL     1      -9.440  14.952  65.469  1.00  0.00    -0.234 OA 
BRANCH  29  30
HETATM   30  C   UNL     1     -10.858  15.195  65.692  1.00  0.00    -0.360 C  
HETATM   31  O   UNL     1     -11.666  14.306  64.911  1.00  0.00    -0.359 OA 
HETATM   32  C   UNL     1     -11.546  12.945  65.360  1.00  0.00    -0.350 C  
HETATM   33  C   UNL     1     -12.172  12.822  66.750  1.00  0.00    -0.064 C  
HETATM   34  H   UNL     1     -10.734  15.982  68.901  1.00  0.00     0.000 HD 
HETATM   35  O   UNL     1     -12.146  11.474  67.220  1.00  0.00    -0.548 OA 
HETATM   36  C   UNL     1     -11.409  13.740  67.736  1.00  0.00    -0.303 C  
HETATM   37  H1  UNL     1     -11.557  14.306  69.714  1.00  0.00     0.000 HD 
HETATM   38  H2  UNL     1     -12.152  12.748  69.419  1.00  0.00     0.000 HD 
HETATM   39  C   UNL     1     -11.300  15.168  67.179  1.00  0.00    -0.290 C  
HETATM   40  N   UNL     1     -12.060  13.701  69.065  1.00  0.00    -0.340 NA 
HETATM   41  H   UNL     1     -12.535  11.397  68.083  1.00  0.00     0.000 HD 
HETATM   42  O   UNL     1     -10.464  15.998  67.990  1.00  0.00    -0.259 OA 
BRANCH  32  43
HETATM   43  C   UNL     1     -12.209  12.051  64.311  1.00  0.00    -0.308 C  
HETATM   44  O   UNL     1     -12.319  12.784  63.082  1.00  0.00    -0.699 OA 
HETATM   45  H   UNL     1     -12.731  12.228  62.431  1.00  0.00     0.000 HD 
ENDBRANCH  32  43
ENDBRANCH  29  30
ENDBRANCH  23  29
ENDBRANCH  14  15
ENDBRANCH   8  14
TORSDOF 6
ENDMDL
MODEL      205
REMARK 921   NORMALIZED FREE ENERGY PREDICTED BY IDOCK:   -3.90 KCAL/MOL
REMARK 922        TOTAL FREE ENERGY PREDICTED BY IDOCK:   -6.82 KCAL/MOL
REMARK 923 INTER-LIGAND FREE ENERGY PREDICTED BY IDOCK:   -6.42 KCAL/MOL
REMARK 924 INTRA-LIGAND FREE ENERGY PREDICTED BY IDOCK:   -0.40 KCAL/MOL
REMARK 927      BINDING AFFINITY PREDICTED BY RF-SCORE:    0.00 PKD
ROOT
HETATM    1  C   UNL     1      -7.512   8.311  63.751  1.00  0.00    -0.121 C  
HETATM    2  C   UNL     1      -7.985   7.298  62.701  1.00  0.00    -0.123 C  
HETATM    3  N   UNL     1      -7.878   9.646  63.228  1.00  0.00    -0.128 NA 
HETATM    4  H1  UNL     1      -7.564  10.319  63.927  1.00  0.00     0.000 HD 
HETATM    5  C   UNL     1      -7.972   5.872  63.201  1.00  0.00    -0.108 C  
HETATM    6  H2  UNL     1      -8.868   9.733  62.996  1.00  0.00     0.000 HD 
HETATM    7  C   UNL     1      -8.574   5.743  64.599  1.00  0.00     0.002 C  
HETATM    8  C   UNL     1      -7.961   8.014  65.244  1.00  0.00    -0.124 C  
HETATM    9  O   UNL     1      -7.951   6.620  65.552  1.00  0.00    -0.104 OA 
ENDROOT
BRANCH   7  10
HETATM   10  C   UNL     1      -8.341   4.283  65.074  1.00  0.00    -0.115 C  
HETATM   11  N   UNL     1      -7.014   4.077  65.653  1.00  0.00    -0.060 NA 
HETATM   12  H1  UNL     1      -6.862   3.118  65.965  1.00  0.00     0.000 HD 
HETATM   13  H2  UNL     1      -6.840   4.739  66.410  1.00  0.00     0.000 HD 
ENDBRANCH   7  10
BRANCH   8  14
HETATM   14  O   UNL     1      -9.190   8.677  65.543  1.00  0.00    -0.180 OA 
BRANCH  14  15
HETATM   15  C   UNL     1      -9.261   9.703  66.566  1.00  0.00    -0.158 C  
HETATM   16  C   UNL     1     -10.199   9.061  67.626  1.00  0.00    -0.242 C  
HETATM   17  N   UNL     1      -9.583   7.863  68.228  1.00  0.00    -0.153 NA 
HETATM   18  C   UNL     1     -10.613   9.946  68.784  1.00  0.00    -0.246 C  
HETATM   19  H2  UNL     1      -8.664   8.070  68.618  1.00  0.00     0.000 HD 
HETATM   20  H1  UNL     1     -10.199   7.442  68.924  1.00  0.00     0.000 HD 
HETATM   21  C   UNL     1     -11.145  11.302  68.350  1.00  0.00    -0.240 C  
HETATM   22  N   UNL     1     -11.522  11.970  69.607  1.00  0.00    -0.439 NA 
HETATM   23  C   UNL     1     -10.060  12.010  67.478  1.00  0.00    -0.195 C  
HETATM   24  C   UNL     1      -9.780  11.138  66.182  1.00  0.00    -0.218 C  
HETATM   25  O   UNL     1      -8.798  11.803  65.367  1.00  0.00    -0.403 OA 
HETATM   26  H2  UNL     1     -10.771  12.018  70.294  1.00  0.00     0.000 HD 
HETATM   27  H1  UNL     1     -11.879  12.880  69.315  1.00  0.00     0.000 HD 
HETATM   28  H   UNL     1      -9.111  12.670  65.135  1.00  0.00     0.000 HD 
BRANCH  23  29
HETATM   29  O   UNL     1     -10.395  13.398  67.163  1.00  0.00    -0.244 OA 
BRANCH  29  30
HETATM   30  C   UNL     1      -9.454  13.984  66.219  1.00  0.00    -0.227 C  
HETATM   31  O   UNL     1     -10.111  14.375  65.007  1.00  0.00    -0.390 OA 
HETATM   32  C   UNL     1     -11.008  15.479  65.221  1.00  0.00    -0.380 C  
HETATM   33  C   UNL     1     -10.191  16.723  65.569  1.00  0.00    -0.164 C  
HETATM   34  H   UNL     1      -7.474  15.525  68.373  1.00  0.00     0.000 HD 
HETATM   35  O   UNL     1     -11.026  17.872  65.724  1.00  0.00    -0.106 OA 
HETATM   36  C   UNL     1      -9.401  16.466  66.875  1.00  0.00    -0.227 C  
HETATM   37  H1  UNL     1      -8.014  17.459  68.036  1.00  0.00     0.000 HD 
HETATM   38  H2  UNL     1      -9.064  18.501  67.213  1.00  0.00     0.000 HD 
HETATM   39  C   UNL     1      -8.606  15.154  66.782  1.00  0.00    -0.262 C  
HETATM   40  N   UNL     1      -8.535  17.629  67.176  1.00  0.00    -0.222 NA 
HETATM   41  H   UNL     1     -10.519  18.646  65.940  1.00  0.00     0.000 HD 
HETATM   42  O   UNL     1      -7.994  14.808  68.028  1.00  0.00    -0.121 OA 
BRANCH  32  43
HETATM   43  C   UNL     1     -11.855  15.638  63.957  1.00  0.00     0.068 C  
HETATM   44  O   UNL     1     -12.740  14.513  63.849  1.00  0.00    -0.785 OA 
HETATM   45  H   UNL     1     -13.265  14.612  63.064  1.00  0.00     0.000 HD 
ENDBRANCH  32  43
ENDBRANCH  29  30
ENDBRANCH  23  29
ENDBRANCH  14  15
ENDBRANCH   8  14
TORSDOF 6
ENDMDL
MODEL      206
REMARK 921   NORMALIZED FREE ENERGY PREDICTED BY IDOCK:   -3.83 KCAL/MOL
REMARK 922        TOTAL FREE ENERGY PREDICTED BY IDOCK:   -6.73 KCAL/MOL
REMARK 923 INTER-LIGAND FREE ENERGY PREDICTED BY IDOCK:   -5.15 KCAL/MOL
REMARK 924 INTRA-LIGAND FREE ENERGY PREDICTED BY IDOCK:   -1.58 KCAL/MOL
REMARK 927      BINDING AFFINITY PREDICTED BY RF-SCORE:    0.00 PKD
ROOT
HETATM    1  C   UNL     1      -7.336   7.145  63.825  1.00  0.00    -0.089 C  
HETATM    2  C   UNL     1      -7.757   6.379  62.565  1.00  0.00    -0.093 C  
HETATM    3  N   UNL     1      -7.818   8.532  63.644  1.00  0.00    -0.143 NA 
HETATM    4  H1  UNL     1      -7.538   9.041  64.481  1.00  0.00     0.000 HD 
HETATM    5  C   UNL     1      -7.621   4.880  62.704  1.00  0.00    -0.060 C  
HETATM    6  H2  UNL     1      -8.818   8.592  63.448  1.00  0.00     0.000 HD 
HETATM    7  C   UNL     1      -8.172   4.371  64.035  1.00  0.00    -0.102 C  
HETATM    8  C   UNL     1      -7.719   6.462  65.205  1.00  0.00    -0.098 C  
HETATM    9  O   UNL     1      -7.592   5.040  65.167  1.00  0.00    -0.078 OA 
ENDROOT
BRANCH   7  10
HETATM   10  C   UNL     1      -7.814   2.863  64.141  1.00  0.00    -0.077 C  
HETATM   11  N   UNL     1      -8.783   1.999  63.468  1.00  0.00    -0.084 NA 
HETATM   12  H1  UNL     1      -8.547   1.009  63.537  1.00  0.00     0.000 HD 
HETATM   13  H2  UNL     1      -8.905   2.277  62.494  1.00  0.00     0.000 HD 
ENDBRANCH   7  10
BRANCH   8  14
HETATM   14  O   UNL     1      -8.986   6.931  65.667  1.00  0.00    -0.079 OA 
BRANCH  14  15
HETATM   15  C   UNL     1      -9.135   7.526  66.981  1.00  0.00    -0.135 C  
HETATM   16  C   UNL     1     -10.311   6.714  67.590  1.00  0.00    -0.199 C  
HETATM   17  N   UNL     1      -9.943   5.297  67.774  1.00  0.00    -0.156 NA 
HETATM   18  C   UNL     1     -10.834   7.188  68.931  1.00  0.00    -0.160 C  
HETATM   19  H2  UNL     1      -9.093   5.200  68.329  1.00  0.00     0.000 HD 
HETATM   20  H1  UNL     1     -10.715   4.764  68.174  1.00  0.00     0.000 HD 
HETATM   21  C   UNL     1     -11.134   8.677  68.972  1.00  0.00     0.225 C  
HETATM   22  N   UNL     1     -11.663   8.910  70.326  1.00  0.00    -0.465 NA 
HETATM   23  C   UNL     1      -9.842   9.460  68.578  1.00  0.00    -0.156 C  
HETATM   24  C   UNL     1      -9.424   9.069  67.098  1.00  0.00    -0.152 C  
HETATM   25  O   UNL     1      -8.246   9.809  66.728  1.00  0.00    -0.119 OA 
HETATM   26  H2  UNL     1     -11.047   8.589  71.074  1.00  0.00     0.000 HD 
HETATM   27  H1  UNL     1     -11.864   9.910  70.353  1.00  0.00     0.000 HD 
HETATM   28  H   UNL     1      -8.421  10.741  66.799  1.00  0.00     0.000 HD 
BRANCH  23  29
HETATM   29  O   UNL     1      -9.969  10.905  68.766  1.00  0.00    -0.182 OA 
BRANCH  29  30
HETATM   30  C   UNL     1     -11.131  11.443  68.074  1.00  0.00    -0.257 C  
HETATM   31  O   UNL     1     -12.265  11.520  68.947  1.00  0.00    -0.415 OA 
HETATM   32  C   UNL     1     -12.077  12.506  69.977  1.00  0.00    -0.266 C  
HETATM   33  C   UNL     1     -12.059  13.895  69.338  1.00  0.00    -0.337 C  
HETATM   34  H   UNL     1      -9.587  13.600  66.101  1.00  0.00     0.000 HD 
HETATM   35  O   UNL     1     -11.946  14.924  70.323  1.00  0.00    -0.273 OA 
HETATM   36  C   UNL     1     -10.876  13.984  68.344  1.00  0.00    -0.249 C  
HETATM   37  H1  UNL     1     -10.120  15.350  66.995  1.00  0.00     0.000 HD 
HETATM   38  H2  UNL     1     -10.909  16.074  68.307  1.00  0.00     0.000 HD 
HETATM   39  C   UNL     1     -10.898  12.802  67.363  1.00  0.00    -0.240 C  
HETATM   40  N   UNL     1     -10.900  15.292  67.651  1.00  0.00    -0.287 NA 
HETATM   41  H   UNL     1     -11.934  15.787  69.927  1.00  0.00     0.000 HD 
HETATM   42  O   UNL     1      -9.731  12.768  66.536  1.00  0.00    -0.244 OA 
BRANCH  32  43
HETATM   43  C   UNL     1     -13.195  12.321  71.004  1.00  0.00     0.239 C  
HETATM   44  O   UNL     1     -13.137  10.981  71.514  1.00  0.00    -0.418 OA 
HETATM   45  H   UNL     1     -13.832  10.866  72.152  1.00  0.00     0.000 HD 
ENDBRANCH  32  43
ENDBRANCH  29  30
ENDBRANCH  23  29
ENDBRANCH  14  15
ENDBRANCH   8  14
TORSDOF 6
ENDMDL
MODEL      207
REMARK 921   NORMALIZED FREE ENERGY PREDICTED BY IDOCK:   -3.82 KCAL/MOL
REMARK 922        TOTAL FREE ENERGY PREDICTED BY IDOCK:   -6.72 KCAL/MOL
REMARK 923 INTER-LIGAND FREE ENERGY PREDICTED BY IDOCK:   -6.76 KCAL/MOL
REMARK 924 INTRA-LIGAND FREE ENERGY PREDICTED BY IDOCK:    0.04 KCAL/MOL
REMARK 927      BINDING AFFINITY PREDICTED BY RF-SCORE:    0.00 PKD
ROOT
HETATM    1  C   UNL     1     -12.459   9.568  72.243  1.00  0.00    -0.227 C  
HETATM    2  C   UNL     1     -13.264  10.426  71.260  1.00  0.00    -0.431 C  
HETATM    3  N   UNL     1     -13.446   8.735  72.966  1.00  0.00    -0.938 NA 
HETATM    4  H1  UNL     1     -12.911   8.164  73.620  1.00  0.00     0.000 HD 
HETATM    5  C   UNL     1     -12.403  11.114  70.226  1.00  0.00    -0.397 C  
HETATM    6  H2  UNL     1     -14.046   8.189  72.348  1.00  0.00     0.000 HD 
HETATM    7  C   UNL     1     -11.360  10.174  69.624  1.00  0.00    -0.235 C  
HETATM    8  C   UNL     1     -11.227   8.784  71.623  1.00  0.00    -0.324 C  
HETATM    9  O   UNL     1     -10.545   9.540  70.622  1.00  0.00    -0.262 OA 
ENDROOT
BRANCH   7  10
HETATM   10  C   UNL     1     -10.429  11.028  68.722  1.00  0.00    -0.198 C  
HETATM   11  N   UNL     1      -9.115  11.264  69.320  1.00  0.00    -0.383 NA 
HETATM   12  H1  UNL     1      -8.503  11.825  68.727  1.00  0.00     0.000 HD 
HETATM   13  H2  UNL     1      -8.668  10.383  69.575  1.00  0.00     0.000 HD 
ENDBRANCH   7  10
BRANCH   8  14
HETATM   14  O   UNL     1     -11.617   7.473  71.211  1.00  0.00    -0.267 OA 
BRANCH  14  15
HETATM   15  C   UNL     1     -10.675   6.573  70.573  1.00  0.00    -0.254 C  
HETATM   16  C   UNL     1      -9.479   6.575  71.565  1.00  0.00    -0.157 C  
HETATM   17  N   UNL     1      -9.860   5.985  72.862  1.00  0.00    -0.166 NA 
HETATM   18  C   UNL     1      -8.233   5.835  71.119  1.00  0.00    -0.122 C  
HETATM   19  H2  UNL     1     -10.252   5.051  72.749  1.00  0.00     0.000 HD 
HETATM   20  H1  UNL     1      -9.074   5.986  73.513  1.00  0.00     0.000 HD 
HETATM   21  C   UNL     1      -7.772   6.215  69.721  1.00  0.00    -0.097 C  
HETATM   22  N   UNL     1      -6.546   5.427  69.511  1.00  0.00    -0.045 NA 
HETATM   23  C   UNL     1      -8.945   5.968  68.722  1.00  0.00    -0.118 C  
HETATM   24  C   UNL     1     -10.173   6.892  69.116  1.00  0.00    -0.187 C  
HETATM   25  O   UNL     1     -11.245   6.681  68.179  1.00  0.00    -0.512 OA 
HETATM   26  H2  UNL     1      -6.667   4.424  69.651  1.00  0.00     0.000 HD 
HETATM   27  H1  UNL     1      -6.236   5.682  68.573  1.00  0.00     0.000 HD 
HETATM   28  H   UNL     1     -10.941   6.874  67.299  1.00  0.00     0.000 HD 
BRANCH  23  29
HETATM   29  O   UNL     1      -8.547   6.124  67.323  1.00  0.00    -0.105 OA 
BRANCH  29  30
HETATM   30  C   UNL     1      -7.581   5.113  66.916  1.00  0.00    -0.088 C  
HETATM   31  O   UNL     1      -7.890   3.839  67.494  1.00  0.00    -0.081 OA 
HETATM   32  C   UNL     1      -9.106   3.291  66.954  1.00  0.00    -0.172 C  
HETATM   33  C   UNL     1      -8.883   2.940  65.482  1.00  0.00    -0.131 C  
HETATM   34  H   UNL     1      -7.010   6.174  63.837  1.00  0.00     0.000 HD 
HETATM   35  O   UNL     1     -10.038   2.324  64.910  1.00  0.00    -0.332 OA 
HETATM   36  C   UNL     1      -8.528   4.227  64.699  1.00  0.00    -0.117 C  
HETATM   37  H1  UNL     1      -7.987   4.737  62.775  1.00  0.00     0.000 HD 
HETATM   38  H2  UNL     1      -8.978   3.366  62.848  1.00  0.00     0.000 HD 
HETATM   39  C   UNL     1      -7.378   4.983  65.384  1.00  0.00    -0.072 C  
HETATM   40  N   UNL     1      -8.221   3.888  63.291  1.00  0.00    -0.087 NA 
HETATM   41  H   UNL     1      -9.900   2.106  63.996  1.00  0.00     0.000 HD 
HETATM   42  O   UNL     1      -7.135   6.254  64.775  1.00  0.00    -0.053 OA 
BRANCH  32  43
HETATM   43  C   UNL     1      -9.494   2.089  67.817  1.00  0.00    -0.087 C  
HETATM   44  O   UNL     1      -9.603   2.516  69.182  1.00  0.00    -0.117 OA 
HETATM   45  H   UNL     1      -9.844   1.769  69.718  1.00  0.00     0.000 HD 
ENDBRANCH  32  43
ENDBRANCH  29  30
ENDBRANCH  23  29
ENDBRANCH  14  15
ENDBRANCH   8  14
TORSDOF 6
ENDMDL
MODEL      208
REMARK 921   NORMALIZED FREE ENERGY PREDICTED BY IDOCK:   -3.81 KCAL/MOL
REMARK 922        TOTAL FREE ENERGY PREDICTED BY IDOCK:   -6.70 KCAL/MOL
REMARK 923 INTER-LIGAND FREE ENERGY PREDICTED BY IDOCK:   -7.01 KCAL/MOL
REMARK 924 INTRA-LIGAND FREE ENERGY PREDICTED BY IDOCK:    0.31 KCAL/MOL
REMARK 927      BINDING AFFINITY PREDICTED BY RF-SCORE:    0.00 PKD
ROOT
HETATM    1  C   UNL     1      -8.563   7.578  65.387  1.00  0.00    -0.049 C  
HETATM    2  C   UNL     1      -7.403   7.640  64.386  1.00  0.00    -0.088 C  
HETATM    3  N   UNL     1      -8.028   6.912  66.595  1.00  0.00    -0.106 NA 
HETATM    4  H1  UNL     1      -8.800   6.870  67.260  1.00  0.00     0.000 HD 
HETATM    5  C   UNL     1      -7.674   8.557  63.216  1.00  0.00    -0.138 C  
HETATM    6  H2  UNL     1      -7.193   7.361  66.970  1.00  0.00     0.000 HD 
HETATM    7  C   UNL     1      -8.277   9.891  63.654  1.00  0.00    -0.157 C  
HETATM    8  C   UNL     1      -9.327   8.945  65.641  1.00  0.00    -0.191 C  
HETATM    9  O   UNL     1      -9.459   9.728  64.454  1.00  0.00    -0.274 OA 
ENDROOT
BRANCH   7  10
HETATM   10  C   UNL     1      -8.677  10.665  62.368  1.00  0.00    -0.270 C  
HETATM   11  N   UNL     1      -9.750  11.633  62.596  1.00  0.00    -0.459 NA 
HETATM   12  H1  UNL     1     -10.013  12.141  61.752  1.00  0.00     0.000 HD 
HETATM   13  H2  UNL     1      -9.506  12.277  63.349  1.00  0.00     0.000 HD 
ENDBRANCH   7  10
BRANCH   8  14
HETATM   14  O   UNL     1      -8.759   9.643  66.750  1.00  0.00    -0.132 OA 
BRANCH  14  15
HETATM   15  C   UNL     1      -9.284  10.924  67.182  1.00  0.00    -0.148 C  
HETATM   16  C   UNL     1     -10.815  10.746  66.988  1.00  0.00    -0.252 C  
HETATM   17  N   UNL     1     -11.350   9.709  67.892  1.00  0.00    -0.451 NA 
HETATM   18  C   UNL     1     -11.671  11.977  67.212  1.00  0.00    -0.339 C  
HETATM   19  H2  UNL     1     -11.115   9.902  68.865  1.00  0.00     0.000 HD 
HETATM   20  H1  UNL     1     -12.356   9.592  67.764  1.00  0.00     0.000 HD 
HETATM   21  C   UNL     1     -11.175  13.203  66.461  1.00  0.00    -0.310 C  
HETATM   22  N   UNL     1     -12.158  14.251  66.778  1.00  0.00    -0.456 NA 
HETATM   23  C   UNL     1      -9.695  13.479  66.875  1.00  0.00    -0.261 C  
HETATM   24  C   UNL     1      -8.796  12.238  66.465  1.00  0.00    -0.128 C  
HETATM   25  O   UNL     1      -7.428  12.504  66.825  1.00  0.00    -0.384 OA 
HETATM   26  H2  UNL     1     -12.297  14.403  67.777  1.00  0.00     0.000 HD 
HETATM   27  H1  UNL     1     -11.825  15.074  66.275  1.00  0.00     0.000 HD 
HETATM   28  H   UNL     1      -7.134  13.297  66.392  1.00  0.00     0.000 HD 
BRANCH  23  29
HETATM   29  O   UNL     1      -9.182  14.745  66.353  1.00  0.00    -0.277 OA 
BRANCH  29  30
HETATM   30  C   UNL     1      -8.401  15.466  67.348  1.00  0.00    -0.183 C  
HETATM   31  O   UNL     1      -8.107  16.799  66.910  1.00  0.00    -0.174 OA 
HETATM   32  C   UNL     1      -9.293  17.612  66.850  1.00  0.00    -0.264 C  
HETATM   33  C   UNL     1      -9.813  17.838  68.270  1.00  0.00    -0.340 C  
HETATM   34  H   UNL     1      -9.749  14.177  70.078  1.00  0.00     0.000 HD 
HETATM   35  O   UNL     1     -10.953  18.700  68.279  1.00  0.00    -0.235 OA 
HETATM   36  C   UNL     1     -10.178  16.474  68.903  1.00  0.00    -0.268 C  
HETATM   37  H1  UNL     1     -10.839  15.770  70.726  1.00  0.00     0.000 HD 
HETATM   38  H2  UNL     1     -11.357  17.347  70.392  1.00  0.00     0.000 HD 
HETATM   39  C   UNL     1      -9.011  15.482  68.773  1.00  0.00    -0.204 C  
HETATM   40  N   UNL     1     -10.598  16.670  70.309  1.00  0.00    -0.025 NA 
HETATM   41  H   UNL     1     -11.276  18.841  69.160  1.00  0.00     0.000 HD 
HETATM   42  O   UNL     1      -9.374  14.168  69.205  1.00  0.00     0.008 OA 
BRANCH  32  43
HETATM   43  C   UNL     1      -8.930  18.905  66.118  1.00  0.00    -0.157 C  
HETATM   44  O   UNL     1      -8.551  19.893  67.086  1.00  0.00    -0.301 OA 
HETATM   45  H   UNL     1      -8.326  20.697  66.632  1.00  0.00     0.000 HD 
ENDBRANCH  32  43
ENDBRANCH  29  30
ENDBRANCH  23  29
ENDBRANCH  14  15
ENDBRANCH   8  14
TORSDOF 6
ENDMDL
MODEL      209
REMARK 921   NORMALIZED FREE ENERGY PREDICTED BY IDOCK:   -3.76 KCAL/MOL
REMARK 922        TOTAL FREE ENERGY PREDICTED BY IDOCK:   -6.64 KCAL/MOL
REMARK 923 INTER-LIGAND FREE ENERGY PREDICTED BY IDOCK:   -5.74 KCAL/MOL
REMARK 924 INTRA-LIGAND FREE ENERGY PREDICTED BY IDOCK:   -0.90 KCAL/MOL
REMARK 927      BINDING AFFINITY PREDICTED BY RF-SCORE:    0.00 PKD
ROOT
HETATM    1  C   UNL     1     -11.721  13.389  65.596  1.00  0.00    -0.346 C  
HETATM    2  C   UNL     1     -11.134  14.543  64.774  1.00  0.00    -0.400 C  
HETATM    3  N   UNL     1     -11.831  12.240  64.671  1.00  0.00    -0.371 NA 
HETATM    4  H1  UNL     1     -12.222  11.473  65.218  1.00  0.00     0.000 HD 
HETATM    5  C   UNL     1     -10.666  15.702  65.623  1.00  0.00    -0.376 C  
HETATM    6  H2  UNL     1     -10.952  12.003  64.211  1.00  0.00     0.000 HD 
HETATM    7  C   UNL     1      -9.859  15.242  66.836  1.00  0.00    -0.235 C  
HETATM    8  C   UNL     1     -10.998  13.090  66.976  1.00  0.00    -0.265 C  
HETATM    9  O   UNL     1     -10.564  14.279  67.636  1.00  0.00    -0.250 OA 
ENDROOT
BRANCH   7  10
HETATM   10  C   UNL     1      -9.593  16.491  67.720  1.00  0.00    -0.232 C  
HETATM   11  N   UNL     1      -8.826  17.526  67.028  1.00  0.00    -0.234 NA 
HETATM   12  H1  UNL     1      -8.651  18.346  67.608  1.00  0.00     0.000 HD 
HETATM   13  H2  UNL     1      -9.276  17.789  66.151  1.00  0.00     0.000 HD 
ENDBRANCH   7  10
BRANCH   8  14
HETATM   14  O   UNL     1      -9.981  12.101  66.809  1.00  0.00    -0.199 OA 
BRANCH  14  15
HETATM   15  C   UNL     1     -10.225  10.709  67.132  1.00  0.00    -0.216 C  
HETATM   16  C   UNL     1      -9.720  10.606  68.598  1.00  0.00    -0.178 C  
HETATM   17  N   UNL     1     -10.541  11.431  69.505  1.00  0.00    -0.445 NA 
HETATM   18  C   UNL     1      -9.692   9.218  69.206  1.00  0.00    -0.169 C  
HETATM   19  H2  UNL     1     -11.530  11.197  69.432  1.00  0.00     0.000 HD 
HETATM   20  H1  UNL     1     -10.209  11.364  70.467  1.00  0.00     0.000 HD 
HETATM   21  C   UNL     1      -9.002   8.186  68.329  1.00  0.00    -0.136 C  
HETATM   22  N   UNL     1      -9.049   6.943  69.115  1.00  0.00    -0.136 NA 
HETATM   23  C   UNL     1      -9.707   8.162  66.936  1.00  0.00    -0.226 C  
HETATM   24  C   UNL     1      -9.561   9.586  66.250  1.00  0.00    -0.226 C  
HETATM   25  O   UNL     1     -10.190   9.556  64.956  1.00  0.00    -0.240 OA 
HETATM   26  H2  UNL     1      -9.986   6.674  69.415  1.00  0.00     0.000 HD 
HETATM   27  H1  UNL     1      -8.586   6.250  68.526  1.00  0.00     0.000 HD 
HETATM   28  H   UNL     1      -9.789   8.878  64.424  1.00  0.00     0.000 HD 
BRANCH  23  29
HETATM   29  O   UNL     1      -9.241   7.073  66.078  1.00  0.00    -0.127 OA 
BRANCH  29  30
HETATM   30  C   UNL     1      -7.802   6.874  66.185  1.00  0.00    -0.102 C  
HETATM   31  O   UNL     1      -7.495   5.573  66.700  1.00  0.00    -0.085 OA 
HETATM   32  C   UNL     1      -7.847   4.535  65.768  1.00  0.00    -0.095 C  
HETATM   33  C   UNL     1      -6.931   4.631  64.548  1.00  0.00    -0.050 C  
HETATM   34  H   UNL     1      -6.859   8.581  63.515  1.00  0.00     0.000 HD 
HETATM   35  O   UNL     1      -7.188   3.579  63.616  1.00  0.00    -0.048 OA 
HETATM   36  C   UNL     1      -7.135   6.004  63.863  1.00  0.00    -0.053 C  
HETATM   37  H1  UNL     1      -6.324   7.051  62.282  1.00  0.00     0.000 HD 
HETATM   38  H2  UNL     1      -6.262   5.373  62.071  1.00  0.00     0.000 HD 
HETATM   39  C   UNL     1      -7.006   7.147  64.882  1.00  0.00    -0.055 C  
HETATM   40  N   UNL     1      -6.189   6.146  62.733  1.00  0.00    -0.026 NA 
HETATM   41  H   UNL     1      -6.619   3.637  62.858  1.00  0.00     0.000 HD 
HETATM   42  O   UNL     1      -7.346   8.414  64.313  1.00  0.00    -0.088 OA 
BRANCH  32  43
HETATM   43  C   UNL     1      -7.747   3.199  66.505  1.00  0.00    -0.077 C  
HETATM   44  O   UNL     1      -7.376   3.448  67.868  1.00  0.00    -0.054 OA 
HETATM   45  H   UNL     1      -7.314   2.618  68.325  1.00  0.00     0.000 HD 
ENDBRANCH  32  43
ENDBRANCH  29  30
ENDBRANCH  23  29
ENDBRANCH  14  15
ENDBRANCH   8  14
TORSDOF 6
ENDMDL
MODEL      210
REMARK 921   NORMALIZED FREE ENERGY PREDICTED BY IDOCK:   -3.72 KCAL/MOL
REMARK 922        TOTAL FREE ENERGY PREDICTED BY IDOCK:   -6.59 KCAL/MOL
REMARK 923 INTER-LIGAND FREE ENERGY PREDICTED BY IDOCK:   -6.57 KCAL/MOL
REMARK 924 INTRA-LIGAND FREE ENERGY PREDICTED BY IDOCK:   -0.02 KCAL/MOL
REMARK 927      BINDING AFFINITY PREDICTED BY RF-SCORE:    0.00 PKD
ROOT
HETATM    1  C   UNL     1      -8.811   3.624  67.659  1.00  0.00    -0.121 C  
HETATM    2  C   UNL     1      -9.208   2.461  68.577  1.00  0.00    -0.242 C  
HETATM    3  N   UNL     1      -9.872   3.717  66.632  1.00  0.00    -0.389 NA 
HETATM    4  H1  UNL     1      -9.608   4.490  66.021  1.00  0.00     0.000 HD 
HETATM    5  C   UNL     1      -8.407   2.413  69.857  1.00  0.00    -0.077 C  
HETATM    6  H2  UNL     1     -10.809   3.811  67.023  1.00  0.00     0.000 HD 
HETATM    7  C   UNL     1      -8.273   3.789  70.508  1.00  0.00    -0.057 C  
HETATM    8  C   UNL     1      -8.445   4.984  68.389  1.00  0.00    -0.094 C  
HETATM    9  O   UNL     1      -7.738   4.776  69.612  1.00  0.00    -0.058 OA 
ENDROOT
BRANCH   7  10
HETATM   10  C   UNL     1      -7.289   3.646  71.701  1.00  0.00    -0.051 C  
HETATM   11  N   UNL     1      -6.897   4.934  72.274  1.00  0.00    -0.055 NA 
HETATM   12  H1  UNL     1      -6.251   4.840  73.057  1.00  0.00     0.000 HD 
HETATM   13  H2  UNL     1      -7.717   5.479  72.541  1.00  0.00     0.000 HD 
ENDBRANCH   7  10
BRANCH   8  14
HETATM   14  O   UNL     1      -9.597   5.820  68.508  1.00  0.00    -0.120 OA 
BRANCH  14  15
HETATM   15  C   UNL     1      -9.501   7.259  68.354  1.00  0.00    -0.142 C  
HETATM   16  C   UNL     1      -9.800   7.774  69.789  1.00  0.00    -0.178 C  
HETATM   17  N   UNL     1      -8.752   7.351  70.737  1.00  0.00    -0.144 NA 
HETATM   18  C   UNL     1      -9.929   9.276  69.952  1.00  0.00    -0.226 C  
HETATM   19  H2  UNL     1      -7.825   7.634  70.422  1.00  0.00     0.000 HD 
HETATM   20  H1  UNL     1      -8.949   7.689  71.679  1.00  0.00     0.000 HD 
HETATM   21  C   UNL     1     -10.873   9.915  68.946  1.00  0.00    -0.210 C  
HETATM   22  N   UNL     1     -10.884  11.342  69.307  1.00  0.00    -0.337 NA 
HETATM   23  C   UNL     1     -10.386   9.559  67.506  1.00  0.00    -0.248 C  
HETATM   24  C   UNL     1     -10.432   7.985  67.312  1.00  0.00    -0.314 C  
HETATM   25  O   UNL     1     -10.006   7.659  65.976  1.00  0.00    -0.436 OA 
HETATM   26  H2  UNL     1      -9.959  11.771  69.340  1.00  0.00     0.000 HD 
HETATM   27  H1  UNL     1     -11.517  11.772  68.632  1.00  0.00     0.000 HD 
HETATM   28  H   UNL     1     -10.568   8.098  65.347  1.00  0.00     0.000 HD 
BRANCH  23  29
HETATM   29  O   UNL     1     -11.114  10.278  66.462  1.00  0.00     0.007 OA 
BRANCH  29  30
HETATM   30  C   UNL     1     -10.215  10.971  65.550  1.00  0.00    -0.268 C  
HETATM   31  O   UNL     1     -10.796  12.193  65.077  1.00  0.00    -0.282 OA 
HETATM   32  C   UNL     1     -10.921  13.164  66.130  1.00  0.00    -0.283 C  
HETATM   33  C   UNL     1      -9.525  13.610  66.566  1.00  0.00    -0.259 C  
HETATM   34  H   UNL     1      -7.342  10.185  66.985  1.00  0.00     0.000 HD 
HETATM   35  O   UNL     1      -9.588  14.630  67.564  1.00  0.00    -0.203 OA 
HETATM   36  C   UNL     1      -8.745  12.388  67.108  1.00  0.00    -0.195 C  
HETATM   37  H1  UNL     1      -6.847  11.982  67.806  1.00  0.00     0.000 HD 
HETATM   38  H2  UNL     1      -7.337  13.576  68.096  1.00  0.00     0.000 HD 
HETATM   39  C   UNL     1      -8.789  11.224  66.105  1.00  0.00    -0.190 C  
HETATM   40  N   UNL     1      -7.361  12.787  67.448  1.00  0.00    -0.149 NA 
HETATM   41  H   UNL     1      -8.721  14.908  67.834  1.00  0.00     0.000 HD 
HETATM   42  O   UNL     1      -8.215  10.030  66.644  1.00  0.00    -0.120 OA 
BRANCH  32  43
HETATM   43  C   UNL     1     -11.791  14.307  65.604  1.00  0.00    -0.373 C  
HETATM   44  O   UNL     1     -13.100  13.795  65.314  1.00  0.00    -0.756 OA 
HETATM   45  H   UNL     1     -13.640  14.505  64.987  1.00  0.00     0.000 HD 
ENDBRANCH  32  43
ENDBRANCH  29  30
ENDBRANCH  23  29
ENDBRANCH  14  15
ENDBRANCH   8  14
TORSDOF 6
ENDMDL
MODEL      211
REMARK 921   NORMALIZED FREE ENERGY PREDICTED BY IDOCK:   -3.64 KCAL/MOL
REMARK 922        TOTAL FREE ENERGY PREDICTED BY IDOCK:   -6.48 KCAL/MOL
REMARK 923 INTER-LIGAND FREE ENERGY PREDICTED BY IDOCK:   -5.35 KCAL/MOL
REMARK 924 INTRA-LIGAND FREE ENERGY PREDICTED BY IDOCK:   -1.12 KCAL/MOL
REMARK 927      BINDING AFFINITY PREDICTED BY RF-SCORE:    0.00 PKD
ROOT
HETATM    1  C   UNL     1      -9.157   7.372  66.585  1.00  0.00    -0.154 C  
HETATM    2  C   UNL     1      -9.824   6.063  66.146  1.00  0.00    -0.032 C  
HETATM    3  N   UNL     1      -9.340   8.322  65.466  1.00  0.00    -0.420 NA 
HETATM    4  H1  UNL     1      -8.896   9.192  65.757  1.00  0.00     0.000 HD 
HETATM    5  C   UNL     1     -10.005   5.078  67.278  1.00  0.00    -0.220 C  
HETATM    6  H2  UNL     1     -10.314   8.437  65.185  1.00  0.00     0.000 HD 
HETATM    7  C   UNL     1     -10.556   5.741  68.540  1.00  0.00    -0.229 C  
HETATM    8  C   UNL     1      -9.578   7.913  68.016  1.00  0.00    -0.151 C  
HETATM    9  O   UNL     1      -9.766   6.863  68.966  1.00  0.00    -0.149 OA 
ENDROOT
BRANCH   7  10
HETATM   10  C   UNL     1     -10.526   4.681  69.674  1.00  0.00     0.325 C  
HETATM   11  N   UNL     1      -9.562   3.609  69.427  1.00  0.00    -0.174 NA 
HETATM   12  H1  UNL     1      -9.543   2.913  70.173  1.00  0.00     0.000 HD 
HETATM   13  H2  UNL     1      -8.630   3.988  69.258  1.00  0.00     0.000 HD 
ENDBRANCH   7  10
BRANCH   8  14
HETATM   14  O   UNL     1     -10.677   8.819  67.911  1.00  0.00    -0.203 OA 
BRANCH  14  15
HETATM   15  C   UNL     1     -10.667  10.096  68.597  1.00  0.00    -0.222 C  
HETATM   16  C   UNL     1     -11.806   9.930  69.641  1.00  0.00     0.110 C  
HETATM   17  N   UNL     1     -11.476   8.885  70.628  1.00  0.00    -0.316 NA 
HETATM   18  C   UNL     1     -12.170  11.163  70.444  1.00  0.00    -0.457 C  
HETATM   19  H2  UNL     1     -10.579   9.063  71.078  1.00  0.00     0.000 HD 
HETATM   20  H1  UNL     1     -12.224   8.776  71.314  1.00  0.00     0.000 HD 
HETATM   21  C   UNL     1     -12.405  12.396  69.586  1.00  0.00     0.021 C  
HETATM   22  N   UNL     1     -12.783  13.446  70.546  1.00  0.00    -0.183 NA 
HETATM   23  C   UNL     1     -11.131  12.658  68.724  1.00  0.00    -0.263 C  
HETATM   24  C   UNL     1     -10.881  11.417  67.767  1.00  0.00    -0.231 C  
HETATM   25  O   UNL     1      -9.720  11.670  66.955  1.00  0.00    -0.184 OA 
HETATM   26  H2  UNL     1     -12.107  13.586  71.297  1.00  0.00     0.000 HD 
HETATM   27  H1  UNL     1     -12.941  14.274  69.970  1.00  0.00     0.000 HD 
HETATM   28  H   UNL     1      -9.849  12.467  66.454  1.00  0.00     0.000 HD 
BRANCH  23  29
HETATM   29  O   UNL     1     -11.180  13.927  68.000  1.00  0.00    -0.252 OA 
BRANCH  29  30
HETATM   30  C   UNL     1      -9.891  14.604  68.000  1.00  0.00    -0.216 C  
HETATM   31  O   UNL     1      -9.598  15.162  66.713  1.00  0.00    -0.226 OA 
HETATM   32  C   UNL     1     -10.479  16.252  66.393  1.00  0.00    -0.294 C  
HETATM   33  C   UNL     1     -10.187  17.422  67.334  1.00  0.00    -0.326 C  
HETATM   34  H   UNL     1      -9.956  15.809  71.078  1.00  0.00     0.000 HD 
HETATM   35  O   UNL     1     -10.987  18.562  67.016  1.00  0.00    -0.293 OA 
HETATM   36  C   UNL     1     -10.452  16.981  68.793  1.00  0.00    -0.347 C  
HETATM   37  H1  UNL     1     -10.261  17.784  70.684  1.00  0.00     0.000 HD 
HETATM   38  H2  UNL     1     -10.562  18.948  69.493  1.00  0.00     0.000 HD 
HETATM   39  C   UNL     1      -9.713  15.672  69.111  1.00  0.00    -0.249 C  
HETATM   40  N   UNL     1     -10.086  18.075  69.722  1.00  0.00     0.334 NA 
HETATM   41  H   UNL     1     -10.805  19.289  67.600  1.00  0.00     0.000 HD 
HETATM   42  O   UNL     1     -10.065  15.155  70.398  1.00  0.00    -0.080 OA 
BRANCH  32  43
HETATM   43  C   UNL     1     -10.278  16.591  64.915  1.00  0.00     0.540 C  
HETATM   44  O   UNL     1     -11.174  17.653  64.558  1.00  0.00    -0.811 OA 
HETATM   45  H   UNL     1     -11.049  17.864  63.640  1.00  0.00     0.000 HD 
ENDBRANCH  32  43
ENDBRANCH  29  30
ENDBRANCH  23  29
ENDBRANCH  14  15
ENDBRANCH   8  14
TORSDOF 6
ENDMDL
MODEL      212
REMARK 921   NORMALIZED FREE ENERGY PREDICTED BY IDOCK:   -3.60 KCAL/MOL
REMARK 922        TOTAL FREE ENERGY PREDICTED BY IDOCK:   -6.41 KCAL/MOL
REMARK 923 INTER-LIGAND FREE ENERGY PREDICTED BY IDOCK:   -6.97 KCAL/MOL
REMARK 924 INTRA-LIGAND FREE ENERGY PREDICTED BY IDOCK:    0.56 KCAL/MOL
REMARK 927      BINDING AFFINITY PREDICTED BY RF-SCORE:    0.00 PKD
ROOT
HETATM    1  C   UNL     1     -11.476  11.861  67.494  1.00  0.00    -0.326 C  
HETATM    2  C   UNL     1     -10.657  10.583  67.713  1.00  0.00    -0.285 C  
HETATM    3  N   UNL     1     -11.625  12.488  68.826  1.00  0.00    -0.299 NA 
HETATM    4  H1  UNL     1     -12.169  13.337  68.681  1.00  0.00     0.000 HD 
HETATM    5  C   UNL     1     -10.146   9.975  66.427  1.00  0.00    -0.307 C  
HETATM    6  H2  UNL     1     -10.736  12.651  69.300  1.00  0.00     0.000 HD 
HETATM    7  C   UNL     1      -9.548  11.023  65.490  1.00  0.00    -0.222 C  
HETATM    8  C   UNL     1     -10.958  12.821  66.341  1.00  0.00    -0.276 C  
HETATM    9  O   UNL     1     -10.455  12.102  65.215  1.00  0.00    -0.258 OA 
ENDROOT
BRANCH   7  10
HETATM   10  C   UNL     1      -9.228  10.316  64.145  1.00  0.00    -0.267 C  
HETATM   11  N   UNL     1      -9.256  11.228  63.001  1.00  0.00    -0.443 NA 
HETATM   12  H1  UNL     1      -9.047  10.763  62.117  1.00  0.00     0.000 HD 
HETATM   13  H2  UNL     1      -8.634  12.022  63.152  1.00  0.00     0.000 HD 
ENDBRANCH   7  10
BRANCH   8  14
HETATM   14  O   UNL     1     -10.062  13.803  66.865  1.00  0.00    -0.252 OA 
BRANCH  14  15
HETATM   15  C   UNL     1     -10.452  15.195  66.974  1.00  0.00    -0.282 C  
HETATM   16  C   UNL     1     -10.811  15.564  65.508  1.00  0.00    -0.361 C  
HETATM   17  N   UNL     1     -11.983  14.802  65.038  1.00  0.00    -0.349 NA 
HETATM   18  C   UNL     1     -11.124  17.022  65.237  1.00  0.00     0.097 C  
HETATM   19  H2  UNL     1     -12.782  14.920  65.660  1.00  0.00     0.000 HD 
HETATM   20  H1  UNL     1     -12.219  15.044  64.075  1.00  0.00     0.000 HD 
HETATM   21  C   UNL     1     -10.080  17.978  65.790  1.00  0.00    -0.030 C  
HETATM   22  N   UNL     1     -10.549  19.312  65.383  1.00  0.00    -0.411 NA 
HETATM   23  C   UNL     1      -9.929  17.724  67.322  1.00  0.00    -0.324 C  
HETATM   24  C   UNL     1      -9.428  16.237  67.560  1.00  0.00    -0.227 C  
HETATM   25  O   UNL     1      -9.266  16.011  68.973  1.00  0.00    -0.218 OA 
HETATM   26  H2  UNL     1     -11.503  19.525  65.675  1.00  0.00     0.000 HD 
HETATM   27  H1  UNL     1      -9.849  19.954  65.754  1.00  0.00     0.000 HD 
HETATM   28  H   UNL     1      -8.648  16.641  69.327  1.00  0.00     0.000 HD 
BRANCH  23  29
HETATM   29  O   UNL     1      -9.085  18.716  67.987  1.00  0.00    -0.291 OA 
BRANCH  29  30
HETATM   30  C   UNL     1      -7.750  18.200  68.258  1.00  0.00    -0.283 C  
HETATM   31  O   UNL     1      -7.028  17.965  67.043  1.00  0.00    -0.173 OA 
HETATM   32  C   UNL     1      -6.714  19.194  66.365  1.00  0.00    -0.201 C  
HETATM   33  C   UNL     1      -5.704  19.980  67.201  1.00  0.00    -0.167 C  
HETATM   34  H   UNL     1      -7.116  19.884  71.032  1.00  0.00     0.000 HD 
HETATM   35  O   UNL     1      -5.300  21.181  66.542  1.00  0.00    -0.187 OA 
HETATM   36  C   UNL     1      -6.333  20.318  68.575  1.00  0.00    -0.311 C  
HETATM   37  H1  UNL     1      -5.749  21.223  70.335  1.00  0.00     0.000 HD 
HETATM   38  H2  UNL     1      -4.940  21.825  68.975  1.00  0.00     0.000 HD 
HETATM   39  C   UNL     1      -6.906  19.056  69.239  1.00  0.00    -0.283 C  
HETATM   40  N   UNL     1      -5.335  21.001  69.429  1.00  0.00    -0.363 NA 
HETATM   41  H   UNL     1      -4.672  21.670  67.061  1.00  0.00     0.000 HD 
HETATM   42  O   UNL     1      -7.633  19.360  70.432  1.00  0.00     0.683 OA 
BRANCH  32  43
HETATM   43  C   UNL     1      -6.203  18.834  64.969  1.00  0.00    -0.239 C  
HETATM   44  O   UNL     1      -6.700  19.799  64.031  1.00  0.00    -0.113 OA 
HETATM   45  H   UNL     1      -6.382  19.575  63.164  1.00  0.00     0.000 HD 
ENDBRANCH  32  43
ENDBRANCH  29  30
ENDBRANCH  23  29
ENDBRANCH  14  15
ENDBRANCH   8  14
TORSDOF 6
ENDMDL
MODEL      213
REMARK 921   NORMALIZED FREE ENERGY PREDICTED BY IDOCK:   -3.56 KCAL/MOL
REMARK 922        TOTAL FREE ENERGY PREDICTED BY IDOCK:   -6.36 KCAL/MOL
REMARK 923 INTER-LIGAND FREE ENERGY PREDICTED BY IDOCK:   -4.75 KCAL/MOL
REMARK 924 INTRA-LIGAND FREE ENERGY PREDICTED BY IDOCK:   -1.61 KCAL/MOL
REMARK 927      BINDING AFFINITY PREDICTED BY RF-SCORE:    0.00 PKD
ROOT
HETATM    1  C   UNL     1      -7.278  11.640  68.838  1.00  0.00    -0.113 C  
HETATM    2  C   UNL     1      -7.988  12.952  68.483  1.00  0.00    -0.095 C  
HETATM    3  N   UNL     1      -6.724  11.828  70.197  1.00  0.00    -0.454 NA 
HETATM    4  H1  UNL     1      -6.252  10.956  70.433  1.00  0.00     0.000 HD 
HETATM    5  C   UNL     1      -8.872  12.839  67.262  1.00  0.00    -0.198 C  
HETATM    6  H2  UNL     1      -7.423  12.109  70.885  1.00  0.00     0.000 HD 
HETATM    7  C   UNL     1      -9.731  11.576  67.284  1.00  0.00    -0.182 C  
HETATM    8  C   UNL     1      -8.126  10.317  68.621  1.00  0.00    -0.114 C  
HETATM    9  O   UNL     1      -8.953  10.381  67.459  1.00  0.00    -0.134 OA 
ENDROOT
BRANCH   7  10
HETATM   10  C   UNL     1     -10.451  11.478  65.911  1.00  0.00    -0.255 C  
HETATM   11  N   UNL     1      -9.521  11.397  64.785  1.00  0.00    -0.341 NA 
HETATM   12  H1  UNL     1      -9.994  11.333  63.884  1.00  0.00     0.000 HD 
HETATM   13  H2  UNL     1      -8.865  10.626  64.909  1.00  0.00     0.000 HD 
ENDBRANCH   7  10
BRANCH   8  14
HETATM   14  O   UNL     1      -8.816   9.957  69.819  1.00  0.00    -0.196 OA 
BRANCH  14  15
HETATM   15  C   UNL     1      -9.071   8.569  70.152  1.00  0.00    -0.152 C  
HETATM   16  C   UNL     1      -7.814   8.183  70.980  1.00  0.00    -0.090 C  
HETATM   17  N   UNL     1      -7.750   8.947  72.241  1.00  0.00    -0.356 NA 
HETATM   18  C   UNL     1      -7.685   6.724  71.369  1.00  0.00    -0.093 C  
HETATM   19  H2  UNL     1      -8.605   8.843  72.786  1.00  0.00     0.000 HD 
HETATM   20  H1  UNL     1      -6.925   8.693  72.784  1.00  0.00     0.000 HD 
HETATM   21  C   UNL     1      -7.872   5.768  70.202  1.00  0.00    -0.099 C  
HETATM   22  N   UNL     1      -7.665   4.431  70.783  1.00  0.00    -0.056 NA 
HETATM   23  C   UNL     1      -9.263   6.042  69.548  1.00  0.00    -0.136 C  
HETATM   24  C   UNL     1      -9.297   7.528  68.993  1.00  0.00    -0.146 C  
HETATM   25  O   UNL     1     -10.571   7.772  68.369  1.00  0.00    -0.302 OA 
HETATM   26  H2  UNL     1      -8.262   4.230  71.585  1.00  0.00     0.000 HD 
HETATM   27  H1  UNL     1      -7.791   3.790  70.000  1.00  0.00     0.000 HD 
HETATM   28  H   UNL     1     -10.708   7.143  67.670  1.00  0.00     0.000 HD 
BRANCH  23  29
HETATM   29  O   UNL     1      -9.622   5.052  68.532  1.00  0.00    -0.131 OA 
BRANCH  29  30
HETATM   30  C   UNL     1      -8.870   5.241  67.300  1.00  0.00    -0.105 C  
HETATM   31  O   UNL     1      -7.782   4.312  67.209  1.00  0.00    -0.080 OA 
HETATM   32  C   UNL     1      -8.248   2.962  67.043  1.00  0.00    -0.088 C  
HETATM   33  C   UNL     1      -8.910   2.829  65.671  1.00  0.00    -0.133 C  
HETATM   34  H   UNL     1     -11.373   6.065  65.303  1.00  0.00     0.000 HD 
HETATM   35  O   UNL     1      -9.331   1.487  65.419  1.00  0.00    -0.262 OA 
HETATM   36  C   UNL     1     -10.123   3.786  65.595  1.00  0.00     0.029 C  
HETATM   37  H1  UNL     1     -11.519   4.367  64.190  1.00  0.00     0.000 HD 
HETATM   38  H2  UNL     1     -10.963   2.784  63.964  1.00  0.00     0.000 HD 
HETATM   39  C   UNL     1      -9.721   5.212  66.003  1.00  0.00    -0.165 C  
HETATM   40  N   UNL     1     -10.719   3.735  64.240  1.00  0.00    -0.252 NA 
HETATM   41  H   UNL     1      -9.742   1.404  64.567  1.00  0.00     0.000 HD 
HETATM   42  O   UNL     1     -10.851   6.083  66.097  1.00  0.00     0.015 OA 
BRANCH  32  43
HETATM   43  C   UNL     1      -7.050   2.031  67.236  1.00  0.00    -0.047 C  
HETATM   44  O   UNL     1      -6.023   2.740  67.944  1.00  0.00    -0.023 OA 
HETATM   45  H   UNL     1      -5.279   2.162  68.064  1.00  0.00     0.000 HD 
ENDBRANCH  32  43
ENDBRANCH  29  30
ENDBRANCH  23  29
ENDBRANCH  14  15
ENDBRANCH   8  14
TORSDOF 6
ENDMDL
MODEL      214
REMARK 921   NORMALIZED FREE ENERGY PREDICTED BY IDOCK:   -3.55 KCAL/MOL
REMARK 922        TOTAL FREE ENERGY PREDICTED BY IDOCK:   -6.35 KCAL/MOL
REMARK 923 INTER-LIGAND FREE ENERGY PREDICTED BY IDOCK:   -5.22 KCAL/MOL
REMARK 924 INTRA-LIGAND FREE ENERGY PREDICTED BY IDOCK:   -1.13 KCAL/MOL
REMARK 927      BINDING AFFINITY PREDICTED BY RF-SCORE:    0.00 PKD
ROOT
HETATM    1  C   UNL     1      -6.658   6.353  68.306  1.00  0.00    -0.066 C  
HETATM    2  C   UNL     1      -6.902   4.925  68.810  1.00  0.00    -0.051 C  
HETATM    3  N   UNL     1      -5.843   6.221  67.078  1.00  0.00    -0.019 NA 
HETATM    4  H1  UNL     1      -5.681   7.170  66.743  1.00  0.00     0.000 HD 
HETATM    5  C   UNL     1      -7.969   4.845  69.877  1.00  0.00    -0.069 C  
HETATM    6  H2  UNL     1      -6.260   5.609  66.377  1.00  0.00     0.000 HD 
HETATM    7  C   UNL     1      -9.205   5.669  69.523  1.00  0.00    -0.129 C  
HETATM    8  C   UNL     1      -7.949   7.266  68.174  1.00  0.00    -0.123 C  
HETATM    9  O   UNL     1      -8.890   7.039  69.224  1.00  0.00    -0.138 OA 
ENDROOT
BRANCH   7  10
HETATM   10  C   UNL     1     -10.143   5.657  70.761  1.00  0.00    -0.209 C  
HETATM   11  N   UNL     1     -11.197   6.670  70.688  1.00  0.00    -0.294 NA 
HETATM   12  H1  UNL     1     -11.813   6.661  71.500  1.00  0.00     0.000 HD 
HETATM   13  H2  UNL     1     -11.732   6.577  69.824  1.00  0.00     0.000 HD 
ENDBRANCH   7  10
BRANCH   8  14
HETATM   14  O   UNL     1      -8.498   7.180  66.859  1.00  0.00    -0.118 OA 
BRANCH  14  15
HETATM   15  C   UNL     1      -9.199   8.300  66.261  1.00  0.00    -0.203 C  
HETATM   16  C   UNL     1      -8.472   8.466  64.898  1.00  0.00    -0.122 C  
HETATM   17  N   UNL     1      -8.681   7.289  64.034  1.00  0.00    -0.079 NA 
HETATM   18  C   UNL     1      -8.867   9.670  64.066  1.00  0.00    -0.256 C  
HETATM   19  H2  UNL     1      -9.673   7.087  63.909  1.00  0.00     0.000 HD 
HETATM   20  H1  UNL     1      -8.204   7.398  63.139  1.00  0.00     0.000 HD 
HETATM   21  C   UNL     1      -8.851  10.976  64.845  1.00  0.00    -0.057 C  
HETATM   22  N   UNL     1      -9.215  12.001  63.853  1.00  0.00    -0.336 NA 
HETATM   23  C   UNL     1      -9.789  10.832  66.083  1.00  0.00    -0.221 C  
HETATM   24  C   UNL     1      -9.242   9.676  67.024  1.00  0.00    -0.142 C  
HETATM   25  O   UNL     1     -10.095   9.561  68.178  1.00  0.00    -0.166 OA 
HETATM   26  H2  UNL     1     -10.094  11.817  63.368  1.00  0.00     0.000 HD 
HETATM   27  H1  UNL     1      -9.204  12.877  64.376  1.00  0.00     0.000 HD 
HETATM   28  H   UNL     1     -10.121  10.392  68.638  1.00  0.00     0.000 HD 
BRANCH  23  29
HETATM   29  O   UNL     1      -9.991  12.092  66.798  1.00  0.00    -0.199 OA 
BRANCH  29  30
HETATM   30  C   UNL     1      -8.871  13.005  66.617  1.00  0.00    -0.073 C  
HETATM   31  O   UNL     1      -9.258  14.158  65.859  1.00  0.00    -0.086 OA 
HETATM   32  C   UNL     1     -10.175  14.991  66.590  1.00  0.00    -0.268 C  
HETATM   33  C   UNL     1      -9.444  15.610  67.782  1.00  0.00    -0.208 C  
HETATM   34  H   UNL     1      -7.379  12.553  69.534  1.00  0.00     0.000 HD 
HETATM   35  O   UNL     1     -10.289  16.506  68.506  1.00  0.00    -0.257 OA 
HETATM   36  C   UNL     1      -8.946  14.482  68.717  1.00  0.00    -0.157 C  
HETATM   37  H1  UNL     1      -7.829  14.318  70.444  1.00  0.00     0.000 HD 
HETATM   38  H2  UNL     1      -8.679  15.778  70.335  1.00  0.00     0.000 HD 
HETATM   39  C   UNL     1      -8.154  13.428  67.926  1.00  0.00    -0.162 C  
HETATM   40  N   UNL     1      -8.158  15.062  69.828  1.00  0.00    -0.060 NA 
HETATM   41  H   UNL     1      -9.835  16.891  69.247  1.00  0.00     0.000 HD 
HETATM   42  O   UNL     1      -7.818  12.294  68.731  1.00  0.00    -0.093 OA 
BRANCH  32  43
HETATM   43  C   UNL     1     -10.738  16.025  65.614  1.00  0.00    -0.329 C  
HETATM   44  O   UNL     1      -9.984  17.238  65.739  1.00  0.00    -0.532 OA 
HETATM   45  H   UNL     1     -10.334  17.881  65.133  1.00  0.00     0.000 HD 
ENDBRANCH  32  43
ENDBRANCH  29  30
ENDBRANCH  23  29
ENDBRANCH  14  15
ENDBRANCH   8  14
TORSDOF 6
ENDMDL
MODEL      215
REMARK 921   NORMALIZED FREE ENERGY PREDICTED BY IDOCK:   -3.52 KCAL/MOL
REMARK 922        TOTAL FREE ENERGY PREDICTED BY IDOCK:   -6.31 KCAL/MOL
REMARK 923 INTER-LIGAND FREE ENERGY PREDICTED BY IDOCK:   -5.94 KCAL/MOL
REMARK 924 INTRA-LIGAND FREE ENERGY PREDICTED BY IDOCK:   -0.37 KCAL/MOL
REMARK 927      BINDING AFFINITY PREDICTED BY RF-SCORE:    0.00 PKD
ROOT
HETATM    1  C   UNL     1      -9.224   8.269  66.888  1.00  0.00    -0.158 C  
HETATM    2  C   UNL     1     -10.304   7.558  67.711  1.00  0.00    -0.278 C  
HETATM    3  N   UNL     1      -9.578   8.050  65.468  1.00  0.00    -0.222 NA 
HETATM    4  H1  UNL     1      -8.859   8.523  64.921  1.00  0.00     0.000 HD 
HETATM    5  C   UNL     1     -10.279   7.930  69.176  1.00  0.00    -0.219 C  
HETATM    6  H2  UNL     1     -10.526   8.347  65.236  1.00  0.00     0.000 HD 
HETATM    7  C   UNL     1     -10.133   9.436  69.388  1.00  0.00    -0.198 C  
HETATM    8  C   UNL     1      -8.927   9.774  67.295  1.00  0.00    -0.135 C  
HETATM    9  O   UNL     1      -8.993   9.983  68.706  1.00  0.00    -0.132 OA 
ENDROOT
BRANCH   7  10
HETATM   10  C   UNL     1      -9.936   9.676  70.910  1.00  0.00    -0.141 C  
HETATM   11  N   UNL     1     -10.512   8.612  71.733  1.00  0.00    -0.295 NA 
HETATM   12  H1  UNL     1     -10.382   8.770  72.732  1.00  0.00     0.000 HD 
HETATM   13  H2  UNL     1     -10.147   7.700  71.457  1.00  0.00     0.000 HD 
ENDBRANCH   7  10
BRANCH   8  14
HETATM   14  O   UNL     1      -9.728  10.673  66.526  1.00  0.00    -0.182 OA 
BRANCH  14  15
HETATM   15  C   UNL     1      -9.842  12.073  66.884  1.00  0.00    -0.204 C  
HETATM   16  C   UNL     1     -11.319  12.396  66.525  1.00  0.00    -0.340 C  
HETATM   17  N   UNL     1     -12.253  11.635  67.376  1.00  0.00    -0.222 NA 
HETATM   18  C   UNL     1     -11.738  13.849  66.640  1.00  0.00    -0.417 C  
HETATM   19  H2  UNL     1     -12.066  11.787  68.367  1.00  0.00     0.000 HD 
HETATM   20  H1  UNL     1     -13.223  11.848  67.141  1.00  0.00     0.000 HD 
HETATM   21  C   UNL     1     -10.793  14.808  65.934  1.00  0.00    -0.330 C  
HETATM   22  N   UNL     1     -11.402  16.134  66.129  1.00  0.00     0.239 NA 
HETATM   23  C   UNL     1      -9.355  14.605  66.504  1.00  0.00    -0.288 C  
HETATM   24  C   UNL     1      -8.879  13.120  66.209  1.00  0.00     0.216 C  
HETATM   25  O   UNL     1      -7.543  12.941  66.714  1.00  0.00    -0.375 OA 
HETATM   26  H2  UNL     1     -11.582  16.370  67.105  1.00  0.00     0.000 HD 
HETATM   27  H1  UNL     1     -10.768  16.779  65.656  1.00  0.00     0.000 HD 
HETATM   28  H   UNL     1      -6.961  13.574  66.307  1.00  0.00     0.000 HD 
BRANCH  23  29
HETATM   29  O   UNL     1      -8.403  15.608  66.027  1.00  0.00    -0.072 OA 
BRANCH  29  30
HETATM   30  C   UNL     1      -8.256  16.709  66.968  1.00  0.00    -0.191 C  
HETATM   31  O   UNL     1      -9.209  16.611  68.034  1.00  0.00    -0.216 OA 
HETATM   32  C   UNL     1      -8.940  15.485  68.886  1.00  0.00    -0.220 C  
HETATM   33  C   UNL     1      -7.630  15.730  69.636  1.00  0.00    -0.082 C  
HETATM   34  H   UNL     1      -4.970  17.051  66.833  1.00  0.00     0.000 HD 
HETATM   35  O   UNL     1      -7.346  14.673  70.554  1.00  0.00    -0.228 OA 
HETATM   36  C   UNL     1      -6.475  15.868  68.615  1.00  0.00    -0.113 C  
HETATM   37  H1  UNL     1      -4.455  16.287  68.649  1.00  0.00     0.000 HD 
HETATM   38  H2  UNL     1      -5.001  15.520  70.057  1.00  0.00     0.000 HD 
HETATM   39  C   UNL     1      -6.824  16.901  67.532  1.00  0.00    -0.147 C  
HETATM   40  N   UNL     1      -5.216  16.196  69.323  1.00  0.00    -0.110 NA 
HETATM   41  H   UNL     1      -6.532  14.825  71.021  1.00  0.00     0.000 HD 
HETATM   42  O   UNL     1      -5.848  16.934  66.488  1.00  0.00    -0.289 OA 
BRANCH  32  43
HETATM   43  C   UNL     1     -10.147  15.302  69.807  1.00  0.00    -0.218 C  
HETATM   44  O   UNL     1     -10.508  13.914  69.827  1.00  0.00    -0.375 OA 
HETATM   45  H   UNL     1     -11.258  13.801  70.399  1.00  0.00     0.000 HD 
ENDBRANCH  32  43
ENDBRANCH  29  30
ENDBRANCH  23  29
ENDBRANCH  14  15
ENDBRANCH   8  14
TORSDOF 6
ENDMDL
MODEL      216
REMARK 921   NORMALIZED FREE ENERGY PREDICTED BY IDOCK:   -3.52 KCAL/MOL
REMARK 922        TOTAL FREE ENERGY PREDICTED BY IDOCK:   -6.31 KCAL/MOL
REMARK 923 INTER-LIGAND FREE ENERGY PREDICTED BY IDOCK:   -5.39 KCAL/MOL
REMARK 924 INTRA-LIGAND FREE ENERGY PREDICTED BY IDOCK:   -0.92 KCAL/MOL
REMARK 927      BINDING AFFINITY PREDICTED BY RF-SCORE:    0.00 PKD
ROOT
HETATM    1  C   UNL     1      -8.288   4.304  63.605  1.00  0.00    -0.100 C  
HETATM    2  C   UNL     1      -8.585   2.819  63.366  1.00  0.00    -0.086 C  
HETATM    3  N   UNL     1      -9.310   5.055  62.842  1.00  0.00    -0.349 NA 
HETATM    4  H1  UNL     1      -9.112   6.043  63.000  1.00  0.00     0.000 HD 
HETATM    5  C   UNL     1      -7.837   1.903  64.307  1.00  0.00    -0.065 C  
HETATM    6  H2  UNL     1     -10.267   4.790  63.075  1.00  0.00     0.000 HD 
HETATM    7  C   UNL     1      -7.891   2.391  65.754  1.00  0.00    -0.081 C  
HETATM    8  C   UNL     1      -8.113   4.736  65.121  1.00  0.00    -0.106 C  
HETATM    9  O   UNL     1      -7.437   3.746  65.898  1.00  0.00    -0.075 OA 
ENDROOT
BRANCH   7  10
HETATM   10  C   UNL     1      -6.947   1.483  66.588  1.00  0.00    -0.042 C  
HETATM   11  N   UNL     1      -6.812   1.923  67.976  1.00  0.00    -0.035 NA 
HETATM   12  H1  UNL     1      -6.192   1.326  68.523  1.00  0.00     0.000 HD 
HETATM   13  H2  UNL     1      -7.726   2.006  68.423  1.00  0.00     0.000 HD 
ENDBRANCH   7  10
BRANCH   8  14
HETATM   14  O   UNL     1      -9.358   5.170  65.670  1.00  0.00    -0.160 OA 
BRANCH  14  15
HETATM   15  C   UNL     1      -9.407   6.132  66.754  1.00  0.00    -0.140 C  
HETATM   16  C   UNL     1      -9.995   5.296  67.924  1.00  0.00    -0.160 C  
HETATM   17  N   UNL     1      -9.075   4.214  68.322  1.00  0.00    -0.123 NA 
HETATM   18  C   UNL     1     -10.325   6.054  69.195  1.00  0.00    -0.289 C  
HETATM   19  H2  UNL     1      -8.148   4.574  68.547  1.00  0.00     0.000 HD 
HETATM   20  H1  UNL     1      -9.461   3.665  69.090  1.00  0.00     0.000 HD 
HETATM   21  C   UNL     1     -11.159   7.302  68.957  1.00  0.00     0.043 C  
HETATM   22  N   UNL     1     -11.396   7.849  70.303  1.00  0.00    -0.428 NA 
HETATM   23  C   UNL     1     -10.404   8.223  67.948  1.00  0.00    -0.219 C  
HETATM   24  C   UNL     1     -10.233   7.460  66.567  1.00  0.00    -0.078 C  
HETATM   25  O   UNL     1      -9.559   8.319  65.630  1.00  0.00    -0.437 OA 
HETATM   26  H2  UNL     1     -10.546   8.014  70.841  1.00  0.00     0.000 HD 
HETATM   27  H1  UNL     1     -11.956   8.687  70.143  1.00  0.00     0.000 HD 
HETATM   28  H   UNL     1     -10.058   9.120  65.518  1.00  0.00     0.000 HD 
BRANCH  23  29
HETATM   29  O   UNL     1     -11.031   9.536  67.792  1.00  0.00    -0.244 OA 
BRANCH  29  30
HETATM   30  C   UNL     1     -10.501  10.507  68.739  1.00  0.00    -0.196 C  
HETATM   31  O   UNL     1      -9.137  10.218  69.070  1.00  0.00    -0.163 OA 
HETATM   32  C   UNL     1      -8.262  10.424  67.947  1.00  0.00    -0.106 C  
HETATM   33  C   UNL     1      -8.213  11.917  67.622  1.00  0.00    -0.148 C  
HETATM   34  H   UNL     1     -12.093  13.192  67.650  1.00  0.00     0.000 HD 
HETATM   35  O   UNL     1      -7.302  12.192  66.557  1.00  0.00    -0.372 OA 
HETATM   36  C   UNL     1      -9.632  12.404  67.242  1.00  0.00    -0.199 C  
HETATM   37  H1  UNL     1     -10.553  14.187  66.763  1.00  0.00     0.000 HD 
HETATM   38  H2  UNL     1      -8.920  14.139  66.320  1.00  0.00     0.000 HD 
HETATM   39  C   UNL     1     -10.656  11.990  68.311  1.00  0.00    -0.212 C  
HETATM   40  N   UNL     1      -9.617  13.867  67.013  1.00  0.00    -0.245 NA 
HETATM   41  H   UNL     1      -7.271  13.120  66.355  1.00  0.00     0.000 HD 
HETATM   42  O   UNL     1     -11.997  12.284  67.912  1.00  0.00    -0.452 OA 
BRANCH  32  43
HETATM   43  C   UNL     1      -6.899   9.832  68.307  1.00  0.00    -0.068 C  
HETATM   44  O   UNL     1      -7.100   8.558  68.937  1.00  0.00    -0.061 OA 
HETATM   45  H   UNL     1      -6.253   8.190  69.161  1.00  0.00     0.000 HD 
ENDBRANCH  32  43
ENDBRANCH  29  30
ENDBRANCH  23  29
ENDBRANCH  14  15
ENDBRANCH   8  14
TORSDOF 6
ENDMDL
MODEL      217
REMARK 921   NORMALIZED FREE ENERGY PREDICTED BY IDOCK:   -3.52 KCAL/MOL
REMARK 922        TOTAL FREE ENERGY PREDICTED BY IDOCK:   -6.31 KCAL/MOL
REMARK 923 INTER-LIGAND FREE ENERGY PREDICTED BY IDOCK:   -5.72 KCAL/MOL
REMARK 924 INTRA-LIGAND FREE ENERGY PREDICTED BY IDOCK:   -0.58 KCAL/MOL
REMARK 927      BINDING AFFINITY PREDICTED BY RF-SCORE:    0.00 PKD
ROOT
HETATM    1  C   UNL     1      -9.227   3.630  68.102  1.00  0.00    -0.169 C  
HETATM    2  C   UNL     1      -8.403   2.591  67.332  1.00  0.00    -0.094 C  
HETATM    3  N   UNL     1      -8.477   3.910  69.346  1.00  0.00    -0.063 NA 
HETATM    4  H1  UNL     1      -9.025   4.601  69.858  1.00  0.00     0.000 HD 
HETATM    5  C   UNL     1      -8.856   2.413  65.901  1.00  0.00    -0.128 C  
HETATM    6  H2  UNL     1      -7.512   4.199  69.182  1.00  0.00     0.000 HD 
HETATM    7  C   UNL     1      -9.105   3.749  65.203  1.00  0.00    -0.142 C  
HETATM    8  C   UNL     1      -9.676   4.906  67.272  1.00  0.00    -0.170 C  
HETATM    9  O   UNL     1     -10.021   4.588  65.923  1.00  0.00    -0.202 OA 
ENDROOT
BRANCH   7  10
HETATM   10  C   UNL     1      -9.734   3.439  63.817  1.00  0.00    -0.145 C  
HETATM   11  N   UNL     1     -11.029   2.766  63.916  1.00  0.00    -0.552 NA 
HETATM   12  H1  UNL     1     -11.441   2.563  63.005  1.00  0.00     0.000 HD 
HETATM   13  H2  UNL     1     -11.674   3.301  64.498  1.00  0.00     0.000 HD 
ENDBRANCH   7  10
BRANCH   8  14
HETATM   14  O   UNL     1      -8.719   5.957  67.405  1.00  0.00    -0.110 OA 
BRANCH  14  15
HETATM   15  C   UNL     1      -8.625   7.018  66.421  1.00  0.00    -0.135 C  
HETATM   16  C   UNL     1      -7.090   7.181  66.243  1.00  0.00    -0.074 C  
HETATM   17  N   UNL     1      -6.489   5.968  65.659  1.00  0.00    -0.042 NA 
HETATM   18  C   UNL     1      -6.631   8.335  65.375  1.00  0.00    -0.052 C  
HETATM   19  H2  UNL     1      -6.943   5.709  64.783  1.00  0.00     0.000 HD 
HETATM   20  H1  UNL     1      -5.481   6.075  65.542  1.00  0.00     0.000 HD 
HETATM   21  C   UNL     1      -7.271   9.664  65.745  1.00  0.00    -0.100 C  
HETATM   22  N   UNL     1      -6.662  10.636  64.822  1.00  0.00    -0.360 NA 
HETATM   23  C   UNL     1      -8.823   9.508  65.677  1.00  0.00    -0.161 C  
HETATM   24  C   UNL     1      -9.287   8.414  66.728  1.00  0.00    -0.184 C  
HETATM   25  O   UNL     1     -10.720   8.288  66.682  1.00  0.00    -0.299 OA 
HETATM   26  H2  UNL     1      -6.756  10.390  63.837  1.00  0.00     0.000 HD 
HETATM   27  H1  UNL     1      -7.092  11.527  65.070  1.00  0.00     0.000 HD 
HETATM   28  H   UNL     1     -11.119   9.131  66.867  1.00  0.00     0.000 HD 
BRANCH  23  29
HETATM   29  O   UNL     1      -9.533  10.777  65.833  1.00  0.00    -0.182 OA 
BRANCH  29  30
HETATM   30  C   UNL     1      -9.917  11.018  67.217  1.00  0.00    -0.181 C  
HETATM   31  O   UNL     1      -8.777  11.337  68.024  1.00  0.00    -0.133 OA 
HETATM   32  C   UNL     1      -8.215  12.613  67.669  1.00  0.00    -0.174 C  
HETATM   33  C   UNL     1      -9.205  13.715  68.047  1.00  0.00    -0.197 C  
HETATM   34  H   UNL     1     -12.844  12.461  66.682  1.00  0.00     0.000 HD 
HETATM   35  O   UNL     1      -8.670  15.013  67.782  1.00  0.00    -0.157 OA 
HETATM   36  C   UNL     1     -10.519  13.514  67.254  1.00  0.00    -0.248 C  
HETATM   37  H1  UNL     1     -12.386  14.388  67.155  1.00  0.00     0.000 HD 
HETATM   38  H2  UNL     1     -11.163  15.474  67.594  1.00  0.00     0.000 HD 
HETATM   39  C   UNL     1     -11.036  12.075  67.410  1.00  0.00    -0.261 C  
HETATM   40  N   UNL     1     -11.519  14.521  67.677  1.00  0.00    -0.337 NA 
HETATM   41  H   UNL     1      -9.285  15.698  68.016  1.00  0.00     0.000 HD 
HETATM   42  O   UNL     1     -12.158  11.813  66.564  1.00  0.00    -0.498 OA 
BRANCH  32  43
HETATM   43  C   UNL     1      -6.864  12.736  68.376  1.00  0.00    -0.091 C  
HETATM   44  O   UNL     1      -6.633  11.546  69.143  1.00  0.00    -0.083 OA 
HETATM   45  H   UNL     1      -5.794  11.623  69.582  1.00  0.00     0.000 HD 
ENDBRANCH  32  43
ENDBRANCH  29  30
ENDBRANCH  23  29
ENDBRANCH  14  15
ENDBRANCH   8  14
TORSDOF 6
ENDMDL
MODEL      218
REMARK 921   NORMALIZED FREE ENERGY PREDICTED BY IDOCK:   -3.50 KCAL/MOL
REMARK 922        TOTAL FREE ENERGY PREDICTED BY IDOCK:   -6.29 KCAL/MOL
REMARK 923 INTER-LIGAND FREE ENERGY PREDICTED BY IDOCK:   -5.65 KCAL/MOL
REMARK 924 INTRA-LIGAND FREE ENERGY PREDICTED BY IDOCK:   -0.64 KCAL/MOL
REMARK 927      BINDING AFFINITY PREDICTED BY RF-SCORE:    0.00 PKD
ROOT
HETATM    1  C   UNL     1      -7.297  12.166  66.738  1.00  0.00     0.084 C  
HETATM    2  C   UNL     1      -7.650  13.310  67.696  1.00  0.00    -0.171 C  
HETATM    3  N   UNL     1      -5.820  12.147  66.647  1.00  0.00    -0.500 NA 
HETATM    4  H1  UNL     1      -5.586  11.386  66.010  1.00  0.00     0.000 HD 
HETATM    5  C   UNL     1      -9.092  13.285  68.148  1.00  0.00    -0.207 C  
HETATM    6  H2  UNL     1      -5.359  12.073  67.554  1.00  0.00     0.000 HD 
HETATM    7  C   UNL     1      -9.547  11.883  68.553  1.00  0.00    -0.157 C  
HETATM    8  C   UNL     1      -7.981  10.769  67.052  1.00  0.00    -0.124 C  
HETATM    9  O   UNL     1      -9.323  10.909  67.521  1.00  0.00    -0.153 OA 
ENDROOT
BRANCH   7  10
HETATM   10  C   UNL     1     -11.076  11.949  68.819  1.00  0.00    -0.245 C  
HETATM   11  N   UNL     1     -11.805  10.824  68.235  1.00  0.00    -0.765 NA 
HETATM   12  H1  UNL     1     -12.809  10.868  68.410  1.00  0.00     0.000 HD 
HETATM   13  H2  UNL     1     -11.418   9.935  68.551  1.00  0.00     0.000 HD 
ENDBRANCH   7  10
BRANCH   8  14
HETATM   14  O   UNL     1      -7.142   9.972  67.888  1.00  0.00    -0.083 OA 
BRANCH  14  15
HETATM   15  C   UNL     1      -7.572   8.672  68.365  1.00  0.00    -0.096 C  
HETATM   16  C   UNL     1      -7.195   8.721  69.872  1.00  0.00    -0.051 C  
HETATM   17  N   UNL     1      -7.980   9.746  70.585  1.00  0.00    -0.378 NA 
HETATM   18  C   UNL     1      -7.377   7.436  70.654  1.00  0.00    -0.070 C  
HETATM   19  H2  UNL     1      -8.982   9.610  70.453  1.00  0.00     0.000 HD 
HETATM   20  H1  UNL     1      -7.732   9.778  71.574  1.00  0.00     0.000 HD 
HETATM   21  C   UNL     1      -6.749   6.225  69.984  1.00  0.00    -0.053 C  
HETATM   22  N   UNL     1      -7.000   5.115  70.918  1.00  0.00    -0.053 NA 
HETATM   23  C   UNL     1      -7.343   6.082  68.548  1.00  0.00    -0.085 C  
HETATM   24  C   UNL     1      -6.980   7.374  67.700  1.00  0.00    -0.079 C  
HETATM   25  O   UNL     1      -7.507   7.231  66.369  1.00  0.00    -0.080 OA 
HETATM   26  H2  UNL     1      -7.983   4.991  71.162  1.00  0.00     0.000 HD 
HETATM   27  H1  UNL     1      -6.579   4.302  70.468  1.00  0.00     0.000 HD 
HETATM   28  H   UNL     1      -7.150   6.447  65.967  1.00  0.00     0.000 HD 
BRANCH  23  29
HETATM   29  O   UNL     1      -6.945   4.841  67.884  1.00  0.00    -0.058 OA 
BRANCH  29  30
HETATM   30  C   UNL     1      -7.955   3.802  68.022  1.00  0.00    -0.076 C  
HETATM   31  O   UNL     1      -9.156   4.321  68.608  1.00  0.00    -0.111 OA 
HETATM   32  C   UNL     1      -9.825   5.239  67.726  1.00  0.00    -0.152 C  
HETATM   33  C   UNL     1     -10.355   4.469  66.516  1.00  0.00    -0.118 C  
HETATM   34  H   UNL     1      -7.282   2.079  65.282  1.00  0.00     0.000 HD 
HETATM   35  O   UNL     1     -11.093   5.319  65.636  1.00  0.00    -0.729 OA 
HETATM   36  C   UNL     1      -9.167   3.829  65.758  1.00  0.00    -0.156 C  
HETATM   37  H1  UNL     1      -8.889   2.583  64.137  1.00  0.00     0.000 HD 
HETATM   38  H2  UNL     1     -10.282   3.537  64.014  1.00  0.00     0.000 HD 
HETATM   39  C   UNL     1      -8.276   3.025  66.719  1.00  0.00    -0.089 C  
HETATM   40  N   UNL     1      -9.673   3.005  64.636  1.00  0.00    -0.138 NA 
HETATM   41  H   UNL     1     -11.422   4.841  64.884  1.00  0.00     0.000 HD 
HETATM   42  O   UNL     1      -7.086   2.555  66.080  1.00  0.00    -0.060 OA 
BRANCH  32  43
HETATM   43  C   UNL     1     -10.919   5.940  68.531  1.00  0.00    -0.197 C  
HETATM   44  O   UNL     1     -11.295   7.146  67.850  1.00  0.00    -0.500 OA 
HETATM   45  H   UNL     1     -11.975   7.581  68.350  1.00  0.00     0.000 HD 
ENDBRANCH  32  43
ENDBRANCH  29  30
ENDBRANCH  23  29
ENDBRANCH  14  15
ENDBRANCH   8  14
TORSDOF 6
ENDMDL
MODEL      219
REMARK 921   NORMALIZED FREE ENERGY PREDICTED BY IDOCK:   -3.50 KCAL/MOL
REMARK 922        TOTAL FREE ENERGY PREDICTED BY IDOCK:   -6.28 KCAL/MOL
REMARK 923 INTER-LIGAND FREE ENERGY PREDICTED BY IDOCK:   -6.12 KCAL/MOL
REMARK 924 INTRA-LIGAND FREE ENERGY PREDICTED BY IDOCK:   -0.16 KCAL/MOL
REMARK 927      BINDING AFFINITY PREDICTED BY RF-SCORE:    0.00 PKD
ROOT
HETATM    1  C   UNL     1     -10.294   5.245  70.508  1.00  0.00    -0.266 C  
HETATM    2  C   UNL     1      -9.434   4.001  70.258  1.00  0.00    -0.255 C  
HETATM    3  N   UNL     1      -9.871   5.781  71.821  1.00  0.00    -0.164 NA 
HETATM    4  H1  UNL     1     -10.443   6.608  71.987  1.00  0.00     0.000 HD 
HETATM    5  C   UNL     1      -9.510   3.500  68.834  1.00  0.00    -0.210 C  
HETATM    6  H2  UNL     1      -8.869   5.961  71.882  1.00  0.00     0.000 HD 
HETATM    7  C   UNL     1      -9.393   4.632  67.815  1.00  0.00    -0.141 C  
HETATM    8  C   UNL     1     -10.340   6.299  69.322  1.00  0.00    -0.218 C  
HETATM    9  O   UNL     1     -10.353   5.678  68.037  1.00  0.00    -0.184 OA 
ENDROOT
BRANCH   7  10
HETATM   10  C   UNL     1      -9.665   4.026  66.412  1.00  0.00    -0.188 C  
HETATM   11  N   UNL     1     -10.666   4.776  65.652  1.00  0.00    -0.650 NA 
HETATM   12  H1  UNL     1     -10.845   4.377  64.730  1.00  0.00     0.000 HD 
HETATM   13  H2  UNL     1     -10.407   5.760  65.580  1.00  0.00     0.000 HD 
ENDBRANCH   7  10
BRANCH   8  14
HETATM   14  O   UNL     1      -9.327   7.292  69.489  1.00  0.00    -0.153 OA 
BRANCH  14  15
HETATM   15  C   UNL     1      -9.579   8.684  69.171  1.00  0.00    -0.163 C  
HETATM   16  C   UNL     1     -10.260   9.211  70.464  1.00  0.00    -0.235 C  
HETATM   17  N   UNL     1      -9.332   9.169  71.611  1.00  0.00    -0.322 NA 
HETATM   18  C   UNL     1     -10.799  10.626  70.414  1.00  0.00    -0.061 C  
HETATM   19  H2  UNL     1      -8.467   9.671  71.412  1.00  0.00     0.000 HD 
HETATM   20  H1  UNL     1      -9.780   9.515  72.460  1.00  0.00     0.000 HD 
HETATM   21  C   UNL     1     -11.672  10.899  69.200  1.00  0.00    -0.326 C  
HETATM   22  N   UNL     1     -12.117  12.291  69.371  1.00  0.00    -0.226 NA 
HETATM   23  C   UNL     1     -10.853  10.577  67.911  1.00  0.00    -0.282 C  
HETATM   24  C   UNL     1     -10.456   9.040  67.913  1.00  0.00    -0.234 C  
HETATM   25  O   UNL     1      -9.721   8.739  66.713  1.00  0.00    -0.180 OA 
HETATM   26  H2  UNL     1     -11.356  12.959  69.494  1.00  0.00     0.000 HD 
HETATM   27  H1  UNL     1     -12.703  12.474  68.556  1.00  0.00     0.000 HD 
HETATM   28  H   UNL     1     -10.251   8.954  65.953  1.00  0.00     0.000 HD 
BRANCH  23  29
HETATM   29  O   UNL     1     -11.536  10.981  66.683  1.00  0.00    -0.291 OA 
BRANCH  29  30
HETATM   30  C   UNL     1     -10.875  12.107  66.039  1.00  0.00    -0.282 C  
HETATM   31  O   UNL     1      -9.961  12.753  66.934  1.00  0.00    -0.224 OA 
HETATM   32  C   UNL     1      -8.834  11.913  67.241  1.00  0.00    -0.179 C  
HETATM   33  C   UNL     1      -7.989  11.733  65.980  1.00  0.00     0.373 C  
HETATM   34  H   UNL     1     -10.626  10.865  62.985  1.00  0.00     0.000 HD 
HETATM   35  O   UNL     1      -6.814  10.963  66.242  1.00  0.00    -0.130 OA 
HETATM   36  C   UNL     1      -8.841  11.041  64.889  1.00  0.00    -0.057 C  
HETATM   37  H1  UNL     1      -8.626  10.487  62.913  1.00  0.00     0.000 HD 
HETATM   38  H2  UNL     1      -7.167  10.476  63.772  1.00  0.00     0.000 HD 
HETATM   39  C   UNL     1     -10.178  11.774  64.694  1.00  0.00    -0.284 C  
HETATM   40  N   UNL     1      -8.064  10.942  63.632  1.00  0.00     0.147 NA 
HETATM   41  H   UNL     1      -6.289  10.851  65.459  1.00  0.00     0.000 HD 
HETATM   42  O   UNL     1     -11.052  11.069  63.809  1.00  0.00    -0.229 OA 
BRANCH  32  43
HETATM   43  C   UNL     1      -8.075  12.562  68.399  1.00  0.00    -0.136 C  
HETATM   44  O   UNL     1      -8.796  13.725  68.831  1.00  0.00    -0.374 OA 
HETATM   45  H   UNL     1      -8.323  14.129  69.550  1.00  0.00     0.000 HD 
ENDBRANCH  32  43
ENDBRANCH  29  30
ENDBRANCH  23  29
ENDBRANCH  14  15
ENDBRANCH   8  14
TORSDOF 6
ENDMDL
MODEL      220
REMARK 921   NORMALIZED FREE ENERGY PREDICTED BY IDOCK:   -3.50 KCAL/MOL
REMARK 922        TOTAL FREE ENERGY PREDICTED BY IDOCK:   -6.28 KCAL/MOL
REMARK 923 INTER-LIGAND FREE ENERGY PREDICTED BY IDOCK:   -5.69 KCAL/MOL
REMARK 924 INTRA-LIGAND FREE ENERGY PREDICTED BY IDOCK:   -0.59 KCAL/MOL
REMARK 927      BINDING AFFINITY PREDICTED BY RF-SCORE:    0.00 PKD
ROOT
HETATM    1  C   UNL     1      -6.017  12.393  69.565  1.00  0.00    -0.110 C  
HETATM    2  C   UNL     1      -6.598  13.798  69.764  1.00  0.00    -0.034 C  
HETATM    3  N   UNL     1      -5.533  11.956  70.894  1.00  0.00    -0.260 NA 
HETATM    4  H1  UNL     1      -5.147  11.022  70.762  1.00  0.00     0.000 HD 
HETATM    5  C   UNL     1      -7.412  14.278  68.584  1.00  0.00    -0.127 C  
HETATM    6  H2  UNL     1      -6.248  12.001  71.621  1.00  0.00     0.000 HD 
HETATM    7  C   UNL     1      -8.369  13.205  68.067  1.00  0.00    -0.162 C  
HETATM    8  C   UNL     1      -6.954  11.361  68.806  1.00  0.00    -0.097 C  
HETATM    9  O   UNL     1      -7.702  11.972  67.754  1.00  0.00    -0.120 OA 
ENDROOT
BRANCH   7  10
HETATM   10  C   UNL     1      -9.010  13.744  66.759  1.00  0.00    -0.185 C  
HETATM   11  N   UNL     1      -8.568  15.097  66.424  1.00  0.00    -0.446 NA 
HETATM   12  H1  UNL     1      -8.989  15.450  65.564  1.00  0.00     0.000 HD 
HETATM   13  H2  UNL     1      -7.550  15.147  66.378  1.00  0.00     0.000 HD 
ENDBRANCH   7  10
BRANCH   8  14
HETATM   14  O   UNL     1      -7.742  10.616  69.735  1.00  0.00    -0.128 OA 
BRANCH  14  15
HETATM   15  C   UNL     1      -8.702   9.627  69.284  1.00  0.00    -0.159 C  
HETATM   16  C   UNL     1      -9.978  10.003  70.086  1.00  0.00    -0.184 C  
HETATM   17  N   UNL     1     -10.482  11.333  69.695  1.00  0.00    -0.445 NA 
HETATM   18  C   UNL     1     -11.156   9.056  69.961  1.00  0.00    -0.197 C  
HETATM   19  H2  UNL     1     -10.639  11.393  68.689  1.00  0.00     0.000 HD 
HETATM   20  H1  UNL     1     -11.320  11.580  70.222  1.00  0.00     0.000 HD 
HETATM   21  C   UNL     1     -10.789   7.599  70.191  1.00  0.00    -0.248 C  
HETATM   22  N   UNL     1     -12.064   6.874  70.068  1.00  0.00    -0.637 NA 
HETATM   23  C   UNL     1      -9.657   7.204  69.191  1.00  0.00    -0.154 C  
HETATM   24  C   UNL     1      -8.376   8.098  69.469  1.00  0.00    -0.122 C  
HETATM   25  O   UNL     1      -7.325   7.716  68.562  1.00  0.00    -0.089 OA 
HETATM   26  H2  UNL     1     -12.558   7.045  69.192  1.00  0.00     0.000 HD 
HETATM   27  H1  UNL     1     -11.817   5.896  70.222  1.00  0.00     0.000 HD 
HETATM   28  H   UNL     1      -7.129   6.792  68.674  1.00  0.00     0.000 HD 
BRANCH  23  29
HETATM   29  O   UNL     1      -9.360   5.772  69.200  1.00  0.00    -0.121 OA 
BRANCH  29  30
HETATM   30  C   UNL     1      -8.358   5.432  70.201  1.00  0.00    -0.114 C  
HETATM   31  O   UNL     1      -8.854   5.651  71.527  1.00  0.00    -0.135 OA 
HETATM   32  C   UNL     1      -9.902   4.725  71.863  1.00  0.00    -0.176 C  
HETATM   33  C   UNL     1      -9.311   3.319  71.960  1.00  0.00    -0.123 C  
HETATM   34  H   UNL     1      -6.954   2.868  68.656  1.00  0.00     0.000 HD 
HETATM   35  O   UNL     1     -10.294   2.363  72.361  1.00  0.00    -0.158 OA 
HETATM   36  C   UNL     1      -8.715   2.919  70.589  1.00  0.00    -0.072 C  
HETATM   37  H1  UNL     1      -7.666   1.333  69.789  1.00  0.00     0.000 HD 
HETATM   38  H2  UNL     1      -8.689   0.882  71.060  1.00  0.00     0.000 HD 
HETATM   39  C   UNL     1      -7.761   4.006  70.070  1.00  0.00    -0.052 C  
HETATM   40  N   UNL     1      -8.059   1.596  70.693  1.00  0.00    -0.041 NA 
HETATM   41  H   UNL     1      -9.928   1.489  72.422  1.00  0.00     0.000 HD 
HETATM   42  O   UNL     1      -7.319   3.741  68.736  1.00  0.00    -0.053 OA 
BRANCH  32  43
HETATM   43  C   UNL     1     -10.548   5.208  73.162  1.00  0.00    -0.233 C  
HETATM   44  O   UNL     1     -11.949   5.419  72.932  1.00  0.00    -0.509 OA 
HETATM   45  H   UNL     1     -12.350   5.719  73.739  1.00  0.00     0.000 HD 
ENDBRANCH  32  43
ENDBRANCH  29  30
ENDBRANCH  23  29
ENDBRANCH  14  15
ENDBRANCH   8  14
TORSDOF 6
ENDMDL
MODEL      221
REMARK 921   NORMALIZED FREE ENERGY PREDICTED BY IDOCK:   -3.49 KCAL/MOL
REMARK 922        TOTAL FREE ENERGY PREDICTED BY IDOCK:   -6.27 KCAL/MOL
REMARK 923 INTER-LIGAND FREE ENERGY PREDICTED BY IDOCK:   -5.16 KCAL/MOL
REMARK 924 INTRA-LIGAND FREE ENERGY PREDICTED BY IDOCK:   -1.11 KCAL/MOL
REMARK 927      BINDING AFFINITY PREDICTED BY RF-SCORE:    0.00 PKD
ROOT
HETATM    1  C   UNL     1     -10.585   6.318  72.888  1.00  0.00    -0.233 C  
HETATM    2  C   UNL     1      -9.519   5.229  73.062  1.00  0.00    -0.150 C  
HETATM    3  N   UNL     1     -10.537   7.140  74.118  1.00  0.00    -0.564 NA 
HETATM    4  H1  UNL     1     -11.246   7.864  74.003  1.00  0.00     0.000 HD 
HETATM    5  C   UNL     1      -9.213   4.486  71.782  1.00  0.00    -0.179 C  
HETATM    6  H2  UNL     1      -9.609   7.510  74.323  1.00  0.00     0.000 HD 
HETATM    7  C   UNL     1      -9.045   5.428  70.592  1.00  0.00    -0.144 C  
HETATM    8  C   UNL     1     -10.527   7.126  71.524  1.00  0.00    -0.203 C  
HETATM    9  O   UNL     1     -10.173   6.301  70.413  1.00  0.00    -0.189 OA 
ENDROOT
BRANCH   7  10
HETATM   10  C   UNL     1      -8.918   4.550  69.317  1.00  0.00    -0.096 C  
HETATM   11  N   UNL     1      -9.397   3.183  69.517  1.00  0.00    -0.162 NA 
HETATM   12  H1  UNL     1      -9.314   2.606  68.680  1.00  0.00     0.000 HD 
HETATM   13  H2  UNL     1     -10.355   3.179  69.868  1.00  0.00     0.000 HD 
ENDBRANCH   7  10
BRANCH   8  14
HETATM   14  O   UNL     1      -9.730   8.302  71.665  1.00  0.00    -0.166 OA 
BRANCH  14  15
HETATM   15  C   UNL     1      -8.821   8.725  70.618  1.00  0.00    -0.182 C  
HETATM   16  C   UNL     1      -7.524   9.054  71.407  1.00  0.00    -0.037 C  
HETATM   17  N   UNL     1      -6.959   7.844  72.034  1.00  0.00    -0.063 NA 
HETATM   18  C   UNL     1      -6.393   9.681  70.615  1.00  0.00    -0.097 C  
HETATM   19  H2  UNL     1      -6.804   7.105  71.349  1.00  0.00     0.000 HD 
HETATM   20  H1  UNL     1      -6.107   8.060  72.552  1.00  0.00     0.000 HD 
HETATM   21  C   UNL     1      -6.829  10.873  69.779  1.00  0.00    -0.134 C  
HETATM   22  N   UNL     1      -5.590  11.347  69.139  1.00  0.00    -0.044 NA 
HETATM   23  C   UNL     1      -7.983  10.425  68.829  1.00  0.00    -0.122 C  
HETATM   24  C   UNL     1      -9.219   9.940  69.698  1.00  0.00    -0.227 C  
HETATM   25  O   UNL     1     -10.291   9.549  68.821  1.00  0.00    -0.195 OA 
HETATM   26  H2  UNL     1      -5.094  10.629  68.612  1.00  0.00     0.000 HD 
HETATM   27  H1  UNL     1      -5.882  12.147  68.578  1.00  0.00     0.000 HD 
HETATM   28  H   UNL     1     -10.531  10.282  68.266  1.00  0.00     0.000 HD 
BRANCH  23  29
HETATM   29  O   UNL     1      -8.349  11.448  67.850  1.00  0.00    -0.127 OA 
BRANCH  29  30
HETATM   30  C   UNL     1      -9.145  12.511  68.447  1.00  0.00    -0.135 C  
HETATM   31  O   UNL     1      -8.310  13.495  69.072  1.00  0.00     0.106 OA 
HETATM   32  C   UNL     1      -7.545  14.235  68.104  1.00  0.00    -0.134 C  
HETATM   33  C   UNL     1      -8.496  15.092  67.268  1.00  0.00    -0.198 C  
HETATM   34  H   UNL     1     -11.580  12.631  66.214  1.00  0.00     0.000 HD 
HETATM   35  O   UNL     1      -7.784  15.906  66.334  1.00  0.00    -0.212 OA 
HETATM   36  C   UNL     1      -9.487  14.171  66.517  1.00  0.00    -0.285 C  
HETATM   37  H1  UNL     1     -11.125  14.383  65.280  1.00  0.00     0.000 HD 
HETATM   38  H2  UNL     1     -10.020  15.659  65.149  1.00  0.00     0.000 HD 
HETATM   39  C   UNL     1     -10.159  13.186  67.487  1.00  0.00    -0.222 C  
HETATM   40  N   UNL     1     -10.471  14.991  65.775  1.00  0.00    -0.315 NA 
HETATM   41  H   UNL     1      -8.374  16.438  65.814  1.00  0.00     0.000 HD 
HETATM   42  O   UNL     1     -10.958  12.218  66.802  1.00  0.00    -0.253 OA 
BRANCH  32  43
HETATM   43  C   UNL     1      -6.499  15.049  68.867  1.00  0.00    -0.091 C  
HETATM   44  O   UNL     1      -5.292  15.093  68.092  1.00  0.00    -0.112 OA 
HETATM   45  H   UNL     1      -4.642  15.598  68.566  1.00  0.00     0.000 HD 
ENDBRANCH  32  43
ENDBRANCH  29  30
ENDBRANCH  23  29
ENDBRANCH  14  15
ENDBRANCH   8  14
TORSDOF 6
ENDMDL
MODEL      222
REMARK 921   NORMALIZED FREE ENERGY PREDICTED BY IDOCK:   -3.46 KCAL/MOL
REMARK 922        TOTAL FREE ENERGY PREDICTED BY IDOCK:   -6.22 KCAL/MOL
REMARK 923 INTER-LIGAND FREE ENERGY PREDICTED BY IDOCK:   -6.15 KCAL/MOL
REMARK 924 INTRA-LIGAND FREE ENERGY PREDICTED BY IDOCK:   -0.07 KCAL/MOL
REMARK 927      BINDING AFFINITY PREDICTED BY RF-SCORE:    0.00 PKD
ROOT
HETATM    1  C   UNL     1     -10.759  12.271  66.835  1.00  0.00    -0.232 C  
HETATM    2  C   UNL     1     -10.941  13.794  66.828  1.00  0.00    -0.307 C  
HETATM    3  N   UNL     1      -9.727  11.976  65.816  1.00  0.00    -0.242 NA 
HETATM    4  H1  UNL     1      -9.606  10.964  65.821  1.00  0.00     0.000 HD 
HETATM    5  C   UNL     1     -11.728  14.305  68.013  1.00  0.00    -0.386 C  
HETATM    6  H2  UNL     1      -8.857  12.489  65.959  1.00  0.00     0.000 HD 
HETATM    7  C   UNL     1     -11.273  13.672  69.327  1.00  0.00    -0.233 C  
HETATM    8  C   UNL     1     -10.522  11.612  68.259  1.00  0.00    -0.204 C  
HETATM    9  O   UNL     1     -11.293  12.236  69.286  1.00  0.00    -0.255 OA 
ENDROOT
BRANCH   7  10
HETATM   10  C   UNL     1     -12.263  14.130  70.432  1.00  0.00    -0.356 C  
HETATM   11  N   UNL     1     -12.703  15.515  70.265  1.00  0.00    -0.602 NA 
HETATM   12  H1  UNL     1     -13.353  15.816  70.991  1.00  0.00     0.000 HD 
HETATM   13  H2  UNL     1     -13.099  15.663  69.336  1.00  0.00     0.000 HD 
ENDBRANCH   7  10
BRANCH   8  14
HETATM   14  O   UNL     1      -9.127  11.513  68.544  1.00  0.00    -0.175 OA 
BRANCH  14  15
HETATM   15  C   UNL     1      -8.603  10.447  69.376  1.00  0.00    -0.130 C  
HETATM   16  C   UNL     1      -7.085  10.775  69.432  1.00  0.00    -0.122 C  
HETATM   17  N   UNL     1      -6.840  12.053  70.128  1.00  0.00    -0.366 NA 
HETATM   18  C   UNL     1      -6.199   9.751  70.114  1.00  0.00    -0.070 C  
HETATM   19  H2  UNL     1      -7.260  12.060  71.057  1.00  0.00     0.000 HD 
HETATM   20  H1  UNL     1      -5.844  12.268  70.164  1.00  0.00     0.000 HD 
HETATM   21  C   UNL     1      -6.422   8.332  69.618  1.00  0.00    -0.037 C  
HETATM   22  N   UNL     1      -5.446   7.522  70.367  1.00  0.00    -0.023 NA 
HETATM   23  C   UNL     1      -7.928   7.967  69.806  1.00  0.00    -0.114 C  
HETATM   24  C   UNL     1      -8.818   8.951  68.935  1.00  0.00    -0.137 C  
HETATM   25  O   UNL     1     -10.205   8.598  69.090  1.00  0.00    -0.198 OA 
HETATM   26  H2  UNL     1      -5.511   7.624  71.379  1.00  0.00     0.000 HD 
HETATM   27  H1  UNL     1      -5.596   6.570  70.034  1.00  0.00     0.000 HD 
HETATM   28  H   UNL     1     -10.335   7.695  68.824  1.00  0.00     0.000 HD 
BRANCH  23  29
HETATM   29  O   UNL     1      -8.214   6.558  69.533  1.00  0.00    -0.122 OA 
BRANCH  29  30
HETATM   30  C   UNL     1      -8.272   5.770  70.756  1.00  0.00    -0.123 C  
HETATM   31  O   UNL     1      -7.827   6.531  71.886  1.00  0.00    -0.101 OA 
HETATM   32  C   UNL     1      -8.741   7.595  72.203  1.00  0.00    -0.122 C  
HETATM   33  C   UNL     1     -10.052   6.992  72.707  1.00  0.00    -0.185 C  
HETATM   34  H   UNL     1     -10.985   4.003  70.086  1.00  0.00     0.000 HD 
HETATM   35  O   UNL     1     -10.976   8.006  73.105  1.00  0.00    -0.337 OA 
HETATM   36  C   UNL     1     -10.675   6.119  71.591  1.00  0.00    -0.245 C  
HETATM   37  H1  UNL     1     -12.309   4.881  71.360  1.00  0.00     0.000 HD 
HETATM   38  H2  UNL     1     -12.568   6.126  72.478  1.00  0.00     0.000 HD 
HETATM   39  C   UNL     1      -9.647   5.114  71.047  1.00  0.00    -0.171 C  
HETATM   40  N   UNL     1     -11.899   5.456  72.096  1.00  0.00     0.087 NA 
HETATM   41  H   UNL     1     -11.791   7.632  73.419  1.00  0.00     0.000 HD 
HETATM   42  O   UNL     1     -10.142   4.404  69.908  1.00  0.00    -0.222 OA 
BRANCH  32  43
HETATM   43  C   UNL     1      -8.055   8.505  73.222  1.00  0.00    -0.003 C  
HETATM   44  O   UNL     1      -8.477   8.126  74.540  1.00  0.00    -0.420 OA 
HETATM   45  H   UNL     1      -8.051   8.691  75.173  1.00  0.00     0.000 HD 
ENDBRANCH  32  43
ENDBRANCH  29  30
ENDBRANCH  23  29
ENDBRANCH  14  15
ENDBRANCH   8  14
TORSDOF 6
ENDMDL
MODEL      223
REMARK 921   NORMALIZED FREE ENERGY PREDICTED BY IDOCK:   -3.45 KCAL/MOL
REMARK 922        TOTAL FREE ENERGY PREDICTED BY IDOCK:   -6.22 KCAL/MOL
REMARK 923 INTER-LIGAND FREE ENERGY PREDICTED BY IDOCK:   -8.72 KCAL/MOL
REMARK 924 INTRA-LIGAND FREE ENERGY PREDICTED BY IDOCK:    2.51 KCAL/MOL
REMARK 927      BINDING AFFINITY PREDICTED BY RF-SCORE:    0.00 PKD
ROOT
HETATM    1  C   UNL     1      -5.299  16.404  67.717  1.00  0.00    -0.127 C  
HETATM    2  C   UNL     1      -5.925  16.612  69.102  1.00  0.00    -0.162 C  
HETATM    3  N   UNL     1      -5.794  15.096  67.234  1.00  0.00    -0.282 NA 
HETATM    4  H1  UNL     1      -5.378  14.958  66.314  1.00  0.00     0.000 HD 
HETATM    5  C   UNL     1      -5.778  18.025  69.616  1.00  0.00    -0.235 C  
HETATM    6  H2  UNL     1      -6.812  15.023  67.234  1.00  0.00     0.000 HD 
HETATM    7  C   UNL     1      -6.108  19.067  68.548  1.00  0.00    -0.215 C  
HETATM    8  C   UNL     1      -5.457  17.613  66.702  1.00  0.00    -0.171 C  
HETATM    9  O   UNL     1      -5.348  18.885  67.343  1.00  0.00    -0.158 OA 
ENDROOT
BRANCH   7  10
HETATM   10  C   UNL     1      -5.749  20.461  69.130  1.00  0.00    -0.314 C  
HETATM   11  N   UNL     1      -5.750  20.485  70.593  1.00  0.00    -0.509 NA 
HETATM   12  H1  UNL     1      -5.514  21.401  70.975  1.00  0.00     0.000 HD 
HETATM   13  H2  UNL     1      -5.136  19.763  70.970  1.00  0.00     0.000 HD 
ENDBRANCH   7  10
BRANCH   8  14
HETATM   14  O   UNL     1      -6.629  17.452  65.902  1.00  0.00    -0.195 OA 
BRANCH  14  15
HETATM   15  C   UNL     1      -7.951  17.691  66.448  1.00  0.00    -0.274 C  
HETATM   16  C   UNL     1      -7.928  19.218  66.735  1.00  0.00    -0.271 C  
HETATM   17  N   UNL     1      -7.806  19.995  65.486  1.00  0.00    -0.485 NA 
HETATM   18  C   UNL     1      -9.130  19.785  67.464  1.00  0.00    -0.414 C  
HETATM   19  H2  UNL     1      -8.538  19.749  64.820  1.00  0.00     0.000 HD 
HETATM   20  H1  UNL     1      -7.791  20.997  65.675  1.00  0.00     0.000 HD 
HETATM   21  C   UNL     1      -9.498  19.009  68.719  1.00  0.00    -0.382 C  
HETATM   22  N   UNL     1     -10.642  19.743  69.284  1.00  0.00    -0.390 NA 
HETATM   23  C   UNL     1      -9.743  17.517  68.331  1.00  0.00    -0.316 C  
HETATM   24  C   UNL     1      -8.408  16.905  67.733  1.00  0.00    -0.194 C  
HETATM   25  O   UNL     1      -8.628  15.522  67.398  1.00  0.00    -0.162 OA 
HETATM   26  H2  UNL     1     -11.416  19.873  68.633  1.00  0.00     0.000 HD 
HETATM   27  H1  UNL     1     -10.889  19.223  70.126  1.00  0.00     0.000 HD 
HETATM   28  H   UNL     1      -8.904  15.047  68.174  1.00  0.00     0.000 HD 
BRANCH  23  29
HETATM   29  O   UNL     1     -10.285  16.722  69.433  1.00  0.00    -0.272 OA 
BRANCH  29  30
HETATM   30  C   UNL     1     -11.692  16.406  69.235  1.00  0.00     0.005 C  
HETATM   31  O   UNL     1     -11.905  15.748  67.980  1.00  0.00    -0.207 OA 
HETATM   32  C   UNL     1     -11.325  14.432  67.965  1.00  0.00    -0.294 C  
HETATM   33  C   UNL     1     -12.091  13.538  68.940  1.00  0.00    -0.279 C  
HETATM   34  H   UNL     1     -12.499  15.721  72.367  1.00  0.00     0.000 HD 
HETATM   35  O   UNL     1     -11.603  12.196  68.916  1.00  0.00    -0.274 OA 
HETATM   36  C   UNL     1     -11.968  14.119  70.370  1.00  0.00    -0.330 C  
HETATM   37  H1  UNL     1     -12.699  13.698  72.252  1.00  0.00     0.000 HD 
HETATM   38  H2  UNL     1     -12.539  12.324  71.276  1.00  0.00     0.000 HD 
HETATM   39  C   UNL     1     -12.352  15.607  70.389  1.00  0.00    -0.391 C  
HETATM   40  N   UNL     1     -12.781  13.315  71.310  1.00  0.00    -0.358 NA 
HETATM   41  H   UNL     1     -12.079  11.641  69.521  1.00  0.00     0.000 HD 
HETATM   42  O   UNL     1     -12.096  16.211  71.660  1.00  0.00    -0.461 OA 
BRANCH  32  43
HETATM   43  C   UNL     1     -11.356  13.929  66.521  1.00  0.00    -0.331 C  
HETATM   44  O   UNL     1     -10.242  13.049  66.314  1.00  0.00    -0.274 OA 
HETATM   45  H   UNL     1     -10.262  12.737  65.416  1.00  0.00     0.000 HD 
ENDBRANCH  32  43
ENDBRANCH  29  30
ENDBRANCH  23  29
ENDBRANCH  14  15
ENDBRANCH   8  14
TORSDOF 6
ENDMDL
MODEL      224
REMARK 921   NORMALIZED FREE ENERGY PREDICTED BY IDOCK:   -3.43 KCAL/MOL
REMARK 922        TOTAL FREE ENERGY PREDICTED BY IDOCK:   -6.19 KCAL/MOL
REMARK 923 INTER-LIGAND FREE ENERGY PREDICTED BY IDOCK:   -7.38 KCAL/MOL
REMARK 924 INTRA-LIGAND FREE ENERGY PREDICTED BY IDOCK:    1.19 KCAL/MOL
REMARK 927      BINDING AFFINITY PREDICTED BY RF-SCORE:    0.00 PKD
ROOT
HETATM    1  C   UNL     1     -11.540  13.606  66.186  1.00  0.00    -0.347 C  
HETATM    2  C   UNL     1     -12.392  13.067  65.030  1.00  0.00    -0.526 C  
HETATM    3  N   UNL     1     -12.494  14.094  67.206  1.00  0.00    -0.532 NA 
HETATM    4  H1  UNL     1     -11.928  14.453  67.975  1.00  0.00     0.000 HD 
HETATM    5  C   UNL     1     -11.598  12.251  64.036  1.00  0.00    -0.495 C  
HETATM    6  H2  UNL     1     -13.174  13.391  67.497  1.00  0.00     0.000 HD 
HETATM    7  C   UNL     1     -10.659  11.259  64.720  1.00  0.00    -0.312 C  
HETATM    8  C   UNL     1     -10.408  12.632  66.720  1.00  0.00    -0.235 C  
HETATM    9  O   UNL     1      -9.786  11.888  65.671  1.00  0.00    -0.232 OA 
ENDROOT
BRANCH   7  10
HETATM   10  C   UNL     1      -9.776  10.617  63.616  1.00  0.00    -0.330 C  
HETATM   11  N   UNL     1      -8.911  11.586  62.942  1.00  0.00    -0.591 NA 
HETATM   12  H1  UNL     1      -8.331  11.164  62.217  1.00  0.00     0.000 HD 
HETATM   13  H2  UNL     1      -8.340  12.095  63.617  1.00  0.00     0.000 HD 
ENDBRANCH   7  10
BRANCH   8  14
HETATM   14  O   UNL     1     -10.894  11.836  67.801  1.00  0.00    -0.196 OA 
BRANCH  14  15
HETATM   15  C   UNL     1      -9.985  11.176  68.718  1.00  0.00    -0.198 C  
HETATM   16  C   UNL     1      -8.608  11.777  68.322  1.00  0.00    -0.162 C  
HETATM   17  N   UNL     1      -8.558  13.225  68.599  1.00  0.00    -0.358 NA 
HETATM   18  C   UNL     1      -7.391  11.180  69.001  1.00  0.00    -0.120 C  
HETATM   19  H2  UNL     1      -8.790  13.430  69.570  1.00  0.00     0.000 HD 
HETATM   20  H1  UNL     1      -7.653  13.620  68.338  1.00  0.00     0.000 HD 
HETATM   21  C   UNL     1      -7.350   9.661  68.942  1.00  0.00    -0.073 C  
HETATM   22  N   UNL     1      -6.088   9.301  69.609  1.00  0.00    -0.039 NA 
HETATM   23  C   UNL     1      -8.662   9.100  69.573  1.00  0.00    -0.140 C  
HETATM   24  C   UNL     1      -9.907   9.604  68.728  1.00  0.00    -0.165 C  
HETATM   25  O   UNL     1     -11.115   9.066  69.296  1.00  0.00    -0.427 OA 
HETATM   26  H2  UNL     1      -5.990   9.683  70.549  1.00  0.00     0.000 HD 
HETATM   27  H1  UNL     1      -6.060   8.281  69.569  1.00  0.00     0.000 HD 
HETATM   28  H   UNL     1     -11.069   8.116  69.302  1.00  0.00     0.000 HD 
BRANCH  23  29
HETATM   29  O   UNL     1      -8.643   7.646  69.736  1.00  0.00    -0.133 OA 
BRANCH  29  30
HETATM   30  C   UNL     1      -9.984   7.079  69.720  1.00  0.00    -0.173 C  
HETATM   31  O   UNL     1     -10.176   6.234  68.579  1.00  0.00    -0.149 OA 
HETATM   32  C   UNL     1      -9.376   5.042  68.660  1.00  0.00    -0.130 C  
HETATM   33  C   UNL     1      -9.892   4.172  69.806  1.00  0.00    -0.150 C  
HETATM   34  H   UNL     1     -10.405   6.693  72.977  1.00  0.00     0.000 HD 
HETATM   35  O   UNL     1      -9.178   2.937  69.890  1.00  0.00    -0.120 OA 
HETATM   36  C   UNL     1      -9.760   4.950  71.137  1.00  0.00    -0.179 C  
HETATM   37  H1  UNL     1     -10.253   4.668  73.121  1.00  0.00     0.000 HD 
HETATM   38  H2  UNL     1      -9.930   3.222  72.302  1.00  0.00     0.000 HD 
HETATM   39  C   UNL     1     -10.398   6.343  71.021  1.00  0.00    -0.206 C  
HETATM   40  N   UNL     1     -10.340   4.154  72.243  1.00  0.00    -0.161 NA 
HETATM   41  H   UNL     1      -9.499   2.396  70.602  1.00  0.00     0.000 HD 
HETATM   42  O   UNL     1     -10.152   7.144  72.180  1.00  0.00    -0.179 OA 
BRANCH  32  43
HETATM   43  C   UNL     1      -9.433   4.353  67.296  1.00  0.00    -0.171 C  
HETATM   44  O   UNL     1      -9.442   5.357  66.271  1.00  0.00    -0.149 OA 
HETATM   45  H   UNL     1      -9.478   4.929  65.423  1.00  0.00     0.000 HD 
ENDBRANCH  32  43
ENDBRANCH  29  30
ENDBRANCH  23  29
ENDBRANCH  14  15
ENDBRANCH   8  14
TORSDOF 6
ENDMDL
MODEL      225
REMARK 921   NORMALIZED FREE ENERGY PREDICTED BY IDOCK:   -3.37 KCAL/MOL
REMARK 922        TOTAL FREE ENERGY PREDICTED BY IDOCK:   -6.11 KCAL/MOL
REMARK 923 INTER-LIGAND FREE ENERGY PREDICTED BY IDOCK:   -5.69 KCAL/MOL
REMARK 924 INTRA-LIGAND FREE ENERGY PREDICTED BY IDOCK:   -0.42 KCAL/MOL
REMARK 927      BINDING AFFINITY PREDICTED BY RF-SCORE:    0.00 PKD
ROOT
HETATM    1  C   UNL     1      -9.454   6.591  67.285  1.00  0.00    -0.125 C  
HETATM    2  C   UNL     1      -8.381   6.803  68.360  1.00  0.00    -0.123 C  
HETATM    3  N   UNL     1     -10.636   6.045  67.986  1.00  0.00    -0.238 NA 
HETATM    4  H1  UNL     1     -11.349   5.904  67.271  1.00  0.00     0.000 HD 
HETATM    5  C   UNL     1      -7.215   7.638  67.883  1.00  0.00    -0.094 C  
HETATM    6  H2  UNL     1     -10.951   6.624  68.765  1.00  0.00     0.000 HD 
HETATM    7  C   UNL     1      -7.669   8.876  67.111  1.00  0.00    -0.095 C  
HETATM    8  C   UNL     1      -9.734   7.834  66.339  1.00  0.00    -0.149 C  
HETATM    9  O   UNL     1      -8.545   8.557  66.018  1.00  0.00    -0.126 OA 
ENDROOT
BRANCH   7  10
HETATM   10  C   UNL     1      -6.399   9.548  66.522  1.00  0.00    -0.066 C  
HETATM   11  N   UNL     1      -5.164   8.860  66.896  1.00  0.00    -0.038 NA 
HETATM   12  H1  UNL     1      -4.330   9.302  66.508  1.00  0.00     0.000 HD 
HETATM   13  H2  UNL     1      -5.205   7.873  66.642  1.00  0.00     0.000 HD 
ENDBRANCH   7  10
BRANCH   8  14
HETATM   14  O   UNL     1     -10.793   8.637  66.859  1.00  0.00    -0.178 OA 
BRANCH  14  15
HETATM   15  C   UNL     1     -10.520   9.820  67.653  1.00  0.00    -0.251 C  
HETATM   16  C   UNL     1     -11.490   9.654  68.855  1.00  0.00     0.240 C  
HETATM   17  N   UNL     1     -11.137   8.474  69.667  1.00  0.00    -0.438 NA 
HETATM   18  C   UNL     1     -11.570  10.818  69.822  1.00  0.00    -0.393 C  
HETATM   19  H2  UNL     1     -10.164   8.506  69.971  1.00  0.00     0.000 HD 
HETATM   20  H1  UNL     1     -11.774   8.365  70.456  1.00  0.00     0.000 HD 
HETATM   21  C   UNL     1     -11.787  12.159  69.140  1.00  0.00    -0.305 C  
HETATM   22  N   UNL     1     -11.878  13.126  70.246  1.00  0.00    -0.525 NA 
HETATM   23  C   UNL     1     -10.643  12.384  68.102  1.00  0.00    -0.216 C  
HETATM   24  C   UNL     1     -10.701  11.242  67.002  1.00  0.00    -0.260 C  
HETATM   25  O   UNL     1      -9.661  11.465  66.032  1.00  0.00    -0.208 OA 
HETATM   26  H2  UNL     1     -11.080  13.107  70.881  1.00  0.00     0.000 HD 
HETATM   27  H1  UNL     1     -12.024  14.026  69.788  1.00  0.00     0.000 HD 
HETATM   28  H   UNL     1      -9.771  12.323  65.639  1.00  0.00     0.000 HD 
BRANCH  23  29
HETATM   29  O   UNL     1     -10.653  13.727  67.522  1.00  0.00    -0.243 OA 
BRANCH  29  30
HETATM   30  C   UNL     1      -9.399  14.037  66.849  1.00  0.00    -0.257 C  
HETATM   31  O   UNL     1      -9.620  14.853  65.692  1.00  0.00    -0.325 OA 
HETATM   32  C   UNL     1     -10.074  16.170  66.048  1.00  0.00    -0.351 C  
HETATM   33  C   UNL     1      -8.942  16.911  66.761  1.00  0.00    -0.240 C  
HETATM   34  H   UNL     1      -7.449  14.283  69.508  1.00  0.00     0.000 HD 
HETATM   35  O   UNL     1      -9.312  18.254  67.077  1.00  0.00    -0.262 OA 
HETATM   36  C   UNL     1      -8.569  16.147  68.055  1.00  0.00    -0.171 C  
HETATM   37  H1  UNL     1      -7.167  16.299  69.561  1.00  0.00     0.000 HD 
HETATM   38  H2  UNL     1      -7.583  17.794  68.883  1.00  0.00     0.000 HD 
HETATM   39  C   UNL     1      -8.308  14.662  67.756  1.00  0.00    -0.162 C  
HETATM   40  N   UNL     1      -7.413  16.803  68.708  1.00  0.00    -0.219 NA 
HETATM   41  H   UNL     1      -8.609  18.714  67.520  1.00  0.00     0.000 HD 
HETATM   42  O   UNL     1      -8.117  13.901  68.952  1.00  0.00    -0.086 OA 
BRANCH  32  43
HETATM   43  C   UNL     1     -10.543  16.860  64.766  1.00  0.00     0.421 C  
HETATM   44  O   UNL     1     -11.921  16.528  64.540  1.00  0.00    -0.211 OA 
HETATM   45  H   UNL     1     -12.212  16.957  63.743  1.00  0.00     0.000 HD 
ENDBRANCH  32  43
ENDBRANCH  29  30
ENDBRANCH  23  29
ENDBRANCH  14  15
ENDBRANCH   8  14
TORSDOF 6
ENDMDL
MODEL      226
REMARK 921   NORMALIZED FREE ENERGY PREDICTED BY IDOCK:   -3.33 KCAL/MOL
REMARK 922        TOTAL FREE ENERGY PREDICTED BY IDOCK:   -6.06 KCAL/MOL
REMARK 923 INTER-LIGAND FREE ENERGY PREDICTED BY IDOCK:   -7.63 KCAL/MOL
REMARK 924 INTRA-LIGAND FREE ENERGY PREDICTED BY IDOCK:    1.57 KCAL/MOL
REMARK 927      BINDING AFFINITY PREDICTED BY RF-SCORE:    0.00 PKD
ROOT
HETATM    1  C   UNL     1      -6.818   9.538  69.381  1.00  0.00    -0.049 C  
HETATM    2  C   UNL     1      -6.162  10.866  68.986  1.00  0.00    -0.043 C  
HETATM    3  N   UNL     1      -7.296   9.712  70.770  1.00  0.00    -0.295 NA 
HETATM    4  H1  UNL     1      -7.732   8.829  71.033  1.00  0.00     0.000 HD 
HETATM    5  C   UNL     1      -5.891  10.979  67.503  1.00  0.00    -0.046 C  
HETATM    6  H2  UNL     1      -7.908  10.519  70.891  1.00  0.00     0.000 HD 
HETATM    7  C   UNL     1      -7.081  10.522  66.661  1.00  0.00    -0.118 C  
HETATM    8  C   UNL     1      -7.888   8.967  68.357  1.00  0.00    -0.104 C  
HETATM    9  O   UNL     1      -7.520   9.196  66.996  1.00  0.00    -0.090 OA 
ENDROOT
BRANCH   7  10
HETATM   10  C   UNL     1      -6.624  10.510  65.177  1.00  0.00    -0.037 C  
HETATM   11  N   UNL     1      -5.403  11.283  64.950  1.00  0.00    -0.462 NA 
HETATM   12  H1  UNL     1      -5.104  11.275  63.975  1.00  0.00     0.000 HD 
HETATM   13  H2  UNL     1      -4.653  10.969  65.565  1.00  0.00     0.000 HD 
ENDBRANCH   7  10
BRANCH   8  14
HETATM   14  O   UNL     1      -9.201   9.411  68.698  1.00  0.00    -0.131 OA 
BRANCH  14  15
HETATM   15  C   UNL     1      -9.943  10.304  67.829  1.00  0.00    -0.173 C  
HETATM   16  C   UNL     1      -9.836   9.600  66.448  1.00  0.00    -0.244 C  
HETATM   17  N   UNL     1     -10.529   8.298  66.457  1.00  0.00    -0.389 NA 
HETATM   18  C   UNL     1     -10.390  10.360  65.259  1.00  0.00    -0.267 C  
HETATM   19  H2  UNL     1     -11.500   8.392  66.755  1.00  0.00     0.000 HD 
HETATM   20  H1  UNL     1     -10.459   7.836  65.550  1.00  0.00     0.000 HD 
HETATM   21  C   UNL     1      -9.889  11.793  65.171  1.00  0.00    -0.235 C  
HETATM   22  N   UNL     1     -10.504  12.323  63.943  1.00  0.00    -0.394 NA 
HETATM   23  C   UNL     1     -10.236  12.528  66.503  1.00  0.00    -0.240 C  
HETATM   24  C   UNL     1      -9.495  11.808  67.707  1.00  0.00    -0.181 C  
HETATM   25  O   UNL     1      -9.796  12.501  68.932  1.00  0.00    -0.419 OA 
HETATM   26  H2  UNL     1     -11.520  12.235  63.914  1.00  0.00     0.000 HD 
HETATM   27  H1  UNL     1     -10.168  13.285  63.883  1.00  0.00     0.000 HD 
HETATM   28  H   UNL     1      -9.526  13.409  68.859  1.00  0.00     0.000 HD 
BRANCH  23  29
HETATM   29  O   UNL     1      -9.965  13.964  66.452  1.00  0.00    -0.280 OA 
BRANCH  29  30
HETATM   30  C   UNL     1     -11.191  14.747  66.378  1.00  0.00    -0.342 C  
HETATM   31  O   UNL     1     -11.826  14.837  67.659  1.00  0.00    -0.358 OA 
HETATM   32  C   UNL     1     -11.053  15.625  68.581  1.00  0.00    -0.317 C  
HETATM   33  C   UNL     1     -11.049  17.080  68.112  1.00  0.00    -0.163 C  
HETATM   34  H   UNL     1     -10.240  16.958  64.111  1.00  0.00     0.000 HD 
HETATM   35  O   UNL     1     -10.354  17.926  69.030  1.00  0.00    -0.389 OA 
HETATM   36  C   UNL     1     -10.390  17.164  66.714  1.00  0.00    -0.302 C  
HETATM   37  H1  UNL     1     -10.027  18.608  65.286  1.00  0.00     0.000 HD 
HETATM   38  H2  UNL     1     -10.056  19.222  66.863  1.00  0.00     0.000 HD 
HETATM   39  C   UNL     1     -11.031  16.155  65.747  1.00  0.00    -0.102 C  
HETATM   40  N   UNL     1     -10.462  18.553  66.207  1.00  0.00    -0.421 NA 
HETATM   41  H   UNL     1     -10.351  18.830  68.738  1.00  0.00     0.000 HD 
HETATM   42  O   UNL     1     -10.339  16.095  64.497  1.00  0.00    -0.263 OA 
BRANCH  32  43
HETATM   43  C   UNL     1     -11.658  15.434  69.973  1.00  0.00    -0.321 C  
HETATM   44  O   UNL     1     -11.222  16.508  70.819  1.00  0.00    -0.454 OA 
HETATM   45  H   UNL     1     -11.597  16.388  71.683  1.00  0.00     0.000 HD 
ENDBRANCH  32  43
ENDBRANCH  29  30
ENDBRANCH  23  29
ENDBRANCH  14  15
ENDBRANCH   8  14
TORSDOF 6
ENDMDL
MODEL      227
REMARK 921   NORMALIZED FREE ENERGY PREDICTED BY IDOCK:   -3.30 KCAL/MOL
REMARK 922        TOTAL FREE ENERGY PREDICTED BY IDOCK:   -6.01 KCAL/MOL
REMARK 923 INTER-LIGAND FREE ENERGY PREDICTED BY IDOCK:   -7.59 KCAL/MOL
REMARK 924 INTRA-LIGAND FREE ENERGY PREDICTED BY IDOCK:    1.58 KCAL/MOL
REMARK 927      BINDING AFFINITY PREDICTED BY RF-SCORE:    0.00 PKD
ROOT
HETATM    1  C   UNL     1      -6.375   9.238  67.504  1.00  0.00    -0.062 C  
HETATM    2  C   UNL     1      -6.244  10.535  66.697  1.00  0.00    -0.079 C  
HETATM    3  N   UNL     1      -5.460   9.377  68.658  1.00  0.00    -0.037 NA 
HETATM    4  H1  UNL     1      -5.547   8.515  69.195  1.00  0.00     0.000 HD 
HETATM    5  C   UNL     1      -7.326  10.701  65.655  1.00  0.00    -0.087 C  
HETATM    6  H2  UNL     1      -5.629  10.218  69.211  1.00  0.00     0.000 HD 
HETATM    7  C   UNL     1      -8.713  10.369  66.204  1.00  0.00    -0.152 C  
HETATM    8  C   UNL     1      -7.857   8.793  67.856  1.00  0.00    -0.102 C  
HETATM    9  O   UNL     1      -8.776   9.062  66.796  1.00  0.00    -0.120 OA 
ENDROOT
BRANCH   7  10
HETATM   10  C   UNL     1      -9.705  10.397  65.009  1.00  0.00    -0.300 C  
HETATM   11  N   UNL     1      -9.260   9.582  63.879  1.00  0.00    -0.425 NA 
HETATM   12  H1  UNL     1      -9.912   9.600  63.095  1.00  0.00     0.000 HD 
HETATM   13  H2  UNL     1      -9.071   8.623  64.174  1.00  0.00     0.000 HD 
ENDBRANCH   7  10
BRANCH   8  14
HETATM   14  O   UNL     1      -8.252   9.310  69.127  1.00  0.00    -0.105 OA 
BRANCH  14  15
HETATM   15  C   UNL     1      -9.241  10.365  69.236  1.00  0.00    -0.184 C  
HETATM   16  C   UNL     1     -10.498   9.719  68.590  1.00  0.00    -0.208 C  
HETATM   17  N   UNL     1     -10.974   8.569  69.382  1.00  0.00    -0.427 NA 
HETATM   18  C   UNL     1     -11.700  10.624  68.404  1.00  0.00    -0.168 C  
HETATM   19  H2  UNL     1     -11.142   8.827  70.354  1.00  0.00     0.000 HD 
HETATM   20  H1  UNL     1     -11.800   8.145  68.958  1.00  0.00     0.000 HD 
HETATM   21  C   UNL     1     -11.365  11.942  67.724  1.00  0.00    -0.292 C  
HETATM   22  N   UNL     1     -12.659  12.634  67.604  1.00  0.00     0.385 NA 
HETATM   23  C   UNL     1     -10.257  12.665  68.551  1.00  0.00    -0.201 C  
HETATM   24  C   UNL     1      -8.950  11.764  68.576  1.00  0.00    -0.132 C  
HETATM   25  O   UNL     1      -7.921  12.442  69.318  1.00  0.00    -0.282 OA 
HETATM   26  H2  UNL     1     -13.159  12.737  68.487  1.00  0.00     0.000 HD 
HETATM   27  H1  UNL     1     -12.435  13.518  67.148  1.00  0.00     0.000 HD 
HETATM   28  H   UNL     1      -7.745  13.287  68.919  1.00  0.00     0.000 HD 
BRANCH  23  29
HETATM   29  O   UNL     1      -9.994  14.027  68.087  1.00  0.00    -0.228 OA 
BRANCH  29  30
HETATM   30  C   UNL     1      -9.204  14.042  66.863  1.00  0.00    -0.260 C  
HETATM   31  O   UNL     1     -10.019  13.763  65.718  1.00  0.00    -0.298 OA 
HETATM   32  C   UNL     1     -10.950  14.828  65.456  1.00  0.00    -0.346 C  
HETATM   33  C   UNL     1     -10.176  16.070  65.016  1.00  0.00     0.022 C  
HETATM   34  H   UNL     1      -7.087  16.453  67.660  1.00  0.00     0.000 HD 
HETATM   35  O   UNL     1     -11.055  17.143  64.674  1.00  0.00    -1.036 OA 
HETATM   36  C   UNL     1      -9.226  16.510  66.156  1.00  0.00    -0.303 C  
HETATM   37  H1  UNL     1      -7.778  17.948  66.462  1.00  0.00     0.000 HD 
HETATM   38  H2  UNL     1      -8.977  18.430  65.368  1.00  0.00     0.000 HD 
HETATM   39  C   UNL     1      -8.369  15.330  66.640  1.00  0.00    -0.181 C  
HETATM   40  N   UNL     1      -8.404  17.658  65.710  1.00  0.00    -0.505 NA 
HETATM   41  H   UNL     1     -10.575  17.915  64.400  1.00  0.00     0.000 HD 
HETATM   42  O   UNL     1      -7.598  15.664  67.797  1.00  0.00    -0.123 OA 
BRANCH  32  43
HETATM   43  C   UNL     1     -11.945  14.325  64.409  1.00  0.00    -0.456 C  
HETATM   44  O   UNL     1     -12.342  15.427  63.581  1.00  0.00    -0.898 OA 
HETATM   45  H   UNL     1     -12.960  15.115  62.931  1.00  0.00     0.000 HD 
ENDBRANCH  32  43
ENDBRANCH  29  30
ENDBRANCH  23  29
ENDBRANCH  14  15
ENDBRANCH   8  14
TORSDOF 6
ENDMDL
MODEL      228
REMARK 921   NORMALIZED FREE ENERGY PREDICTED BY IDOCK:   -3.27 KCAL/MOL
REMARK 922        TOTAL FREE ENERGY PREDICTED BY IDOCK:   -5.97 KCAL/MOL
REMARK 923 INTER-LIGAND FREE ENERGY PREDICTED BY IDOCK:   -5.20 KCAL/MOL
REMARK 924 INTRA-LIGAND FREE ENERGY PREDICTED BY IDOCK:   -0.78 KCAL/MOL
REMARK 927      BINDING AFFINITY PREDICTED BY RF-SCORE:    0.00 PKD
ROOT
HETATM    1  C   UNL     1     -10.067  13.502  68.040  1.00  0.00    -0.244 C  
HETATM    2  C   UNL     1     -11.200  14.534  67.978  1.00  0.00    -0.308 C  
HETATM    3  N   UNL     1     -10.222  12.798  69.332  1.00  0.00    -0.148 NA 
HETATM    4  H1  UNL     1      -9.469  12.112  69.374  1.00  0.00     0.000 HD 
HETATM    5  C   UNL     1     -11.386  15.133  66.603  1.00  0.00    -0.234 C  
HETATM    6  H2  UNL     1     -11.149  12.392  69.465  1.00  0.00     0.000 HD 
HETATM    7  C   UNL     1     -11.360  14.073  65.502  1.00  0.00    -0.313 C  
HETATM    8  C   UNL     1      -9.918  12.567  66.766  1.00  0.00    -0.228 C  
HETATM    9  O   UNL     1     -10.176  13.260  65.545  1.00  0.00    -0.289 OA 
ENDROOT
BRANCH   7  10
HETATM   10  C   UNL     1     -11.375  14.818  64.139  1.00  0.00     0.087 C  
HETATM   11  N   UNL     1     -12.447  15.808  64.043  1.00  0.00    -0.809 NA 
HETATM   12  H1  UNL     1     -12.457  16.297  63.148  1.00  0.00     0.000 HD 
HETATM   13  H2  UNL     1     -12.404  16.469  64.819  1.00  0.00     0.000 HD 
ENDBRANCH   7  10
BRANCH   8  14
HETATM   14  O   UNL     1     -10.665  11.362  66.933  1.00  0.00    -0.240 OA 
BRANCH  14  15
HETATM   15  C   UNL     1     -10.005  10.094  67.175  1.00  0.00    -0.196 C  
HETATM   16  C   UNL     1     -10.034   9.423  65.774  1.00  0.00    -0.208 C  
HETATM   17  N   UNL     1      -9.219  10.178  64.803  1.00  0.00    -0.220 NA 
HETATM   18  C   UNL     1      -9.546   7.990  65.703  1.00  0.00     0.325 C  
HETATM   19  H2  UNL     1      -8.265  10.310  65.137  1.00  0.00     0.000 HD 
HETATM   20  H1  UNL     1      -9.238   9.738  63.884  1.00  0.00     0.000 HD 
HETATM   21  C   UNL     1     -10.180   7.082  66.745  1.00  0.00    -0.211 C  
HETATM   22  N   UNL     1      -9.609   5.753  66.472  1.00  0.00    -0.152 NA 
HETATM   23  C   UNL     1      -9.916   7.683  68.161  1.00  0.00    -0.175 C  
HETATM   24  C   UNL     1     -10.594   9.114  68.258  1.00  0.00    -0.174 C  
HETATM   25  O   UNL     1     -10.370   9.657  69.572  1.00  0.00    -0.196 OA 
HETATM   26  H2  UNL     1      -8.590   5.731  66.467  1.00  0.00     0.000 HD 
HETATM   27  H1  UNL     1     -10.035   5.144  67.171  1.00  0.00     0.000 HD 
HETATM   28  H   UNL     1     -10.726   9.066  70.225  1.00  0.00     0.000 HD 
BRANCH  23  29
HETATM   29  O   UNL     1     -10.323   6.791  69.246  1.00  0.00    -0.183 OA 
BRANCH  29  30
HETATM   30  C   UNL     1      -9.284   5.825  69.574  1.00  0.00    -0.130 C  
HETATM   31  O   UNL     1      -7.989   6.305  69.191  1.00  0.00    -0.106 OA 
HETATM   32  C   UNL     1      -7.581   7.429  69.991  1.00  0.00    -0.089 C  
HETATM   33  C   UNL     1      -7.347   6.959  71.427  1.00  0.00    -0.081 C  
HETATM   34  H   UNL     1     -10.569   4.638  72.380  1.00  0.00     0.000 HD 
HETATM   35  O   UNL     1      -6.870   8.021  72.255  1.00  0.00    -0.062 OA 
HETATM   36  C   UNL     1      -8.668   6.394  72.001  1.00  0.00    -0.133 C  
HETATM   37  H1  UNL     1      -9.306   5.480  73.737  1.00  0.00     0.000 HD 
HETATM   38  H2  UNL     1      -8.010   6.542  73.980  1.00  0.00     0.000 HD 
HETATM   39  C   UNL     1      -9.275   5.350  71.051  1.00  0.00    -0.148 C  
HETATM   40  N   UNL     1      -8.435   5.852  73.359  1.00  0.00    -0.118 NA 
HETATM   41  H   UNL     1      -6.724   7.729  73.147  1.00  0.00     0.000 HD 
HETATM   42  O   UNL     1     -10.574   4.928  71.475  1.00  0.00    -0.157 OA 
BRANCH  32  43
HETATM   43  C   UNL     1      -6.339   8.036  69.336  1.00  0.00    -0.035 C  
HETATM   44  O   UNL     1      -5.171   7.489  69.964  1.00  0.00    -0.022 OA 
HETATM   45  H   UNL     1      -4.400   7.866  69.557  1.00  0.00     0.000 HD 
ENDBRANCH  32  43
ENDBRANCH  29  30
ENDBRANCH  23  29
ENDBRANCH  14  15
ENDBRANCH   8  14
TORSDOF 6
ENDMDL
MODEL      229
REMARK 921   NORMALIZED FREE ENERGY PREDICTED BY IDOCK:   -3.26 KCAL/MOL
REMARK 922        TOTAL FREE ENERGY PREDICTED BY IDOCK:   -5.96 KCAL/MOL
REMARK 923 INTER-LIGAND FREE ENERGY PREDICTED BY IDOCK:   -5.87 KCAL/MOL
REMARK 924 INTRA-LIGAND FREE ENERGY PREDICTED BY IDOCK:   -0.09 KCAL/MOL
REMARK 927      BINDING AFFINITY PREDICTED BY RF-SCORE:    0.00 PKD
ROOT
HETATM    1  C   UNL     1     -11.414  11.741  68.551  1.00  0.00    -0.296 C  
HETATM    2  C   UNL     1     -11.338  10.231  68.806  1.00  0.00    -0.226 C  
HETATM    3  N   UNL     1     -11.657  12.368  69.869  1.00  0.00    -0.499 NA 
HETATM    4  H1  UNL     1     -11.708  13.372  69.700  1.00  0.00     0.000 HD 
HETATM    5  C   UNL     1     -10.792   9.455  67.629  1.00  0.00    -0.222 C  
HETATM    6  H2  UNL     1     -10.968  12.110  70.575  1.00  0.00     0.000 HD 
HETATM    7  C   UNL     1      -9.552  10.114  67.027  1.00  0.00    -0.171 C  
HETATM    8  C   UNL     1     -10.218  12.358  67.711  1.00  0.00    -0.211 C  
HETATM    9  O   UNL     1      -9.773  11.487  66.670  1.00  0.00    -0.193 OA 
ENDROOT
BRANCH   7  10
HETATM   10  C   UNL     1      -9.195   9.337  65.731  1.00  0.00    -0.224 C  
HETATM   11  N   UNL     1      -9.510   7.911  65.816  1.00  0.00    -0.416 NA 
HETATM   12  H1  UNL     1      -9.275   7.401  64.964  1.00  0.00     0.000 HD 
HETATM   13  H2  UNL     1     -10.488   7.768  66.069  1.00  0.00     0.000 HD 
ENDBRANCH   7  10
BRANCH   8  14
HETATM   14  O   UNL     1      -9.181  12.825  68.574  1.00  0.00    -0.164 OA 
BRANCH  14  15
HETATM   15  C   UNL     1      -8.488  14.072  68.313  1.00  0.00    -0.171 C  
HETATM   16  C   UNL     1      -6.995  13.665  68.443  1.00  0.00    -0.104 C  
HETATM   17  N   UNL     1      -6.609  12.705  67.391  1.00  0.00    -0.190 NA 
HETATM   18  C   UNL     1      -5.981  14.789  68.374  1.00  0.00    -0.102 C  
HETATM   19  H2  UNL     1      -6.821  13.064  66.460  1.00  0.00     0.000 HD 
HETATM   20  H1  UNL     1      -5.629  12.437  67.477  1.00  0.00     0.000 HD 
HETATM   21  C   UNL     1      -6.302  15.951  69.301  1.00  0.00    -0.153 C  
HETATM   22  N   UNL     1      -5.187  16.893  69.110  1.00  0.00    -0.130 NA 
HETATM   23  C   UNL     1      -7.732  16.479  68.965  1.00  0.00    -0.228 C  
HETATM   24  C   UNL     1      -8.790  15.324  69.219  1.00  0.00    -0.242 C  
HETATM   25  O   UNL     1     -10.111  15.819  68.932  1.00  0.00    -0.204 OA 
HETATM   26  H2  UNL     1      -5.033  17.166  68.140  1.00  0.00     0.000 HD 
HETATM   27  H1  UNL     1      -5.402  17.673  69.732  1.00  0.00     0.000 HD 
HETATM   28  H   UNL     1     -10.293  16.575  69.479  1.00  0.00     0.000 HD 
BRANCH  23  29
HETATM   29  O   UNL     1      -8.066  17.715  69.672  1.00  0.00     0.459 OA 
BRANCH  29  30
HETATM   30  C   UNL     1      -8.005  18.876  68.795  1.00  0.00    -0.317 C  
HETATM   31  O   UNL     1      -7.305  18.573  67.582  1.00  0.00    -0.214 OA 
HETATM   32  C   UNL     1      -8.039  17.648  66.761  1.00  0.00    -0.236 C  
HETATM   33  C   UNL     1      -9.305  18.334  66.248  1.00  0.00    -0.213 C  
HETATM   34  H   UNL     1     -10.960  20.187  69.489  1.00  0.00     0.000 HD 
HETATM   35  O   UNL     1     -10.042  17.484  65.367  1.00  0.00    -0.526 OA 
HETATM   36  C   UNL     1     -10.190  18.739  67.452  1.00  0.00    -0.395 C  
HETATM   37  H1  UNL     1     -11.959  19.752  67.769  1.00  0.00     0.000 HD 
HETATM   38  H2  UNL     1     -11.901  18.963  66.272  1.00  0.00     0.000 HD 
HETATM   39  C   UNL     1      -9.375  19.534  68.485  1.00  0.00    -0.373 C  
HETATM   40  N   UNL     1     -11.376  19.485  66.975  1.00  0.00     0.021 NA 
HETATM   41  H   UNL     1     -10.829  17.910  65.048  1.00  0.00     0.000 HD 
HETATM   42  O   UNL     1     -10.121  19.784  69.679  1.00  0.00    -0.276 OA 
BRANCH  32  43
HETATM   43  C   UNL     1      -7.104  17.177  65.646  1.00  0.00     0.652 C  
HETATM   44  O   UNL     1      -5.781  17.033  66.181  1.00  0.00    -0.302 OA 
HETATM   45  H   UNL     1      -5.201  16.740  65.488  1.00  0.00     0.000 HD 
ENDBRANCH  32  43
ENDBRANCH  29  30
ENDBRANCH  23  29
ENDBRANCH  14  15
ENDBRANCH   8  14
TORSDOF 6
ENDMDL
MODEL      230
REMARK 921   NORMALIZED FREE ENERGY PREDICTED BY IDOCK:   -3.25 KCAL/MOL
REMARK 922        TOTAL FREE ENERGY PREDICTED BY IDOCK:   -5.95 KCAL/MOL
REMARK 923 INTER-LIGAND FREE ENERGY PREDICTED BY IDOCK:   -5.97 KCAL/MOL
REMARK 924 INTRA-LIGAND FREE ENERGY PREDICTED BY IDOCK:    0.02 KCAL/MOL
REMARK 927      BINDING AFFINITY PREDICTED BY RF-SCORE:    0.00 PKD
ROOT
HETATM    1  C   UNL     1     -11.906   6.310  71.698  1.00  0.00    -0.256 C  
HETATM    2  C   UNL     1     -11.470   5.430  72.876  1.00  0.00    -0.340 C  
HETATM    3  N   UNL     1     -12.965   7.201  72.221  1.00  0.00    -0.515 NA 
HETATM    4  H1  UNL     1     -13.255   7.786  71.438  1.00  0.00     0.000 HD 
HETATM    5  C   UNL     1     -10.188   4.673  72.612  1.00  0.00    -0.239 C  
HETATM    6  H2  UNL     1     -12.679   7.734  73.042  1.00  0.00     0.000 HD 
HETATM    7  C   UNL     1      -9.115   5.556  71.979  1.00  0.00    -0.141 C  
HETATM    8  C   UNL     1     -10.734   7.031  70.908  1.00  0.00    -0.235 C  
HETATM    9  O   UNL     1      -9.571   6.213  70.785  1.00  0.00    -0.167 OA 
ENDROOT
BRANCH   7  10
HETATM   10  C   UNL     1      -7.925   4.637  71.590  1.00  0.00    -0.101 C  
HETATM   11  N   UNL     1      -6.658   5.360  71.479  1.00  0.00    -0.039 NA 
HETATM   12  H1  UNL     1      -5.877   4.756  71.224  1.00  0.00     0.000 HD 
HETATM   13  H2  UNL     1      -6.456   5.876  72.336  1.00  0.00     0.000 HD 
ENDBRANCH   7  10
BRANCH   8  14
HETATM   14  O   UNL     1     -10.489   8.332  71.443  1.00  0.00    -0.205 OA 
BRANCH  14  15
HETATM   15  C   UNL     1     -10.370   9.491  70.580  1.00  0.00    -0.302 C  
HETATM   16  C   UNL     1     -11.853   9.881  70.329  1.00  0.00    -0.184 C  
HETATM   17  N   UNL     1     -12.511  10.312  71.577  1.00  0.00    -0.405 NA 
HETATM   18  C   UNL     1     -12.097  10.989  69.324  1.00  0.00    -0.363 C  
HETATM   19  H2  UNL     1     -11.996  11.067  72.031  1.00  0.00     0.000 HD 
HETATM   20  H1  UNL     1     -13.484  10.568  71.412  1.00  0.00     0.000 HD 
HETATM   21  C   UNL     1     -11.366  10.783  68.006  1.00  0.00    -0.307 C  
HETATM   22  N   UNL     1     -11.772  11.929  67.177  1.00  0.00    -0.583 NA 
HETATM   23  C   UNL     1      -9.841  10.633  68.298  1.00  0.00    -0.163 C  
HETATM   24  C   UNL     1      -9.605   9.356  69.211  1.00  0.00    -0.171 C  
HETATM   25  O   UNL     1      -8.195   9.205  69.460  1.00  0.00    -0.109 OA 
HETATM   26  H2  UNL     1     -11.602  12.837  67.609  1.00  0.00     0.000 HD 
HETATM   27  H1  UNL     1     -11.282  11.791  66.293  1.00  0.00     0.000 HD 
HETATM   28  H   UNL     1      -7.733   9.123  68.633  1.00  0.00     0.000 HD 
BRANCH  23  29
HETATM   29  O   UNL     1      -9.025  10.616  67.084  1.00  0.00    -0.137 OA 
BRANCH  29  30
HETATM   30  C   UNL     1      -7.658  10.194  67.354  1.00  0.00    -0.094 C  
HETATM   31  O   UNL     1      -7.478   8.802  67.064  1.00  0.00    -0.089 OA 
HETATM   32  C   UNL     1      -7.575   8.536  65.653  1.00  0.00    -0.090 C  
HETATM   33  C   UNL     1      -6.382   9.177  64.943  1.00  0.00    -0.066 C  
HETATM   34  H   UNL     1      -6.089  12.961  66.452  1.00  0.00     0.000 HD 
HETATM   35  O   UNL     1      -6.386   8.886  63.545  1.00  0.00    -0.088 OA 
HETATM   36  C   UNL     1      -6.419  10.709  65.164  1.00  0.00     0.019 C  
HETATM   37  H1  UNL     1      -5.246  12.342  64.705  1.00  0.00     0.000 HD 
HETATM   38  H2  UNL     1      -5.118  11.090  63.573  1.00  0.00     0.000 HD 
HETATM   39  C   UNL     1      -6.562  11.042  66.658  1.00  0.00    -0.128 C  
HETATM   40  N   UNL     1      -5.221  11.333  64.559  1.00  0.00     0.030 NA 
HETATM   41  H   UNL     1      -5.645   9.284  63.104  1.00  0.00     0.000 HD 
HETATM   42  O   UNL     1      -6.760  12.441  66.879  1.00  0.00    -0.064 OA 
BRANCH  32  43
HETATM   43  C   UNL     1      -7.651   7.020  65.472  1.00  0.00    -0.091 C  
HETATM   44  O   UNL     1      -8.947   6.679  64.961  1.00  0.00    -0.350 OA 
HETATM   45  H   UNL     1      -8.994   5.737  64.849  1.00  0.00     0.000 HD 
ENDBRANCH  32  43
ENDBRANCH  29  30
ENDBRANCH  23  29
ENDBRANCH  14  15
ENDBRANCH   8  14
TORSDOF 6
ENDMDL
MODEL      231
REMARK 921   NORMALIZED FREE ENERGY PREDICTED BY IDOCK:   -3.24 KCAL/MOL
REMARK 922        TOTAL FREE ENERGY PREDICTED BY IDOCK:   -5.93 KCAL/MOL
REMARK 923 INTER-LIGAND FREE ENERGY PREDICTED BY IDOCK:   -4.10 KCAL/MOL
REMARK 924 INTRA-LIGAND FREE ENERGY PREDICTED BY IDOCK:   -1.83 KCAL/MOL
REMARK 927      BINDING AFFINITY PREDICTED BY RF-SCORE:    0.00 PKD
ROOT
HETATM    1  C   UNL     1     -10.605   6.584  71.340  1.00  0.00    -0.228 C  
HETATM    2  C   UNL     1      -9.327   7.254  71.859  1.00  0.00    -0.152 C  
HETATM    3  N   UNL     1     -11.589   6.667  72.443  1.00  0.00    -0.373 NA 
HETATM    4  H1  UNL     1     -12.438   6.221  72.098  1.00  0.00     0.000 HD 
HETATM    5  C   UNL     1      -8.318   7.537  70.769  1.00  0.00    -0.118 C  
HETATM    6  H2  UNL     1     -11.738   7.616  72.784  1.00  0.00     0.000 HD 
HETATM    7  C   UNL     1      -8.964   8.153  69.529  1.00  0.00    -0.151 C  
HETATM    8  C   UNL     1     -11.120   7.086  69.926  1.00  0.00    -0.264 C  
HETATM    9  O   UNL     1     -10.051   7.365  69.021  1.00  0.00    -0.182 OA 
ENDROOT
BRANCH   7  10
HETATM   10  C   UNL     1      -7.874   8.228  68.425  1.00  0.00    -0.118 C  
HETATM   11  N   UNL     1      -8.355   7.779  67.119  1.00  0.00    -0.117 NA 
HETATM   12  H1  UNL     1      -7.639   7.828  66.394  1.00  0.00     0.000 HD 
HETATM   13  H2  UNL     1      -9.191   8.294  66.841  1.00  0.00     0.000 HD 
ENDBRANCH   7  10
BRANCH   8  14
HETATM   14  O   UNL     1     -12.059   8.152  70.078  1.00  0.00     0.398 OA 
BRANCH  14  15
HETATM   15  C   UNL     1     -11.680   9.529  69.829  1.00  0.00     0.173 C  
HETATM   16  C   UNL     1     -12.301  10.276  71.042  1.00  0.00    -0.381 C  
HETATM   17  N   UNL     1     -11.671   9.856  72.308  1.00  0.00     0.533 NA 
HETATM   18  C   UNL     1     -12.218  11.790  71.016  1.00  0.00    -0.303 C  
HETATM   19  H2  UNL     1     -10.658   9.968  72.277  1.00  0.00     0.000 HD 
HETATM   20  H1  UNL     1     -12.078  10.347  73.104  1.00  0.00     0.000 HD 
HETATM   21  C   UNL     1     -12.696  12.400  69.708  1.00  0.00     0.529 C  
HETATM   22  N   UNL     1     -12.574  13.852  69.912  1.00  0.00    -0.320 NA 
HETATM   23  C   UNL     1     -11.870  11.784  68.536  1.00  0.00    -0.303 C  
HETATM   24  C   UNL     1     -12.122  10.218  68.484  1.00  0.00     0.814 C  
HETATM   25  O   UNL     1     -11.379   9.654  67.388  1.00  0.00    -0.328 OA 
HETATM   26  H2  UNL     1     -11.642  14.156  70.196  1.00  0.00     0.000 HD 
HETATM   27  H1  UNL     1     -12.895  14.262  69.035  1.00  0.00     0.000 HD 
HETATM   28  H   UNL     1     -11.646  10.070  66.576  1.00  0.00     0.000 HD 
BRANCH  23  29
HETATM   29  O   UNL     1     -12.123  12.438  67.252  1.00  0.00    -0.516 OA 
BRANCH  29  30
HETATM   30  C   UNL     1     -10.980  13.226  66.810  1.00  0.00    -0.287 C  
HETATM   31  O   UNL     1     -10.196  12.507  65.850  1.00  0.00    -0.251 OA 
HETATM   32  C   UNL     1     -10.903  12.330  64.611  1.00  0.00    -0.308 C  
HETATM   33  C   UNL     1     -11.080  13.693  63.939  1.00  0.00     0.042 C  
HETATM   34  H   UNL     1     -12.381  16.220  66.871  1.00  0.00     0.000 HD 
HETATM   35  O   UNL     1     -11.716  13.571  62.666  1.00  0.00    -0.207 OA 
HETATM   36  C   UNL     1     -11.916  14.612  64.861  1.00  0.00    -0.400 C  
HETATM   37  H1  UNL     1     -12.570  16.569  64.873  1.00  0.00     0.000 HD 
HETATM   38  H2  UNL     1     -12.387  15.936  63.314  1.00  0.00     0.000 HD 
HETATM   39  C   UNL     1     -11.328  14.642  66.281  1.00  0.00    -0.347 C  
HETATM   40  N   UNL     1     -12.018  15.963  64.265  1.00  0.00    -0.493 NA 
HETATM   41  H   UNL     1     -11.825  14.417  62.248  1.00  0.00     0.000 HD 
HETATM   42  O   UNL     1     -12.168  15.353  67.195  1.00  0.00     0.302 OA 
BRANCH  32  43
HETATM   43  C   UNL     1     -10.113  11.330  63.766  1.00  0.00    -0.361 C  
HETATM   44  O   UNL     1     -10.403  10.003  64.228  1.00  0.00    -0.389 OA 
HETATM   45  H   UNL     1      -9.911   9.382  63.703  1.00  0.00     0.000 HD 
ENDBRANCH  32  43
ENDBRANCH  29  30
ENDBRANCH  23  29
ENDBRANCH  14  15
ENDBRANCH   8  14
TORSDOF 6
ENDMDL
MODEL      232
REMARK 921   NORMALIZED FREE ENERGY PREDICTED BY IDOCK:   -3.21 KCAL/MOL
REMARK 922        TOTAL FREE ENERGY PREDICTED BY IDOCK:   -5.89 KCAL/MOL
REMARK 923 INTER-LIGAND FREE ENERGY PREDICTED BY IDOCK:   -4.82 KCAL/MOL
REMARK 924 INTRA-LIGAND FREE ENERGY PREDICTED BY IDOCK:   -1.07 KCAL/MOL
REMARK 927      BINDING AFFINITY PREDICTED BY RF-SCORE:    0.00 PKD
ROOT
HETATM    1  C   UNL     1      -7.708   7.082  73.221  1.00  0.00    -0.089 C  
HETATM    2  C   UNL     1      -7.265   5.910  74.105  1.00  0.00    -0.088 C  
HETATM    3  N   UNL     1      -6.468   7.674  72.671  1.00  0.00    -0.059 NA 
HETATM    4  H1  UNL     1      -6.763   8.453  72.083  1.00  0.00     0.000 HD 
HETATM    5  C   UNL     1      -8.404   5.001  74.504  1.00  0.00    -0.100 C  
HETATM    6  H2  UNL     1      -5.877   6.999  72.184  1.00  0.00     0.000 HD 
HETATM    7  C   UNL     1      -9.317   4.666  73.325  1.00  0.00    -0.117 C  
HETATM    8  C   UNL     1      -8.839   6.752  72.157  1.00  0.00    -0.133 C  
HETATM    9  O   UNL     1      -9.814   5.838  72.659  1.00  0.00    -0.163 OA 
ENDROOT
BRANCH   7  10
HETATM   10  C   UNL     1     -10.537   3.886  73.887  1.00  0.00    -0.217 C  
HETATM   11  N   UNL     1     -10.165   2.611  74.501  1.00  0.00    -0.136 NA 
HETATM   12  H1  UNL     1     -10.966   2.100  74.870  1.00  0.00     0.000 HD 
HETATM   13  H2  UNL     1      -9.455   2.747  75.221  1.00  0.00     0.000 HD 
ENDBRANCH   7  10
BRANCH   8  14
HETATM   14  O   UNL     1      -8.262   6.374  70.907  1.00  0.00    -0.121 OA 
BRANCH  14  15
HETATM   15  C   UNL     1      -8.806   6.852  69.651  1.00  0.00    -0.141 C  
HETATM   16  C   UNL     1      -7.557   6.877  68.727  1.00  0.00    -0.105 C  
HETATM   17  N   UNL     1      -7.032   5.517  68.503  1.00  0.00    -0.062 NA 
HETATM   18  C   UNL     1      -7.749   7.483  67.350  1.00  0.00    -0.117 C  
HETATM   19  H2  UNL     1      -7.753   4.891  68.143  1.00  0.00     0.000 HD 
HETATM   20  H1  UNL     1      -6.212   5.533  67.896  1.00  0.00     0.000 HD 
HETATM   21  C   UNL     1      -8.423   8.846  67.378  1.00  0.00    -0.115 C  
HETATM   22  N   UNL     1      -8.468   9.262  65.966  1.00  0.00    -0.132 NA 
HETATM   23  C   UNL     1      -9.792   8.713  68.115  1.00  0.00    -0.165 C  
HETATM   24  C   UNL     1      -9.538   8.246  69.610  1.00  0.00    -0.167 C  
HETATM   25  O   UNL     1     -10.799   8.147  70.297  1.00  0.00    -0.240 OA 
HETATM   26  H2  UNL     1      -8.919   8.588  65.348  1.00  0.00     0.000 HD 
HETATM   27  H1  UNL     1      -8.920  10.177  65.984  1.00  0.00     0.000 HD 
HETATM   28  H   UNL     1     -11.241   8.989  70.272  1.00  0.00     0.000 HD 
BRANCH  23  29
HETATM   29  O   UNL     1     -10.605   9.926  68.034  1.00  0.00    -0.211 OA 
BRANCH  29  30
HETATM   30  C   UNL     1     -10.016  11.027  68.783  1.00  0.00    -0.207 C  
HETATM   31  O   UNL     1      -9.186  11.840  67.943  1.00  0.00    -0.168 OA 
HETATM   32  C   UNL     1      -9.959  12.556  66.965  1.00  0.00    -0.214 C  
HETATM   33  C   UNL     1     -10.825  13.595  67.678  1.00  0.00    -0.256 C  
HETATM   34  H   UNL     1     -12.535  11.646  70.833  1.00  0.00     0.000 HD 
HETATM   35  O   UNL     1     -11.565  14.388  66.748  1.00  0.00    -0.356 OA 
HETATM   36  C   UNL     1     -11.794  12.875  68.646  1.00  0.00    -0.312 C  
HETATM   37  H1  UNL     1     -13.213  13.399  70.049  1.00  0.00     0.000 HD 
HETATM   38  H2  UNL     1     -13.061  14.530  68.799  1.00  0.00     0.000 HD 
HETATM   39  C   UNL     1     -11.030  11.905  69.562  1.00  0.00    -0.028 C  
HETATM   40  N   UNL     1     -12.575  13.874  69.410  1.00  0.00    -0.038 NA 
HETATM   41  H   UNL     1     -12.103  15.034  67.191  1.00  0.00     0.000 HD 
HETATM   42  O   UNL     1     -11.913  11.109  70.356  1.00  0.00    -0.325 OA 
BRANCH  32  43
HETATM   43  C   UNL     1      -8.983  13.163  65.956  1.00  0.00     0.343 C  
HETATM   44  O   UNL     1      -9.720  13.963  65.022  1.00  0.00    -0.580 OA 
HETATM   45  H   UNL     1      -9.113  14.340  64.395  1.00  0.00     0.000 HD 
ENDBRANCH  32  43
ENDBRANCH  29  30
ENDBRANCH  23  29
ENDBRANCH  14  15
ENDBRANCH   8  14
TORSDOF 6
ENDMDL
MODEL      233
REMARK 921   NORMALIZED FREE ENERGY PREDICTED BY IDOCK:   -3.20 KCAL/MOL
REMARK 922        TOTAL FREE ENERGY PREDICTED BY IDOCK:   -5.88 KCAL/MOL
REMARK 923 INTER-LIGAND FREE ENERGY PREDICTED BY IDOCK:   -6.10 KCAL/MOL
REMARK 924 INTRA-LIGAND FREE ENERGY PREDICTED BY IDOCK:    0.22 KCAL/MOL
REMARK 927      BINDING AFFINITY PREDICTED BY RF-SCORE:    0.00 PKD
ROOT
HETATM    1  C   UNL     1     -12.426   9.191  72.076  1.00  0.00    -0.382 C  
HETATM    2  C   UNL     1     -13.164  10.327  71.359  1.00  0.00    -0.464 C  
HETATM    3  N   UNL     1     -13.470   8.374  72.735  1.00  0.00    -0.623 NA 
HETATM    4  H1  UNL     1     -12.979   7.619  73.213  1.00  0.00     0.000 HD 
HETATM    5  C   UNL     1     -12.290  11.081  70.382  1.00  0.00    -0.442 C  
HETATM    6  H2  UNL     1     -14.194   8.048  72.095  1.00  0.00     0.000 HD 
HETATM    7  C   UNL     1     -11.455  10.144  69.510  1.00  0.00    -0.168 C  
HETATM    8  C   UNL     1     -11.382   8.383  71.196  1.00  0.00    -0.268 C  
HETATM    9  O   UNL     1     -10.672   9.221  70.283  1.00  0.00    -0.215 OA 
ENDROOT
BRANCH   7  10
HETATM   10  C   UNL     1     -10.477  11.025  68.686  1.00  0.00    -0.192 C  
HETATM   11  N   UNL     1     -10.871  11.156  67.284  1.00  0.00    -0.258 NA 
HETATM   12  H1  UNL     1     -10.228  11.734  66.743  1.00  0.00     0.000 HD 
HETATM   13  H2  UNL     1     -11.828  11.502  67.205  1.00  0.00     0.000 HD 
ENDBRANCH   7  10
BRANCH   8  14
HETATM   14  O   UNL     1     -12.000   7.245  70.595  1.00  0.00    -0.291 OA 
BRANCH  14  15
HETATM   15  C   UNL     1     -11.215   6.112  70.146  1.00  0.00    -0.382 C  
HETATM   16  C   UNL     1     -10.398   5.740  71.414  1.00  0.00    -0.224 C  
HETATM   17  N   UNL     1     -11.281   5.276  72.501  1.00  0.00    -0.238 NA 
HETATM   18  C   UNL     1      -9.343   4.665  71.246  1.00  0.00    -0.205 C  
HETATM   19  H2  UNL     1     -11.875   4.505  72.198  1.00  0.00     0.000 HD 
HETATM   20  H1  UNL     1     -10.745   5.033  73.334  1.00  0.00     0.000 HD 
HETATM   21  C   UNL     1      -8.417   4.906  70.064  1.00  0.00    -0.083 C  
HETATM   22  N   UNL     1      -7.460   3.788  70.112  1.00  0.00    -0.041 NA 
HETATM   23  C   UNL     1      -9.280   5.036  68.770  1.00  0.00    -0.122 C  
HETATM   24  C   UNL     1     -10.252   6.283  68.912  1.00  0.00    -0.181 C  
HETATM   25  O   UNL     1     -11.030   6.416  67.709  1.00  0.00    -0.302 OA 
HETATM   26  H2  UNL     1      -7.897   2.866  70.117  1.00  0.00     0.000 HD 
HETATM   27  H1  UNL     1      -6.839   3.949  69.319  1.00  0.00     0.000 HD 
HETATM   28  H   UNL     1     -10.449   6.520  66.963  1.00  0.00     0.000 HD 
BRANCH  23  29
HETATM   29  O   UNL     1      -8.477   5.083  67.549  1.00  0.00    -0.106 OA 
BRANCH  29  30
HETATM   30  C   UNL     1      -9.076   5.942  66.537  1.00  0.00    -0.143 C  
HETATM   31  O   UNL     1      -8.706   7.313  66.735  1.00  0.00    -0.121 OA 
HETATM   32  C   UNL     1      -7.307   7.528  66.483  1.00  0.00    -0.084 C  
HETATM   33  C   UNL     1      -7.032   7.324  64.993  1.00  0.00    -0.055 C  
HETATM   34  H   UNL     1      -8.943   3.863  63.969  1.00  0.00     0.000 HD 
HETATM   35  O   UNL     1      -5.667   7.594  64.670  1.00  0.00    -0.037 OA 
HETATM   36  C   UNL     1      -7.389   5.870  64.602  1.00  0.00    -0.070 C  
HETATM   37  H1  UNL     1      -7.450   4.726  62.886  1.00  0.00     0.000 HD 
HETATM   38  H2  UNL     1      -6.278   5.946  62.833  1.00  0.00     0.000 HD 
HETATM   39  C   UNL     1      -8.808   5.511  65.071  1.00  0.00    -0.046 C  
HETATM   40  N   UNL     1      -7.214   5.685  63.143  1.00  0.00    -0.048 NA 
HETATM   41  H   UNL     1      -5.496   7.468  63.744  1.00  0.00     0.000 HD 
HETATM   42  O   UNL     1      -9.108   4.128  64.867  1.00  0.00    -0.130 OA 
BRANCH  32  43
HETATM   43  C   UNL     1      -6.957   8.930  66.984  1.00  0.00    -0.074 C  
HETATM   44  O   UNL     1      -7.922   9.859  66.470  1.00  0.00    -0.108 OA 
HETATM   45  H   UNL     1      -7.704  10.730  66.780  1.00  0.00     0.000 HD 
ENDBRANCH  32  43
ENDBRANCH  29  30
ENDBRANCH  23  29
ENDBRANCH  14  15
ENDBRANCH   8  14
TORSDOF 6
ENDMDL
MODEL      234
REMARK 921   NORMALIZED FREE ENERGY PREDICTED BY IDOCK:   -3.18 KCAL/MOL
REMARK 922        TOTAL FREE ENERGY PREDICTED BY IDOCK:   -5.85 KCAL/MOL
REMARK 923 INTER-LIGAND FREE ENERGY PREDICTED BY IDOCK:   -8.24 KCAL/MOL
REMARK 924 INTRA-LIGAND FREE ENERGY PREDICTED BY IDOCK:    2.39 KCAL/MOL
REMARK 927      BINDING AFFINITY PREDICTED BY RF-SCORE:    0.00 PKD
ROOT
HETATM    1  C   UNL     1      -5.311  15.852  68.045  1.00  0.00    -0.123 C  
HETATM    2  C   UNL     1      -6.382  15.843  69.141  1.00  0.00    -0.146 C  
HETATM    3  N   UNL     1      -5.441  14.561  67.333  1.00  0.00    -0.302 NA 
HETATM    4  H1  UNL     1      -4.728  14.567  66.603  1.00  0.00     0.000 HD 
HETATM    5  C   UNL     1      -6.603  17.199  69.770  1.00  0.00    -0.004 C  
HETATM    6  H2  UNL     1      -6.381  14.385  66.979  1.00  0.00     0.000 HD 
HETATM    7  C   UNL     1      -6.695  18.312  68.727  1.00  0.00    -0.249 C  
HETATM    8  C   UNL     1      -5.282  17.142  67.121  1.00  0.00    -0.150 C  
HETATM    9  O   UNL     1      -5.562  18.340  67.846  1.00  0.00    -0.155 OA 
ENDROOT
BRANCH   7  10
HETATM   10  C   UNL     1      -6.737  19.664  69.491  1.00  0.00    -0.344 C  
HETATM   11  N   UNL     1      -6.305  20.795  68.671  1.00  0.00    -0.283 NA 
HETATM   12  H1  UNL     1      -6.333  21.683  69.172  1.00  0.00     0.000 HD 
HETATM   13  H2  UNL     1      -6.847  20.848  67.807  1.00  0.00     0.000 HD 
ENDBRANCH   7  10
BRANCH   8  14
HETATM   14  O   UNL     1      -6.090  16.951  65.960  1.00  0.00    -0.122 OA 
BRANCH  14  15
HETATM   15  C   UNL     1      -7.522  17.172  65.995  1.00  0.00    -0.143 C  
HETATM   16  C   UNL     1      -7.625  18.658  66.437  1.00  0.00    -0.259 C  
HETATM   17  N   UNL     1      -7.053  19.559  65.418  1.00  0.00    -0.412 NA 
HETATM   18  C   UNL     1      -9.019  19.182  66.722  1.00  0.00    -0.335 C  
HETATM   19  H2  UNL     1      -7.479  19.410  64.504  1.00  0.00     0.000 HD 
HETATM   20  H1  UNL     1      -7.121  20.535  65.708  1.00  0.00     0.000 HD 
HETATM   21  C   UNL     1      -9.822  18.289  67.654  1.00  0.00    -0.320 C  
HETATM   22  N   UNL     1     -11.102  18.995  67.828  1.00  0.00    -0.252 NA 
HETATM   23  C   UNL     1      -9.888  16.855  67.041  1.00  0.00    -0.270 C  
HETATM   24  C   UNL     1      -8.419  16.268  66.920  1.00  0.00    -0.224 C  
HETATM   25  O   UNL     1      -8.483  14.937  66.377  1.00  0.00    -0.430 OA 
HETATM   26  H2  UNL     1     -11.577  19.217  66.954  1.00  0.00     0.000 HD 
HETATM   27  H1  UNL     1     -11.641  18.395  68.454  1.00  0.00     0.000 HD 
HETATM   28  H   UNL     1      -9.025  14.391  66.936  1.00  0.00     0.000 HD 
BRANCH  23  29
HETATM   29  O   UNL     1     -10.794  15.964  67.765  1.00  0.00    -0.311 OA 
BRANCH  29  30
HETATM   30  C   UNL     1     -10.093  15.172  68.765  1.00  0.00    -0.226 C  
HETATM   31  O   UNL     1     -10.317  15.685  70.084  1.00  0.00    -0.303 OA 
HETATM   32  C   UNL     1     -11.682  15.506  70.500  1.00  0.00    -0.349 C  
HETATM   33  C   UNL     1     -11.956  14.012  70.676  1.00  0.00    -0.305 C  
HETATM   34  H   UNL     1     -10.411  12.195  67.361  1.00  0.00     0.000 HD 
HETATM   35  O   UNL     1     -13.280  13.775  71.158  1.00  0.00    -0.289 OA 
HETATM   36  C   UNL     1     -11.751  13.291  69.322  1.00  0.00    -0.326 C  
HETATM   37  H1  UNL     1     -11.788  11.357  68.605  1.00  0.00     0.000 HD 
HETATM   38  H2  UNL     1     -12.822  11.600  69.923  1.00  0.00     0.000 HD 
HETATM   39  C   UNL     1     -10.385  13.649  68.715  1.00  0.00    -0.173 C  
HETATM   40  N   UNL     1     -11.924  11.832  69.498  1.00  0.00    -0.309 NA 
HETATM   41  H   UNL     1     -13.451  12.847  71.268  1.00  0.00     0.000 HD 
HETATM   42  O   UNL     1     -10.232  13.128  67.392  1.00  0.00    -0.229 OA 
BRANCH  32  43
HETATM   43  C   UNL     1     -11.888  16.320  71.777  1.00  0.00    -0.439 C  
HETATM   44  O   UNL     1     -11.646  15.473  72.910  1.00  0.00    -0.455 OA 
HETATM   45  H   UNL     1     -11.774  15.979  73.704  1.00  0.00     0.000 HD 
ENDBRANCH  32  43
ENDBRANCH  29  30
ENDBRANCH  23  29
ENDBRANCH  14  15
ENDBRANCH   8  14
TORSDOF 6
ENDMDL
MODEL      235
REMARK 921   NORMALIZED FREE ENERGY PREDICTED BY IDOCK:   -3.16 KCAL/MOL
REMARK 922        TOTAL FREE ENERGY PREDICTED BY IDOCK:   -5.82 KCAL/MOL
REMARK 923 INTER-LIGAND FREE ENERGY PREDICTED BY IDOCK:   -6.58 KCAL/MOL
REMARK 924 INTRA-LIGAND FREE ENERGY PREDICTED BY IDOCK:    0.77 KCAL/MOL
REMARK 927      BINDING AFFINITY PREDICTED BY RF-SCORE:    0.00 PKD
ROOT
HETATM    1  C   UNL     1      -5.893   8.944  68.129  1.00  0.00    -0.042 C  
HETATM    2  C   UNL     1      -5.415  10.168  67.338  1.00  0.00    -0.041 C  
HETATM    3  N   UNL     1      -5.247   9.036  69.457  1.00  0.00    -0.034 NA 
HETATM    4  H1  UNL     1      -5.564   8.222  69.983  1.00  0.00     0.000 HD 
HETATM    5  C   UNL     1      -6.207  10.406  66.073  1.00  0.00    -0.110 C  
HETATM    6  H2  UNL     1      -5.421   9.920  69.934  1.00  0.00     0.000 HD 
HETATM    7  C   UNL     1      -7.713  10.279  66.301  1.00  0.00    -0.116 C  
HETATM    8  C   UNL     1      -7.462   8.706  68.147  1.00  0.00    -0.096 C  
HETATM    9  O   UNL     1      -8.078   9.026  66.899  1.00  0.00    -0.110 OA 
ENDROOT
BRANCH   7  10
HETATM   10  C   UNL     1      -8.402  10.361  64.912  1.00  0.00    -0.165 C  
HETATM   11  N   UNL     1      -9.087   9.123  64.541  1.00  0.00    -0.429 NA 
HETATM   12  H1  UNL     1      -9.540   9.177  63.629  1.00  0.00     0.000 HD 
HETATM   13  H2  UNL     1      -9.752   8.844  65.262  1.00  0.00     0.000 HD 
ENDBRANCH   7  10
BRANCH   8  14
HETATM   14  O   UNL     1      -8.056   9.339  69.280  1.00  0.00    -0.099 OA 
BRANCH  14  15
HETATM   15  C   UNL     1      -9.042  10.391  69.124  1.00  0.00    -0.187 C  
HETATM   16  C   UNL     1     -10.183   9.675  68.350  1.00  0.00    -0.188 C  
HETATM   17  N   UNL     1     -10.790   8.604  69.164  1.00  0.00    -0.416 NA 
HETATM   18  C   UNL     1     -11.332  10.547  67.883  1.00  0.00    -0.297 C  
HETATM   19  H2  UNL     1     -11.111   8.956  70.066  1.00  0.00     0.000 HD 
HETATM   20  H1  UNL     1     -11.539   8.134  68.656  1.00  0.00     0.000 HD 
HETATM   21  C   UNL     1     -10.881  11.794  67.140  1.00  0.00    -0.258 C  
HETATM   22  N   UNL     1     -12.133  12.460  66.745  1.00  0.00    -0.565 NA 
HETATM   23  C   UNL     1      -9.915  12.604  68.060  1.00  0.00    -0.220 C  
HETATM   24  C   UNL     1      -8.637  11.721  68.384  1.00  0.00    -0.156 C  
HETATM   25  O   UNL     1      -7.736  12.477  69.213  1.00  0.00    -0.320 OA 
HETATM   26  H2  UNL     1     -12.769  12.646  67.521  1.00  0.00     0.000 HD 
HETATM   27  H1  UNL     1     -11.831  13.298  66.246  1.00  0.00     0.000 HD 
HETATM   28  H   UNL     1      -7.491  13.280  68.767  1.00  0.00     0.000 HD 
BRANCH  23  29
HETATM   29  O   UNL     1      -9.570  13.916  67.513  1.00  0.00    -0.218 OA 
BRANCH  29  30
HETATM   30  C   UNL     1      -9.480  14.932  68.553  1.00  0.00    -0.210 C  
HETATM   31  O   UNL     1      -8.141  15.424  68.684  1.00  0.00    -0.139 OA 
HETATM   32  C   UNL     1      -7.736  16.178  67.528  1.00  0.00    -0.147 C  
HETATM   33  C   UNL     1      -8.555  17.467  67.462  1.00  0.00    -0.218 C  
HETATM   34  H   UNL     1     -12.431  16.359  68.116  1.00  0.00     0.000 HD 
HETATM   35  O   UNL     1      -8.147  18.293  66.371  1.00  0.00    -0.260 OA 
HETATM   36  C   UNL     1     -10.055  17.112  67.323  1.00  0.00    -0.294 C  
HETATM   37  H1  UNL     1     -11.857  18.114  67.259  1.00  0.00     0.000 HD 
HETATM   38  H2  UNL     1     -10.567  19.022  66.645  1.00  0.00     0.000 HD 
HETATM   39  C   UNL     1     -10.481  16.108  68.406  1.00  0.00    -0.274 C  
HETATM   40  N   UNL     1     -10.868  18.349  67.350  1.00  0.00    -0.355 NA 
HETATM   41  H   UNL     1      -8.655  19.094  66.330  1.00  0.00     0.000 HD 
HETATM   42  O   UNL     1     -11.817  15.639  68.207  1.00  0.00    -0.318 OA 
BRANCH  32  43
HETATM   43  C   UNL     1      -6.229  16.416  67.635  1.00  0.00    -0.141 C  
HETATM   44  O   UNL     1      -5.999  17.543  68.493  1.00  0.00    -0.161 OA 
HETATM   45  H   UNL     1      -5.063  17.691  68.560  1.00  0.00     0.000 HD 
ENDBRANCH  32  43
ENDBRANCH  29  30
ENDBRANCH  23  29
ENDBRANCH  14  15
ENDBRANCH   8  14
TORSDOF 6
ENDMDL
MODEL      236
REMARK 921   NORMALIZED FREE ENERGY PREDICTED BY IDOCK:   -3.12 KCAL/MOL
REMARK 922        TOTAL FREE ENERGY PREDICTED BY IDOCK:   -5.78 KCAL/MOL
REMARK 923 INTER-LIGAND FREE ENERGY PREDICTED BY IDOCK:   -5.67 KCAL/MOL
REMARK 924 INTRA-LIGAND FREE ENERGY PREDICTED BY IDOCK:   -0.10 KCAL/MOL
REMARK 927      BINDING AFFINITY PREDICTED BY RF-SCORE:    0.00 PKD
ROOT
HETATM    1  C   UNL     1      -9.212  11.926  67.335  1.00  0.00    -0.177 C  
HETATM    2  C   UNL     1     -10.463  12.087  68.207  1.00  0.00    -0.218 C  
HETATM    3  N   UNL     1      -8.485  10.755  67.871  1.00  0.00    -0.120 NA 
HETATM    4  H1  UNL     1      -7.653  10.648  67.292  1.00  0.00     0.000 HD 
HETATM    5  C   UNL     1     -11.479  13.040  67.620  1.00  0.00    -0.369 C  
HETATM    6  H2  UNL     1      -9.056   9.911  67.922  1.00  0.00     0.000 HD 
HETATM    7  C   UNL     1     -11.707  12.797  66.129  1.00  0.00    -0.403 C  
HETATM    8  C   UNL     1      -9.462  11.917  65.768  1.00  0.00    -0.196 C  
HETATM    9  O   UNL     1     -10.487  12.828  65.371  1.00  0.00    -0.276 OA 
ENDROOT
BRANCH   7  10
HETATM   10  C   UNL     1     -12.620  13.939  65.606  1.00  0.00    -0.517 C  
HETATM   11  N   UNL     1     -12.639  14.030  64.146  1.00  0.00    -0.680 NA 
HETATM   12  H1  UNL     1     -13.239  14.780  63.802  1.00  0.00     0.000 HD 
HETATM   13  H2  UNL     1     -12.898  13.136  63.728  1.00  0.00     0.000 HD 
ENDBRANCH   7  10
BRANCH   8  14
HETATM   14  O   UNL     1      -9.640  10.582  65.292  1.00  0.00    -0.209 OA 
BRANCH  14  15
HETATM   15  C   UNL     1      -8.730   9.519  65.674  1.00  0.00    -0.149 C  
HETATM   16  C   UNL     1      -7.795   9.413  64.438  1.00  0.00    -0.123 C  
HETATM   17  N   UNL     1      -7.002  10.645  64.261  1.00  0.00    -0.343 NA 
HETATM   18  C   UNL     1      -6.797   8.271  64.444  1.00  0.00    -0.069 C  
HETATM   19  H2  UNL     1      -6.482  10.880  65.106  1.00  0.00     0.000 HD 
HETATM   20  H1  UNL     1      -6.388  10.575  63.450  1.00  0.00     0.000 HD 
HETATM   21  C   UNL     1      -7.424   6.923  64.760  1.00  0.00    -0.096 C  
HETATM   22  N   UNL     1      -6.307   5.968  64.670  1.00  0.00    -0.033 NA 
HETATM   23  C   UNL     1      -8.156   7.020  66.135  1.00  0.00    -0.119 C  
HETATM   24  C   UNL     1      -9.312   8.102  66.037  1.00  0.00    -0.117 C  
HETATM   25  O   UNL     1     -10.002   8.173  67.298  1.00  0.00    -0.176 OA 
HETATM   26  H2  UNL     1      -5.509   6.204  65.260  1.00  0.00     0.000 HD 
HETATM   27  H1  UNL     1      -6.726   5.062  64.882  1.00  0.00     0.000 HD 
HETATM   28  H   UNL     1     -10.353   7.318  67.518  1.00  0.00     0.000 HD 
BRANCH  23  29
HETATM   29  O   UNL     1      -8.634   5.726  66.621  1.00  0.00    -0.116 OA 
BRANCH  29  30
HETATM   30  C   UNL     1      -7.794   5.201  67.688  1.00  0.00    -0.095 C  
HETATM   31  O   UNL     1      -7.891   6.008  68.868  1.00  0.00    -0.093 OA 
HETATM   32  C   UNL     1      -9.192   5.912  69.472  1.00  0.00    -0.135 C  
HETATM   33  C   UNL     1      -9.383   4.498  70.023  1.00  0.00    -0.153 C  
HETATM   34  H   UNL     1      -8.142   1.973  67.062  1.00  0.00     0.000 HD 
HETATM   35  O   UNL     1     -10.634   4.363  70.699  1.00  0.00     0.133 OA 
HETATM   36  C   UNL     1      -9.299   3.482  68.858  1.00  0.00    -0.168 C  
HETATM   37  H1  UNL     1      -9.336   1.433  68.621  1.00  0.00     0.000 HD 
HETATM   38  H2  UNL     1     -10.227   1.965  69.958  1.00  0.00     0.000 HD 
HETATM   39  C   UNL     1      -8.026   3.706  68.028  1.00  0.00    -0.076 C  
HETATM   40  N   UNL     1      -9.391   2.102  69.389  1.00  0.00    -0.117 NA 
HETATM   41  H   UNL     1     -10.753   3.485  71.041  1.00  0.00     0.000 HD 
HETATM   42  O   UNL     1      -7.999   2.890  66.854  1.00  0.00    -0.075 OA 
BRANCH  32  43
HETATM   43  C   UNL     1      -9.288   7.002  70.541  1.00  0.00    -0.159 C  
HETATM   44  O   UNL     1     -10.672   7.236  70.841  1.00  0.00    -0.229 OA 
HETATM   45  H   UNL     1     -10.731   7.913  71.504  1.00  0.00     0.000 HD 
ENDBRANCH  32  43
ENDBRANCH  29  30
ENDBRANCH  23  29
ENDBRANCH  14  15
ENDBRANCH   8  14
TORSDOF 6
ENDMDL
MODEL      237
REMARK 921   NORMALIZED FREE ENERGY PREDICTED BY IDOCK:   -3.05 KCAL/MOL
REMARK 922        TOTAL FREE ENERGY PREDICTED BY IDOCK:   -5.68 KCAL/MOL
REMARK 923 INTER-LIGAND FREE ENERGY PREDICTED BY IDOCK:   -6.65 KCAL/MOL
REMARK 924 INTRA-LIGAND FREE ENERGY PREDICTED BY IDOCK:    0.97 KCAL/MOL
REMARK 927      BINDING AFFINITY PREDICTED BY RF-SCORE:    0.00 PKD
ROOT
HETATM    1  C   UNL     1     -11.144   6.734  71.699  1.00  0.00    -0.246 C  
HETATM    2  C   UNL     1     -10.767   7.442  73.005  1.00  0.00    -0.413 C  
HETATM    3  N   UNL     1     -12.623   6.681  71.672  1.00  0.00    -0.324 NA 
HETATM    4  H1  UNL     1     -12.874   6.210  70.803  1.00  0.00     0.000 HD 
HETATM    5  C   UNL     1      -9.315   7.859  73.060  1.00  0.00    -0.329 C  
HETATM    6  H2  UNL     1     -13.064   7.595  71.780  1.00  0.00     0.000 HD 
HETATM    7  C   UNL     1      -8.854   8.519  71.761  1.00  0.00    -0.211 C  
HETATM    8  C   UNL     1     -10.456   7.299  70.386  1.00  0.00    -0.220 C  
HETATM    9  O   UNL     1      -9.104   7.703  70.606  1.00  0.00    -0.155 OA 
ENDROOT
BRANCH   7  10
HETATM   10  C   UNL     1      -7.319   8.734  71.868  1.00  0.00    -0.012 C  
HETATM   11  N   UNL     1      -6.899  10.067  71.438  1.00  0.00    -0.105 NA 
HETATM   12  H1  UNL     1      -5.891  10.208  71.508  1.00  0.00     0.000 HD 
HETATM   13  H2  UNL     1      -7.405  10.791  71.949  1.00  0.00     0.000 HD 
ENDBRANCH   7  10
BRANCH   8  14
HETATM   14  O   UNL     1     -11.277   8.294  69.773  1.00  0.00    -0.127 OA 
BRANCH  14  15
HETATM   15  C   UNL     1     -10.893   8.922  68.523  1.00  0.00     0.010 C  
HETATM   16  C   UNL     1     -10.235   7.751  67.743  1.00  0.00    -0.212 C  
HETATM   17  N   UNL     1     -11.218   6.695  67.434  1.00  0.00    -0.702 NA 
HETATM   18  C   UNL     1      -9.575   8.106  66.425  1.00  0.00    -0.286 C  
HETATM   19  H2  UNL     1     -12.026   7.070  66.938  1.00  0.00     0.000 HD 
HETATM   20  H1  UNL     1     -10.786   5.927  66.922  1.00  0.00     0.000 HD 
HETATM   21  C   UNL     1      -8.622   9.286  66.524  1.00  0.00    -0.130 C  
HETATM   22  N   UNL     1      -8.069   9.428  65.167  1.00  0.00    -0.121 NA 
HETATM   23  C   UNL     1      -9.401  10.512  67.096  1.00  0.00    -0.154 C  
HETATM   24  C   UNL     1      -9.927  10.165  68.552  1.00  0.00    -0.163 C  
HETATM   25  O   UNL     1     -10.624  11.304  69.089  1.00  0.00    -0.235 OA 
HETATM   26  H2  UNL     1      -8.776   9.524  64.437  1.00  0.00     0.000 HD 
HETATM   27  H1  UNL     1      -7.430  10.220  65.233  1.00  0.00     0.000 HD 
HETATM   28  H   UNL     1     -10.040  12.055  69.106  1.00  0.00     0.000 HD 
BRANCH  23  29
HETATM   29  O   UNL     1      -8.625  11.751  67.057  1.00  0.00    -0.161 OA 
BRANCH  29  30
HETATM   30  C   UNL     1      -9.115  12.729  68.018  1.00  0.00    -0.207 C  
HETATM   31  O   UNL     1      -8.033  13.455  68.616  1.00  0.00    -0.130 OA 
HETATM   32  C   UNL     1      -7.377  14.311  67.664  1.00  0.00    -0.176 C  
HETATM   33  C   UNL     1      -8.337  15.428  67.254  1.00  0.00    -0.199 C  
HETATM   34  H   UNL     1     -11.905  13.601  66.473  1.00  0.00     0.000 HD 
HETATM   35  O   UNL     1      -7.715  16.353  66.361  1.00  0.00    -0.277 OA 
HETATM   36  C   UNL     1      -9.587  14.807  66.585  1.00  0.00    -0.272 C  
HETATM   37  H1  UNL     1     -11.389  15.461  65.824  1.00  0.00     0.000 HD 
HETATM   38  H2  UNL     1     -10.155  16.612  65.697  1.00  0.00     0.000 HD 
HETATM   39  C   UNL     1     -10.189  13.704  67.470  1.00  0.00    -0.241 C  
HETATM   40  N   UNL     1     -10.566  15.871  66.265  1.00  0.00    -0.308 NA 
HETATM   41  H   UNL     1      -8.310  17.047  66.107  1.00  0.00     0.000 HD 
HETATM   42  O   UNL     1     -11.246  13.004  66.809  1.00  0.00    -0.279 OA 
BRANCH  32  43
HETATM   43  C   UNL     1      -6.088  14.819  68.311  1.00  0.00    -0.123 C  
HETATM   44  O   UNL     1      -6.428  15.727  69.369  1.00  0.00    -0.143 OA 
HETATM   45  H   UNL     1      -5.627  16.043  69.771  1.00  0.00     0.000 HD 
ENDBRANCH  32  43
ENDBRANCH  29  30
ENDBRANCH  23  29
ENDBRANCH  14  15
ENDBRANCH   8  14
TORSDOF 6
ENDMDL
MODEL      238
REMARK 921   NORMALIZED FREE ENERGY PREDICTED BY IDOCK:   -3.00 KCAL/MOL
REMARK 922        TOTAL FREE ENERGY PREDICTED BY IDOCK:   -5.61 KCAL/MOL
REMARK 923 INTER-LIGAND FREE ENERGY PREDICTED BY IDOCK:   -5.25 KCAL/MOL
REMARK 924 INTRA-LIGAND FREE ENERGY PREDICTED BY IDOCK:   -0.36 KCAL/MOL
REMARK 927      BINDING AFFINITY PREDICTED BY RF-SCORE:    0.00 PKD
ROOT
HETATM    1  C   UNL     1     -11.141  13.326  64.763  1.00  0.00    -0.342 C  
HETATM    2  C   UNL     1     -10.926  14.842  64.838  1.00  0.00    -0.422 C  
HETATM    3  N   UNL     1     -10.892  12.945  63.356  1.00  0.00    -0.485 NA 
HETATM    4  H1  UNL     1     -11.036  11.937  63.306  1.00  0.00     0.000 HD 
HETATM    5  C   UNL     1     -10.836  15.362  66.255  1.00  0.00    -0.301 C  
HETATM    6  H2  UNL     1      -9.980  13.242  63.010  1.00  0.00     0.000 HD 
HETATM    7  C   UNL     1      -9.936  14.495  67.133  1.00  0.00    -0.252 C  
HETATM    8  C   UNL     1     -10.370  12.467  65.851  1.00  0.00    -0.257 C  
HETATM    9  O   UNL     1     -10.321  13.111  67.125  1.00  0.00    -0.245 OA 
ENDROOT
BRANCH   7  10
HETATM   10  C   UNL     1     -10.067  15.015  68.591  1.00  0.00    -0.233 C  
HETATM   11  N   UNL     1     -10.949  16.177  68.704  1.00  0.00    -0.317 NA 
HETATM   12  H1  UNL     1     -11.034  16.518  69.662  1.00  0.00     0.000 HD 
HETATM   13  H2  UNL     1     -11.866  15.979  68.304  1.00  0.00     0.000 HD 
ENDBRANCH   7  10
BRANCH   8  14
HETATM   14  O   UNL     1      -9.101  12.043  65.354  1.00  0.00     0.010 OA 
BRANCH  14  15
HETATM   15  C   UNL     1      -8.476  10.823  65.827  1.00  0.00    -0.174 C  
HETATM   16  C   UNL     1      -6.962  11.124  65.647  1.00  0.00     0.269 C  
HETATM   17  N   UNL     1      -6.529  12.225  66.529  1.00  0.00    -0.399 NA 
HETATM   18  C   UNL     1      -6.010   9.975  65.914  1.00  0.00    -0.077 C  
HETATM   19  H2  UNL     1      -6.761  12.038  67.504  1.00  0.00     0.000 HD 
HETATM   20  H1  UNL     1      -5.535  12.423  66.411  1.00  0.00     0.000 HD 
HETATM   21  C   UNL     1      -6.390   8.694  65.191  1.00  0.00    -0.060 C  
HETATM   22  N   UNL     1      -5.327   7.740  65.548  1.00  0.00    -0.029 NA 
HETATM   23  C   UNL     1      -7.847   8.304  65.594  1.00  0.00    -0.104 C  
HETATM   24  C   UNL     1      -8.841   9.454  65.140  1.00  0.00    -0.195 C  
HETATM   25  O   UNL     1     -10.187   9.083  65.490  1.00  0.00    -0.255 OA 
HETATM   26  H2  UNL     1      -5.190   7.626  66.553  1.00  0.00     0.000 HD 
HETATM   27  H1  UNL     1      -5.582   6.879  65.063  1.00  0.00     0.000 HD 
HETATM   28  H   UNL     1     -10.408   8.257  65.075  1.00  0.00     0.000 HD 
BRANCH  23  29
HETATM   29  O   UNL     1      -8.245   6.986  65.100  1.00  0.00    -0.134 OA 
BRANCH  29  30
HETATM   30  C   UNL     1      -8.865   6.180  66.142  1.00  0.00    -0.152 C  
HETATM   31  O   UNL     1      -9.380   4.953  65.610  1.00  0.00    -0.155 OA 
HETATM   32  C   UNL     1      -8.325   4.077  65.176  1.00  0.00    -0.105 C  
HETATM   33  C   UNL     1      -7.538   3.602  66.398  1.00  0.00    -0.084 C  
HETATM   34  H   UNL     1      -6.839   6.942  68.641  1.00  0.00     0.000 HD 
HETATM   35  O   UNL     1      -6.518   2.670  66.035  1.00  0.00    -0.027 OA 
HETATM   36  C   UNL     1      -6.908   4.825  67.107  1.00  0.00    -0.056 C  
HETATM   37  H1  UNL     1      -5.805   5.196  68.810  1.00  0.00     0.000 HD 
HETATM   38  H2  UNL     1      -5.534   3.656  68.162  1.00  0.00     0.000 HD 
HETATM   39  C   UNL     1      -7.968   5.905  67.377  1.00  0.00    -0.102 C  
HETATM   40  N   UNL     1      -6.220   4.389  68.343  1.00  0.00    -0.031 NA 
HETATM   41  H   UNL     1      -6.029   2.375  66.794  1.00  0.00     0.000 HD 
HETATM   42  O   UNL     1      -7.389   7.110  67.885  1.00  0.00    -0.091 OA 
BRANCH  32  43
HETATM   43  C   UNL     1      -8.966   2.938  64.382  1.00  0.00    -0.115 C  
HETATM   44  O   UNL     1      -9.958   2.303  65.201  1.00  0.00    -0.329 OA 
HETATM   45  H   UNL     1     -10.356   1.596  64.707  1.00  0.00     0.000 HD 
ENDBRANCH  32  43
ENDBRANCH  29  30
ENDBRANCH  23  29
ENDBRANCH  14  15
ENDBRANCH   8  14
TORSDOF 6
ENDMDL
MODEL      239
REMARK 921   NORMALIZED FREE ENERGY PREDICTED BY IDOCK:   -3.00 KCAL/MOL
REMARK 922        TOTAL FREE ENERGY PREDICTED BY IDOCK:   -5.60 KCAL/MOL
REMARK 923 INTER-LIGAND FREE ENERGY PREDICTED BY IDOCK:   -6.41 KCAL/MOL
REMARK 924 INTRA-LIGAND FREE ENERGY PREDICTED BY IDOCK:    0.81 KCAL/MOL
REMARK 927      BINDING AFFINITY PREDICTED BY RF-SCORE:    0.00 PKD
ROOT
HETATM    1  C   UNL     1      -9.233   8.926  66.227  1.00  0.00    -0.207 C  
HETATM    2  C   UNL     1     -10.249   7.933  66.806  1.00  0.00    -0.358 C  
HETATM    3  N   UNL     1      -9.311   8.783  64.756  1.00  0.00    -0.320 NA 
HETATM    4  H1  UNL     1      -8.636   9.442  64.371  1.00  0.00     0.000 HD 
HETATM    5  C   UNL     1     -10.528   8.156  68.274  1.00  0.00    -0.210 C  
HETATM    6  H2  UNL     1     -10.254   8.904  64.386  1.00  0.00     0.000 HD 
HETATM    7  C   UNL     1     -10.743   9.632  68.605  1.00  0.00    -0.201 C  
HETATM    8  C   UNL     1      -9.333  10.412  66.775  1.00  0.00    -0.156 C  
HETATM    9  O   UNL     1      -9.657  10.462  68.165  1.00  0.00    -0.141 OA 
ENDROOT
BRANCH   7  10
HETATM   10  C   UNL     1     -10.838   9.753  70.151  1.00  0.00    -0.291 C  
HETATM   11  N   UNL     1     -11.370   8.548  70.786  1.00  0.00    -0.268 NA 
HETATM   12  H1  UNL     1     -11.432   8.628  71.801  1.00  0.00     0.000 HD 
HETATM   13  H2  UNL     1     -10.829   7.725  70.517  1.00  0.00     0.000 HD 
ENDBRANCH   7  10
BRANCH   8  14
HETATM   14  O   UNL     1     -10.181  11.202  65.941  1.00  0.00    -0.236 OA 
BRANCH  14  15
HETATM   15  C   UNL     1     -10.324  12.630  66.151  1.00  0.00    -0.256 C  
HETATM   16  C   UNL     1     -11.548  12.983  65.262  1.00  0.00    -0.328 C  
HETATM   17  N   UNL     1     -12.774  12.329  65.757  1.00  0.00     0.039 NA 
HETATM   18  C   UNL     1     -11.883  14.456  65.131  1.00  0.00    -0.386 C  
HETATM   19  H2  UNL     1     -12.946  12.550  66.738  1.00  0.00     0.000 HD 
HETATM   20  H1  UNL     1     -13.578  12.561  65.174  1.00  0.00     0.000 HD 
HETATM   21  C   UNL     1     -10.687  15.319  64.763  1.00  0.00    -0.317 C  
HETATM   22  N   UNL     1     -11.237  16.679  64.646  1.00  0.00    -0.865 NA 
HETATM   23  C   UNL     1      -9.567  15.103  65.829  1.00  0.00    -0.309 C  
HETATM   24  C   UNL     1      -9.116  13.582  65.814  1.00  0.00     0.501 C  
HETATM   25  O   UNL     1      -8.066  13.389  66.779  1.00  0.00    -0.403 OA 
HETATM   26  H2  UNL     1     -11.740  16.998  65.475  1.00  0.00     0.000 HD 
HETATM   27  H1  UNL     1     -10.434  17.259  64.400  1.00  0.00     0.000 HD 
HETATM   28  H   UNL     1      -7.337  13.964  66.575  1.00  0.00     0.000 HD 
BRANCH  23  29
HETATM   29  O   UNL     1      -8.444  16.026  65.673  1.00  0.00     0.044 OA 
BRANCH  29  30
HETATM   30  C   UNL     1      -8.287  16.892  66.833  1.00  0.00    -0.213 C  
HETATM   31  O   UNL     1      -7.475  18.032  66.523  1.00  0.00    -0.210 OA 
HETATM   32  C   UNL     1      -8.135  18.921  65.604  1.00  0.00     0.388 C  
HETATM   33  C   UNL     1      -9.340  19.553  66.301  1.00  0.00    -0.372 C  
HETATM   34  H   UNL     1     -11.283  16.487  68.171  1.00  0.00     0.000 HD 
HETATM   35  O   UNL     1      -9.995  20.502  65.458  1.00  0.00    -0.533 OA 
HETATM   36  C   UNL     1     -10.333  18.440  66.715  1.00  0.00    -0.394 C  
HETATM   37  H1  UNL     1     -12.114  18.296  67.745  1.00  0.00     0.000 HD 
HETATM   38  H2  UNL     1     -11.919  19.780  66.955  1.00  0.00     0.000 HD 
HETATM   39  C   UNL     1      -9.614  17.333  67.503  1.00  0.00    -0.259 C  
HETATM   40  N   UNL     1     -11.460  19.030  67.472  1.00  0.00     0.386 NA 
HETATM   41  H   UNL     1     -10.744  20.895  65.891  1.00  0.00     0.000 HD 
HETATM   42  O   UNL     1     -10.469  16.217  67.761  1.00  0.00    -0.279 OA 
BRANCH  32  43
HETATM   43  C   UNL     1      -7.102  19.940  65.124  1.00  0.00    -0.100 C  
HETATM   44  O   UNL     1      -5.857  19.687  65.790  1.00  0.00    -0.163 OA 
HETATM   45  H   UNL     1      -5.215  20.320  65.492  1.00  0.00     0.000 HD 
ENDBRANCH  32  43
ENDBRANCH  29  30
ENDBRANCH  23  29
ENDBRANCH  14  15
ENDBRANCH   8  14
TORSDOF 6
ENDMDL
MODEL      240
REMARK 921   NORMALIZED FREE ENERGY PREDICTED BY IDOCK:   -2.89 KCAL/MOL
REMARK 922        TOTAL FREE ENERGY PREDICTED BY IDOCK:   -5.46 KCAL/MOL
REMARK 923 INTER-LIGAND FREE ENERGY PREDICTED BY IDOCK:   -7.17 KCAL/MOL
REMARK 924 INTRA-LIGAND FREE ENERGY PREDICTED BY IDOCK:    1.71 KCAL/MOL
REMARK 927      BINDING AFFINITY PREDICTED BY RF-SCORE:    0.00 PKD
ROOT
HETATM    1  C   UNL     1      -6.764  10.015  69.338  1.00  0.00    -0.060 C  
HETATM    2  C   UNL     1      -6.739  11.446  68.788  1.00  0.00    -0.073 C  
HETATM    3  N   UNL     1      -7.389  10.101  70.677  1.00  0.00    -0.424 NA 
HETATM    4  H1  UNL     1      -7.405   9.149  71.043  1.00  0.00     0.000 HD 
HETATM    5  C   UNL     1      -6.418  11.512  67.312  1.00  0.00    -0.110 C  
HETATM    6  H2  UNL     1      -8.305  10.548  70.669  1.00  0.00     0.000 HD 
HETATM    7  C   UNL     1      -7.200  10.477  66.504  1.00  0.00    -0.124 C  
HETATM    8  C   UNL     1      -7.371   8.915  68.369  1.00  0.00    -0.082 C  
HETATM    9  O   UNL     1      -7.027   9.141  67.001  1.00  0.00    -0.079 OA 
ENDROOT
BRANCH   7  10
HETATM   10  C   UNL     1      -6.657  10.516  65.049  1.00  0.00    -0.014 C  
HETATM   11  N   UNL     1      -5.361   9.854  64.906  1.00  0.00    -0.059 NA 
HETATM   12  H1  UNL     1      -5.005   9.880  63.951  1.00  0.00     0.000 HD 
HETATM   13  H2  UNL     1      -5.400   8.896  65.255  1.00  0.00     0.000 HD 
ENDBRANCH   7  10
BRANCH   8  14
HETATM   14  O   UNL     1      -8.769   8.747  68.607  1.00  0.00    -0.132 OA 
BRANCH  14  15
HETATM   15  C   UNL     1      -9.751   9.583  67.945  1.00  0.00    -0.147 C  
HETATM   16  C   UNL     1      -9.604   9.164  66.456  1.00  0.00    -0.227 C  
HETATM   17  N   UNL     1      -9.999   7.757  66.255  1.00  0.00    -0.467 NA 
HETATM   18  C   UNL     1     -10.400   9.969  65.447  1.00  0.00    -0.111 C  
HETATM   19  H2  UNL     1     -10.940   7.579  66.604  1.00  0.00     0.000 HD 
HETATM   20  H1  UNL     1      -9.902   7.482  65.277  1.00  0.00     0.000 HD 
HETATM   21  C   UNL     1     -10.228  11.472  65.601  1.00  0.00    -0.248 C  
HETATM   22  N   UNL     1     -11.037  12.049  64.515  1.00  0.00    -0.317 NA 
HETATM   23  C   UNL     1     -10.619  11.875  67.057  1.00  0.00    -0.227 C  
HETATM   24  C   UNL     1      -9.648  11.148  68.081  1.00  0.00    -0.179 C  
HETATM   25  O   UNL     1      -9.993  11.539  69.422  1.00  0.00    -0.415 OA 
HETATM   26  H2  UNL     1     -12.009  11.740  64.511  1.00  0.00     0.000 HD 
HETATM   27  H1  UNL     1     -10.921  13.057  64.618  1.00  0.00     0.000 HD 
HETATM   28  H   UNL     1      -9.931  12.484  69.504  1.00  0.00     0.000 HD 
BRANCH  23  29
HETATM   29  O   UNL     1     -10.667  13.323  67.257  1.00  0.00    -0.253 OA 
BRANCH  29  30
HETATM   30  C   UNL     1      -9.517  13.992  66.667  1.00  0.00    -0.287 C  
HETATM   31  O   UNL     1      -9.876  14.669  65.456  1.00  0.00    -0.340 OA 
HETATM   32  C   UNL     1     -10.743  15.788  65.709  1.00  0.00    -0.327 C  
HETATM   33  C   UNL     1      -9.962  16.861  66.468  1.00  0.00    -0.301 C  
HETATM   34  H   UNL     1      -7.979  14.898  69.450  1.00  0.00     0.000 HD 
HETATM   35  O   UNL     1     -10.755  18.030  66.687  1.00  0.00    -0.282 OA 
HETATM   36  C   UNL     1      -9.487  16.284  67.824  1.00  0.00    -0.221 C  
HETATM   37  H1  UNL     1      -8.339  16.902  69.423  1.00  0.00     0.000 HD 
HETATM   38  H2  UNL     1      -9.134  18.176  68.640  1.00  0.00     0.000 HD 
HETATM   39  C   UNL     1      -8.755  14.948  67.621  1.00  0.00    -0.175 C  
HETATM   40  N   UNL     1      -8.653  17.283  68.529  1.00  0.00    -0.264 NA 
HETATM   41  H   UNL     1     -10.270  18.697  67.158  1.00  0.00     0.000 HD 
HETATM   42  O   UNL     1      -8.445  14.313  68.865  1.00  0.00    -0.128 OA 
BRANCH  32  43
HETATM   43  C   UNL     1     -11.288  16.265  64.363  1.00  0.00    -0.129 C  
HETATM   44  O   UNL     1     -12.271  15.327  63.902  1.00  0.00    -0.964 OA 
HETATM   45  H   UNL     1     -12.609  15.624  63.065  1.00  0.00     0.000 HD 
ENDBRANCH  32  43
ENDBRANCH  29  30
ENDBRANCH  23  29
ENDBRANCH  14  15
ENDBRANCH   8  14
TORSDOF 6
ENDMDL
MODEL      241
REMARK 921   NORMALIZED FREE ENERGY PREDICTED BY IDOCK:   -2.83 KCAL/MOL
REMARK 922        TOTAL FREE ENERGY PREDICTED BY IDOCK:   -5.38 KCAL/MOL
REMARK 923 INTER-LIGAND FREE ENERGY PREDICTED BY IDOCK:   -4.23 KCAL/MOL
REMARK 924 INTRA-LIGAND FREE ENERGY PREDICTED BY IDOCK:   -1.15 KCAL/MOL
REMARK 927      BINDING AFFINITY PREDICTED BY RF-SCORE:    0.00 PKD
ROOT
HETATM    1  C   UNL     1      -6.141  11.467  66.923  1.00  0.00    -0.135 C  
HETATM    2  C   UNL     1      -7.666  11.603  66.845  1.00  0.00    -0.147 C  
HETATM    3  N   UNL     1      -5.700  12.390  67.992  1.00  0.00    -0.064 NA 
HETATM    4  H1  UNL     1      -4.686  12.300  68.044  1.00  0.00     0.000 HD 
HETATM    5  C   UNL     1      -8.320  10.515  66.024  1.00  0.00    -0.158 C  
HETATM    6  H2  UNL     1      -6.168  12.231  68.884  1.00  0.00     0.000 HD 
HETATM    7  C   UNL     1      -7.770   9.129  66.357  1.00  0.00    -0.096 C  
HETATM    8  C   UNL     1      -5.587   9.984  67.030  1.00  0.00    -0.046 C  
HETATM    9  O   UNL     1      -6.339   9.060  66.242  1.00  0.00    -0.063 OA 
ENDROOT
BRANCH   7  10
HETATM   10  C   UNL     1      -8.377   8.129  65.336  1.00  0.00    -0.155 C  
HETATM   11  N   UNL     1      -8.691   8.750  64.049  1.00  0.00    -0.419 NA 
HETATM   12  H1  UNL     1      -9.090   8.093  63.378  1.00  0.00     0.000 HD 
HETATM   13  H2  UNL     1      -7.872   9.216  63.659  1.00  0.00     0.000 HD 
ENDBRANCH   7  10
BRANCH   8  14
HETATM   14  O   UNL     1      -5.424   9.601  68.396  1.00  0.00    -0.036 OA 
BRANCH  14  15
HETATM   15  C   UNL     1      -6.427   8.808  69.080  1.00  0.00    -0.048 C  
HETATM   16  C   UNL     1      -6.521   9.500  70.467  1.00  0.00    -0.086 C  
HETATM   17  N   UNL     1      -7.040  10.876  70.343  1.00  0.00    -0.442 NA 
HETATM   18  C   UNL     1      -7.390   8.817  71.504  1.00  0.00    -0.109 C  
HETATM   19  H2  UNL     1      -7.934  10.896  69.853  1.00  0.00     0.000 HD 
HETATM   20  H1  UNL     1      -7.102  11.330  71.254  1.00  0.00     0.000 HD 
HETATM   21  C   UNL     1      -7.089   7.336  71.665  1.00  0.00    -0.067 C  
HETATM   22  N   UNL     1      -7.999   6.889  72.732  1.00  0.00    -0.104 NA 
HETATM   23  C   UNL     1      -7.242   6.641  70.275  1.00  0.00    -0.077 C  
HETATM   24  C   UNL     1      -6.193   7.261  69.260  1.00  0.00    -0.035 C  
HETATM   25  O   UNL     1      -6.318   6.603  67.987  1.00  0.00    -0.039 OA 
HETATM   26  H2  UNL     1      -8.981   7.097  72.557  1.00  0.00     0.000 HD 
HETATM   27  H1  UNL     1      -7.797   5.894  72.840  1.00  0.00     0.000 HD 
HETATM   28  H   UNL     1      -6.177   5.669  68.096  1.00  0.00     0.000 HD 
BRANCH  23  29
HETATM   29  O   UNL     1      -7.158   5.182  70.353  1.00  0.00    -0.053 OA 
BRANCH  29  30
HETATM   30  C   UNL     1      -8.474   4.565  70.425  1.00  0.00    -0.078 C  
HETATM   31  O   UNL     1      -9.498   5.476  70.007  1.00  0.00    -0.148 OA 
HETATM   32  C   UNL     1      -9.409   5.768  68.601  1.00  0.00    -0.122 C  
HETATM   33  C   UNL     1      -9.747   4.505  67.808  1.00  0.00    -0.145 C  
HETATM   34  H   UNL     1      -7.632   1.485  69.564  1.00  0.00     0.000 HD 
HETATM   35  O   UNL     1      -9.744   4.753  66.401  1.00  0.00    -0.156 OA 
HETATM   36  C   UNL     1      -8.723   3.397  68.151  1.00  0.00    -0.108 C  
HETATM   37  H1  UNL     1      -8.416   1.410  67.686  1.00  0.00     0.000 HD 
HETATM   38  H2  UNL     1      -9.192   2.272  66.453  1.00  0.00     0.000 HD 
HETATM   39  C   UNL     1      -8.605   3.214  69.673  1.00  0.00    -0.066 C  
HETATM   40  N   UNL     1      -9.092   2.141  67.459  1.00  0.00    -0.155 NA 
HETATM   41  H   UNL     1      -9.954   3.969  65.908  1.00  0.00     0.000 HD 
HETATM   42  O   UNL     1      -7.553   2.312  70.025  1.00  0.00    -0.043 OA 
BRANCH  32  43
HETATM   43  C   UNL     1     -10.346   6.941  68.312  1.00  0.00    -0.193 C  
HETATM   44  O   UNL     1     -11.539   6.438  67.694  1.00  0.00    -0.640 OA 
HETATM   45  H   UNL     1     -12.121   7.167  67.514  1.00  0.00     0.000 HD 
ENDBRANCH  32  43
ENDBRANCH  29  30
ENDBRANCH  23  29
ENDBRANCH  14  15
ENDBRANCH   8  14
TORSDOF 6
ENDMDL
MODEL      242
REMARK 921   NORMALIZED FREE ENERGY PREDICTED BY IDOCK:   -2.82 KCAL/MOL
REMARK 922        TOTAL FREE ENERGY PREDICTED BY IDOCK:   -5.37 KCAL/MOL
REMARK 923 INTER-LIGAND FREE ENERGY PREDICTED BY IDOCK:   -4.76 KCAL/MOL
REMARK 924 INTRA-LIGAND FREE ENERGY PREDICTED BY IDOCK:   -0.61 KCAL/MOL
REMARK 927      BINDING AFFINITY PREDICTED BY RF-SCORE:    0.00 PKD
ROOT
HETATM    1  C   UNL     1      -5.388  10.632  70.815  1.00  0.00    -0.097 C  
HETATM    2  C   UNL     1      -5.203  12.128  71.097  1.00  0.00    -0.123 C  
HETATM    3  N   UNL     1      -5.702  10.004  72.117  1.00  0.00    -0.291 NA 
HETATM    4  H1  UNL     1      -5.824   9.009  71.930  1.00  0.00     0.000 HD 
HETATM    5  C   UNL     1      -5.180  12.972  69.844  1.00  0.00    -0.089 C  
HETATM    6  H2  UNL     1      -6.500  10.428  72.591  1.00  0.00     0.000 HD 
HETATM    7  C   UNL     1      -6.290  12.588  68.867  1.00  0.00    -0.086 C  
HETATM    8  C   UNL     1      -6.375  10.272  69.626  1.00  0.00    -0.062 C  
HETATM    9  O   UNL     1      -6.278  11.190  68.537  1.00  0.00    -0.043 OA 
ENDROOT
BRANCH   7  10
HETATM   10  C   UNL     1      -6.055  13.388  67.557  1.00  0.00    -0.063 C  
HETATM   11  N   UNL     1      -7.140  14.322  67.256  1.00  0.00    -0.358 NA 
HETATM   12  H1  UNL     1      -6.985  14.847  66.396  1.00  0.00     0.000 HD 
HETATM   13  H2  UNL     1      -7.308  14.950  68.042  1.00  0.00     0.000 HD 
ENDBRANCH   7  10
BRANCH   8  14
HETATM   14  O   UNL     1      -7.702  10.072  70.114  1.00  0.00    -0.171 OA 
BRANCH  14  15
HETATM   15  C   UNL     1      -8.759   9.595  69.244  1.00  0.00    -0.159 C  
HETATM   16  C   UNL     1      -9.631   8.741  70.206  1.00  0.00    -0.177 C  
HETATM   17  N   UNL     1     -10.249   9.577  71.252  1.00  0.00    -0.259 NA 
HETATM   18  C   UNL     1     -10.764   7.958  69.573  1.00  0.00    -0.195 C  
HETATM   19  H2  UNL     1     -10.780  10.349  70.849  1.00  0.00     0.000 HD 
HETATM   20  H1  UNL     1     -10.821   9.016  71.883  1.00  0.00     0.000 HD 
HETATM   21  C   UNL     1     -10.334   7.137  68.368  1.00  0.00    -0.194 C  
HETATM   22  N   UNL     1     -11.557   6.436  67.944  1.00  0.00    -0.492 NA 
HETATM   23  C   UNL     1      -9.673   8.090  67.323  1.00  0.00    -0.177 C  
HETATM   24  C   UNL     1      -8.385   8.758  67.964  1.00  0.00    -0.119 C  
HETATM   25  O   UNL     1      -7.762   9.618  66.992  1.00  0.00    -0.095 OA 
HETATM   26  H2  UNL     1     -12.350   7.052  67.766  1.00  0.00     0.000 HD 
HETATM   27  H1  UNL     1     -11.268   5.885  67.135  1.00  0.00     0.000 HD 
HETATM   28  H   UNL     1      -7.536   9.112  66.219  1.00  0.00     0.000 HD 
BRANCH  23  29
HETATM   29  O   UNL     1      -9.391   7.432  66.047  1.00  0.00    -0.109 OA 
BRANCH  29  30
HETATM   30  C   UNL     1      -8.048   6.872  66.009  1.00  0.00    -0.119 C  
HETATM   31  O   UNL     1      -7.975   5.649  66.751  1.00  0.00    -0.101 OA 
HETATM   32  C   UNL     1      -8.728   4.598  66.120  1.00  0.00    -0.114 C  
HETATM   33  C   UNL     1      -8.051   4.224  64.801  1.00  0.00    -0.094 C  
HETATM   34  H   UNL     1      -7.220   7.760  62.933  1.00  0.00     0.000 HD 
HETATM   35  O   UNL     1      -8.717   3.134  64.161  1.00  0.00    -0.093 OA 
HETATM   36  C   UNL     1      -8.040   5.458  63.866  1.00  0.00    -0.119 C  
HETATM   37  H1  UNL     1      -7.299   5.950  62.004  1.00  0.00     0.000 HD 
HETATM   38  H2  UNL     1      -7.682   4.308  62.157  1.00  0.00     0.000 HD 
HETATM   39  C   UNL     1      -7.458   6.684  64.587  1.00  0.00    -0.093 C  
HETATM   40  N   UNL     1      -7.307   5.136  62.620  1.00  0.00    -0.042 NA 
HETATM   41  H   UNL     1      -8.297   2.901  63.342  1.00  0.00     0.000 HD 
HETATM   42  O   UNL     1      -7.581   7.875  63.805  1.00  0.00    -0.113 OA 
BRANCH  32  43
HETATM   43  C   UNL     1      -8.820   3.436  67.110  1.00  0.00    -0.135 C  
HETATM   44  O   UNL     1      -9.609   2.391  66.524  1.00  0.00    -0.380 OA 
HETATM   45  H   UNL     1      -9.666   1.669  67.140  1.00  0.00     0.000 HD 
ENDBRANCH  32  43
ENDBRANCH  29  30
ENDBRANCH  23  29
ENDBRANCH  14  15
ENDBRANCH   8  14
TORSDOF 6
ENDMDL
MODEL      243
REMARK 921   NORMALIZED FREE ENERGY PREDICTED BY IDOCK:   -2.71 KCAL/MOL
REMARK 922        TOTAL FREE ENERGY PREDICTED BY IDOCK:   -5.22 KCAL/MOL
REMARK 923 INTER-LIGAND FREE ENERGY PREDICTED BY IDOCK:   -8.23 KCAL/MOL
REMARK 924 INTRA-LIGAND FREE ENERGY PREDICTED BY IDOCK:    3.01 KCAL/MOL
REMARK 927      BINDING AFFINITY PREDICTED BY RF-SCORE:    0.00 PKD
ROOT
HETATM    1  C   UNL     1      -9.184  20.161  67.710  1.00  0.00    -0.316 C  
HETATM    2  C   UNL     1      -9.440  19.220  66.527  1.00  0.00    -0.407 C  
HETATM    3  N   UNL     1     -10.349  20.014  68.611  1.00  0.00    -0.490 NA 
HETATM    4  H1  UNL     1     -10.179  20.640  69.398  1.00  0.00     0.000 HD 
HETATM    5  C   UNL     1      -8.220  19.006  65.661  1.00  0.00     0.393 C  
HETATM    6  H2  UNL     1     -10.527  19.050  68.891  1.00  0.00     0.000 HD 
HETATM    7  C   UNL     1      -6.962  18.745  66.488  1.00  0.00    -0.213 C  
HETATM    8  C   UNL     1      -7.763  20.025  68.403  1.00  0.00    -0.179 C  
HETATM    9  O   UNL     1      -6.718  19.770  67.464  1.00  0.00    -0.210 OA 
ENDROOT
BRANCH   7  10
HETATM   10  C   UNL     1      -5.757  18.724  65.509  1.00  0.00    -0.193 C  
HETATM   11  N   UNL     1      -6.119  19.129  64.151  1.00  0.00    -0.449 NA 
HETATM   12  H1  UNL     1      -5.327  19.116  63.508  1.00  0.00     0.000 HD 
HETATM   13  H2  UNL     1      -6.572  20.043  64.152  1.00  0.00     0.000 HD 
ENDBRANCH   7  10
BRANCH   8  14
HETATM   14  O   UNL     1      -7.817  19.102  69.491  1.00  0.00    -0.046 OA 
BRANCH  14  15
HETATM   15  C   UNL     1      -7.711  17.672  69.272  1.00  0.00     0.095 C  
HETATM   16  C   UNL     1      -6.205  17.490  68.940  1.00  0.00    -0.201 C  
HETATM   17  N   UNL     1      -5.357  17.834  70.098  1.00  0.00    -0.219 NA 
HETATM   18  C   UNL     1      -5.773  16.104  68.504  1.00  0.00    -0.109 C  
HETATM   19  H2  UNL     1      -5.625  17.306  70.928  1.00  0.00     0.000 HD 
HETATM   20  H1  UNL     1      -4.368  17.715  69.880  1.00  0.00     0.000 HD 
HETATM   21  C   UNL     1      -6.639  15.521  67.399  1.00  0.00    -0.139 C  
HETATM   22  N   UNL     1      -6.028  14.215  67.103  1.00  0.00    -0.179 NA 
HETATM   23  C   UNL     1      -8.124  15.508  67.881  1.00  0.00    -0.139 C  
HETATM   24  C   UNL     1      -8.597  16.997  68.160  1.00  0.00    -0.228 C  
HETATM   25  O   UNL     1      -9.974  16.986  68.581  1.00  0.00    -0.262 OA 
HETATM   26  H2  UNL     1      -5.927  13.608  67.916  1.00  0.00     0.000 HD 
HETATM   27  H1  UNL     1      -6.609  13.823  66.361  1.00  0.00     0.000 HD 
HETATM   28  H   UNL     1     -10.508  16.578  67.909  1.00  0.00     0.000 HD 
BRANCH  23  29
HETATM   29  O   UNL     1      -9.016  14.795  66.967  1.00  0.00    -0.212 OA 
BRANCH  29  30
HETATM   30  C   UNL     1     -10.390  14.781  67.449  1.00  0.00    -0.242 C  
HETATM   31  O   UNL     1     -11.294  15.271  66.451  1.00  0.00    -0.284 OA 
HETATM   32  C   UNL     1     -11.387  14.373  65.331  1.00  0.00    -0.339 C  
HETATM   33  C   UNL     1     -12.066  13.080  65.784  1.00  0.00    -0.454 C  
HETATM   34  H   UNL     1     -10.250  12.039  69.291  1.00  0.00     0.000 HD 
HETATM   35  O   UNL     1     -12.250  12.175  64.695  1.00  0.00    -0.369 OA 
HETATM   36  C   UNL     1     -11.208  12.413  66.886  1.00  0.00    -0.305 C  
HETATM   37  H1  UNL     1     -11.333  10.768  68.125  1.00  0.00     0.000 HD 
HETATM   38  H2  UNL     1     -12.138  10.556  66.651  1.00  0.00     0.000 HD 
HETATM   39  C   UNL     1     -10.876  13.416  68.002  1.00  0.00    -0.247 C  
HETATM   40  N   UNL     1     -11.898  11.207  67.398  1.00  0.00    -0.513 NA 
HETATM   41  H   UNL     1     -12.672  11.372  64.976  1.00  0.00     0.000 HD 
HETATM   42  O   UNL     1      -9.953  12.875  68.952  1.00  0.00    -0.064 OA 
BRANCH  32  43
HETATM   43  C   UNL     1     -12.140  15.101  64.216  1.00  0.00    -0.261 C  
HETATM   44  O   UNL     1     -11.556  16.398  64.033  1.00  0.00    -1.447 OA 
HETATM   45  H   UNL     1     -12.024  16.850  63.341  1.00  0.00     0.000 HD 
ENDBRANCH  32  43
ENDBRANCH  29  30
ENDBRANCH  23  29
ENDBRANCH  14  15
ENDBRANCH   8  14
TORSDOF 6
ENDMDL
MODEL      244
REMARK 921   NORMALIZED FREE ENERGY PREDICTED BY IDOCK:   -2.70 KCAL/MOL
REMARK 922        TOTAL FREE ENERGY PREDICTED BY IDOCK:   -5.21 KCAL/MOL
REMARK 923 INTER-LIGAND FREE ENERGY PREDICTED BY IDOCK:   -3.90 KCAL/MOL
REMARK 924 INTRA-LIGAND FREE ENERGY PREDICTED BY IDOCK:   -1.30 KCAL/MOL
REMARK 927      BINDING AFFINITY PREDICTED BY RF-SCORE:    0.00 PKD
ROOT
HETATM    1  C   UNL     1     -10.577   6.553  72.149  1.00  0.00    -0.214 C  
HETATM    2  C   UNL     1     -10.306   6.659  73.654  1.00  0.00    -0.343 C  
HETATM    3  N   UNL     1      -9.965   7.752  71.535  1.00  0.00    -0.170 NA 
HETATM    4  H1  UNL     1     -10.145   7.682  70.534  1.00  0.00     0.000 HD 
HETATM    5  C   UNL     1     -10.588   5.376  74.402  1.00  0.00    -0.160 C  
HETATM    6  H2  UNL     1      -8.977   7.865  71.763  1.00  0.00     0.000 HD 
HETATM    7  C   UNL     1     -10.020   4.152  73.686  1.00  0.00    -0.126 C  
HETATM    8  C   UNL     1     -10.190   5.168  71.476  1.00  0.00    -0.207 C  
HETATM    9  O   UNL     1     -10.464   4.052  72.324  1.00  0.00    -0.149 OA 
ENDROOT
BRANCH   7  10
HETATM   10  C   UNL     1     -10.525   2.894  74.444  1.00  0.00    -0.166 C  
HETATM   11  N   UNL     1      -9.926   1.654  73.951  1.00  0.00    -0.079 NA 
HETATM   12  H1  UNL     1     -10.257   0.827  74.449  1.00  0.00     0.000 HD 
HETATM   13  H2  UNL     1      -8.907   1.707  73.972  1.00  0.00     0.000 HD 
ENDBRANCH   7  10
BRANCH   8  14
HETATM   14  O   UNL     1      -8.858   5.209  70.964  1.00  0.00    -0.128 OA 
BRANCH  14  15
HETATM   15  C   UNL     1      -8.589   5.016  69.552  1.00  0.00    -0.091 C  
HETATM   16  C   UNL     1      -7.164   4.396  69.560  1.00  0.00    -0.051 C  
HETATM   17  N   UNL     1      -7.163   3.069  70.206  1.00  0.00    -0.037 NA 
HETATM   18  C   UNL     1      -6.505   4.203  68.209  1.00  0.00    -0.038 C  
HETATM   19  H2  UNL     1      -7.843   2.443  69.776  1.00  0.00     0.000 HD 
HETATM   20  H1  UNL     1      -6.228   2.662  70.212  1.00  0.00     0.000 HD 
HETATM   21  C   UNL     1      -6.543   5.446  67.334  1.00  0.00    -0.053 C  
HETATM   22  N   UNL     1      -5.822   5.057  66.111  1.00  0.00    -0.021 NA 
HETATM   23  C   UNL     1      -8.029   5.892  67.162  1.00  0.00    -0.102 C  
HETATM   24  C   UNL     1      -8.634   6.256  68.583  1.00  0.00    -0.121 C  
HETATM   25  O   UNL     1      -9.996   6.691  68.421  1.00  0.00    -0.139 OA 
HETATM   26  H2  UNL     1      -6.190   4.220  65.659  1.00  0.00     0.000 HD 
HETATM   27  H1  UNL     1      -5.848   5.891  65.524  1.00  0.00     0.000 HD 
HETATM   28  H   UNL     1     -10.024   7.440  67.836  1.00  0.00     0.000 HD 
BRANCH  23  29
HETATM   29  O   UNL     1      -8.193   6.969  66.186  1.00  0.00    -0.112 OA 
BRANCH  29  30
HETATM   30  C   UNL     1      -7.135   7.963  66.290  1.00  0.00    -0.063 C  
HETATM   31  O   UNL     1      -6.462   8.138  65.037  1.00  0.00    -0.048 OA 
HETATM   32  C   UNL     1      -7.317   8.749  64.055  1.00  0.00    -0.102 C  
HETATM   33  C   UNL     1      -7.608  10.190  64.477  1.00  0.00    -0.130 C  
HETATM   34  H   UNL     1      -8.584  10.017  68.438  1.00  0.00     0.000 HD 
HETATM   35  O   UNL     1      -8.398  10.872  63.501  1.00  0.00    -0.360 OA 
HETATM   36  C   UNL     1      -8.342  10.185  65.839  1.00  0.00    -0.136 C  
HETATM   37  H1  UNL     1      -9.032  11.572  67.202  1.00  0.00     0.000 HD 
HETATM   38  H2  UNL     1      -9.035  12.143  65.608  1.00  0.00     0.000 HD 
HETATM   39  C   UNL     1      -7.579   9.333  66.867  1.00  0.00    -0.091 C  
HETATM   40  N   UNL     1      -8.549  11.576  66.303  1.00  0.00    -0.166 NA 
HETATM   41  H   UNL     1      -8.579  11.767  63.762  1.00  0.00     0.000 HD 
HETATM   42  O   UNL     1      -8.311   9.178  68.085  1.00  0.00    -0.119 OA 
BRANCH  32  43
HETATM   43  C   UNL     1      -6.618   8.638  62.700  1.00  0.00    -0.091 C  
HETATM   44  O   UNL     1      -5.860   9.835  62.470  1.00  0.00    -0.089 OA 
HETATM   45  H   UNL     1      -5.426   9.765  61.628  1.00  0.00     0.000 HD 
ENDBRANCH  32  43
ENDBRANCH  29  30
ENDBRANCH  23  29
ENDBRANCH  14  15
ENDBRANCH   8  14
TORSDOF 6
ENDMDL
MODEL      245
REMARK 921   NORMALIZED FREE ENERGY PREDICTED BY IDOCK:   -2.68 KCAL/MOL
REMARK 922        TOTAL FREE ENERGY PREDICTED BY IDOCK:   -5.17 KCAL/MOL
REMARK 923 INTER-LIGAND FREE ENERGY PREDICTED BY IDOCK:   -4.90 KCAL/MOL
REMARK 924 INTRA-LIGAND FREE ENERGY PREDICTED BY IDOCK:   -0.27 KCAL/MOL
REMARK 927      BINDING AFFINITY PREDICTED BY RF-SCORE:    0.00 PKD
ROOT
HETATM    1  C   UNL     1     -10.464  11.368  65.864  1.00  0.00    -0.258 C  
HETATM    2  C   UNL     1     -10.687  12.807  65.384  1.00  0.00    -0.309 C  
HETATM    3  N   UNL     1     -10.033  10.600  64.675  1.00  0.00    -0.313 NA 
HETATM    4  H1  UNL     1      -9.885   9.644  64.994  1.00  0.00     0.000 HD 
HETATM    5  C   UNL     1     -10.833  13.797  66.517  1.00  0.00    -0.287 C  
HETATM    6  H2  UNL     1      -9.222  11.002  64.205  1.00  0.00     0.000 HD 
HETATM    7  C   UNL     1      -9.781  13.590  67.605  1.00  0.00    -0.229 C  
HETATM    8  C   UNL     1      -9.550  11.206  67.151  1.00  0.00    -0.173 C  
HETATM    9  O   UNL     1      -9.761  12.245  68.108  1.00  0.00    -0.202 OA 
ENDROOT
BRANCH   7  10
HETATM   10  C   UNL     1     -10.140  14.533  68.786  1.00  0.00    -0.239 C  
HETATM   11  N   UNL     1     -10.875  13.855  69.853  1.00  0.00    -0.435 NA 
HETATM   12  H1  UNL     1     -11.111  14.474  70.629  1.00  0.00     0.000 HD 
HETATM   13  H2  UNL     1     -10.365  13.035  70.184  1.00  0.00     0.000 HD 
ENDBRANCH   7  10
BRANCH   8  14
HETATM   14  O   UNL     1      -8.185  11.011  66.780  1.00  0.00    -0.137 OA 
BRANCH  14  15
HETATM   15  C   UNL     1      -7.637   9.681  66.600  1.00  0.00    -0.098 C  
HETATM   16  C   UNL     1      -7.403   9.615  65.066  1.00  0.00    -0.117 C  
HETATM   17  N   UNL     1      -6.379  10.588  64.639  1.00  0.00    -0.336 NA 
HETATM   18  C   UNL     1      -6.964   8.276  64.508  1.00  0.00    -0.073 C  
HETATM   19  H2  UNL     1      -5.509  10.468  65.157  1.00  0.00     0.000 HD 
HETATM   20  H1  UNL     1      -6.225  10.545  63.632  1.00  0.00     0.000 HD 
HETATM   21  C   UNL     1      -7.832   7.115  64.968  1.00  0.00    -0.125 C  
HETATM   22  N   UNL     1      -7.267   5.939  64.285  1.00  0.00    -0.053 NA 
HETATM   23  C   UNL     1      -7.840   7.084  66.528  1.00  0.00    -0.106 C  
HETATM   24  C   UNL     1      -8.471   8.433  67.076  1.00  0.00    -0.122 C  
HETATM   25  O   UNL     1      -8.500   8.393  68.514  1.00  0.00    -0.129 OA 
HETATM   26  H2  UNL     1      -6.269   5.803  64.448  1.00  0.00     0.000 HD 
HETATM   27  H1  UNL     1      -7.849   5.160  64.594  1.00  0.00     0.000 HD 
HETATM   28  H   UNL     1      -9.004   7.640  68.801  1.00  0.00     0.000 HD 
BRANCH  23  29
HETATM   29  O   UNL     1      -8.494   5.894  67.073  1.00  0.00    -0.109 OA 
BRANCH  29  30
HETATM   30  C   UNL     1      -7.542   4.824  67.338  1.00  0.00    -0.086 C  
HETATM   31  O   UNL     1      -6.985   4.939  68.653  1.00  0.00    -0.050 OA 
HETATM   32  C   UNL     1      -7.969   4.689  69.671  1.00  0.00    -0.065 C  
HETATM   33  C   UNL     1      -8.380   3.217  69.615  1.00  0.00    -0.055 C  
HETATM   34  H   UNL     1      -9.041   2.395  65.669  1.00  0.00     0.000 HD 
HETATM   35  O   UNL     1      -9.307   2.891  70.652  1.00  0.00    -0.126 OA 
HETATM   36  C   UNL     1      -9.007   2.915  68.232  1.00  0.00    -0.146 C  
HETATM   37  H1  UNL     1      -9.740   1.274  67.219  1.00  0.00     0.000 HD 
HETATM   38  H2  UNL     1      -9.920   1.156  68.898  1.00  0.00     0.000 HD 
HETATM   39  C   UNL     1      -8.086   3.392  67.099  1.00  0.00    -0.083 C  
HETATM   40  N   UNL     1      -9.327   1.473  68.130  1.00  0.00    -0.172 NA 
HETATM   41  H   UNL     1      -9.562   1.977  70.617  1.00  0.00     0.000 HD 
HETATM   42  O   UNL     1      -8.707   3.272  65.816  1.00  0.00    -0.115 OA 
BRANCH  32  43
HETATM   43  C   UNL     1      -7.363   5.103  71.013  1.00  0.00    -0.073 C  
HETATM   44  O   UNL     1      -7.451   6.529  71.140  1.00  0.00    -0.082 OA 
HETATM   45  H   UNL     1      -7.074   6.786  71.973  1.00  0.00     0.000 HD 
ENDBRANCH  32  43
ENDBRANCH  29  30
ENDBRANCH  23  29
ENDBRANCH  14  15
ENDBRANCH   8  14
TORSDOF 6
ENDMDL
MODEL      246
REMARK 921   NORMALIZED FREE ENERGY PREDICTED BY IDOCK:   -2.67 KCAL/MOL
REMARK 922        TOTAL FREE ENERGY PREDICTED BY IDOCK:   -5.17 KCAL/MOL
REMARK 923 INTER-LIGAND FREE ENERGY PREDICTED BY IDOCK:   -5.43 KCAL/MOL
REMARK 924 INTRA-LIGAND FREE ENERGY PREDICTED BY IDOCK:    0.26 KCAL/MOL
REMARK 927      BINDING AFFINITY PREDICTED BY RF-SCORE:    0.00 PKD
ROOT
HETATM    1  C   UNL     1      -9.567   5.612  67.022  1.00  0.00    -0.136 C  
HETATM    2  C   UNL     1      -9.704   4.688  68.237  1.00  0.00    -0.193 C  
HETATM    3  N   UNL     1     -10.860   5.542  66.305  1.00  0.00    -0.701 NA 
HETATM    4  H1  UNL     1     -10.769   6.157  65.496  1.00  0.00     0.000 HD 
HETATM    5  C   UNL     1      -8.596   4.868  69.250  1.00  0.00    -0.099 C  
HETATM    6  H2  UNL     1     -11.663   5.762  66.893  1.00  0.00     0.000 HD 
HETATM    7  C   UNL     1      -8.307   6.341  69.535  1.00  0.00    -0.118 C  
HETATM    8  C   UNL     1      -9.033   7.075  67.326  1.00  0.00    -0.119 C  
HETATM    9  O   UNL     1      -8.030   7.092  68.342  1.00  0.00    -0.119 OA 
ENDROOT
BRANCH   7  10
HETATM   10  C   UNL     1      -7.045   6.402  70.438  1.00  0.00    -0.068 C  
HETATM   11  N   UNL     1      -6.960   5.281  71.374  1.00  0.00    -0.052 NA 
HETATM   12  H1  UNL     1      -6.131   5.321  71.967  1.00  0.00     0.000 HD 
HETATM   13  H2  UNL     1      -7.012   4.389  70.880  1.00  0.00     0.000 HD 
ENDBRANCH   7  10
BRANCH   8  14
HETATM   14  O   UNL     1     -10.119   7.974  67.552  1.00  0.00    -0.183 OA 
BRANCH  14  15
HETATM   15  C   UNL     1      -9.967   9.139  68.402  1.00  0.00    -0.181 C  
HETATM   16  C   UNL     1     -11.251   9.090  69.277  1.00  0.00     0.176 C  
HETATM   17  N   UNL     1     -11.261   7.896  70.144  1.00  0.00    -0.408 NA 
HETATM   18  C   UNL     1     -11.487  10.274  70.193  1.00  0.00    -0.383 C  
HETATM   19  H2  UNL     1     -10.417   7.839  70.713  1.00  0.00     0.000 HD 
HETATM   20  H1  UNL     1     -12.103   7.865  70.718  1.00  0.00     0.000 HD 
HETATM   21  C   UNL     1     -11.368  11.617  69.490  1.00  0.00    -0.260 C  
HETATM   22  N   UNL     1     -11.673  12.608  70.535  1.00  0.00    -0.494 NA 
HETATM   23  C   UNL     1      -9.960  11.710  68.823  1.00  0.00    -0.135 C  
HETATM   24  C   UNL     1      -9.816  10.559  67.741  1.00  0.00    -0.165 C  
HETATM   25  O   UNL     1      -8.526  10.661  67.109  1.00  0.00    -0.126 OA 
HETATM   26  H2  UNL     1     -11.094  12.524  71.371  1.00  0.00     0.000 HD 
HETATM   27  H1  UNL     1     -11.594  13.509  70.063  1.00  0.00     0.000 HD 
HETATM   28  H   UNL     1      -8.435  11.519  66.710  1.00  0.00     0.000 HD 
BRANCH  23  29
HETATM   29  O   UNL     1      -9.672  13.037  68.278  1.00  0.00    -0.222 OA 
BRANCH  29  30
HETATM   30  C   UNL     1      -8.305  13.138  67.787  1.00  0.00    -0.171 C  
HETATM   31  O   UNL     1      -8.166  14.222  66.860  1.00  0.00    -0.145 OA 
HETATM   32  C   UNL     1      -8.319  15.497  67.508  1.00  0.00    -0.173 C  
HETATM   33  C   UNL     1      -7.140  15.720  68.456  1.00  0.00    -0.118 C  
HETATM   34  H   UNL     1      -6.713  12.234  70.540  1.00  0.00     0.000 HD 
HETATM   35  O   UNL     1      -7.202  17.005  69.076  1.00  0.00    -0.227 OA 
HETATM   36  C   UNL     1      -7.138  14.611  69.536  1.00  0.00    -0.152 C  
HETATM   37  H1  UNL     1      -5.948  14.031  71.118  1.00  0.00     0.000 HD 
HETATM   38  H2  UNL     1      -5.888  15.695  70.814  1.00  0.00     0.000 HD 
HETATM   39  C   UNL     1      -7.218  13.219  68.890  1.00  0.00    -0.054 C  
HETATM   40  N   UNL     1      -5.950  14.762  70.406  1.00  0.00    -0.153 NA 
HETATM   41  H   UNL     1      -6.469  17.144  69.665  1.00  0.00     0.000 HD 
HETATM   42  O   UNL     1      -7.379  12.184  69.864  1.00  0.00     0.533 OA 
BRANCH  32  43
HETATM   43  C   UNL     1      -8.433  16.560  66.414  1.00  0.00    -0.321 C  
HETATM   44  O   UNL     1      -9.582  16.270  65.605  1.00  0.00    -0.466 OA 
HETATM   45  H   UNL     1      -9.652  16.930  64.925  1.00  0.00     0.000 HD 
ENDBRANCH  32  43
ENDBRANCH  29  30
ENDBRANCH  23  29
ENDBRANCH  14  15
ENDBRANCH   8  14
TORSDOF 6
ENDMDL
MODEL      247
REMARK 921   NORMALIZED FREE ENERGY PREDICTED BY IDOCK:   -2.56 KCAL/MOL
REMARK 922        TOTAL FREE ENERGY PREDICTED BY IDOCK:   -5.02 KCAL/MOL
REMARK 923 INTER-LIGAND FREE ENERGY PREDICTED BY IDOCK:   -7.05 KCAL/MOL
REMARK 924 INTRA-LIGAND FREE ENERGY PREDICTED BY IDOCK:    2.03 KCAL/MOL
REMARK 927      BINDING AFFINITY PREDICTED BY RF-SCORE:    0.00 PKD
ROOT
HETATM    1  C   UNL     1      -9.331  19.192  68.580  1.00  0.00    -0.374 C  
HETATM    2  C   UNL     1      -8.922  19.908  67.287  1.00  0.00    -0.420 C  
HETATM    3  N   UNL     1     -10.714  19.629  68.872  1.00  0.00    -0.284 NA 
HETATM    4  H1  UNL     1     -10.986  19.154  69.732  1.00  0.00     0.000 HD 
HETATM    5  C   UNL     1      -7.659  19.350  66.671  1.00  0.00    -0.266 C  
HETATM    6  H2  UNL     1     -11.361  19.473  68.100  1.00  0.00     0.000 HD 
HETATM    7  C   UNL     1      -7.656  17.823  66.642  1.00  0.00    -0.236 C  
HETATM    8  C   UNL     1      -9.090  17.624  68.604  1.00  0.00    -0.261 C  
HETATM    9  O   UNL     1      -7.886  17.244  67.936  1.00  0.00    -0.188 OA 
ENDROOT
BRANCH   7  10
HETATM   10  C   UNL     1      -6.250  17.369  66.163  1.00  0.00    -0.169 C  
HETATM   11  N   UNL     1      -5.166  18.156  66.751  1.00  0.00    -0.130 NA 
HETATM   12  H1  UNL     1      -4.243  17.858  66.436  1.00  0.00     0.000 HD 
HETATM   13  H2  UNL     1      -5.223  18.151  67.770  1.00  0.00     0.000 HD 
ENDBRANCH   7  10
BRANCH   8  14
HETATM   14  O   UNL     1     -10.256  16.927  68.164  1.00  0.00    -0.281 OA 
BRANCH  14  15
HETATM   15  C   UNL     1     -10.200  15.526  67.791  1.00  0.00    -0.243 C  
HETATM   16  C   UNL     1      -9.008  14.998  68.636  1.00  0.00    -0.186 C  
HETATM   17  N   UNL     1      -9.304  15.070  70.079  1.00  0.00    -0.413 NA 
HETATM   18  C   UNL     1      -8.573  13.570  68.369  1.00  0.00    -0.142 C  
HETATM   19  H2  UNL     1     -10.171  14.585  70.309  1.00  0.00     0.000 HD 
HETATM   20  H1  UNL     1      -8.521  14.722  70.634  1.00  0.00     0.000 HD 
HETATM   21  C   UNL     1      -8.360  13.268  66.894  1.00  0.00    -0.003 C  
HETATM   22  N   UNL     1      -7.907  11.868  66.866  1.00  0.00    -0.267 NA 
HETATM   23  C   UNL     1      -9.676  13.596  66.121  1.00  0.00    -0.255 C  
HETATM   24  C   UNL     1     -10.005  15.140  66.277  1.00  0.00    -0.288 C  
HETATM   25  O   UNL     1     -11.204  15.446  65.543  1.00  0.00    -0.310 OA 
HETATM   26  H2  UNL     1      -8.536  11.218  67.337  1.00  0.00     0.000 HD 
HETATM   27  H1  UNL     1      -7.764  11.665  65.877  1.00  0.00     0.000 HD 
HETATM   28  H   UNL     1     -11.087  15.213  64.629  1.00  0.00     0.000 HD 
BRANCH  23  29
HETATM   29  O   UNL     1      -9.640  13.166  64.723  1.00  0.00     0.083 OA 
BRANCH  29  30
HETATM   30  C   UNL     1     -10.656  12.162  64.437  1.00  0.00    -0.323 C  
HETATM   31  O   UNL     1     -10.091  11.030  63.765  1.00  0.00    -0.302 OA 
HETATM   32  C   UNL     1      -9.207  10.288  64.623  1.00  0.00    -0.244 C  
HETATM   33  C   UNL     1     -10.027   9.635  65.737  1.00  0.00    -0.272 C  
HETATM   34  H   UNL     1     -12.520  12.550  67.141  1.00  0.00     0.000 HD 
HETATM   35  O   UNL     1      -9.209   8.825  66.583  1.00  0.00    -0.156 OA 
HETATM   36  C   UNL     1     -10.721  10.738  66.573  1.00  0.00    -0.181 C  
HETATM   37  H1  UNL     1     -12.048  10.845  68.149  1.00  0.00     0.000 HD 
HETATM   38  H2  UNL     1     -11.080   9.456  68.185  1.00  0.00     0.000 HD 
HETATM   39  C   UNL     1     -11.490  11.709  65.664  1.00  0.00    -0.105 C  
HETATM   40  N   UNL     1     -11.590  10.117  67.599  1.00  0.00    -0.030 NA 
HETATM   41  H   UNL     1      -9.718   8.419  67.275  1.00  0.00     0.000 HD 
HETATM   42  O   UNL     1     -12.009  12.827  66.389  1.00  0.00    -0.402 OA 
BRANCH  32  43
HETATM   43  C   UNL     1      -8.451   9.284  63.752  1.00  0.00    -0.191 C  
HETATM   44  O   UNL     1      -8.794   9.513  62.378  1.00  0.00    -0.213 OA 
HETATM   45  H   UNL     1      -8.324   8.889  61.837  1.00  0.00     0.000 HD 
ENDBRANCH  32  43
ENDBRANCH  29  30
ENDBRANCH  23  29
ENDBRANCH  14  15
ENDBRANCH   8  14
TORSDOF 6
ENDMDL
MODEL      248
REMARK 921   NORMALIZED FREE ENERGY PREDICTED BY IDOCK:   -2.53 KCAL/MOL
REMARK 922        TOTAL FREE ENERGY PREDICTED BY IDOCK:   -4.97 KCAL/MOL
REMARK 923 INTER-LIGAND FREE ENERGY PREDICTED BY IDOCK:   -4.98 KCAL/MOL
REMARK 924 INTRA-LIGAND FREE ENERGY PREDICTED BY IDOCK:    0.01 KCAL/MOL
REMARK 927      BINDING AFFINITY PREDICTED BY RF-SCORE:    0.00 PKD
ROOT
HETATM    1  C   UNL     1      -7.645   6.398  73.025  1.00  0.00    -0.095 C  
HETATM    2  C   UNL     1      -8.895   5.664  73.523  1.00  0.00    -0.122 C  
HETATM    3  N   UNL     1      -6.572   5.381  72.951  1.00  0.00    -0.068 NA 
HETATM    4  H1  UNL     1      -5.741   5.869  72.621  1.00  0.00     0.000 HD 
HETATM    5  C   UNL     1     -10.162   6.472  73.368  1.00  0.00    -0.256 C  
HETATM    6  H2  UNL     1      -6.820   4.570  72.383  1.00  0.00     0.000 HD 
HETATM    7  C   UNL     1     -10.258   7.141  71.997  1.00  0.00    -0.190 C  
HETATM    8  C   UNL     1      -7.839   7.282  71.722  1.00  0.00    -0.091 C  
HETATM    9  O   UNL     1      -9.105   7.942  71.691  1.00  0.00    -0.128 OA 
ENDROOT
BRANCH   7  10
HETATM   10  C   UNL     1     -11.495   8.080  72.023  1.00  0.00    -0.309 C  
HETATM   11  N   UNL     1     -12.753   7.360  72.218  1.00  0.00    -0.509 NA 
HETATM   12  H1  UNL     1     -13.565   7.976  72.235  1.00  0.00     0.000 HD 
HETATM   13  H2  UNL     1     -12.716   6.783  73.059  1.00  0.00     0.000 HD 
ENDBRANCH   7  10
BRANCH   8  14
HETATM   14  O   UNL     1      -7.537   6.527  70.549  1.00  0.00    -0.091 OA 
BRANCH  14  15
HETATM   15  C   UNL     1      -8.525   6.331  69.505  1.00  0.00    -0.129 C  
HETATM   16  C   UNL     1      -8.253   4.870  69.051  1.00  0.00    -0.082 C  
HETATM   17  N   UNL     1      -8.544   3.911  70.134  1.00  0.00    -0.063 NA 
HETATM   18  C   UNL     1      -9.030   4.384  67.844  1.00  0.00    -0.138 C  
HETATM   19  H2  UNL     1      -9.493   4.024  70.489  1.00  0.00     0.000 HD 
HETATM   20  H1  UNL     1      -8.366   2.952  69.836  1.00  0.00     0.000 HD 
HETATM   21  C   UNL     1      -8.964   5.334  66.659  1.00  0.00    -0.117 C  
HETATM   22  N   UNL     1      -9.735   4.659  65.601  1.00  0.00    -0.181 NA 
HETATM   23  C   UNL     1      -9.475   6.737  67.113  1.00  0.00    -0.142 C  
HETATM   24  C   UNL     1      -8.530   7.293  68.259  1.00  0.00    -0.124 C  
HETATM   25  O   UNL     1      -8.987   8.598  68.660  1.00  0.00    -0.141 OA 
HETATM   26  H2  UNL     1     -10.683   4.403  65.876  1.00  0.00     0.000 HD 
HETATM   27  H1  UNL     1      -9.690   5.297  64.806  1.00  0.00     0.000 HD 
HETATM   28  H   UNL     1      -8.990   9.179  67.908  1.00  0.00     0.000 HD 
BRANCH  23  29
HETATM   29  O   UNL     1      -9.628   7.677  66.003  1.00  0.00    -0.070 OA 
BRANCH  29  30
HETATM   30  C   UNL     1      -9.017   8.966  66.294  1.00  0.00    -0.170 C  
HETATM   31  O   UNL     1      -7.837   9.170  65.507  1.00  0.00    -0.093 OA 
HETATM   32  C   UNL     1      -8.148   9.322  64.111  1.00  0.00    -0.145 C  
HETATM   33  C   UNL     1      -8.907  10.634  63.911  1.00  0.00    -0.163 C  
HETATM   34  H   UNL     1     -11.770  10.720  66.822  1.00  0.00     0.000 HD 
HETATM   35  O   UNL     1      -9.182  10.875  62.530  1.00  0.00    -0.322 OA 
HETATM   36  C   UNL     1     -10.231  10.585  64.712  1.00  0.00    -0.303 C  
HETATM   37  H1  UNL     1     -11.806  11.851  65.129  1.00  0.00     0.000 HD 
HETATM   38  H2  UNL     1     -11.083  12.156  63.629  1.00  0.00     0.000 HD 
HETATM   39  C   UNL     1      -9.970  10.184  66.173  1.00  0.00    -0.246 C  
HETATM   40  N   UNL     1     -10.933  11.883  64.600  1.00  0.00    -0.305 NA 
HETATM   41  H   UNL     1      -9.654  11.690  62.405  1.00  0.00     0.000 HD 
HETATM   42  O   UNL     1     -11.186   9.974  66.896  1.00  0.00    -0.031 OA 
BRANCH  32  43
HETATM   43  C   UNL     1      -6.832   9.253  63.334  1.00  0.00    -0.091 C  
HETATM   44  O   UNL     1      -6.485   7.875  63.134  1.00  0.00    -0.070 OA 
HETATM   45  H   UNL     1      -5.668   7.832  62.651  1.00  0.00     0.000 HD 
ENDBRANCH  32  43
ENDBRANCH  29  30
ENDBRANCH  23  29
ENDBRANCH  14  15
ENDBRANCH   8  14
TORSDOF 6
ENDMDL
MODEL      249
REMARK 921   NORMALIZED FREE ENERGY PREDICTED BY IDOCK:   -2.51 KCAL/MOL
REMARK 922        TOTAL FREE ENERGY PREDICTED BY IDOCK:   -4.95 KCAL/MOL
REMARK 923 INTER-LIGAND FREE ENERGY PREDICTED BY IDOCK:   -5.08 KCAL/MOL
REMARK 924 INTRA-LIGAND FREE ENERGY PREDICTED BY IDOCK:    0.13 KCAL/MOL
REMARK 927      BINDING AFFINITY PREDICTED BY RF-SCORE:    0.00 PKD
ROOT
HETATM    1  C   UNL     1     -11.136   7.288  72.518  1.00  0.00    -0.293 C  
HETATM    2  C   UNL     1     -10.561   6.763  73.839  1.00  0.00    -0.269 C  
HETATM    3  N   UNL     1     -11.751   8.598  72.829  1.00  0.00    -0.134 NA 
HETATM    4  H1  UNL     1     -12.134   8.946  71.951  1.00  0.00     0.000 HD 
HETATM    5  C   UNL     1      -9.630   5.586  73.657  1.00  0.00    -0.140 C  
HETATM    6  H2  UNL     1     -11.109   9.250  73.279  1.00  0.00     0.000 HD 
HETATM    7  C   UNL     1      -8.641   5.801  72.512  1.00  0.00    -0.120 C  
HETATM    8  C   UNL     1     -10.143   7.276  71.281  1.00  0.00    -0.189 C  
HETATM    9  O   UNL     1      -9.291   6.130  71.274  1.00  0.00    -0.158 OA 
ENDROOT
BRANCH   7  10
HETATM   10  C   UNL     1      -7.871   4.469  72.306  1.00  0.00    -0.092 C  
HETATM   11  N   UNL     1      -8.748   3.298  72.298  1.00  0.00    -0.082 NA 
HETATM   12  H1  UNL     1      -8.242   2.423  72.163  1.00  0.00     0.000 HD 
HETATM   13  H2  UNL     1      -9.489   3.403  71.605  1.00  0.00     0.000 HD 
ENDBRANCH   7  10
BRANCH   8  14
HETATM   14  O   UNL     1      -9.458   8.523  71.170  1.00  0.00    -0.165 OA 
BRANCH  14  15
HETATM   15  C   UNL     1      -9.260   9.161  69.883  1.00  0.00    -0.183 C  
HETATM   16  C   UNL     1     -10.713   9.485  69.437  1.00  0.00    -0.225 C  
HETATM   17  N   UNL     1     -11.341  10.469  70.338  1.00  0.00    -0.321 NA 
HETATM   18  C   UNL     1     -10.880  10.035  68.034  1.00  0.00    -0.311 C  
HETATM   19  H2  UNL     1     -10.777  11.315  70.421  1.00  0.00     0.000 HD 
HETATM   20  H1  UNL     1     -12.295  10.681  70.045  1.00  0.00     0.000 HD 
HETATM   21  C   UNL     1     -10.164   9.215  66.973  1.00  0.00    -0.263 C  
HETATM   22  N   UNL     1     -10.490   9.888  65.705  1.00  0.00    -0.078 NA 
HETATM   23  C   UNL     1      -8.652   9.121  67.349  1.00  0.00    -0.115 C  
HETATM   24  C   UNL     1      -8.504   8.380  68.744  1.00  0.00    -0.124 C  
HETATM   25  O   UNL     1      -7.108   8.272  69.078  1.00  0.00    -0.063 OA 
HETATM   26  H2  UNL     1     -10.260  10.881  65.690  1.00  0.00     0.000 HD 
HETATM   27  H1  UNL     1     -10.010   9.338  64.993  1.00  0.00     0.000 HD 
HETATM   28  H   UNL     1      -6.652   7.800  68.391  1.00  0.00     0.000 HD 
BRANCH  23  29
HETATM   29  O   UNL     1      -7.838   8.512  66.298  1.00  0.00    -0.095 OA 
BRANCH  29  30
HETATM   30  C   UNL     1      -7.382   7.179  66.667  1.00  0.00    -0.084 C  
HETATM   31  O   UNL     1      -8.467   6.371  67.138  1.00  0.00    -0.112 OA 
HETATM   32  C   UNL     1      -9.396   6.061  66.084  1.00  0.00    -0.118 C  
HETATM   33  C   UNL     1      -8.713   5.139  65.074  1.00  0.00    -0.148 C  
HETATM   34  H   UNL     1      -5.047   6.790  64.358  1.00  0.00     0.000 HD 
HETATM   35  O   UNL     1      -9.611   4.738  64.038  1.00  0.00    -0.354 OA 
HETATM   36  C   UNL     1      -7.492   5.867  64.462  1.00  0.00    -0.079 C  
HETATM   37  H1  UNL     1      -5.963   5.433  63.147  1.00  0.00     0.000 HD 
HETATM   38  H2  UNL     1      -7.380   4.561  62.833  1.00  0.00     0.000 HD 
HETATM   39  C   UNL     1      -6.584   6.433  65.566  1.00  0.00    -0.043 C  
HETATM   40  N   UNL     1      -6.768   4.953  63.550  1.00  0.00    -0.037 NA 
HETATM   41  H   UNL     1      -9.187   4.165  63.411  1.00  0.00     0.000 HD 
HETATM   42  O   UNL     1      -5.536   7.247  65.033  1.00  0.00    -0.031 OA 
BRANCH  32  43
HETATM   43  C   UNL     1     -10.639   5.448  66.729  1.00  0.00    -0.271 C  
HETATM   44  O   UNL     1     -11.138   6.352  67.726  1.00  0.00    -0.383 OA 
HETATM   45  H   UNL     1     -11.910   5.970  68.126  1.00  0.00     0.000 HD 
ENDBRANCH  32  43
ENDBRANCH  29  30
ENDBRANCH  23  29
ENDBRANCH  14  15
ENDBRANCH   8  14
TORSDOF 6
ENDMDL
MODEL      250
REMARK 921   NORMALIZED FREE ENERGY PREDICTED BY IDOCK:   -2.46 KCAL/MOL
REMARK 922        TOTAL FREE ENERGY PREDICTED BY IDOCK:   -4.88 KCAL/MOL
REMARK 923 INTER-LIGAND FREE ENERGY PREDICTED BY IDOCK:   -5.29 KCAL/MOL
REMARK 924 INTRA-LIGAND FREE ENERGY PREDICTED BY IDOCK:    0.40 KCAL/MOL
REMARK 927      BINDING AFFINITY PREDICTED BY RF-SCORE:    0.00 PKD
ROOT
HETATM    1  C   UNL     1      -8.392   7.761  66.496  1.00  0.00    -0.128 C  
HETATM    2  C   UNL     1      -7.834   6.751  67.506  1.00  0.00    -0.111 C  
HETATM    3  N   UNL     1      -9.696   7.221  66.052  1.00  0.00    -0.410 NA 
HETATM    4  H1  UNL     1     -10.067   7.892  65.381  1.00  0.00     0.000 HD 
HETATM    5  C   UNL     1      -6.658   7.283  68.292  1.00  0.00    -0.049 C  
HETATM    6  H2  UNL     1     -10.336   7.021  66.822  1.00  0.00     0.000 HD 
HETATM    7  C   UNL     1      -6.896   8.704  68.800  1.00  0.00    -0.062 C  
HETATM    8  C   UNL     1      -8.405   9.275  66.971  1.00  0.00    -0.120 C  
HETATM    9  O   UNL     1      -7.256   9.614  67.749  1.00  0.00    -0.084 OA 
ENDROOT
BRANCH   7  10
HETATM   10  C   UNL     1      -5.566   9.204  69.426  1.00  0.00    -0.035 C  
HETATM   11  N   UNL     1      -5.750  10.354  70.311  1.00  0.00    -0.063 NA 
HETATM   12  H1  UNL     1      -4.876  10.682  70.722  1.00  0.00     0.000 HD 
HETATM   13  H2  UNL     1      -6.440  10.151  71.035  1.00  0.00     0.000 HD 
ENDBRANCH   7  10
BRANCH   8  14
HETATM   14  O   UNL     1      -9.652   9.602  67.584  1.00  0.00    -0.139 OA 
BRANCH  14  15
HETATM   15  C   UNL     1      -9.768  10.711  68.511  1.00  0.00    -0.174 C  
HETATM   16  C   UNL     1     -11.236  10.591  69.003  1.00  0.00    -0.259 C  
HETATM   17  N   UNL     1     -11.444   9.344  69.764  1.00  0.00    -0.440 NA 
HETATM   18  C   UNL     1     -11.743  11.711  69.891  1.00  0.00    -0.414 C  
HETATM   19  H2  UNL     1     -10.781   9.260  70.535  1.00  0.00     0.000 HD 
HETATM   20  H1  UNL     1     -12.408   9.265  70.087  1.00  0.00     0.000 HD 
HETATM   21  C   UNL     1     -11.480  13.097  69.326  1.00  0.00    -0.291 C  
HETATM   22  N   UNL     1     -12.082  14.015  70.306  1.00  0.00    -0.334 NA 
HETATM   23  C   UNL     1      -9.948  13.251  69.069  1.00  0.00     0.195 C  
HETATM   24  C   UNL     1      -9.485  12.173  67.999  1.00  0.00    -0.201 C  
HETATM   25  O   UNL     1      -8.078  12.332  67.745  1.00  0.00    -0.134 OA 
HETATM   26  H2  UNL     1     -11.746  13.884  71.260  1.00  0.00     0.000 HD 
HETATM   27  H1  UNL     1     -11.905  14.946  69.927  1.00  0.00     0.000 HD 
HETATM   28  H   UNL     1      -7.907  13.214  67.436  1.00  0.00     0.000 HD 
BRANCH  23  29
HETATM   29  O   UNL     1      -9.563  14.613  68.700  1.00  0.00    -0.211 OA 
BRANCH  29  30
HETATM   30  C   UNL     1      -8.261  14.652  68.049  1.00  0.00    -0.145 C  
HETATM   31  O   UNL     1      -8.211  15.682  67.053  1.00  0.00    -0.191 OA 
HETATM   32  C   UNL     1      -8.263  16.993  67.642  1.00  0.00    -0.185 C  
HETATM   33  C   UNL     1      -6.977  17.236  68.433  1.00  0.00    -0.202 C  
HETATM   34  H   UNL     1      -6.376  13.856  70.645  1.00  0.00     0.000 HD 
HETATM   35  O   UNL     1      -6.941  18.553  68.984  1.00  0.00    -0.276 OA 
HETATM   36  C   UNL     1      -6.869  16.187  69.566  1.00  0.00    -0.190 C  
HETATM   37  H1  UNL     1      -5.514  15.661  71.030  1.00  0.00     0.000 HD 
HETATM   38  H2  UNL     1      -5.458  17.304  70.628  1.00  0.00     0.000 HD 
HETATM   39  C   UNL     1      -7.051  14.765  69.012  1.00  0.00    -0.127 C  
HETATM   40  N   UNL     1      -5.585  16.353  70.283  1.00  0.00    -0.189 NA 
HETATM   41  H   UNL     1      -6.142  18.704  69.475  1.00  0.00     0.000 HD 
HETATM   42  O   UNL     1      -7.117  13.787  70.054  1.00  0.00     0.224 OA 
BRANCH  32  43
HETATM   43  C   UNL     1      -8.484  17.999  66.512  1.00  0.00    -0.261 C  
HETATM   44  O   UNL     1      -8.779  19.281  67.084  1.00  0.00    -0.280 OA 
HETATM   45  H   UNL     1      -8.917  19.906  66.382  1.00  0.00     0.000 HD 
ENDBRANCH  32  43
ENDBRANCH  29  30
ENDBRANCH  23  29
ENDBRANCH  14  15
ENDBRANCH   8  14
TORSDOF 6
ENDMDL
MODEL      251
REMARK 921   NORMALIZED FREE ENERGY PREDICTED BY IDOCK:   -2.46 KCAL/MOL
REMARK 922        TOTAL FREE ENERGY PREDICTED BY IDOCK:   -4.88 KCAL/MOL
REMARK 923 INTER-LIGAND FREE ENERGY PREDICTED BY IDOCK:   -3.92 KCAL/MOL
REMARK 924 INTRA-LIGAND FREE ENERGY PREDICTED BY IDOCK:   -0.95 KCAL/MOL
REMARK 927      BINDING AFFINITY PREDICTED BY RF-SCORE:    0.00 PKD
ROOT
HETATM    1  C   UNL     1     -12.907  13.768  71.399  1.00  0.00    -0.369 C  
HETATM    2  C   UNL     1     -13.677  14.967  70.832  1.00  0.00    -0.266 C  
HETATM    3  N   UNL     1     -13.884  12.662  71.499  1.00  0.00     0.414 NA 
HETATM    4  H1  UNL     1     -13.372  11.865  71.877  1.00  0.00     0.000 HD 
HETATM    5  C   UNL     1     -12.776  16.091  70.374  1.00  0.00     0.250 C  
HETATM    6  H2  UNL     1     -14.359  12.459  70.619  1.00  0.00     0.000 HD 
HETATM    7  C   UNL     1     -11.589  15.585  69.556  1.00  0.00    -0.350 C  
HETATM    8  C   UNL     1     -11.546  13.414  70.665  1.00  0.00     0.276 C  
HETATM    9  O   UNL     1     -10.832  14.576  70.243  1.00  0.00    -0.056 OA 
ENDROOT
BRANCH   7  10
HETATM   10  C   UNL     1     -10.649  16.795  69.302  1.00  0.00    -0.336 C  
HETATM   11  N   UNL     1     -10.935  17.932  70.176  1.00  0.00     0.818 NA 
HETATM   12  H1  UNL     1     -10.317  18.726  70.009  1.00  0.00     0.000 HD 
HETATM   13  H2  UNL     1     -10.912  17.652  71.157  1.00  0.00     0.000 HD 
ENDBRANCH   7  10
BRANCH   8  14
HETATM   14  O   UNL     1     -11.763  12.448  69.636  1.00  0.00    -0.300 OA 
BRANCH  14  15
HETATM   15  C   UNL     1     -10.878  12.356  68.491  1.00  0.00    -0.242 C  
HETATM   16  C   UNL     1     -11.847  12.572  67.295  1.00  0.00    -0.311 C  
HETATM   17  N   UNL     1     -12.423  13.930  67.314  1.00  0.00    -0.458 NA 
HETATM   18  C   UNL     1     -11.260  12.386  65.910  1.00  0.00    -0.373 C  
HETATM   19  H2  UNL     1     -11.697  14.645  67.342  1.00  0.00     0.000 HD 
HETATM   20  H1  UNL     1     -13.059  14.072  66.529  1.00  0.00     0.000 HD 
HETATM   21  C   UNL     1     -10.491  11.085  65.748  1.00  0.00    -0.228 C  
HETATM   22  N   UNL     1     -10.054  11.087  64.343  1.00  0.00    -0.306 NA 
HETATM   23  C   UNL     1      -9.370  11.027  66.832  1.00  0.00    -0.173 C  
HETATM   24  C   UNL     1     -10.033  11.046  68.274  1.00  0.00    -0.179 C  
HETATM   25  O   UNL     1      -8.999  10.968  69.272  1.00  0.00    -0.380 OA 
HETATM   26  H2  UNL     1      -9.527  11.918  64.072  1.00  0.00     0.000 HD 
HETATM   27  H1  UNL     1      -9.538  10.214  64.234  1.00  0.00     0.000 HD 
HETATM   28  H   UNL     1      -8.489  10.177  69.141  1.00  0.00     0.000 HD 
BRANCH  23  29
HETATM   29  O   UNL     1      -8.453   9.903  66.648  1.00  0.00    -0.124 OA 
BRANCH  29  30
HETATM   30  C   UNL     1      -9.164   8.648  66.450  1.00  0.00    -0.193 C  
HETATM   31  O   UNL     1      -9.059   8.200  65.093  1.00  0.00     0.064 OA 
HETATM   32  C   UNL     1      -7.714   7.807  64.766  1.00  0.00    -0.119 C  
HETATM   33  C   UNL     1      -7.356   6.549  65.558  1.00  0.00    -0.076 C  
HETATM   34  H   UNL     1      -8.566   7.262  69.392  1.00  0.00     0.000 HD 
HETATM   35  O   UNL     1      -6.053   6.070  65.220  1.00  0.00    -0.028 OA 
HETATM   36  C   UNL     1      -7.428   6.861  67.072  1.00  0.00    -0.087 C  
HETATM   37  H1  UNL     1      -7.220   5.834  68.849  1.00  0.00     0.000 HD 
HETATM   38  H2  UNL     1      -6.290   5.186  67.591  1.00  0.00     0.000 HD 
HETATM   39  C   UNL     1      -8.772   7.512  67.432  1.00  0.00    -0.124 C  
HETATM   40  N   UNL     1      -7.172   5.628  67.851  1.00  0.00    -0.071 NA 
HETATM   41  H   UNL     1      -5.831   5.288  65.711  1.00  0.00     0.000 HD 
HETATM   42  O   UNL     1      -8.806   7.957  68.791  1.00  0.00    -0.138 OA 
BRANCH  32  43
HETATM   43  C   UNL     1      -7.644   7.616  63.250  1.00  0.00    -0.119 C  
HETATM   44  O   UNL     1      -8.608   6.627  62.863  1.00  0.00    -0.340 OA 
HETATM   45  H   UNL     1      -8.564   6.508  61.922  1.00  0.00     0.000 HD 
ENDBRANCH  32  43
ENDBRANCH  29  30
ENDBRANCH  23  29
ENDBRANCH  14  15
ENDBRANCH   8  14
TORSDOF 6
ENDMDL
MODEL      252
REMARK 921   NORMALIZED FREE ENERGY PREDICTED BY IDOCK:   -2.42 KCAL/MOL
REMARK 922        TOTAL FREE ENERGY PREDICTED BY IDOCK:   -4.83 KCAL/MOL
REMARK 923 INTER-LIGAND FREE ENERGY PREDICTED BY IDOCK:   -4.15 KCAL/MOL
REMARK 924 INTRA-LIGAND FREE ENERGY PREDICTED BY IDOCK:   -0.68 KCAL/MOL
REMARK 927      BINDING AFFINITY PREDICTED BY RF-SCORE:    0.00 PKD
ROOT
HETATM    1  C   UNL     1     -12.474   7.470  72.256  1.00  0.00    -0.115 C  
HETATM    2  C   UNL     1     -11.838   6.671  73.400  1.00  0.00     1.042 C  
HETATM    3  N   UNL     1     -12.799   8.800  72.815  1.00  0.00    -0.577 NA 
HETATM    4  H1  UNL     1     -13.223   9.332  72.055  1.00  0.00     0.000 HD 
HETATM    5  C   UNL     1     -11.165   5.400  72.936  1.00  0.00    -0.372 C  
HETATM    6  H2  UNL     1     -11.999   9.269  73.241  1.00  0.00     0.000 HD 
HETATM    7  C   UNL     1     -10.307   5.620  71.691  1.00  0.00    -0.215 C  
HETATM    8  C   UNL     1     -11.666   7.481  70.891  1.00  0.00    -0.283 C  
HETATM    9  O   UNL     1     -11.040   6.227  70.615  1.00  0.00    -0.284 OA 
ENDROOT
BRANCH   7  10
HETATM   10  C   UNL     1      -9.821   4.226  71.208  1.00  0.00    -0.187 C  
HETATM   11  N   UNL     1      -9.813   4.099  69.751  1.00  0.00    -0.206 NA 
HETATM   12  H1  UNL     1      -9.493   3.184  69.434  1.00  0.00     0.000 HD 
HETATM   13  H2  UNL     1      -9.264   4.845  69.323  1.00  0.00     0.000 HD 
ENDBRANCH   7  10
BRANCH   8  14
HETATM   14  O   UNL     1     -10.788   8.605  70.833  1.00  0.00    -0.222 OA 
BRANCH  14  15
HETATM   15  C   UNL     1     -10.030   8.907  69.634  1.00  0.00    -0.191 C  
HETATM   16  C   UNL     1     -11.048   9.714  68.782  1.00  0.00    -0.049 C  
HETATM   17  N   UNL     1     -11.393  10.993  69.433  1.00  0.00    -0.258 NA 
HETATM   18  C   UNL     1     -10.619  10.066  67.372  1.00  0.00    -0.330 C  
HETATM   19  H2  UNL     1     -10.561  11.543  69.643  1.00  0.00     0.000 HD 
HETATM   20  H1  UNL     1     -12.062  11.523  68.874  1.00  0.00     0.000 HD 
HETATM   21  C   UNL     1     -10.088   8.877  66.587  1.00  0.00    -0.287 C  
HETATM   22  N   UNL     1      -9.777   9.423  65.256  1.00  0.00    -0.453 NA 
HETATM   23  C   UNL     1      -8.903   8.242  67.380  1.00  0.00    -0.131 C  
HETATM   24  C   UNL     1      -9.430   7.725  68.784  1.00  0.00    -0.149 C  
HETATM   25  O   UNL     1      -8.342   7.118  69.505  1.00  0.00    -0.130 OA 
HETATM   26  H2  UNL     1      -9.147  10.226  65.272  1.00  0.00     0.000 HD 
HETATM   27  H1  UNL     1      -9.420   8.626  64.729  1.00  0.00     0.000 HD 
HETATM   28  H   UNL     1      -7.980   6.404  68.992  1.00  0.00     0.000 HD 
BRANCH  23  29
HETATM   29  O   UNL     1      -8.200   7.205  66.625  1.00  0.00    -0.107 OA 
BRANCH  29  30
HETATM   30  C   UNL     1      -8.969   6.755  65.473  1.00  0.00     0.119 C  
HETATM   31  O   UNL     1      -8.238   6.945  64.255  1.00  0.00    -0.077 OA 
HETATM   32  C   UNL     1      -7.096   6.074  64.180  1.00  0.00    -0.053 C  
HETATM   33  C   UNL     1      -7.579   4.629  64.053  1.00  0.00    -0.068 C  
HETATM   34  H   UNL     1     -10.502   4.179  66.868  1.00  0.00     0.000 HD 
HETATM   35  O   UNL     1      -6.485   3.722  63.902  1.00  0.00    -0.032 OA 
HETATM   36  C   UNL     1      -8.406   4.255  65.306  1.00  0.00    -0.110 C  
HETATM   37  H1  UNL     1      -9.502   2.643  65.982  1.00  0.00     0.000 HD 
HETATM   38  H2  UNL     1      -8.228   2.202  64.957  1.00  0.00     0.000 HD 
HETATM   39  C   UNL     1      -9.501   5.301  65.570  1.00  0.00    -0.037 C  
HETATM   40  N   UNL     1      -8.956   2.889  65.156  1.00  0.00    -0.130 NA 
HETATM   41  H   UNL     1      -6.785   2.824  63.823  1.00  0.00     0.000 HD 
HETATM   42  O   UNL     1     -10.177   5.070  66.809  1.00  0.00    -0.211 OA 
BRANCH  32  43
HETATM   43  C   UNL     1      -6.238   6.538  63.002  1.00  0.00    -0.034 C  
HETATM   44  O   UNL     1      -5.695   5.384  62.342  1.00  0.00    -0.014 OA 
HETATM   45  H   UNL     1      -5.162   5.673  61.611  1.00  0.00     0.000 HD 
ENDBRANCH  32  43
ENDBRANCH  29  30
ENDBRANCH  23  29
ENDBRANCH  14  15
ENDBRANCH   8  14
TORSDOF 6
ENDMDL
MODEL      253
REMARK 921   NORMALIZED FREE ENERGY PREDICTED BY IDOCK:   -2.34 KCAL/MOL
REMARK 922        TOTAL FREE ENERGY PREDICTED BY IDOCK:   -4.72 KCAL/MOL
REMARK 923 INTER-LIGAND FREE ENERGY PREDICTED BY IDOCK:   -7.96 KCAL/MOL
REMARK 924 INTRA-LIGAND FREE ENERGY PREDICTED BY IDOCK:    3.24 KCAL/MOL
REMARK 927      BINDING AFFINITY PREDICTED BY RF-SCORE:    0.00 PKD
ROOT
HETATM    1  C   UNL     1      -5.131  16.784  67.782  1.00  0.00    -0.119 C  
HETATM    2  C   UNL     1      -6.038  16.773  69.019  1.00  0.00    -0.169 C  
HETATM    3  N   UNL     1      -5.215  15.426  67.200  1.00  0.00    -0.211 NA 
HETATM    4  H1  UNL     1      -4.611  15.433  66.378  1.00  0.00     0.000 HD 
HETATM    5  C   UNL     1      -6.318  18.155  69.564  1.00  0.00    -0.222 C  
HETATM    6  H2  UNL     1      -6.169  15.128  67.000  1.00  0.00     0.000 HD 
HETATM    7  C   UNL     1      -6.671  19.152  68.461  1.00  0.00    -0.268 C  
HETATM    8  C   UNL     1      -5.367  17.979  66.766  1.00  0.00    -0.138 C  
HETATM    9  O   UNL     1      -5.675  19.207  67.426  1.00  0.00    -0.165 OA 
ENDROOT
BRANCH   7  10
HETATM   10  C   UNL     1      -6.756  20.558  69.114  1.00  0.00    -0.005 C  
HETATM   11  N   UNL     1      -5.488  20.991  69.702  1.00  0.00    -0.424 NA 
HETATM   12  H1  UNL     1      -5.545  21.915  70.130  1.00  0.00     0.000 HD 
HETATM   13  H2  UNL     1      -4.736  20.954  69.014  1.00  0.00     0.000 HD 
ENDBRANCH   7  10
BRANCH   8  14
HETATM   14  O   UNL     1      -6.298  17.604  65.751  1.00  0.00    -0.201 OA 
BRANCH  14  15
HETATM   15  C   UNL     1      -7.715  17.480  66.037  1.00  0.00    -0.202 C  
HETATM   16  C   UNL     1      -8.111  18.933  66.422  1.00  0.00    -0.292 C  
HETATM   17  N   UNL     1      -7.959  19.849  65.275  1.00  0.00    -0.273 NA 
HETATM   18  C   UNL     1      -9.524  19.133  66.932  1.00  0.00    -0.368 C  
HETATM   19  H2  UNL     1      -8.480  19.521  64.462  1.00  0.00     0.000 HD 
HETATM   20  H1  UNL     1      -8.220  20.802  65.528  1.00  0.00     0.000 HD 
HETATM   21  C   UNL     1      -9.912  18.161  68.036  1.00  0.00    -0.345 C  
HETATM   22  N   UNL     1     -11.280  18.555  68.409  1.00  0.00     0.191 NA 
HETATM   23  C   UNL     1      -9.718  16.704  67.511  1.00  0.00    -0.247 C  
HETATM   24  C   UNL     1      -8.190  16.475  67.151  1.00  0.00    -0.179 C  
HETATM   25  O   UNL     1      -8.008  15.124  66.691  1.00  0.00    -0.329 OA 
HETATM   26  H2  UNL     1     -11.935  18.578  67.626  1.00  0.00     0.000 HD 
HETATM   27  H1  UNL     1     -11.541  17.903  69.149  1.00  0.00     0.000 HD 
HETATM   28  H   UNL     1      -8.296  14.517  67.364  1.00  0.00     0.000 HD 
BRANCH  23  29
HETATM   29  O   UNL     1     -10.240  15.692  68.429  1.00  0.00    -0.217 OA 
BRANCH  29  30
HETATM   30  C   UNL     1     -11.565  15.234  68.037  1.00  0.00    -0.312 C  
HETATM   31  O   UNL     1     -11.909  15.702  66.727  1.00  0.00     0.213 OA 
HETATM   32  C   UNL     1     -11.096  15.087  65.712  1.00  0.00    -0.346 C  
HETATM   33  C   UNL     1     -11.439  13.600  65.632  1.00  0.00    -0.308 C  
HETATM   34  H   UNL     1     -11.521  12.264  69.490  1.00  0.00     0.000 HD 
HETATM   35  O   UNL     1     -10.711  12.949  64.589  1.00  0.00    -0.314 OA 
HETATM   36  C   UNL     1     -11.127  12.929  66.991  1.00  0.00    -0.275 C  
HETATM   37  H1  UNL     1     -11.334  11.066  67.853  1.00  0.00     0.000 HD 
HETATM   38  H2  UNL     1     -11.118  11.005  66.175  1.00  0.00     0.000 HD 
HETATM   39  C   UNL     1     -11.786  13.702  68.145  1.00  0.00    -0.372 C  
HETATM   40  N   UNL     1     -11.540  11.508  66.957  1.00  0.00    -0.535 NA 
HETATM   41  H   UNL     1     -10.924  12.025  64.538  1.00  0.00     0.000 HD 
HETATM   42  O   UNL     1     -11.386  13.202  69.423  1.00  0.00    -0.258 OA 
BRANCH  32  43
HETATM   43  C   UNL     1     -11.339  15.843  64.405  1.00  0.00    -0.267 C  
HETATM   44  O   UNL     1     -12.507  15.304  63.770  1.00  0.00    -1.004 OA 
HETATM   45  H   UNL     1     -12.658  15.773  62.957  1.00  0.00     0.000 HD 
ENDBRANCH  32  43
ENDBRANCH  29  30
ENDBRANCH  23  29
ENDBRANCH  14  15
ENDBRANCH   8  14
TORSDOF 6
ENDMDL
MODEL      254
REMARK 921   NORMALIZED FREE ENERGY PREDICTED BY IDOCK:   -2.34 KCAL/MOL
REMARK 922        TOTAL FREE ENERGY PREDICTED BY IDOCK:   -4.72 KCAL/MOL
REMARK 923 INTER-LIGAND FREE ENERGY PREDICTED BY IDOCK:   -4.09 KCAL/MOL
REMARK 924 INTRA-LIGAND FREE ENERGY PREDICTED BY IDOCK:   -0.63 KCAL/MOL
REMARK 927      BINDING AFFINITY PREDICTED BY RF-SCORE:    0.00 PKD
ROOT
HETATM    1  C   UNL     1     -13.228  14.352  70.112  1.00  0.00     0.335 C  
HETATM    2  C   UNL     1     -12.507  15.640  70.527  1.00  0.00    -0.440 C  
HETATM    3  N   UNL     1     -12.695  13.994  68.779  1.00  0.00    -0.097 NA 
HETATM    4  H1  UNL     1     -13.175  13.137  68.503  1.00  0.00     0.000 HD 
HETATM    5  C   UNL     1     -12.697  15.986  71.986  1.00  0.00    -0.417 C  
HETATM    6  H2  UNL     1     -11.678  13.915  68.756  1.00  0.00     0.000 HD 
HETATM    7  C   UNL     1     -12.516  14.772  72.896  1.00  0.00    -0.337 C  
HETATM    8  C   UNL     1     -13.225  13.185  71.186  1.00  0.00    -0.032 C  
HETATM    9  O   UNL     1     -13.358  13.670  72.523  1.00  0.00    -0.508 OA 
ENDROOT
BRANCH   7  10
HETATM   10  C   UNL     1     -12.911  15.206  74.334  1.00  0.00     0.343 C  
HETATM   11  N   UNL     1     -12.809  16.650  74.542  1.00  0.00    -0.719 NA 
HETATM   12  H1  UNL     1     -13.069  16.934  75.487  1.00  0.00     0.000 HD 
HETATM   13  H2  UNL     1     -13.354  17.158  73.846  1.00  0.00     0.000 HD 
ENDBRANCH   7  10
BRANCH   8  14
HETATM   14  O   UNL     1     -12.113  12.312  70.981  1.00  0.00    -0.227 OA 
BRANCH  14  15
HETATM   15  C   UNL     1     -12.206  11.171  70.092  1.00  0.00    -0.337 C  
HETATM   16  C   UNL     1     -12.617  10.023  71.055  1.00  0.00    -0.367 C  
HETATM   17  N   UNL     1     -13.955  10.260  71.628  1.00  0.00     0.164 NA 
HETATM   18  C   UNL     1     -12.656   8.628  70.463  1.00  0.00     0.462 C  
HETATM   19  H2  UNL     1     -14.654  10.407  70.899  1.00  0.00     0.000 HD 
HETATM   20  H1  UNL     1     -14.225   9.506  72.260  1.00  0.00     0.000 HD 
HETATM   21  C   UNL     1     -11.396   8.260  69.697  1.00  0.00     0.218 C  
HETATM   22  N   UNL     1     -11.625   6.875  69.254  1.00  0.00    -0.581 NA 
HETATM   23  C   UNL     1     -11.159   9.324  68.581  1.00  0.00     0.111 C  
HETATM   24  C   UNL     1     -10.945  10.747  69.250  1.00  0.00    -0.241 C  
HETATM   25  O   UNL     1     -10.702  11.723  68.221  1.00  0.00    -0.196 OA 
HETATM   26  H2  UNL     1     -12.487   6.745  68.723  1.00  0.00     0.000 HD 
HETATM   27  H1  UNL     1     -10.780   6.627  68.740  1.00  0.00     0.000 HD 
HETATM   28  H   UNL     1      -9.941  11.467  67.712  1.00  0.00     0.000 HD 
BRANCH  23  29
HETATM   29  O   UNL     1     -10.076   8.963  67.666  1.00  0.00    -0.189 OA 
BRANCH  29  30
HETATM   30  C   UNL     1      -9.075   8.127  68.313  1.00  0.00    -0.135 C  
HETATM   31  O   UNL     1      -9.052   6.811  67.744  1.00  0.00    -0.120 OA 
HETATM   32  C   UNL     1      -8.565   6.825  66.391  1.00  0.00    -0.130 C  
HETATM   33  C   UNL     1      -7.085   7.207  66.398  1.00  0.00    -0.077 C  
HETATM   34  H   UNL     1      -6.779  10.438  68.877  1.00  0.00     0.000 HD 
HETATM   35  O   UNL     1      -6.527   7.168  65.083  1.00  0.00    -0.039 OA 
HETATM   36  C   UNL     1      -6.926   8.625  66.997  1.00  0.00    -0.074 C  
HETATM   37  H1  UNL     1      -5.386   9.906  67.489  1.00  0.00     0.000 HD 
HETATM   38  H2  UNL     1      -5.011   8.878  66.198  1.00  0.00     0.000 HD 
HETATM   39  C   UNL     1      -7.646   8.729  68.351  1.00  0.00    -0.095 C  
HETATM   40  N   UNL     1      -5.490   8.971  67.094  1.00  0.00    -0.040 NA 
HETATM   41  H   UNL     1      -5.607   7.405  65.087  1.00  0.00     0.000 HD 
HETATM   42  O   UNL     1      -7.654  10.068  68.853  1.00  0.00    -0.078 OA 
BRANCH  32  43
HETATM   43  C   UNL     1      -8.838   5.447  65.787  1.00  0.00    -0.151 C  
HETATM   44  O   UNL     1      -7.771   4.561  66.155  1.00  0.00    -0.092 OA 
HETATM   45  H   UNL     1      -7.940   3.705  65.779  1.00  0.00     0.000 HD 
ENDBRANCH  32  43
ENDBRANCH  29  30
ENDBRANCH  23  29
ENDBRANCH  14  15
ENDBRANCH   8  14
TORSDOF 6
ENDMDL
MODEL      255
REMARK 921   NORMALIZED FREE ENERGY PREDICTED BY IDOCK:   -2.34 KCAL/MOL
REMARK 922        TOTAL FREE ENERGY PREDICTED BY IDOCK:   -4.72 KCAL/MOL
REMARK 923 INTER-LIGAND FREE ENERGY PREDICTED BY IDOCK:   -7.22 KCAL/MOL
REMARK 924 INTRA-LIGAND FREE ENERGY PREDICTED BY IDOCK:    2.51 KCAL/MOL
REMARK 927      BINDING AFFINITY PREDICTED BY RF-SCORE:    0.00 PKD
ROOT
HETATM    1  C   UNL     1     -11.669   7.067  71.546  1.00  0.00    -0.300 C  
HETATM    2  C   UNL     1     -11.306   8.497  71.967  1.00  0.00    -0.425 C  
HETATM    3  N   UNL     1     -13.100   7.100  71.172  1.00  0.00    -0.542 NA 
HETATM    4  H1  UNL     1     -13.341   6.149  70.892  1.00  0.00     0.000 HD 
HETATM    5  C   UNL     1      -9.816   8.722  72.088  1.00  0.00    -0.347 C  
HETATM    6  H2  UNL     1     -13.318   7.799  70.461  1.00  0.00     0.000 HD 
HETATM    7  C   UNL     1      -9.044   8.135  70.908  1.00  0.00    -0.151 C  
HETATM    8  C   UNL     1     -10.699   6.394  70.486  1.00  0.00    -0.257 C  
HETATM    9  O   UNL     1      -9.330   6.743  70.696  1.00  0.00    -0.161 OA 
ENDROOT
BRANCH   7  10
HETATM   10  C   UNL     1      -7.530   8.264  71.231  1.00  0.00    -0.081 C  
HETATM   11  N   UNL     1      -6.760   7.084  70.837  1.00  0.00    -0.052 NA 
HETATM   12  H1  UNL     1      -5.767   7.170  71.050  1.00  0.00     0.000 HD 
HETATM   13  H2  UNL     1      -6.905   6.867  69.851  1.00  0.00     0.000 HD 
ENDBRANCH   7  10
BRANCH   8  14
HETATM   14  O   UNL     1     -11.169   6.620  69.156  1.00  0.00    -0.278 OA 
BRANCH  14  15
HETATM   15  C   UNL     1     -10.576   7.637  68.311  1.00  0.00    -0.124 C  
HETATM   16  C   UNL     1      -9.121   7.122  68.129  1.00  0.00    -0.133 C  
HETATM   17  N   UNL     1      -9.095   5.847  67.388  1.00  0.00    -0.111 NA 
HETATM   18  C   UNL     1      -8.164   8.047  67.403  1.00  0.00    -0.123 C  
HETATM   19  H2  UNL     1      -9.581   5.922  66.495  1.00  0.00     0.000 HD 
HETATM   20  H1  UNL     1      -8.140   5.508  67.269  1.00  0.00     0.000 HD 
HETATM   21  C   UNL     1      -8.166   9.467  67.946  1.00  0.00    -0.115 C  
HETATM   22  N   UNL     1      -7.153  10.170  67.142  1.00  0.00    -0.088 NA 
HETATM   23  C   UNL     1      -9.622  10.025  67.885  1.00  0.00    -0.145 C  
HETATM   24  C   UNL     1     -10.564   9.134  68.800  1.00  0.00    -0.181 C  
HETATM   25  O   UNL     1     -11.901   9.664  68.762  1.00  0.00    -0.154 OA 
HETATM   26  H2  UNL     1      -7.305  10.109  66.136  1.00  0.00     0.000 HD 
HETATM   27  H1  UNL     1      -7.153  11.123  67.506  1.00  0.00     0.000 HD 
HETATM   28  H   UNL     1     -11.894  10.568  69.057  1.00  0.00     0.000 HD 
BRANCH  23  29
HETATM   29  O   UNL     1      -9.703  11.449  68.210  1.00  0.00    -0.187 OA 
BRANCH  29  30
HETATM   30  C   UNL     1     -11.002  12.011  67.867  1.00  0.00    -0.220 C  
HETATM   31  O   UNL     1     -11.393  13.022  68.805  1.00  0.00    -0.252 OA 
HETATM   32  C   UNL     1     -10.555  14.187  68.710  1.00  0.00    -0.253 C  
HETATM   33  C   UNL     1     -10.803  14.872  67.366  1.00  0.00    -0.304 C  
HETATM   34  H   UNL     1     -10.747  11.893  64.573  1.00  0.00     0.000 HD 
HETATM   35  O   UNL     1     -10.049  16.078  67.244  1.00  0.00    -0.255 OA 
HETATM   36  C   UNL     1     -10.431  13.898  66.221  1.00  0.00    -0.287 C  
HETATM   37  H1  UNL     1     -10.506  13.872  64.160  1.00  0.00     0.000 HD 
HETATM   38  H2  UNL     1     -10.309  15.427  64.801  1.00  0.00     0.000 HD 
HETATM   39  C   UNL     1     -11.122  12.539  66.413  1.00  0.00    -0.290 C  
HETATM   40  N   UNL     1     -10.752  14.514  64.914  1.00  0.00    -0.420 NA 
HETATM   41  H   UNL     1     -10.203  16.504  66.409  1.00  0.00     0.000 HD 
HETATM   42  O   UNL     1     -10.673  11.570  65.463  1.00  0.00    -0.273 OA 
BRANCH  32  43
HETATM   43  C   UNL     1     -10.864  15.077  69.915  1.00  0.00    -0.246 C  
HETATM   44  O   UNL     1     -11.239  14.245  71.022  1.00  0.00    -0.472 OA 
HETATM   45  H   UNL     1     -11.431  14.798  71.770  1.00  0.00     0.000 HD 
ENDBRANCH  32  43
ENDBRANCH  29  30
ENDBRANCH  23  29
ENDBRANCH  14  15
ENDBRANCH   8  14
TORSDOF 6
ENDMDL
MODEL      256
REMARK 921   NORMALIZED FREE ENERGY PREDICTED BY IDOCK:   -2.29 KCAL/MOL
REMARK 922        TOTAL FREE ENERGY PREDICTED BY IDOCK:   -4.65 KCAL/MOL
REMARK 923 INTER-LIGAND FREE ENERGY PREDICTED BY IDOCK:   -7.30 KCAL/MOL
REMARK 924 INTRA-LIGAND FREE ENERGY PREDICTED BY IDOCK:    2.65 KCAL/MOL
REMARK 927      BINDING AFFINITY PREDICTED BY RF-SCORE:    0.00 PKD
ROOT
HETATM    1  C   UNL     1      -5.495  11.667  68.037  1.00  0.00    -0.045 C  
HETATM    2  C   UNL     1      -6.379  11.686  66.784  1.00  0.00    -0.114 C  
HETATM    3  N   UNL     1      -5.740  12.950  68.732  1.00  0.00    -0.066 NA 
HETATM    4  H1  UNL     1      -5.152  12.937  69.565  1.00  0.00     0.000 HD 
HETATM    5  C   UNL     1      -6.492  10.336  66.114  1.00  0.00    -0.103 C  
HETATM    6  H2  UNL     1      -6.725  13.121  68.934  1.00  0.00     0.000 HD 
HETATM    7  C   UNL     1      -6.745   9.212  67.118  1.00  0.00    -0.065 C  
HETATM    8  C   UNL     1      -5.608  10.367  68.940  1.00  0.00    -0.041 C  
HETATM    9  O   UNL     1      -5.766   9.176  68.167  1.00  0.00    -0.038 OA 
ENDROOT
BRANCH   7  10
HETATM   10  C   UNL     1      -6.661   7.868  66.343  1.00  0.00    -0.050 C  
HETATM   11  N   UNL     1      -7.656   7.762  65.276  1.00  0.00    -0.086 NA 
HETATM   12  H1  UNL     1      -7.600   6.880  64.768  1.00  0.00     0.000 HD 
HETATM   13  H2  UNL     1      -7.592   8.555  64.638  1.00  0.00     0.000 HD 
ENDBRANCH   7  10
BRANCH   8  14
HETATM   14  O   UNL     1      -6.591  10.544  69.960  1.00  0.00    -0.113 OA 
BRANCH  14  15
HETATM   15  C   UNL     1      -7.966  10.130  69.761  1.00  0.00    -0.161 C  
HETATM   16  C   UNL     1      -7.839   8.588  69.620  1.00  0.00    -0.095 C  
HETATM   17  N   UNL     1      -7.359   7.975  70.873  1.00  0.00    -0.056 NA 
HETATM   18  C   UNL     1      -9.103   7.839  69.245  1.00  0.00    -0.145 C  
HETATM   19  H2  UNL     1      -7.948   8.232  71.665  1.00  0.00     0.000 HD 
HETATM   20  H1  UNL     1      -7.276   6.962  70.780  1.00  0.00     0.000 HD 
HETATM   21  C   UNL     1      -9.822   8.429  68.043  1.00  0.00    -0.169 C  
HETATM   22  N   UNL     1     -10.975   7.538  67.830  1.00  0.00    -0.502 NA 
HETATM   23  C   UNL     1     -10.139   9.929  68.336  1.00  0.00    -0.167 C  
HETATM   24  C   UNL     1      -8.780  10.720  68.549  1.00  0.00    -0.149 C  
HETATM   25  O   UNL     1      -9.073  12.108  68.795  1.00  0.00    -0.375 OA 
HETATM   26  H2  UNL     1     -11.567   7.419  68.652  1.00  0.00     0.000 HD 
HETATM   27  H1  UNL     1     -11.458   7.934  67.023  1.00  0.00     0.000 HD 
HETATM   28  H   UNL     1      -9.564  12.464  68.063  1.00  0.00     0.000 HD 
BRANCH  23  29
HETATM   29  O   UNL     1     -10.995  10.542  67.321  1.00  0.00    -0.291 OA 
BRANCH  29  30
HETATM   30  C   UNL     1     -10.427  11.780  66.806  1.00  0.00    -0.225 C  
HETATM   31  O   UNL     1      -9.727  11.557  65.575  1.00  0.00    -0.220 OA 
HETATM   32  C   UNL     1     -10.626  11.203  64.509  1.00  0.00    -0.328 C  
HETATM   33  C   UNL     1     -11.503  12.410  64.176  1.00  0.00    -0.381 C  
HETATM   34  H   UNL     1     -12.811  13.863  67.762  1.00  0.00     0.000 HD 
HETATM   35  O   UNL     1     -12.370  12.140  63.073  1.00  0.00    -0.702 OA 
HETATM   36  C   UNL     1     -12.337  12.795  65.421  1.00  0.00    -0.470 C  
HETATM   37  H1  UNL     1     -13.673  14.271  65.963  1.00  0.00     0.000 HD 
HETATM   38  H2  UNL     1     -13.702  13.919  64.307  1.00  0.00     0.000 HD 
HETATM   39  C   UNL     1     -11.435  12.949  66.656  1.00  0.00    -0.343 C  
HETATM   40  N   UNL     1     -13.123  14.018  65.141  1.00  0.00    -0.759 NA 
HETATM   41  H   UNL     1     -12.914  12.890  62.865  1.00  0.00     0.000 HD 
HETATM   42  O   UNL     1     -12.193  13.147  67.853  1.00  0.00    -0.262 OA 
BRANCH  32  43
HETATM   43  C   UNL     1      -9.779  10.719  63.332  1.00  0.00    -0.351 C  
HETATM   44  O   UNL     1      -9.403   9.354  63.563  1.00  0.00    -0.431 OA 
HETATM   45  H   UNL     1      -8.876   9.053  62.831  1.00  0.00     0.000 HD 
ENDBRANCH  32  43
ENDBRANCH  29  30
ENDBRANCH  23  29
ENDBRANCH  14  15
ENDBRANCH   8  14
TORSDOF 6
ENDMDL
MODEL      257
REMARK 921   NORMALIZED FREE ENERGY PREDICTED BY IDOCK:   -2.29 KCAL/MOL
REMARK 922        TOTAL FREE ENERGY PREDICTED BY IDOCK:   -4.64 KCAL/MOL
REMARK 923 INTER-LIGAND FREE ENERGY PREDICTED BY IDOCK:   -3.63 KCAL/MOL
REMARK 924 INTRA-LIGAND FREE ENERGY PREDICTED BY IDOCK:   -1.02 KCAL/MOL
REMARK 927      BINDING AFFINITY PREDICTED BY RF-SCORE:    0.00 PKD
ROOT
HETATM    1  C   UNL     1     -12.463   6.345  72.315  1.00  0.00    -0.059 C  
HETATM    2  C   UNL     1     -11.730   5.370  73.243  1.00  0.00     0.035 C  
HETATM    3  N   UNL     1     -13.123   7.334  73.196  1.00  0.00     1.101 NA 
HETATM    4  H1  UNL     1     -13.610   7.982  72.578  1.00  0.00     0.000 HD 
HETATM    5  C   UNL     1     -10.752   4.476  72.516  1.00  0.00    -0.192 C  
HETATM    6  H2  UNL     1     -12.481   7.794  73.842  1.00  0.00     0.000 HD 
HETATM    7  C   UNL     1      -9.894   5.249  71.516  1.00  0.00    -0.172 C  
HETATM    8  C   UNL     1     -11.597   6.953  71.133  1.00  0.00    -0.319 C  
HETATM    9  O   UNL     1     -10.681   6.006  70.582  1.00  0.00    -0.241 OA 
ENDROOT
BRANCH   7  10
HETATM   10  C   UNL     1      -9.068   4.210  70.709  1.00  0.00    -0.111 C  
HETATM   11  N   UNL     1      -9.209   4.370  69.262  1.00  0.00    -0.125 NA 
HETATM   12  H1  UNL     1      -8.666   3.688  68.733  1.00  0.00     0.000 HD 
HETATM   13  H2  UNL     1      -8.977   5.321  68.976  1.00  0.00     0.000 HD 
ENDBRANCH   7  10
BRANCH   8  14
HETATM   14  O   UNL     1     -11.003   8.190  71.526  1.00  0.00    -0.231 OA 
BRANCH  14  15
HETATM   15  C   UNL     1     -10.437   9.098  70.547  1.00  0.00    -0.236 C  
HETATM   16  C   UNL     1     -11.686   9.871  70.038  1.00  0.00    -0.124 C  
HETATM   17  N   UNL     1     -12.286  10.683  71.114  1.00  0.00    -0.369 NA 
HETATM   18  C   UNL     1     -11.465  10.817  68.875  1.00  0.00    -0.362 C  
HETATM   19  H2  UNL     1     -11.602  11.311  71.536  1.00  0.00     0.000 HD 
HETATM   20  H1  UNL     1     -13.105  11.190  70.781  1.00  0.00     0.000 HD 
HETATM   21  C   UNL     1     -10.718  10.182  67.712  1.00  0.00    -0.277 C  
HETATM   22  N   UNL     1     -10.654  11.242  66.693  1.00  0.00    -0.252 NA 
HETATM   23  C   UNL     1      -9.356   9.628  68.235  1.00  0.00    -0.133 C  
HETATM   24  C   UNL     1      -9.630   8.512  69.329  1.00  0.00    -0.170 C  
HETATM   25  O   UNL     1      -8.373   7.984  69.793  1.00  0.00    -0.119 OA 
HETATM   26  H2  UNL     1     -10.244  12.115  67.025  1.00  0.00     0.000 HD 
HETATM   27  H1  UNL     1     -10.153  10.817  65.913  1.00  0.00     0.000 HD 
HETATM   28  H   UNL     1      -7.886   7.630  69.058  1.00  0.00     0.000 HD 
BRANCH  23  29
HETATM   29  O   UNL     1      -8.477   9.164  67.162  1.00  0.00    -0.119 OA 
BRANCH  29  30
HETATM   30  C   UNL     1      -9.231   8.648  66.028  1.00  0.00    -0.216 C  
HETATM   31  O   UNL     1      -8.975   9.415  64.844  1.00  0.00    -0.202 OA 
HETATM   32  C   UNL     1      -7.625   9.240  64.379  1.00  0.00    -0.115 C  
HETATM   33  C   UNL     1      -7.450   7.803  63.886  1.00  0.00    -0.107 C  
HETATM   34  H   UNL     1      -9.108   5.427  66.764  1.00  0.00     0.000 HD 
HETATM   35  O   UNL     1      -6.145   7.590  63.345  1.00  0.00    -0.052 OA 
HETATM   36  C   UNL     1      -7.701   6.827  65.060  1.00  0.00    -0.108 C  
HETATM   37  H1  UNL     1      -7.791   4.786  65.350  1.00  0.00     0.000 HD 
HETATM   38  H2  UNL     1      -6.744   5.237  64.098  1.00  0.00     0.000 HD 
HETATM   39  C   UNL     1      -9.040   7.134  65.750  1.00  0.00     0.058 C  
HETATM   40  N   UNL     1      -7.625   5.430  64.576  1.00  0.00    -0.074 NA 
HETATM   41  H   UNL     1      -6.036   6.698  63.038  1.00  0.00     0.000 HD 
HETATM   42  O   UNL     1      -9.225   6.355  66.934  1.00  0.00    -0.127 OA 
BRANCH  32  43
HETATM   43  C   UNL     1      -7.368  10.293  63.300  1.00  0.00    -0.110 C  
HETATM   44  O   UNL     1      -6.440   9.759  62.345  1.00  0.00    -0.099 OA 
HETATM   45  H   UNL     1      -6.280  10.413  61.675  1.00  0.00     0.000 HD 
ENDBRANCH  32  43
ENDBRANCH  29  30
ENDBRANCH  23  29
ENDBRANCH  14  15
ENDBRANCH   8  14
TORSDOF 6
ENDMDL
MODEL      258
REMARK 921   NORMALIZED FREE ENERGY PREDICTED BY IDOCK:   -2.26 KCAL/MOL
REMARK 922        TOTAL FREE ENERGY PREDICTED BY IDOCK:   -4.61 KCAL/MOL
REMARK 923 INTER-LIGAND FREE ENERGY PREDICTED BY IDOCK:   -5.16 KCAL/MOL
REMARK 924 INTRA-LIGAND FREE ENERGY PREDICTED BY IDOCK:    0.55 KCAL/MOL
REMARK 927      BINDING AFFINITY PREDICTED BY RF-SCORE:    0.00 PKD
ROOT
HETATM    1  C   UNL     1      -6.864  13.019  68.880  1.00  0.00    -0.099 C  
HETATM    2  C   UNL     1      -8.052  13.867  68.408  1.00  0.00    -0.145 C  
HETATM    3  N   UNL     1      -6.712  13.294  70.325  1.00  0.00    -0.255 NA 
HETATM    4  H1  UNL     1      -5.922  12.730  70.639  1.00  0.00     0.000 HD 
HETATM    5  C   UNL     1      -8.547  13.485  67.032  1.00  0.00    -0.169 C  
HETATM    6  H2  UNL     1      -7.564  13.132  70.862  1.00  0.00     0.000 HD 
HETATM    7  C   UNL     1      -8.672  11.971  66.862  1.00  0.00    -0.193 C  
HETATM    8  C   UNL     1      -6.911  11.484  68.477  1.00  0.00    -0.083 C  
HETATM    9  O   UNL     1      -7.454  11.277  67.172  1.00  0.00    -0.115 OA 
ENDROOT
BRANCH   7  10
HETATM   10  C   UNL     1      -9.009  11.697  65.371  1.00  0.00     0.090 C  
HETATM   11  N   UNL     1      -8.162  10.662  64.776  1.00  0.00    -0.335 NA 
HETATM   12  H1  UNL     1      -8.384  10.482  63.797  1.00  0.00     0.000 HD 
HETATM   13  H2  UNL     1      -8.200   9.802  65.323  1.00  0.00     0.000 HD 
ENDBRANCH   7  10
BRANCH   8  14
HETATM   14  O   UNL     1      -7.530  10.710  69.505  1.00  0.00    -0.133 OA 
BRANCH  14  15
HETATM   15  C   UNL     1      -8.103   9.408  69.224  1.00  0.00    -0.105 C  
HETATM   16  C   UNL     1      -9.128   9.233  70.379  1.00  0.00    -0.247 C  
HETATM   17  N   UNL     1     -10.210  10.232  70.290  1.00  0.00    -0.420 NA 
HETATM   18  C   UNL     1      -9.812   7.883  70.474  1.00  0.00    -0.186 C  
HETATM   19  H2  UNL     1     -10.665  10.210  69.378  1.00  0.00     0.000 HD 
HETATM   20  H1  UNL     1     -10.883  10.116  71.048  1.00  0.00     0.000 HD 
HETATM   21  C   UNL     1      -8.845   6.711  70.432  1.00  0.00    -0.152 C  
HETATM   22  N   UNL     1      -9.701   5.522  70.581  1.00  0.00    -0.169 NA 
HETATM   23  C   UNL     1      -7.998   6.806  69.125  1.00  0.00    -0.112 C  
HETATM   24  C   UNL     1      -7.158   8.152  69.143  1.00  0.00    -0.061 C  
HETATM   25  O   UNL     1      -6.358   8.228  67.949  1.00  0.00    -0.050 OA 
HETATM   26  H2  UNL     1     -10.455   5.464  69.896  1.00  0.00     0.000 HD 
HETATM   27  H1  UNL     1      -9.053   4.735  70.553  1.00  0.00     0.000 HD 
HETATM   28  H   UNL     1      -5.787   7.470  67.900  1.00  0.00     0.000 HD 
BRANCH  23  29
HETATM   29  O   UNL     1      -7.166   5.625  68.895  1.00  0.00    -0.073 OA 
BRANCH  29  30
HETATM   30  C   UNL     1      -7.510   4.953  67.650  1.00  0.00    -0.079 C  
HETATM   31  O   UNL     1      -8.918   5.022  67.395  1.00  0.00    -0.109 OA 
HETATM   32  C   UNL     1      -9.341   6.366  67.106  1.00  0.00    -0.124 C  
HETATM   33  C   UNL     1      -8.742   6.801  65.768  1.00  0.00    -0.110 C  
HETATM   34  H   UNL     1      -4.807   5.716  65.904  1.00  0.00     0.000 HD 
HETATM   35  O   UNL     1      -9.186   8.106  65.394  1.00  0.00    -0.403 OA 
HETATM   36  C   UNL     1      -7.198   6.776  65.869  1.00  0.00    -0.070 C  
HETATM   37  H1  UNL     1      -5.586   7.090  64.620  1.00  0.00     0.000 HD 
HETATM   38  H2  UNL     1      -6.951   7.994  64.187  1.00  0.00     0.000 HD 
HETATM   39  C   UNL     1      -6.707   5.424  66.409  1.00  0.00    -0.057 C  
HETATM   40  N   UNL     1      -6.604   7.107  64.553  1.00  0.00    -0.042 NA 
HETATM   41  H   UNL     1      -8.814   8.376  64.563  1.00  0.00     0.000 HD 
HETATM   42  O   UNL     1      -5.299   5.427  66.664  1.00  0.00    -0.008 OA 
BRANCH  32  43
HETATM   43  C   UNL     1     -10.870   6.385  67.126  1.00  0.00    -0.393 C  
HETATM   44  O   UNL     1     -11.356   5.532  66.080  1.00  0.00    -0.751 OA 
HETATM   45  H   UNL     1     -12.306   5.543  66.093  1.00  0.00     0.000 HD 
ENDBRANCH  32  43
ENDBRANCH  29  30
ENDBRANCH  23  29
ENDBRANCH  14  15
ENDBRANCH   8  14
TORSDOF 6
ENDMDL
MODEL      259
REMARK 921   NORMALIZED FREE ENERGY PREDICTED BY IDOCK:   -2.21 KCAL/MOL
REMARK 922        TOTAL FREE ENERGY PREDICTED BY IDOCK:   -4.54 KCAL/MOL
REMARK 923 INTER-LIGAND FREE ENERGY PREDICTED BY IDOCK:   -4.60 KCAL/MOL
REMARK 924 INTRA-LIGAND FREE ENERGY PREDICTED BY IDOCK:    0.06 KCAL/MOL
REMARK 927      BINDING AFFINITY PREDICTED BY RF-SCORE:    0.00 PKD
ROOT
HETATM    1  C   UNL     1      -7.104  12.128  66.812  1.00  0.00     0.101 C  
HETATM    2  C   UNL     1      -8.256  12.844  67.527  1.00  0.00    -0.184 C  
HETATM    3  N   UNL     1      -5.881  12.896  67.131  1.00  0.00    -0.446 NA 
HETATM    4  H1  UNL     1      -5.115  12.420  66.655  1.00  0.00     0.000 HD 
HETATM    5  C   UNL     1      -9.530  12.032  67.568  1.00  0.00    -0.178 C  
HETATM    6  H2  UNL     1      -5.725  13.015  68.132  1.00  0.00     0.000 HD 
HETATM    7  C   UNL     1      -9.275  10.577  67.960  1.00  0.00    -0.142 C  
HETATM    8  C   UNL     1      -7.011  10.562  67.055  1.00  0.00    -0.089 C  
HETATM    9  O   UNL     1      -8.295   9.941  67.124  1.00  0.00    -0.120 OA 
ENDROOT
BRANCH   7  10
HETATM   10  C   UNL     1     -10.614   9.808  67.791  1.00  0.00    -0.266 C  
HETATM   11  N   UNL     1     -11.776  10.584  68.225  1.00  0.00    -0.744 NA 
HETATM   12  H1  UNL     1     -12.655  10.079  68.114  1.00  0.00     0.000 HD 
HETATM   13  H2  UNL     1     -11.810  11.486  67.749  1.00  0.00     0.000 HD 
ENDBRANCH   7  10
BRANCH   8  14
HETATM   14  O   UNL     1      -6.153  10.272  68.159  1.00  0.00    -0.048 OA 
BRANCH  14  15
HETATM   15  C   UNL     1      -6.641   9.561  69.324  1.00  0.00    -0.048 C  
HETATM   16  C   UNL     1      -5.963  10.323  70.496  1.00  0.00    -0.106 C  
HETATM   17  N   UNL     1      -6.449  11.714  70.580  1.00  0.00    -0.507 NA 
HETATM   18  C   UNL     1      -6.147   9.733  71.880  1.00  0.00     0.270 C  
HETATM   19  H2  UNL     1      -7.466  11.753  70.645  1.00  0.00     0.000 HD 
HETATM   20  H1  UNL     1      -6.004  12.215  71.349  1.00  0.00     0.000 HD 
HETATM   21  C   UNL     1      -5.828   8.248  71.952  1.00  0.00    -0.041 C  
HETATM   22  N   UNL     1      -6.026   7.897  73.368  1.00  0.00    -0.061 NA 
HETATM   23  C   UNL     1      -6.715   7.495  70.911  1.00  0.00    -0.043 C  
HETATM   24  C   UNL     1      -6.368   8.016  69.453  1.00  0.00    -0.035 C  
HETATM   25  O   UNL     1      -7.168   7.303  68.492  1.00  0.00    -0.088 OA 
HETATM   26  H2  UNL     1      -6.946   8.143  73.733  1.00  0.00     0.000 HD 
HETATM   27  H1  UNL     1      -5.812   6.900  73.416  1.00  0.00     0.000 HD 
HETATM   28  H   UNL     1      -7.003   6.370  68.570  1.00  0.00     0.000 HD 
BRANCH  23  29
HETATM   29  O   UNL     1      -6.622   6.040  71.027  1.00  0.00    -0.046 OA 
BRANCH  29  30
HETATM   30  C   UNL     1      -7.831   5.462  71.597  1.00  0.00    -0.111 C  
HETATM   31  O   UNL     1      -8.579   6.441  72.328  1.00  0.00    -0.118 OA 
HETATM   32  C   UNL     1      -9.137   7.443  71.459  1.00  0.00    -0.139 C  
HETATM   33  C   UNL     1     -10.209   6.798  70.580  1.00  0.00    -0.192 C  
HETATM   34  H   UNL     1      -8.562   3.337  69.172  1.00  0.00     0.000 HD 
HETATM   35  O   UNL     1     -10.849   7.762  69.743  1.00  0.00    -0.256 OA 
HETATM   36  C   UNL     1      -9.560   5.693  69.712  1.00  0.00    -0.159 C  
HETATM   37  H1  UNL     1     -10.175   4.270  68.350  1.00  0.00     0.000 HD 
HETATM   38  H2  UNL     1     -11.158   5.649  68.364  1.00  0.00     0.000 HD 
HETATM   39  C   UNL     1      -8.744   4.724  70.582  1.00  0.00    -0.108 C  
HETATM   40  N   UNL     1     -10.603   4.999  68.922  1.00  0.00     0.001 NA 
HETATM   41  H   UNL     1     -11.516   7.362  69.197  1.00  0.00     0.000 HD 
HETATM   42  O   UNL     1      -8.004   3.788  69.794  1.00  0.00    -0.051 OA 
BRANCH  32  43
HETATM   43  C   UNL     1      -9.668   8.575  72.339  1.00  0.00    -0.287 C  
HETATM   44  O   UNL     1     -11.070   8.370  72.562  1.00  0.00    -0.361 OA 
HETATM   45  H   UNL     1     -11.400   9.073  73.109  1.00  0.00     0.000 HD 
ENDBRANCH  32  43
ENDBRANCH  29  30
ENDBRANCH  23  29
ENDBRANCH  14  15
ENDBRANCH   8  14
TORSDOF 6
ENDMDL
MODEL      260
REMARK 921   NORMALIZED FREE ENERGY PREDICTED BY IDOCK:   -2.13 KCAL/MOL
REMARK 922        TOTAL FREE ENERGY PREDICTED BY IDOCK:   -4.43 KCAL/MOL
REMARK 923 INTER-LIGAND FREE ENERGY PREDICTED BY IDOCK:   -4.31 KCAL/MOL
REMARK 924 INTRA-LIGAND FREE ENERGY PREDICTED BY IDOCK:   -0.12 KCAL/MOL
REMARK 927      BINDING AFFINITY PREDICTED BY RF-SCORE:    0.00 PKD
ROOT
HETATM    1  C   UNL     1      -9.255   2.762  65.970  1.00  0.00    -0.076 C  
HETATM    2  C   UNL     1      -9.550   3.997  65.109  1.00  0.00    -0.181 C  
HETATM    3  N   UNL     1      -8.158   2.039  65.290  1.00  0.00    -0.078 NA 
HETATM    4  H1  UNL     1      -7.962   1.219  65.863  1.00  0.00     0.000 HD 
HETATM    5  C   UNL     1     -10.428   5.012  65.804  1.00  0.00    -0.166 C  
HETATM    6  H2  UNL     1      -7.337   2.618  65.117  1.00  0.00     0.000 HD 
HETATM    7  C   UNL     1      -9.988   5.268  67.245  1.00  0.00    -0.177 C  
HETATM    8  C   UNL     1      -9.036   3.039  67.518  1.00  0.00    -0.180 C  
HETATM    9  O   UNL     1      -9.899   4.061  68.019  1.00  0.00    -0.116 OA 
ENDROOT
BRANCH   7  10
HETATM   10  C   UNL     1     -11.060   6.177  67.905  1.00  0.00    -0.206 C  
HETATM   11  N   UNL     1     -11.148   7.498  67.283  1.00  0.00    -0.532 NA 
HETATM   12  H1  UNL     1     -11.852   8.095  67.716  1.00  0.00     0.000 HD 
HETATM   13  H2  UNL     1     -11.306   7.418  66.278  1.00  0.00     0.000 HD 
ENDBRANCH   7  10
BRANCH   8  14
HETATM   14  O   UNL     1      -7.652   3.240  67.804  1.00  0.00    -0.064 OA 
BRANCH  14  15
HETATM   15  C   UNL     1      -7.221   4.222  68.780  1.00  0.00    -0.055 C  
HETATM   16  C   UNL     1      -8.162   3.941  69.984  1.00  0.00    -0.056 C  
HETATM   17  N   UNL     1      -7.916   2.601  70.552  1.00  0.00    -0.042 NA 
HETATM   18  C   UNL     1      -8.076   4.909  71.147  1.00  0.00    -0.101 C  
HETATM   19  H2  UNL     1      -6.937   2.474  70.804  1.00  0.00     0.000 HD 
HETATM   20  H1  UNL     1      -8.534   2.417  71.342  1.00  0.00     0.000 HD 
HETATM   21  C   UNL     1      -8.164   6.368  70.727  1.00  0.00    -0.125 C  
HETATM   22  N   UNL     1      -8.107   7.119  71.992  1.00  0.00    -0.099 NA 
HETATM   23  C   UNL     1      -7.038   6.658  69.686  1.00  0.00    -0.068 C  
HETATM   24  C   UNL     1      -7.263   5.750  68.404  1.00  0.00    -0.079 C  
HETATM   25  O   UNL     1      -6.238   6.036  67.435  1.00  0.00    -0.030 OA 
HETATM   26  H2  UNL     1      -7.295   6.901  72.569  1.00  0.00     0.000 HD 
HETATM   27  H1  UNL     1      -8.166   8.098  71.710  1.00  0.00     0.000 HD 
HETATM   28  H   UNL     1      -6.263   6.959  67.208  1.00  0.00     0.000 HD 
BRANCH  23  29
HETATM   29  O   UNL     1      -6.916   8.078  69.357  1.00  0.00    -0.053 OA 
BRANCH  29  30
HETATM   30  C   UNL     1      -7.686   8.430  68.172  1.00  0.00    -0.103 C  
HETATM   31  O   UNL     1      -9.008   8.860  68.521  1.00  0.00    -0.134 OA 
HETATM   32  C   UNL     1      -8.991  10.117  69.220  1.00  0.00    -0.183 C  
HETATM   33  C   UNL     1      -8.530  11.214  68.260  1.00  0.00    -0.145 C  
HETATM   34  H   UNL     1      -5.245   9.717  66.350  1.00  0.00     0.000 HD 
HETATM   35  O   UNL     1      -8.561  12.500  68.880  1.00  0.00    -0.351 OA 
HETATM   36  C   UNL     1      -7.095  10.897  67.773  1.00  0.00    -0.082 C  
HETATM   37  H1  UNL     1      -5.725  11.693  66.452  1.00  0.00     0.000 HD 
HETATM   38  H2  UNL     1      -6.754  12.856  67.128  1.00  0.00     0.000 HD 
HETATM   39  C   UNL     1      -7.007   9.461  67.233  1.00  0.00    -0.085 C  
HETATM   40  N   UNL     1      -6.671  11.903  66.773  1.00  0.00    -0.071 NA 
HETATM   41  H   UNL     1      -8.275  13.182  68.284  1.00  0.00     0.000 HD 
HETATM   42  O   UNL     1      -5.662   9.085  66.925  1.00  0.00    -0.044 OA 
BRANCH  32  43
HETATM   43  C   UNL     1     -10.392  10.349  69.787  1.00  0.00    -0.208 C  
HETATM   44  O   UNL     1     -11.181   9.170  69.570  1.00  0.00    -0.425 OA 
HETATM   45  H   UNL     1     -12.051   9.315  69.923  1.00  0.00     0.000 HD 
ENDBRANCH  32  43
ENDBRANCH  29  30
ENDBRANCH  23  29
ENDBRANCH  14  15
ENDBRANCH   8  14
TORSDOF 6
ENDMDL
MODEL      261
REMARK 921   NORMALIZED FREE ENERGY PREDICTED BY IDOCK:   -2.06 KCAL/MOL
REMARK 922        TOTAL FREE ENERGY PREDICTED BY IDOCK:   -4.34 KCAL/MOL
REMARK 923 INTER-LIGAND FREE ENERGY PREDICTED BY IDOCK:   -6.33 KCAL/MOL
REMARK 924 INTRA-LIGAND FREE ENERGY PREDICTED BY IDOCK:    1.99 KCAL/MOL
REMARK 927      BINDING AFFINITY PREDICTED BY RF-SCORE:    0.00 PKD
ROOT
HETATM    1  C   UNL     1     -12.019   7.706  71.770  1.00  0.00    -0.299 C  
HETATM    2  C   UNL     1     -11.000   8.810  72.079  1.00  0.00    -0.438 C  
HETATM    3  N   UNL     1     -12.996   8.300  70.830  1.00  0.00    -0.487 NA 
HETATM    4  H1  UNL     1     -13.673   7.566  70.625  1.00  0.00     0.000 HD 
HETATM    5  C   UNL     1      -9.761   8.299  72.778  1.00  0.00    -0.336 C  
HETATM    6  H2  UNL     1     -12.565   8.700  69.996  1.00  0.00     0.000 HD 
HETATM    7  C   UNL     1      -9.219   7.024  72.134  1.00  0.00    -0.130 C  
HETATM    8  C   UNL     1     -11.408   6.310  71.330  1.00  0.00    -0.297 C  
HETATM    9  O   UNL     1     -10.210   5.988  72.038  1.00  0.00    -0.188 OA 
ENDROOT
BRANCH   7  10
HETATM   10  C   UNL     1      -8.070   6.499  73.037  1.00  0.00    -0.107 C  
HETATM   11  N   UNL     1      -7.996   5.039  73.075  1.00  0.00    -0.100 NA 
HETATM   12  H1  UNL     1      -7.241   4.694  73.668  1.00  0.00     0.000 HD 
HETATM   13  H2  UNL     1      -7.924   4.653  72.133  1.00  0.00     0.000 HD 
ENDBRANCH   7  10
BRANCH   8  14
HETATM   14  O   UNL     1     -11.293   6.233  69.909  1.00  0.00    -0.397 OA 
BRANCH  14  15
HETATM   15  C   UNL     1     -10.173   6.834  69.211  1.00  0.00    -0.181 C  
HETATM   16  C   UNL     1      -8.958   6.054  69.784  1.00  0.00    -0.133 C  
HETATM   17  N   UNL     1      -9.013   4.628  69.407  1.00  0.00    -0.092 NA 
HETATM   18  C   UNL     1      -7.585   6.543  69.366  1.00  0.00    -0.096 C  
HETATM   19  H2  UNL     1      -9.093   4.510  68.398  1.00  0.00     0.000 HD 
HETATM   20  H1  UNL     1      -8.215   4.116  69.783  1.00  0.00     0.000 HD 
HETATM   21  C   UNL     1      -7.395   8.040  69.550  1.00  0.00    -0.086 C  
HETATM   22  N   UNL     1      -6.005   8.288  69.134  1.00  0.00    -0.038 NA 
HETATM   23  C   UNL     1      -8.510   8.788  68.754  1.00  0.00    -0.129 C  
HETATM   24  C   UNL     1      -9.930   8.384  69.336  1.00  0.00    -0.191 C  
HETATM   25  O   UNL     1     -10.956   9.093  68.618  1.00  0.00    -0.429 OA 
HETATM   26  H2  UNL     1      -5.784   7.952  68.196  1.00  0.00     0.000 HD 
HETATM   27  H1  UNL     1      -5.877   9.293  69.256  1.00  0.00     0.000 HD 
HETATM   28  H   UNL     1     -10.809  10.029  68.693  1.00  0.00     0.000 HD 
BRANCH  23  29
HETATM   29  O   UNL     1      -8.308  10.236  68.710  1.00  0.00    -0.110 OA 
BRANCH  29  30
HETATM   30  C   UNL     1      -7.995  10.701  67.366  1.00  0.00    -0.111 C  
HETATM   31  O   UNL     1      -9.176  11.134  66.679  1.00  0.00    -0.167 OA 
HETATM   32  C   UNL     1      -9.722  12.330  67.263  1.00  0.00    -0.195 C  
HETATM   33  C   UNL     1      -8.754  13.489  67.020  1.00  0.00    -0.187 C  
HETATM   34  H   UNL     1      -5.049  12.068  67.981  1.00  0.00     0.000 HD 
HETATM   35  O   UNL     1      -9.278  14.722  67.517  1.00  0.00    -0.190 OA 
HETATM   36  C   UNL     1      -7.401  13.176  67.703  1.00  0.00    -0.154 C  
HETATM   37  H1  UNL     1      -5.534  14.041  67.849  1.00  0.00     0.000 HD 
HETATM   38  H2  UNL     1      -6.779  15.171  67.653  1.00  0.00     0.000 HD 
HETATM   39  C   UNL     1      -6.890  11.786  67.291  1.00  0.00    -0.134 C  
HETATM   40  N   UNL     1      -6.426  14.248  67.399  1.00  0.00    -0.300 NA 
HETATM   41  H   UNL     1      -8.678  15.442  67.366  1.00  0.00     0.000 HD 
HETATM   42  O   UNL     1      -5.726  11.403  68.027  1.00  0.00    -0.043 OA 
BRANCH  32  43
HETATM   43  C   UNL     1     -11.107  12.552  66.653  1.00  0.00    -0.283 C  
HETATM   44  O   UNL     1     -11.192  11.821  65.421  1.00  0.00    -0.304 OA 
HETATM   45  H   UNL     1     -12.053  11.959  65.043  1.00  0.00     0.000 HD 
ENDBRANCH  32  43
ENDBRANCH  29  30
ENDBRANCH  23  29
ENDBRANCH  14  15
ENDBRANCH   8  14
TORSDOF 6
ENDMDL
MODEL      262
REMARK 921   NORMALIZED FREE ENERGY PREDICTED BY IDOCK:   -2.00 KCAL/MOL
REMARK 922        TOTAL FREE ENERGY PREDICTED BY IDOCK:   -4.26 KCAL/MOL
REMARK 923 INTER-LIGAND FREE ENERGY PREDICTED BY IDOCK:   -5.28 KCAL/MOL
REMARK 924 INTRA-LIGAND FREE ENERGY PREDICTED BY IDOCK:    1.03 KCAL/MOL
REMARK 927      BINDING AFFINITY PREDICTED BY RF-SCORE:    0.00 PKD
ROOT
HETATM    1  C   UNL     1      -6.054   8.580  67.565  1.00  0.00    -0.052 C  
HETATM    2  C   UNL     1      -5.691  10.041  67.272  1.00  0.00    -0.046 C  
HETATM    3  N   UNL     1      -5.494   8.276  68.900  1.00  0.00    -0.034 NA 
HETATM    4  H1  UNL     1      -5.735   7.305  69.095  1.00  0.00     0.000 HD 
HETATM    5  C   UNL     1      -6.440  10.616  66.093  1.00  0.00    -0.131 C  
HETATM    6  H2  UNL     1      -5.801   8.924  69.626  1.00  0.00     0.000 HD 
HETATM    7  C   UNL     1      -7.928  10.271  66.129  1.00  0.00    -0.131 C  
HETATM    8  C   UNL     1      -7.580   8.196  67.361  1.00  0.00    -0.101 C  
HETATM    9  O   UNL     1      -8.167   8.859  66.240  1.00  0.00    -0.107 OA 
ENDROOT
BRANCH   7  10
HETATM   10  C   UNL     1      -8.550  10.754  64.790  1.00  0.00    -0.075 C  
HETATM   11  N   UNL     1      -7.740  10.400  63.625  1.00  0.00    -0.297 NA 
HETATM   12  H1  UNL     1      -8.149  10.717  62.746  1.00  0.00     0.000 HD 
HETATM   13  H2  UNL     1      -7.555   9.397  63.600  1.00  0.00     0.000 HD 
ENDBRANCH   7  10
BRANCH   8  14
HETATM   14  O   UNL     1      -8.306   8.343  68.582  1.00  0.00    -0.118 OA 
BRANCH  14  15
HETATM   15  C   UNL     1      -9.181   9.478  68.805  1.00  0.00    -0.140 C  
HETATM   16  C   UNL     1     -10.307   9.250  67.759  1.00  0.00    -0.237 C  
HETATM   17  N   UNL     1     -11.072   8.024  68.056  1.00  0.00    -0.370 NA 
HETATM   18  C   UNL     1     -11.331  10.358  67.620  1.00  0.00    -0.162 C  
HETATM   19  H2  UNL     1     -11.440   8.033  69.007  1.00  0.00     0.000 HD 
HETATM   20  H1  UNL     1     -11.811   7.875  67.370  1.00  0.00     0.000 HD 
HETATM   21  C   UNL     1     -10.713  11.736  67.449  1.00  0.00    -0.236 C  
HETATM   22  N   UNL     1     -11.864  12.640  67.290  1.00  0.00    -0.419 NA 
HETATM   23  C   UNL     1      -9.765  12.013  68.658  1.00  0.00    -0.096 C  
HETATM   24  C   UNL     1      -8.601  10.935  68.669  1.00  0.00    -0.153 C  
HETATM   25  O   UNL     1      -7.714  11.206  69.770  1.00  0.00    -0.353 OA 
HETATM   26  H2  UNL     1     -12.547  12.581  68.045  1.00  0.00     0.000 HD 
HETATM   27  H1  UNL     1     -11.449  13.565  67.176  1.00  0.00     0.000 HD 
HETATM   28  H   UNL     1      -7.364  12.086  69.688  1.00  0.00     0.000 HD 
BRANCH  23  29
HETATM   29  O   UNL     1      -9.263  13.386  68.689  1.00  0.00    -0.126 OA 
BRANCH  29  30
HETATM   30  C   UNL     1      -8.809  13.829  67.378  1.00  0.00    -0.210 C  
HETATM   31  O   UNL     1      -9.683  14.827  66.836  1.00  0.00    -0.227 OA 
HETATM   32  C   UNL     1      -9.611  16.056  67.580  1.00  0.00    -0.218 C  
HETATM   33  C   UNL     1      -8.231  16.681  67.378  1.00  0.00    -0.169 C  
HETATM   34  H   UNL     1      -5.547  13.645  67.887  1.00  0.00     0.000 HD 
HETATM   35  O   UNL     1      -8.125  17.944  68.038  1.00  0.00    -0.238 OA 
HETATM   36  C   UNL     1      -7.149  15.713  67.914  1.00  0.00    -0.138 C  
HETATM   37  H1  UNL     1      -5.089  15.627  67.995  1.00  0.00     0.000 HD 
HETATM   38  H2  UNL     1      -5.692  17.208  68.015  1.00  0.00     0.000 HD 
HETATM   39  C   UNL     1      -7.334  14.306  67.323  1.00  0.00    -0.024 C  
HETATM   40  N   UNL     1      -5.802  16.265  67.642  1.00  0.00    -0.136 NA 
HETATM   41  H   UNL     1      -7.268  18.332  67.912  1.00  0.00     0.000 HD 
HETATM   42  O   UNL     1      -6.451  13.353  67.920  1.00  0.00    -0.117 OA 
BRANCH  32  43
HETATM   43  C   UNL     1     -10.761  16.948  67.111  1.00  0.00    -0.180 C  
HETATM   44  O   UNL     1     -11.026  17.931  68.121  1.00  0.00    -0.242 OA 
HETATM   45  H   UNL     1     -11.741  18.485  67.830  1.00  0.00     0.000 HD 
ENDBRANCH  32  43
ENDBRANCH  29  30
ENDBRANCH  23  29
ENDBRANCH  14  15
ENDBRANCH   8  14
TORSDOF 6
ENDMDL
MODEL      263
REMARK 921   NORMALIZED FREE ENERGY PREDICTED BY IDOCK:   -1.91 KCAL/MOL
REMARK 922        TOTAL FREE ENERGY PREDICTED BY IDOCK:   -4.14 KCAL/MOL
REMARK 923 INTER-LIGAND FREE ENERGY PREDICTED BY IDOCK:   -7.03 KCAL/MOL
REMARK 924 INTRA-LIGAND FREE ENERGY PREDICTED BY IDOCK:    2.89 KCAL/MOL
REMARK 927      BINDING AFFINITY PREDICTED BY RF-SCORE:    0.00 PKD
ROOT
HETATM    1  C   UNL     1      -5.496  16.203  67.753  1.00  0.00    -0.137 C  
HETATM    2  C   UNL     1      -6.216  16.069  69.100  1.00  0.00    -0.145 C  
HETATM    3  N   UNL     1      -5.572  14.871  67.112  1.00  0.00    -0.014 NA 
HETATM    4  H1  UNL     1      -5.093  14.960  66.216  1.00  0.00     0.000 HD 
HETATM    5  C   UNL     1      -6.506  17.400  69.755  1.00  0.00    -0.073 C  
HETATM    6  H2  UNL     1      -6.524  14.514  67.029  1.00  0.00     0.000 HD 
HETATM    7  C   UNL     1      -7.075  18.419  68.769  1.00  0.00    -0.283 C  
HETATM    8  C   UNL     1      -5.951  17.424  66.847  1.00  0.00    -0.171 C  
HETATM    9  O   UNL     1      -6.242  18.594  67.612  1.00  0.00    -0.188 OA 
ENDROOT
BRANCH   7  10
HETATM   10  C   UNL     1      -7.158  19.783  69.506  1.00  0.00    -0.215 C  
HETATM   11  N   UNL     1      -5.847  20.302  69.894  1.00  0.00    -0.324 NA 
HETATM   12  H1  UNL     1      -5.902  21.199  70.378  1.00  0.00     0.000 HD 
HETATM   13  H2  UNL     1      -5.225  20.361  69.088  1.00  0.00     0.000 HD 
ENDBRANCH   7  10
BRANCH   8  14
HETATM   14  O   UNL     1      -6.990  17.030  65.951  1.00  0.00    -0.070 OA 
BRANCH  14  15
HETATM   15  C   UNL     1      -8.289  16.612  66.442  1.00  0.00    -0.318 C  
HETATM   16  C   UNL     1      -8.821  17.899  67.131  1.00  0.00    -0.247 C  
HETATM   17  N   UNL     1      -9.034  18.981  66.151  1.00  0.00    -0.467 NA 
HETATM   18  C   UNL     1     -10.123  17.764  67.896  1.00  0.00    -0.342 C  
HETATM   19  H2  UNL     1      -9.645  18.683  65.391  1.00  0.00     0.000 HD 
HETATM   20  H1  UNL     1      -9.383  19.825  66.605  1.00  0.00     0.000 HD 
HETATM   21  C   UNL     1     -10.139  16.592  68.863  1.00  0.00    -0.274 C  
HETATM   22  N   UNL     1     -11.454  16.673  69.520  1.00  0.00    -0.234 NA 
HETATM   23  C   UNL     1      -9.829  15.284  68.070  1.00  0.00    -0.216 C  
HETATM   24  C   UNL     1      -8.382  15.389  67.429  1.00  0.00    -0.183 C  
HETATM   25  O   UNL     1      -8.088  14.173  66.718  1.00  0.00    -0.384 OA 
HETATM   26  H2  UNL     1     -12.242  16.689  68.872  1.00  0.00     0.000 HD 
HETATM   27  H1  UNL     1     -11.465  15.887  70.169  1.00  0.00     0.000 HD 
HETATM   28  H   UNL     1      -8.145  13.435  67.314  1.00  0.00     0.000 HD 
BRANCH  23  29
HETATM   29  O   UNL     1     -10.004  14.074  68.873  1.00  0.00    -0.196 OA 
BRANCH  29  30
HETATM   30  C   UNL     1     -10.977  13.165  68.282  1.00  0.00    -0.253 C  
HETATM   31  O   UNL     1     -10.354  12.272  67.350  1.00  0.00    -0.205 OA 
HETATM   32  C   UNL     1      -9.477  11.343  68.010  1.00  0.00    -0.181 C  
HETATM   33  C   UNL     1     -10.313  10.393  68.869  1.00  0.00    -0.209 C  
HETATM   34  H   UNL     1     -12.943  12.758  70.909  1.00  0.00     0.000 HD 
HETATM   35  O   UNL     1      -9.499   9.400  69.495  1.00  0.00    -0.162 OA 
HETATM   36  C   UNL     1     -11.069  11.210  69.944  1.00  0.00    -0.162 C  
HETATM   37  H1  UNL     1     -12.452  10.853  71.433  1.00  0.00     0.000 HD 
HETATM   38  H2  UNL     1     -11.442   9.529  71.129  1.00  0.00     0.000 HD 
HETATM   39  C   UNL     1     -11.838  12.376  69.303  1.00  0.00    -0.304 C  
HETATM   40  N   UNL     1     -11.953  10.314  70.725  1.00  0.00    -0.331 NA 
HETATM   41  H   UNL     1     -10.018   8.809  70.029  1.00  0.00     0.000 HD 
HETATM   42  O   UNL     1     -12.416  13.242  70.284  1.00  0.00    -0.270 OA 
BRANCH  32  43
HETATM   43  C   UNL     1      -8.660  10.632  66.930  1.00  0.00    -0.126 C  
HETATM   44  O   UNL     1      -8.773  11.369  65.704  1.00  0.00    -0.346 OA 
HETATM   45  H   UNL     1      -8.266  10.926  65.034  1.00  0.00     0.000 HD 
ENDBRANCH  32  43
ENDBRANCH  29  30
ENDBRANCH  23  29
ENDBRANCH  14  15
ENDBRANCH   8  14
TORSDOF 6
ENDMDL
MODEL      264
REMARK 921   NORMALIZED FREE ENERGY PREDICTED BY IDOCK:   -1.87 KCAL/MOL
REMARK 922        TOTAL FREE ENERGY PREDICTED BY IDOCK:   -4.08 KCAL/MOL
REMARK 923 INTER-LIGAND FREE ENERGY PREDICTED BY IDOCK:   -3.94 KCAL/MOL
REMARK 924 INTRA-LIGAND FREE ENERGY PREDICTED BY IDOCK:   -0.14 KCAL/MOL
REMARK 927      BINDING AFFINITY PREDICTED BY RF-SCORE:    0.00 PKD
ROOT
HETATM    1  C   UNL     1     -13.038   9.801  72.375  1.00  0.00    -0.258 C  
HETATM    2  C   UNL     1     -13.869   9.679  71.092  1.00  0.00    -0.067 C  
HETATM    3  N   UNL     1     -13.561   8.773  73.302  1.00  0.00    -0.867 NA 
HETATM    4  H1  UNL     1     -13.009   8.854  74.155  1.00  0.00     0.000 HD 
HETATM    5  C   UNL     1     -13.278  10.438  69.926  1.00  0.00     0.553 C  
HETATM    6  H2  UNL     1     -13.562   7.832  72.907  1.00  0.00     0.000 HD 
HETATM    7  C   UNL     1     -11.772  10.217  69.794  1.00  0.00    -0.139 C  
HETATM    8  C   UNL     1     -11.464   9.806  72.178  1.00  0.00     0.654 C  
HETATM    9  O   UNL     1     -11.061  10.516  71.006  1.00  0.00    -0.090 OA 
ENDROOT
BRANCH   7  10
HETATM   10  C   UNL     1     -11.255  11.178  68.690  1.00  0.00    -0.255 C  
HETATM   11  N   UNL     1     -11.472  10.664  67.338  1.00  0.00    -0.466 NA 
HETATM   12  H1  UNL     1     -11.132  11.296  66.614  1.00  0.00     0.000 HD 
HETATM   13  H2  UNL     1     -12.455  10.433  67.190  1.00  0.00     0.000 HD 
ENDBRANCH   7  10
BRANCH   8  14
HETATM   14  O   UNL     1     -10.937   8.483  72.280  1.00  0.00    -0.338 OA 
BRANCH  14  15
HETATM   15  C   UNL     1     -10.757   7.653  71.105  1.00  0.00    -0.227 C  
HETATM   16  C   UNL     1     -11.233   6.259  71.599  1.00  0.00    -0.285 C  
HETATM   17  N   UNL     1     -12.671   6.271  71.928  1.00  0.00    -0.219 NA 
HETATM   18  C   UNL     1     -11.034   5.100  70.641  1.00  0.00     0.150 C  
HETATM   19  H2  UNL     1     -13.232   6.603  71.144  1.00  0.00     0.000 HD 
HETATM   20  H1  UNL     1     -12.984   5.356  72.252  1.00  0.00     0.000 HD 
HETATM   21  C   UNL     1      -9.624   5.017  70.078  1.00  0.00    -0.189 C  
HETATM   22  N   UNL     1      -9.639   3.817  69.224  1.00  0.00    -0.178 NA 
HETATM   23  C   UNL     1      -9.282   6.370  69.381  1.00  0.00    -0.143 C  
HETATM   24  C   UNL     1      -9.328   7.539  70.454  1.00  0.00    -0.161 C  
HETATM   25  O   UNL     1      -8.989   8.783  69.815  1.00  0.00    -0.140 OA 
HETATM   26  H2  UNL     1     -10.371   3.821  68.514  1.00  0.00     0.000 HD 
HETATM   27  H1  UNL     1      -8.693   3.761  68.846  1.00  0.00     0.000 HD 
HETATM   28  H   UNL     1      -8.126   8.714  69.422  1.00  0.00     0.000 HD 
BRANCH  23  29
HETATM   29  O   UNL     1      -8.020   6.331  68.644  1.00  0.00    -0.103 OA 
BRANCH  29  30
HETATM   30  C   UNL     1      -8.176   6.800  67.274  1.00  0.00    -0.121 C  
HETATM   31  O   UNL     1      -7.127   6.302  66.433  1.00  0.00    -0.065 OA 
HETATM   32  C   UNL     1      -7.224   4.879  66.249  1.00  0.00    -0.077 C  
HETATM   33  C   UNL     1      -8.478   4.566  65.432  1.00  0.00    -0.123 C  
HETATM   34  H   UNL     1     -11.478   6.774  67.106  1.00  0.00     0.000 HD 
HETATM   35  O   UNL     1      -8.589   3.169  65.156  1.00  0.00    -0.098 OA 
HETATM   36  C   UNL     1      -9.726   5.052  66.207  1.00  0.00    -0.183 C  
HETATM   37  H1  UNL     1     -11.763   5.159  65.899  1.00  0.00     0.000 HD 
HETATM   38  H2  UNL     1     -11.032   3.869  65.083  1.00  0.00     0.000 HD 
HETATM   39  C   UNL     1      -9.563   6.518  66.640  1.00  0.00    -0.160 C  
HETATM   40  N   UNL     1     -10.941   4.838  65.388  1.00  0.00    -0.089 NA 
HETATM   41  H   UNL     1      -9.368   2.974  64.649  1.00  0.00     0.000 HD 
HETATM   42  O   UNL     1     -10.627   6.947  67.494  1.00  0.00    -0.215 OA 
BRANCH  32  43
HETATM   43  C   UNL     1      -5.929   4.409  65.585  1.00  0.00    -0.023 C  
HETATM   44  O   UNL     1      -5.718   3.027  65.907  1.00  0.00    -0.017 OA 
HETATM   45  H   UNL     1      -4.913   2.736  65.494  1.00  0.00     0.000 HD 
ENDBRANCH  32  43
ENDBRANCH  29  30
ENDBRANCH  23  29
ENDBRANCH  14  15
ENDBRANCH   8  14
TORSDOF 6
ENDMDL
MODEL      265
REMARK 921   NORMALIZED FREE ENERGY PREDICTED BY IDOCK:   -1.84 KCAL/MOL
REMARK 922        TOTAL FREE ENERGY PREDICTED BY IDOCK:   -4.04 KCAL/MOL
REMARK 923 INTER-LIGAND FREE ENERGY PREDICTED BY IDOCK:   -4.36 KCAL/MOL
REMARK 924 INTRA-LIGAND FREE ENERGY PREDICTED BY IDOCK:    0.32 KCAL/MOL
REMARK 927      BINDING AFFINITY PREDICTED BY RF-SCORE:    0.00 PKD
ROOT
HETATM    1  C   UNL     1     -12.232  12.787  64.378  1.00  0.00    -0.428 C  
HETATM    2  C   UNL     1     -11.939  14.228  63.944  1.00  0.00    -0.219 C  
HETATM    3  N   UNL     1     -11.957  11.938  63.198  1.00  0.00    -0.830 NA 
HETATM    4  H1  UNL     1     -12.152  10.980  63.486  1.00  0.00     0.000 HD 
HETATM    5  C   UNL     1     -11.869  15.197  65.103  1.00  0.00    -0.116 C  
HETATM    6  H2  UNL     1     -11.019  12.064  62.816  1.00  0.00     0.000 HD 
HETATM    7  C   UNL     1     -11.045  14.648  66.266  1.00  0.00    -0.336 C  
HETATM    8  C   UNL     1     -11.544  12.322  65.730  1.00  0.00    -0.388 C  
HETATM    9  O   UNL     1     -11.503  13.360  66.709  1.00  0.00    -0.316 OA 
ENDROOT
BRANCH   7  10
HETATM   10  C   UNL     1     -11.196  15.639  67.452  1.00  0.00    -0.219 C  
HETATM   11  N   UNL     1     -10.773  15.068  68.730  1.00  0.00    -0.234 NA 
HETATM   12  H1  UNL     1     -10.872  15.720  69.509  1.00  0.00     0.000 HD 
HETATM   13  H2  UNL     1      -9.818  14.712  68.672  1.00  0.00     0.000 HD 
ENDBRANCH   7  10
BRANCH   8  14
HETATM   14  O   UNL     1     -10.283  11.705  65.469  1.00  0.00    -0.239 OA 
BRANCH  14  15
HETATM   15  C   UNL     1      -9.352  11.411  66.541  1.00  0.00    -0.189 C  
HETATM   16  C   UNL     1      -8.134  10.817  65.781  1.00  0.00    -0.135 C  
HETATM   17  N   UNL     1      -7.509  11.824  64.904  1.00  0.00     1.423 NA 
HETATM   18  C   UNL     1      -7.015  10.254  66.635  1.00  0.00    -0.103 C  
HETATM   19  H2  UNL     1      -7.255  12.665  65.421  1.00  0.00     0.000 HD 
HETATM   20  H1  UNL     1      -6.710  11.434  64.405  1.00  0.00     0.000 HD 
HETATM   21  C   UNL     1      -7.498   9.292  67.709  1.00  0.00    -0.088 C  
HETATM   22  N   UNL     1      -6.268   8.840  68.379  1.00  0.00    -0.053 NA 
HETATM   23  C   UNL     1      -8.554  10.022  68.597  1.00  0.00    -0.123 C  
HETATM   24  C   UNL     1      -9.794  10.440  67.700  1.00  0.00    -0.170 C  
HETATM   25  O   UNL     1     -10.778  11.091  68.524  1.00  0.00    -0.178 OA 
HETATM   26  H2  UNL     1      -5.684   9.598  68.732  1.00  0.00     0.000 HD 
HETATM   27  H1  UNL     1      -6.592   8.195  69.100  1.00  0.00     0.000 HD 
HETATM   28  H   UNL     1     -11.045  10.505  69.224  1.00  0.00     0.000 HD 
BRANCH  23  29
HETATM   29  O   UNL     1      -8.946   9.246  69.774  1.00  0.00    -0.147 OA 
BRANCH  29  30
HETATM   30  C   UNL     1      -8.158   8.029  69.909  1.00  0.00    -0.117 C  
HETATM   31  O   UNL     1      -6.996   8.251  70.718  1.00  0.00    -0.040 OA 
HETATM   32  C   UNL     1      -7.344   8.507  72.090  1.00  0.00    -0.071 C  
HETATM   33  C   UNL     1      -7.932   7.234  72.700  1.00  0.00    -0.098 C  
HETATM   34  H   UNL     1     -10.630   5.834  69.973  1.00  0.00     0.000 HD 
HETATM   35  O   UNL     1      -8.232   7.408  74.086  1.00  0.00    -0.143 OA 
HETATM   36  C   UNL     1      -9.215   6.843  71.927  1.00  0.00    -0.141 C  
HETATM   37  H1  UNL     1     -10.590   5.305  71.939  1.00  0.00     0.000 HD 
HETATM   38  H2  UNL     1      -9.899   5.594  73.457  1.00  0.00     0.000 HD 
HETATM   39  C   UNL     1      -8.947   6.793  70.415  1.00  0.00    -0.152 C  
HETATM   40  N   UNL     1      -9.745   5.563  72.449  1.00  0.00    -0.153 NA 
HETATM   41  H   UNL     1      -8.598   6.617  74.466  1.00  0.00     0.000 HD 
HETATM   42  O   UNL     1     -10.147   6.592  69.663  1.00  0.00    -0.174 OA 
BRANCH  32  43
HETATM   43  C   UNL     1      -6.084   9.001  72.803  1.00  0.00     0.042 C  
HETATM   44  O   UNL     1      -5.474  10.026  72.006  1.00  0.00    -0.230 OA 
HETATM   45  H   UNL     1      -4.691  10.332  72.448  1.00  0.00     0.000 HD 
ENDBRANCH  32  43
ENDBRANCH  29  30
ENDBRANCH  23  29
ENDBRANCH  14  15
ENDBRANCH   8  14
TORSDOF 6
ENDMDL
MODEL      266
REMARK 921   NORMALIZED FREE ENERGY PREDICTED BY IDOCK:   -1.72 KCAL/MOL
REMARK 922        TOTAL FREE ENERGY PREDICTED BY IDOCK:   -3.88 KCAL/MOL
REMARK 923 INTER-LIGAND FREE ENERGY PREDICTED BY IDOCK:   -4.94 KCAL/MOL
REMARK 924 INTRA-LIGAND FREE ENERGY PREDICTED BY IDOCK:    1.05 KCAL/MOL
REMARK 927      BINDING AFFINITY PREDICTED BY RF-SCORE:    0.00 PKD
ROOT
HETATM    1  C   UNL     1     -13.287   9.831  72.266  1.00  0.00    -0.379 C  
HETATM    2  C   UNL     1     -14.010   9.786  70.915  1.00  0.00     0.263 C  
HETATM    3  N   UNL     1     -13.795   8.679  73.043  1.00  0.00    -0.959 NA 
HETATM    4  H1  UNL     1     -13.314   8.709  73.941  1.00  0.00     0.000 HD 
HETATM    5  C   UNL     1     -13.397  10.702  69.880  1.00  0.00     0.749 C  
HETATM    6  H2  UNL     1     -13.694   7.786  72.558  1.00  0.00     0.000 HD 
HETATM    7  C   UNL     1     -11.873  10.600  69.848  1.00  0.00    -0.315 C  
HETATM    8  C   UNL     1     -11.708   9.967  72.197  1.00  0.00     0.562 C  
HETATM    9  O   UNL     1     -11.277  10.820  71.136  1.00  0.00     0.166 OA 
ENDROOT
BRANCH   7  10
HETATM   10  C   UNL     1     -11.353  11.705  68.889  1.00  0.00    -0.267 C  
HETATM   11  N   UNL     1     -11.575  11.386  67.479  1.00  0.00    -0.558 NA 
HETATM   12  H1  UNL     1     -11.233  12.112  66.849  1.00  0.00     0.000 HD 
HETATM   13  H2  UNL     1     -12.558  11.183  67.301  1.00  0.00     0.000 HD 
ENDBRANCH   7  10
BRANCH   8  14
HETATM   14  O   UNL     1     -11.089   8.680  72.210  1.00  0.00    -0.354 OA 
BRANCH  14  15
HETATM   15  C   UNL     1     -10.514   8.109  71.007  1.00  0.00    -0.201 C  
HETATM   16  C   UNL     1     -11.282   6.766  70.868  1.00  0.00    -0.292 C  
HETATM   17  N   UNL     1     -12.718   6.995  70.618  1.00  0.00    -0.575 NA 
HETATM   18  C   UNL     1     -10.812   5.831  69.771  1.00  0.00    -0.419 C  
HETATM   19  H2  UNL     1     -12.866   7.598  69.809  1.00  0.00     0.000 HD 
HETATM   20  H1  UNL     1     -13.222   6.113  70.527  1.00  0.00     0.000 HD 
HETATM   21  C   UNL     1      -9.311   5.591  69.784  1.00  0.00    -0.142 C  
HETATM   22  N   UNL     1      -9.081   4.637  68.686  1.00  0.00    -0.110 NA 
HETATM   23  C   UNL     1      -8.582   6.968  69.682  1.00  0.00    -0.134 C  
HETATM   24  C   UNL     1      -8.962   7.856  70.941  1.00  0.00    -0.143 C  
HETATM   25  O   UNL     1      -8.271   9.116  70.858  1.00  0.00    -0.171 OA 
HETATM   26  H2  UNL     1      -9.445   4.945  67.784  1.00  0.00     0.000 HD 
HETATM   27  H1  UNL     1      -8.073   4.476  68.694  1.00  0.00     0.000 HD 
HETATM   28  H   UNL     1      -7.333   8.962  70.818  1.00  0.00     0.000 HD 
BRANCH  23  29
HETATM   29  O   UNL     1      -7.137   6.838  69.498  1.00  0.00    -0.068 OA 
BRANCH  29  30
HETATM   30  C   UNL     1      -6.702   7.380  68.218  1.00  0.00    -0.054 C  
HETATM   31  O   UNL     1      -7.427   6.791  67.131  1.00  0.00    -0.087 OA 
HETATM   32  C   UNL     1      -8.810   7.185  67.140  1.00  0.00    -0.121 C  
HETATM   33  C   UNL     1      -8.904   8.678  66.827  1.00  0.00    -0.134 C  
HETATM   34  H   UNL     1      -6.090  10.487  69.169  1.00  0.00     0.000 HD 
HETATM   35  O   UNL     1     -10.262   9.114  66.751  1.00  0.00    -0.248 OA 
HETATM   36  C   UNL     1      -8.154   9.477  67.920  1.00  0.00    -0.106 C  
HETATM   37  H1  UNL     1      -7.664  11.444  68.302  1.00  0.00     0.000 HD 
HETATM   38  H2  UNL     1      -9.103  11.273  67.427  1.00  0.00     0.000 HD 
HETATM   39  C   UNL     1      -6.732   8.928  68.119  1.00  0.00    -0.065 C  
HETATM   40  N   UNL     1      -8.159  10.918  67.581  1.00  0.00    -0.114 NA 
HETATM   41  H   UNL     1     -10.321  10.042  66.557  1.00  0.00     0.000 HD 
HETATM   42  O   UNL     1      -6.071   9.539  69.230  1.00  0.00    -0.037 OA 
BRANCH  32  43
HETATM   43  C   UNL     1      -9.548   6.302  66.133  1.00  0.00    -0.015 C  
HETATM   44  O   UNL     1     -10.936   6.251  66.493  1.00  0.00    -0.613 OA 
HETATM   45  H   UNL     1     -11.395   5.702  65.867  1.00  0.00     0.000 HD 
ENDBRANCH  32  43
ENDBRANCH  29  30
ENDBRANCH  23  29
ENDBRANCH  14  15
ENDBRANCH   8  14
TORSDOF 6
ENDMDL
MODEL      267
REMARK 921   NORMALIZED FREE ENERGY PREDICTED BY IDOCK:   -1.70 KCAL/MOL
REMARK 922        TOTAL FREE ENERGY PREDICTED BY IDOCK:   -3.85 KCAL/MOL
REMARK 923 INTER-LIGAND FREE ENERGY PREDICTED BY IDOCK:   -4.39 KCAL/MOL
REMARK 924 INTRA-LIGAND FREE ENERGY PREDICTED BY IDOCK:    0.53 KCAL/MOL
REMARK 927      BINDING AFFINITY PREDICTED BY RF-SCORE:    0.00 PKD
ROOT
HETATM    1  C   UNL     1      -8.147  11.680  66.702  1.00  0.00    -0.121 C  
HETATM    2  C   UNL     1      -8.483  13.173  66.608  1.00  0.00     0.106 C  
HETATM    3  N   UNL     1      -6.674  11.596  66.810  1.00  0.00    -0.281 NA 
HETATM    4  H1  UNL     1      -6.450  10.603  66.872  1.00  0.00     0.000 HD 
HETATM    5  C   UNL     1      -9.953  13.466  66.800  1.00  0.00    -0.264 C  
HETATM    6  H2  UNL     1      -6.291  12.147  67.579  1.00  0.00     0.000 HD 
HETATM    7  C   UNL     1     -10.546  12.700  67.982  1.00  0.00    -0.221 C  
HETATM    8  C   UNL     1      -8.960  10.858  67.788  1.00  0.00    -0.139 C  
HETATM    9  O   UNL     1     -10.319  11.284  67.894  1.00  0.00    -0.174 OA 
ENDROOT
BRANCH   7  10
HETATM   10  C   UNL     1     -12.081  12.936  67.966  1.00  0.00    -0.152 C  
HETATM   11  N   UNL     1     -12.464  14.146  67.238  1.00  0.00    -0.532 NA 
HETATM   12  H1  UNL     1     -13.473  14.301  67.228  1.00  0.00     0.000 HD 
HETATM   13  H2  UNL     1     -12.088  14.135  66.290  1.00  0.00     0.000 HD 
ENDBRANCH   7  10
BRANCH   8  14
HETATM   14  O   UNL     1      -8.254  10.822  69.029  1.00  0.00    -0.142 OA 
BRANCH  14  15
HETATM   15  C   UNL     1      -7.880   9.565  69.646  1.00  0.00    -0.116 C  
HETATM   16  C   UNL     1      -6.442   9.334  69.102  1.00  0.00    -0.042 C  
HETATM   17  N   UNL     1      -5.514  10.371  69.591  1.00  0.00    -0.038 NA 
HETATM   18  C   UNL     1      -5.799   8.004  69.441  1.00  0.00    -0.030 C  
HETATM   19  H2  UNL     1      -5.524  10.434  70.608  1.00  0.00     0.000 HD 
HETATM   20  H1  UNL     1      -4.570  10.219  69.234  1.00  0.00     0.000 HD 
HETATM   21  C   UNL     1      -6.686   6.807  69.136  1.00  0.00    -0.056 C  
HETATM   22  N   UNL     1      -5.864   5.639  69.492  1.00  0.00    -0.016 NA 
HETATM   23  C   UNL     1      -8.036   6.976  69.902  1.00  0.00    -0.123 C  
HETATM   24  C   UNL     1      -8.767   8.289  69.392  1.00  0.00    -0.142 C  
HETATM   25  O   UNL     1     -10.022   8.430  70.082  1.00  0.00    -0.183 OA 
HETATM   26  H2  UNL     1      -5.505   5.658  70.447  1.00  0.00     0.000 HD 
HETATM   27  H1  UNL     1      -6.459   4.836  69.288  1.00  0.00     0.000 HD 
HETATM   28  H   UNL     1     -10.558   7.660  69.928  1.00  0.00     0.000 HD 
BRANCH  23  29
HETATM   29  O   UNL     1      -8.888   5.790  69.826  1.00  0.00    -0.124 OA 
BRANCH  29  30
HETATM   30  C   UNL     1      -9.061   5.161  71.128  1.00  0.00    -0.143 C  
HETATM   31  O   UNL     1      -7.852   5.215  71.895  1.00  0.00    -0.105 OA 
HETATM   32  C   UNL     1      -7.527   6.561  72.282  1.00  0.00    -0.095 C  
HETATM   33  C   UNL     1      -8.573   7.058  73.281  1.00  0.00    -0.125 C  
HETATM   34  H   UNL     1     -12.197   6.039  71.699  1.00  0.00     0.000 HD 
HETATM   35  O   UNL     1      -8.262   8.369  73.756  1.00  0.00    -0.325 OA 
HETATM   36  C   UNL     1      -9.965   7.058  72.604  1.00  0.00    -0.173 C  
HETATM   37  H1  UNL     1     -11.918   7.449  73.141  1.00  0.00     0.000 HD 
HETATM   38  H2  UNL     1     -10.790   8.344  74.031  1.00  0.00     0.000 HD 
HETATM   39  C   UNL     1     -10.258   5.694  71.958  1.00  0.00    -0.205 C  
HETATM   40  N   UNL     1     -11.000   7.450  73.587  1.00  0.00    -0.244 NA 
HETATM   41  H   UNL     1      -8.912   8.677  74.377  1.00  0.00     0.000 HD 
HETATM   42  O   UNL     1     -11.464   5.712  71.190  1.00  0.00    -0.088 OA 
BRANCH  32  43
HETATM   43  C   UNL     1      -6.104   6.551  72.841  1.00  0.00    -0.054 C  
HETATM   44  O   UNL     1      -5.572   7.882  72.775  1.00  0.00    -0.039 OA 
HETATM   45  H   UNL     1      -4.687   7.876  73.123  1.00  0.00     0.000 HD 
ENDBRANCH  32  43
ENDBRANCH  29  30
ENDBRANCH  23  29
ENDBRANCH  14  15
ENDBRANCH   8  14
TORSDOF 6
ENDMDL
MODEL      268
REMARK 921   NORMALIZED FREE ENERGY PREDICTED BY IDOCK:   -1.58 KCAL/MOL
REMARK 922        TOTAL FREE ENERGY PREDICTED BY IDOCK:   -3.69 KCAL/MOL
REMARK 923 INTER-LIGAND FREE ENERGY PREDICTED BY IDOCK:   -5.86 KCAL/MOL
REMARK 924 INTRA-LIGAND FREE ENERGY PREDICTED BY IDOCK:    2.17 KCAL/MOL
REMARK 927      BINDING AFFINITY PREDICTED BY RF-SCORE:    0.00 PKD
ROOT
HETATM    1  C   UNL     1      -8.718  20.504  67.533  1.00  0.00    -0.232 C  
HETATM    2  C   UNL     1      -9.103  19.660  66.312  1.00  0.00    -0.429 C  
HETATM    3  N   UNL     1      -9.932  20.588  68.375  1.00  0.00    -0.075 NA 
HETATM    4  H1  UNL     1      -9.676  21.149  69.187  1.00  0.00     0.000 HD 
HETATM    5  C   UNL     1      -7.911  19.212  65.498  1.00  0.00     0.419 C  
HETATM    6  H2  UNL     1     -10.321  19.677  68.618  1.00  0.00     0.000 HD 
HETATM    7  C   UNL     1      -6.780  18.677  66.374  1.00  0.00    -0.207 C  
HETATM    8  C   UNL     1      -7.393  20.060  68.287  1.00  0.00    -0.260 C  
HETATM    9  O   UNL     1      -6.377  19.610  67.389  1.00  0.00    -0.190 OA 
ENDROOT
BRANCH   7  10
HETATM   10  C   UNL     1      -5.557  18.423  65.451  1.00  0.00    -0.199 C  
HETATM   11  N   UNL     1      -5.722  18.996  64.116  1.00  0.00    -0.353 NA 
HETATM   12  H1  UNL     1      -4.918  18.828  63.510  1.00  0.00     0.000 HD 
HETATM   13  H2  UNL     1      -5.936  19.991  64.170  1.00  0.00     0.000 HD 
ENDBRANCH   7  10
BRANCH   8  14
HETATM   14  O   UNL     1      -7.694  19.149  69.344  1.00  0.00    -0.176 OA 
BRANCH  14  15
HETATM   15  C   UNL     1      -7.606  17.715  69.149  1.00  0.00    -0.059 C  
HETATM   16  C   UNL     1      -6.074  17.461  69.184  1.00  0.00    -0.216 C  
HETATM   17  N   UNL     1      -5.511  17.772  70.511  1.00  0.00    -0.261 NA 
HETATM   18  C   UNL     1      -5.617  16.053  68.856  1.00  0.00    -0.108 C  
HETATM   19  H2  UNL     1      -5.992  17.263  71.252  1.00  0.00     0.000 HD 
HETATM   20  H1  UNL     1      -4.505  17.605  70.534  1.00  0.00     0.000 HD 
HETATM   21  C   UNL     1      -6.222  15.503  67.574  1.00  0.00    -0.111 C  
HETATM   22  N   UNL     1      -5.620  14.168  67.425  1.00  0.00    -0.310 NA 
HETATM   23  C   UNL     1      -7.778  15.563  67.690  1.00  0.00    -0.158 C  
HETATM   24  C   UNL     1      -8.234  17.074  67.856  1.00  0.00    -0.200 C  
HETATM   25  O   UNL     1      -9.669  17.130  67.937  1.00  0.00    -0.258 OA 
HETATM   26  H2  UNL     1      -5.744  13.563  68.237  1.00  0.00     0.000 HD 
HETATM   27  H1  UNL     1      -6.027  13.799  66.565  1.00  0.00     0.000 HD 
HETATM   28  H   UNL     1     -10.048  16.743  67.156  1.00  0.00     0.000 HD 
BRANCH  23  29
HETATM   29  O   UNL     1      -8.460  14.886  66.587  1.00  0.00    -0.221 OA 
BRANCH  29  30
HETATM   30  C   UNL     1      -8.970  13.581  66.983  1.00  0.00    -0.231 C  
HETATM   31  O   UNL     1      -9.465  13.604  68.328  1.00  0.00    -0.208 OA 
HETATM   32  C   UNL     1     -10.651  14.409  68.444  1.00  0.00    -0.247 C  
HETATM   33  C   UNL     1     -11.791  13.729  67.684  1.00  0.00    -0.378 C  
HETATM   34  H   UNL     1     -10.226  12.630  64.076  1.00  0.00     0.000 HD 
HETATM   35  O   UNL     1     -13.017  14.449  67.823  1.00  0.00     0.366 OA 
HETATM   36  C   UNL     1     -11.412  13.617  66.188  1.00  0.00    -0.325 C  
HETATM   37  H1  UNL     1     -12.216  12.805  64.470  1.00  0.00     0.000 HD 
HETATM   38  H2  UNL     1     -13.389  13.297  65.588  1.00  0.00     0.000 HD 
HETATM   39  C   UNL     1     -10.026  12.973  66.023  1.00  0.00    -0.276 C  
HETATM   40  N   UNL     1     -12.467  12.879  65.457  1.00  0.00    -0.575 NA 
HETATM   41  H   UNL     1     -13.725  14.027  67.352  1.00  0.00     0.000 HD 
HETATM   42  O   UNL     1      -9.579  13.002  64.665  1.00  0.00     0.085 OA 
BRANCH  32  43
HETATM   43  C   UNL     1     -10.938  14.599  69.934  1.00  0.00    -0.160 C  
HETATM   44  O   UNL     1     -11.384  15.945  70.152  1.00  0.00    -0.310 OA 
HETATM   45  H   UNL     1     -11.561  16.063  71.078  1.00  0.00     0.000 HD 
ENDBRANCH  32  43
ENDBRANCH  29  30
ENDBRANCH  23  29
ENDBRANCH  14  15
ENDBRANCH   8  14
TORSDOF 6
ENDMDL
MODEL      269
REMARK 921   NORMALIZED FREE ENERGY PREDICTED BY IDOCK:   -1.52 KCAL/MOL
REMARK 922        TOTAL FREE ENERGY PREDICTED BY IDOCK:   -3.60 KCAL/MOL
REMARK 923 INTER-LIGAND FREE ENERGY PREDICTED BY IDOCK:   -3.74 KCAL/MOL
REMARK 924 INTRA-LIGAND FREE ENERGY PREDICTED BY IDOCK:    0.14 KCAL/MOL
REMARK 927      BINDING AFFINITY PREDICTED BY RF-SCORE:    0.00 PKD
ROOT
HETATM    1  C   UNL     1      -7.327  11.299  69.149  1.00  0.00    -0.104 C  
HETATM    2  C   UNL     1      -5.942  10.935  68.602  1.00  0.00    -0.043 C  
HETATM    3  N   UNL     1      -7.991  12.092  68.091  1.00  0.00    -0.144 NA 
HETATM    4  H1  UNL     1      -8.913  12.334  68.454  1.00  0.00     0.000 HD 
HETATM    5  C   UNL     1      -5.240   9.872  69.416  1.00  0.00    -0.035 C  
HETATM    6  H2  UNL     1      -8.023  11.618  67.188  1.00  0.00     0.000 HD 
HETATM    7  C   UNL     1      -6.166   8.710  69.771  1.00  0.00    -0.035 C  
HETATM    8  C   UNL     1      -8.176  10.091  69.733  1.00  0.00    -0.178 C  
HETATM    9  O   UNL     1      -7.368   9.141  70.429  1.00  0.00    -0.073 OA 
ENDROOT
BRANCH   7  10
HETATM   10  C   UNL     1      -5.396   7.782  70.750  1.00  0.00    -0.026 C  
HETATM   11  N   UNL     1      -5.955   7.790  72.101  1.00  0.00    -0.039 NA 
HETATM   12  H1  UNL     1      -5.449   7.180  72.744  1.00  0.00     0.000 HD 
HETATM   13  H2  UNL     1      -6.948   7.559  72.086  1.00  0.00     0.000 HD 
ENDBRANCH   7  10
BRANCH   8  14
HETATM   14  O   UNL     1      -9.015   9.529  68.724  1.00  0.00    -0.129 OA 
BRANCH  14  15
HETATM   15  C   UNL     1      -9.549   8.187  68.852  1.00  0.00    -0.153 C  
HETATM   16  C   UNL     1     -10.466   8.304  70.102  1.00  0.00    -0.225 C  
HETATM   17  N   UNL     1     -11.595   9.219  69.851  1.00  0.00    -0.445 NA 
HETATM   18  C   UNL     1     -11.077   7.015  70.612  1.00  0.00    -0.307 C  
HETATM   19  H2  UNL     1     -12.124   8.945  69.023  1.00  0.00     0.000 HD 
HETATM   20  H1  UNL     1     -12.197   9.296  70.671  1.00  0.00     0.000 HD 
HETATM   21  C   UNL     1     -10.065   5.895  70.794  1.00  0.00    -0.199 C  
HETATM   22  N   UNL     1     -10.851   4.771  71.329  1.00  0.00     0.134 NA 
HETATM   23  C   UNL     1      -9.334   5.656  69.435  1.00  0.00    -0.125 C  
HETATM   24  C   UNL     1      -8.558   6.976  69.019  1.00  0.00    -0.129 C  
HETATM   25  O   UNL     1      -7.864   6.746  67.779  1.00  0.00    -0.109 OA 
HETATM   26  H2  UNL     1     -11.656   4.516  70.757  1.00  0.00     0.000 HD 
HETATM   27  H1  UNL     1     -10.172   4.020  71.451  1.00  0.00     0.000 HD 
HETATM   28  H   UNL     1      -7.265   6.015  67.880  1.00  0.00     0.000 HD 
BRANCH  23  29
HETATM   29  O   UNL     1      -8.472   4.475  69.450  1.00  0.00    -0.077 OA 
BRANCH  29  30
HETATM   30  C   UNL     1      -9.111   3.328  68.820  1.00  0.00    -0.148 C  
HETATM   31  O   UNL     1      -9.990   3.738  67.766  1.00  0.00    -0.045 OA 
HETATM   32  C   UNL     1      -9.265   4.292  66.654  1.00  0.00    -0.144 C  
HETATM   33  C   UNL     1      -8.448   3.183  65.990  1.00  0.00    -0.109 C  
HETATM   34  H   UNL     1      -6.608   1.178  69.034  1.00  0.00     0.000 HD 
HETATM   35  O   UNL     1      -7.759   3.661  64.833  1.00  0.00    -0.079 OA 
HETATM   36  C   UNL     1      -7.433   2.615  67.011  1.00  0.00    -0.069 C  
HETATM   37  H1  UNL     1      -6.029   1.105  67.083  1.00  0.00     0.000 HD 
HETATM   38  H2  UNL     1      -6.253   1.735  65.528  1.00  0.00     0.000 HD 
HETATM   39  C   UNL     1      -8.136   2.229  68.322  1.00  0.00    -0.057 C  
HETATM   40  N   UNL     1      -6.698   1.480  66.409  1.00  0.00    -0.027 NA 
HETATM   41  H   UNL     1      -7.252   2.972  64.420  1.00  0.00     0.000 HD 
HETATM   42  O   UNL     1      -7.205   1.851  69.339  1.00  0.00    -0.039 OA 
BRANCH  32  43
HETATM   43  C   UNL     1     -10.282   4.947  65.718  1.00  0.00    -0.180 C  
HETATM   44  O   UNL     1     -10.387   6.338  66.050  1.00  0.00    -0.405 OA 
HETATM   45  H   UNL     1     -11.019   6.745  65.468  1.00  0.00     0.000 HD 
ENDBRANCH  32  43
ENDBRANCH  29  30
ENDBRANCH  23  29
ENDBRANCH  14  15
ENDBRANCH   8  14
TORSDOF 6
ENDMDL
MODEL      270
REMARK 921   NORMALIZED FREE ENERGY PREDICTED BY IDOCK:   -1.51 KCAL/MOL
REMARK 922        TOTAL FREE ENERGY PREDICTED BY IDOCK:   -3.60 KCAL/MOL
REMARK 923 INTER-LIGAND FREE ENERGY PREDICTED BY IDOCK:   -4.27 KCAL/MOL
REMARK 924 INTRA-LIGAND FREE ENERGY PREDICTED BY IDOCK:    0.67 KCAL/MOL
REMARK 927      BINDING AFFINITY PREDICTED BY RF-SCORE:    0.00 PKD
ROOT
HETATM    1  C   UNL     1     -11.372  14.727  69.152  1.00  0.00    -0.282 C  
HETATM    2  C   UNL     1     -12.240  13.506  68.825  1.00  0.00    -0.178 C  
HETATM    3  N   UNL     1     -11.411  14.877  70.623  1.00  0.00    -0.408 NA 
HETATM    4  H1  UNL     1     -10.834  15.689  70.840  1.00  0.00     0.000 HD 
HETATM    5  C   UNL     1     -12.072  13.018  67.405  1.00  0.00    -0.290 C  
HETATM    6  H2  UNL     1     -11.130  14.035  71.125  1.00  0.00     0.000 HD 
HETATM    7  C   UNL     1     -10.604  12.950  66.987  1.00  0.00    -0.252 C  
HETATM    8  C   UNL     1      -9.925  14.737  68.501  1.00  0.00    -0.228 C  
HETATM    9  O   UNL     1      -9.915  14.196  67.179  1.00  0.00    -0.248 OA 
ENDROOT
BRANCH   7  10
HETATM   10  C   UNL     1     -10.567  12.616  65.470  1.00  0.00    -0.276 C  
HETATM   11  N   UNL     1     -11.897  12.405  64.901  1.00  0.00    -0.378 NA 
HETATM   12  H1  UNL     1     -11.872  12.185  63.905  1.00  0.00     0.000 HD 
HETATM   13  H2  UNL     1     -12.503  13.205  65.083  1.00  0.00     0.000 HD 
ENDBRANCH   7  10
BRANCH   8  14
HETATM   14  O   UNL     1      -8.969  14.153  69.386  1.00  0.00     0.265 OA 
BRANCH  14  15
HETATM   15  C   UNL     1      -8.035  13.144  68.926  1.00  0.00     0.159 C  
HETATM   16  C   UNL     1      -7.177  13.922  67.890  1.00  0.00    -0.158 C  
HETATM   17  N   UNL     1      -6.400  14.995  68.538  1.00  0.00    -0.088 NA 
HETATM   18  C   UNL     1      -6.179  13.106  67.093  1.00  0.00     0.334 C  
HETATM   19  H2  UNL     1      -5.829  14.635  69.303  1.00  0.00     0.000 HD 
HETATM   20  H1  UNL     1      -5.837  15.506  67.858  1.00  0.00     0.000 HD 
HETATM   21  C   UNL     1      -6.781  11.861  66.462  1.00  0.00     0.207 C  
HETATM   22  N   UNL     1      -5.670  11.253  65.712  1.00  0.00    -0.459 NA 
HETATM   23  C   UNL     1      -7.427  10.992  67.587  1.00  0.00    -0.096 C  
HETATM   24  C   UNL     1      -8.590  11.818  68.284  1.00  0.00    -0.162 C  
HETATM   25  O   UNL     1      -9.200  11.007  69.305  1.00  0.00    -0.389 OA 
HETATM   26  H2  UNL     1      -4.838  11.074  66.274  1.00  0.00     0.000 HD 
HETATM   27  H1  UNL     1      -6.074  10.417  65.289  1.00  0.00     0.000 HD 
HETATM   28  H   UNL     1      -9.535  10.206  68.917  1.00  0.00     0.000 HD 
BRANCH  23  29
HETATM   29  O   UNL     1      -7.872   9.682  67.114  1.00  0.00    -0.092 OA 
BRANCH  29  30
HETATM   30  C   UNL     1      -6.896   8.640  67.403  1.00  0.00    -0.071 C  
HETATM   31  O   UNL     1      -6.536   8.636  68.790  1.00  0.00    -0.052 OA 
HETATM   32  C   UNL     1      -7.634   8.222  69.622  1.00  0.00    -0.094 C  
HETATM   33  C   UNL     1      -7.932   6.747  69.355  1.00  0.00    -0.115 C  
HETATM   34  H   UNL     1      -7.979   6.337  65.292  1.00  0.00     0.000 HD 
HETATM   35  O   UNL     1      -8.970   6.259  70.207  1.00  0.00    -0.150 OA 
HETATM   36  C   UNL     1      -8.339   6.569  67.872  1.00  0.00    -0.115 C  
HETATM   37  H1  UNL     1      -8.811   5.015  66.599  1.00  0.00     0.000 HD 
HETATM   38  H2  UNL     1      -9.214   4.701  68.213  1.00  0.00     0.000 HD 
HETATM   39  C   UNL     1      -7.303   7.217  66.940  1.00  0.00    -0.088 C  
HETATM   40  N   UNL     1      -8.543   5.132  67.577  1.00  0.00    -0.105 NA 
HETATM   41  H   UNL     1      -9.156   5.343  70.042  1.00  0.00     0.000 HD 
HETATM   42  O   UNL     1      -7.730   7.209  65.576  1.00  0.00    -0.095 OA 
BRANCH  32  43
HETATM   43  C   UNL     1      -7.250   8.515  71.073  1.00  0.00    -0.071 C  
HETATM   44  O   UNL     1      -7.042   9.927  71.221  1.00  0.00    -0.293 OA 
HETATM   45  H   UNL     1      -6.803  10.109  72.122  1.00  0.00     0.000 HD 
ENDBRANCH  32  43
ENDBRANCH  29  30
ENDBRANCH  23  29
ENDBRANCH  14  15
ENDBRANCH   8  14
TORSDOF 6
ENDMDL
MODEL      271
REMARK 921   NORMALIZED FREE ENERGY PREDICTED BY IDOCK:   -1.43 KCAL/MOL
REMARK 922        TOTAL FREE ENERGY PREDICTED BY IDOCK:   -3.49 KCAL/MOL
REMARK 923 INTER-LIGAND FREE ENERGY PREDICTED BY IDOCK:   -4.38 KCAL/MOL
REMARK 924 INTRA-LIGAND FREE ENERGY PREDICTED BY IDOCK:    0.88 KCAL/MOL
REMARK 927      BINDING AFFINITY PREDICTED BY RF-SCORE:    0.00 PKD
ROOT
HETATM    1  C   UNL     1      -7.421  13.827  68.892  1.00  0.00    -0.056 C  
HETATM    2  C   UNL     1      -8.119  15.063  69.471  1.00  0.00    -0.122 C  
HETATM    3  N   UNL     1      -6.423  13.408  69.901  1.00  0.00    -0.328 NA 
HETATM    4  H1  UNL     1      -5.959  12.586  69.516  1.00  0.00     0.000 HD 
HETATM    5  C   UNL     1      -9.374  15.446  68.720  1.00  0.00    -0.209 C  
HETATM    6  H2  UNL     1      -6.822  13.253  70.827  1.00  0.00     0.000 HD 
HETATM    7  C   UNL     1     -10.257  14.236  68.417  1.00  0.00    -0.245 C  
HETATM    8  C   UNL     1      -8.381  12.679  68.363  1.00  0.00    -0.125 C  
HETATM    9  O   UNL     1      -9.551  13.194  67.725  1.00  0.00    -0.195 OA 
ENDROOT
BRANCH   7  10
HETATM   10  C   UNL     1     -11.410  14.721  67.495  1.00  0.00    -0.344 C  
HETATM   11  N   UNL     1     -11.598  13.868  66.322  1.00  0.00    -0.349 NA 
HETATM   12  H1  UNL     1     -12.355  14.187  65.717  1.00  0.00     0.000 HD 
HETATM   13  H2  UNL     1     -11.736  12.895  66.596  1.00  0.00     0.000 HD 
ENDBRANCH   7  10
BRANCH   8  14
HETATM   14  O   UNL     1      -8.641  11.723  69.391  1.00  0.00     0.437 OA 
BRANCH  14  15
HETATM   15  C   UNL     1      -8.586  10.299  69.125  1.00  0.00    -0.164 C  
HETATM   16  C   UNL     1      -8.921   9.682  70.511  1.00  0.00    -0.128 C  
HETATM   17  N   UNL     1     -10.298  10.012  70.924  1.00  0.00    -0.310 NA 
HETATM   18  C   UNL     1      -8.800   8.175  70.625  1.00  0.00    -0.143 C  
HETATM   19  H2  UNL     1     -10.978   9.735  70.217  1.00  0.00     0.000 HD 
HETATM   20  H1  UNL     1     -10.518   9.606  71.835  1.00  0.00     0.000 HD 
HETATM   21  C   UNL     1      -7.480   7.632  70.102  1.00  0.00    -0.084 C  
HETATM   22  N   UNL     1      -7.555   6.182  70.345  1.00  0.00    -0.094 NA 
HETATM   23  C   UNL     1      -7.304   8.087  68.619  1.00  0.00    -0.089 C  
HETATM   24  C   UNL     1      -7.257   9.672  68.559  1.00  0.00    -0.070 C  
HETATM   25  O   UNL     1      -7.071  10.090  67.195  1.00  0.00    -0.087 OA 
HETATM   26  H2  UNL     1      -8.378   5.735  69.942  1.00  0.00     0.000 HD 
HETATM   27  H1  UNL     1      -6.670   5.818  69.994  1.00  0.00     0.000 HD 
HETATM   28  H   UNL     1      -6.269   9.711  66.853  1.00  0.00     0.000 HD 
BRANCH  23  29
HETATM   29  O   UNL     1      -6.156   7.464  67.962  1.00  0.00    -0.033 OA 
BRANCH  29  30
HETATM   30  C   UNL     1      -6.557   6.658  66.817  1.00  0.00    -0.048 C  
HETATM   31  O   UNL     1      -7.813   6.010  67.052  1.00  0.00    -0.100 OA 
HETATM   32  C   UNL     1      -8.895   6.956  67.114  1.00  0.00    -0.120 C  
HETATM   33  C   UNL     1      -9.097   7.573  65.730  1.00  0.00     0.029 C  
HETATM   34  H   UNL     1      -5.368   8.585  64.406  1.00  0.00     0.000 HD 
HETATM   35  O   UNL     1     -10.208   8.471  65.714  1.00  0.00    -0.274 OA 
HETATM   36  C   UNL     1      -7.808   8.321  65.312  1.00  0.00    -0.120 C  
HETATM   37  H1  UNL     1      -7.106   9.339  63.660  1.00  0.00     0.000 HD 
HETATM   38  H2  UNL     1      -8.788   9.430  63.836  1.00  0.00     0.000 HD 
HETATM   39  C   UNL     1      -6.577   7.412  65.462  1.00  0.00    -0.045 C  
HETATM   40  N   UNL     1      -7.957   8.847  63.936  1.00  0.00    -0.145 NA 
HETATM   41  H   UNL     1     -10.334   8.855  64.854  1.00  0.00     0.000 HD 
HETATM   42  O   UNL     1      -5.356   8.122  65.236  1.00  0.00    -0.032 OA 
BRANCH  32  43
HETATM   43  C   UNL     1     -10.126   6.216  67.639  1.00  0.00    -0.155 C  
HETATM   44  O   UNL     1     -11.008   5.947  66.540  1.00  0.00    -0.628 OA 
HETATM   45  H   UNL     1     -11.773   5.488  66.866  1.00  0.00     0.000 HD 
ENDBRANCH  32  43
ENDBRANCH  29  30
ENDBRANCH  23  29
ENDBRANCH  14  15
ENDBRANCH   8  14
TORSDOF 6
ENDMDL
MODEL      272
REMARK 921   NORMALIZED FREE ENERGY PREDICTED BY IDOCK:   -1.43 KCAL/MOL
REMARK 922        TOTAL FREE ENERGY PREDICTED BY IDOCK:   -3.49 KCAL/MOL
REMARK 923 INTER-LIGAND FREE ENERGY PREDICTED BY IDOCK:   -6.26 KCAL/MOL
REMARK 924 INTRA-LIGAND FREE ENERGY PREDICTED BY IDOCK:    2.77 KCAL/MOL
REMARK 927      BINDING AFFINITY PREDICTED BY RF-SCORE:    0.00 PKD
ROOT
HETATM    1  C   UNL     1     -13.259  14.678  71.685  1.00  0.00    -0.349 C  
HETATM    2  C   UNL     1     -13.190  13.562  72.735  1.00  0.00    -0.361 C  
HETATM    3  N   UNL     1     -13.037  15.945  72.416  1.00  0.00    -0.459 NA 
HETATM    4  H1  UNL     1     -13.083  16.686  71.718  1.00  0.00     0.000 HD 
HETATM    5  C   UNL     1     -13.089  12.181  72.131  1.00  0.00    -0.380 C  
HETATM    6  H2  UNL     1     -12.175  15.953  72.962  1.00  0.00     0.000 HD 
HETATM    7  C   UNL     1     -12.069  12.120  70.995  1.00  0.00     0.047 C  
HETATM    8  C   UNL     1     -12.359  14.466  70.396  1.00  0.00    -0.342 C  
HETATM    9  O   UNL     1     -12.316  13.101  69.976  1.00  0.00    -0.262 OA 
ENDROOT
BRANCH   7  10
HETATM   10  C   UNL     1     -12.185  10.716  70.340  1.00  0.00    -0.345 C  
HETATM   11  N   UNL     1     -13.525  10.438  69.822  1.00  0.00    -0.099 NA 
HETATM   12  H1  UNL     1     -13.600   9.516  69.392  1.00  0.00     0.000 HD 
HETATM   13  H2  UNL     1     -13.824  11.167  69.175  1.00  0.00     0.000 HD 
ENDBRANCH   7  10
BRANCH   8  14
HETATM   14  O   UNL     1     -11.078  15.071  70.568  1.00  0.00    -0.257 OA 
BRANCH  14  15
HETATM   15  C   UNL     1     -10.265  15.452  69.429  1.00  0.00    -0.262 C  
HETATM   16  C   UNL     1     -10.989  16.723  68.905  1.00  0.00    -0.259 C  
HETATM   17  N   UNL     1     -10.925  17.818  69.891  1.00  0.00     0.448 NA 
HETATM   18  C   UNL     1     -10.474  17.303  67.603  1.00  0.00    -0.363 C  
HETATM   19  H2  UNL     1      -9.964  18.020  70.166  1.00  0.00     0.000 HD 
HETATM   20  H1  UNL     1     -11.400  18.653  69.547  1.00  0.00     0.000 HD 
HETATM   21  C   UNL     1     -10.333  16.272  66.495  1.00  0.00    -0.307 C  
HETATM   22  N   UNL     1      -9.871  17.043  65.330  1.00  0.00    -0.199 NA 
HETATM   23  C   UNL     1      -9.398  15.125  66.993  1.00  0.00    -0.230 C  
HETATM   24  C   UNL     1     -10.057  14.424  68.255  1.00  0.00    -0.239 C  
HETATM   25  O   UNL     1      -9.206  13.351  68.699  1.00  0.00    -0.353 OA 
HETATM   26  H2  UNL     1      -9.026  17.588  65.500  1.00  0.00     0.000 HD 
HETATM   27  H1  UNL     1      -9.776  16.351  64.586  1.00  0.00     0.000 HD 
HETATM   28  H   UNL     1      -9.080  12.730  67.990  1.00  0.00     0.000 HD 
BRANCH  23  29
HETATM   29  O   UNL     1      -9.046  14.175  65.939  1.00  0.00     0.017 OA 
BRANCH  29  30
HETATM   30  C   UNL     1     -10.224  13.671  65.246  1.00  0.00    -0.323 C  
HETATM   31  O   UNL     1      -9.868  13.037  64.011  1.00  0.00    -0.232 OA 
HETATM   32  C   UNL     1      -9.136  11.818  64.231  1.00  0.00     0.384 C  
HETATM   33  C   UNL     1     -10.066  10.789  64.873  1.00  0.00    -0.322 C  
HETATM   34  H   UNL     1     -12.005  12.760  67.878  1.00  0.00     0.000 HD 
HETATM   35  O   UNL     1      -9.413   9.531  65.051  1.00  0.00    -0.343 OA 
HETATM   36  C   UNL     1     -10.557  11.326  66.239  1.00  0.00    -0.263 C  
HETATM   37  H1  UNL     1     -11.853  10.735  67.731  1.00  0.00     0.000 HD 
HETATM   38  H2  UNL     1     -11.150   9.435  66.904  1.00  0.00     0.000 HD 
HETATM   39  C   UNL     1     -11.134  12.743  66.093  1.00  0.00    -0.290 C  
HETATM   40  N   UNL     1     -11.530  10.380  66.831  1.00  0.00     0.021 NA 
HETATM   41  H   UNL     1      -9.990   8.891  65.450  1.00  0.00     0.000 HD 
HETATM   42  O   UNL     1     -11.448  13.328  67.359  1.00  0.00    -0.297 OA 
BRANCH  32  43
HETATM   43  C   UNL     1      -8.567  11.371  62.884  1.00  0.00     0.095 C  
HETATM   44  O   UNL     1      -8.245   9.975  62.958  1.00  0.00    -0.139 OA 
HETATM   45  H   UNL     1      -7.891   9.698  62.121  1.00  0.00     0.000 HD 
ENDBRANCH  32  43
ENDBRANCH  29  30
ENDBRANCH  23  29
ENDBRANCH  14  15
ENDBRANCH   8  14
TORSDOF 6
ENDMDL
MODEL      273
REMARK 921   NORMALIZED FREE ENERGY PREDICTED BY IDOCK:   -1.27 KCAL/MOL
REMARK 922        TOTAL FREE ENERGY PREDICTED BY IDOCK:   -3.27 KCAL/MOL
REMARK 923 INTER-LIGAND FREE ENERGY PREDICTED BY IDOCK:   -3.28 KCAL/MOL
REMARK 924 INTRA-LIGAND FREE ENERGY PREDICTED BY IDOCK:    0.01 KCAL/MOL
REMARK 927      BINDING AFFINITY PREDICTED BY RF-SCORE:    0.00 PKD
ROOT
HETATM    1  C   UNL     1      -7.090  11.410  69.482  1.00  0.00    -0.019 C  
HETATM    2  C   UNL     1      -6.107  10.825  68.461  1.00  0.00    -0.043 C  
HETATM    3  N   UNL     1      -7.611  12.658  68.883  1.00  0.00    -0.305 NA 
HETATM    4  H1  UNL     1      -8.264  13.048  69.562  1.00  0.00     0.000 HD 
HETATM    5  C   UNL     1      -5.711   9.398  68.765  1.00  0.00    -0.040 C  
HETATM    6  H2  UNL     1      -8.019  12.525  67.957  1.00  0.00     0.000 HD 
HETATM    7  C   UNL     1      -6.912   8.531  69.139  1.00  0.00    -0.063 C  
HETATM    8  C   UNL     1      -8.188  10.406  70.034  1.00  0.00     0.204 C  
HETATM    9  O   UNL     1      -7.679   9.085  70.220  1.00  0.00    -0.074 OA 
ENDROOT
BRANCH   7  10
HETATM   10  C   UNL     1      -6.365   7.153  69.603  1.00  0.00    -0.035 C  
HETATM   11  N   UNL     1      -6.889   6.741  70.905  1.00  0.00    -0.057 NA 
HETATM   12  H1  UNL     1      -6.530   5.836  71.209  1.00  0.00     0.000 HD 
HETATM   13  H2  UNL     1      -7.909   6.747  70.905  1.00  0.00     0.000 HD 
ENDBRANCH   7  10
BRANCH   8  14
HETATM   14  O   UNL     1      -9.378  10.476  69.247  1.00  0.00    -0.199 OA 
BRANCH  14  15
HETATM   15  C   UNL     1     -10.013   9.278  68.735  1.00  0.00    -0.181 C  
HETATM   16  C   UNL     1     -10.274   8.454  70.026  1.00  0.00    -0.202 C  
HETATM   17  N   UNL     1     -11.240   9.135  70.909  1.00  0.00    -0.274 NA 
HETATM   18  C   UNL     1     -10.806   7.047  69.832  1.00  0.00    -0.280 C  
HETATM   19  H2  UNL     1     -12.108   9.350  70.420  1.00  0.00     0.000 HD 
HETATM   20  H1  UNL     1     -11.411   8.594  71.757  1.00  0.00     0.000 HD 
HETATM   21  C   UNL     1     -10.007   6.232  68.828  1.00  0.00    -0.149 C  
HETATM   22  N   UNL     1     -10.656   4.910  68.828  1.00  0.00     0.115 NA 
HETATM   23  C   UNL     1      -9.977   7.000  67.470  1.00  0.00    -0.156 C  
HETATM   24  C   UNL     1      -9.254   8.397  67.674  1.00  0.00    -0.134 C  
HETATM   25  O   UNL     1      -9.205   9.094  66.416  1.00  0.00    -0.159 OA 
HETATM   26  H2  UNL     1     -11.658   4.939  68.638  1.00  0.00     0.000 HD 
HETATM   27  H1  UNL     1     -10.121   4.363  68.154  1.00  0.00     0.000 HD 
HETATM   28  H   UNL     1      -8.746   8.563  65.775  1.00  0.00     0.000 HD 
BRANCH  23  29
HETATM   29  O   UNL     1      -9.393   6.216  66.382  1.00  0.00    -0.153 OA 
BRANCH  29  30
HETATM   30  C   UNL     1      -8.030   5.801  66.682  1.00  0.00    -0.102 C  
HETATM   31  O   UNL     1      -7.975   4.410  67.024  1.00  0.00    -0.100 OA 
HETATM   32  C   UNL     1      -8.274   3.573  65.893  1.00  0.00    -0.097 C  
HETATM   33  C   UNL     1      -7.150   3.705  64.865  1.00  0.00    -0.065 C  
HETATM   34  H   UNL     1      -6.433   7.709  64.505  1.00  0.00     0.000 HD 
HETATM   35  O   UNL     1      -7.358   2.839  63.747  1.00  0.00    -0.057 OA 
HETATM   36  C   UNL     1      -7.066   5.174  64.386  1.00  0.00    -0.050 C  
HETATM   37  H1  UNL     1      -5.869   6.304  63.143  1.00  0.00     0.000 HD 
HETATM   38  H2  UNL     1      -5.968   4.680  62.677  1.00  0.00     0.000 HD 
HETATM   39  C   UNL     1      -6.988   6.135  65.583  1.00  0.00    -0.057 C  
HETATM   40  N   UNL     1      -5.924   5.335  63.458  1.00  0.00    -0.021 NA 
HETATM   41  H   UNL     1      -6.660   2.921  63.108  1.00  0.00     0.000 HD 
HETATM   42  O   UNL     1      -7.071   7.504  65.179  1.00  0.00    -0.060 OA 
BRANCH  32  43
HETATM   43  C   UNL     1      -8.464   2.147  66.411  1.00  0.00    -0.102 C  
HETATM   44  O   UNL     1      -9.747   2.052  67.046  1.00  0.00    -0.369 OA 
HETATM   45  H   UNL     1      -9.865   1.166  67.368  1.00  0.00     0.000 HD 
ENDBRANCH  32  43
ENDBRANCH  29  30
ENDBRANCH  23  29
ENDBRANCH  14  15
ENDBRANCH   8  14
TORSDOF 6
ENDMDL
MODEL      274
REMARK 921   NORMALIZED FREE ENERGY PREDICTED BY IDOCK:   -0.55 KCAL/MOL
REMARK 922        TOTAL FREE ENERGY PREDICTED BY IDOCK:   -2.30 KCAL/MOL
REMARK 923 INTER-LIGAND FREE ENERGY PREDICTED BY IDOCK:   -4.22 KCAL/MOL
REMARK 924 INTRA-LIGAND FREE ENERGY PREDICTED BY IDOCK:    1.91 KCAL/MOL
REMARK 927      BINDING AFFINITY PREDICTED BY RF-SCORE:    0.00 PKD
ROOT
HETATM    1  C   UNL     1     -10.109  11.247  66.750  1.00  0.00    -0.219 C  
HETATM    2  C   UNL     1     -10.621  12.406  67.613  1.00  0.00    -0.236 C  
HETATM    3  N   UNL     1      -9.029  11.807  65.908  1.00  0.00    -0.380 NA 
HETATM    4  H1  UNL     1      -8.688  11.037  65.334  1.00  0.00     0.000 HD 
HETATM    5  C   UNL     1     -11.512  11.956  68.749  1.00  0.00    -0.347 C  
HETATM    6  H2  UNL     1      -8.295  12.270  66.444  1.00  0.00     0.000 HD 
HETATM    7  C   UNL     1     -10.938  10.748  69.489  1.00  0.00    -0.266 C  
HETATM    8  C   UNL     1      -9.744   9.916  67.533  1.00  0.00    -0.160 C  
HETATM    9  O   UNL     1     -10.642   9.651  68.612  1.00  0.00    -0.210 OA 
ENDROOT
BRANCH   7  10
HETATM   10  C   UNL     1     -12.014  10.270  70.502  1.00  0.00    -0.323 C  
HETATM   11  N   UNL     1     -12.045  11.074  71.723  1.00  0.00     0.196 NA 
HETATM   12  H1  UNL     1     -12.752  10.759  72.388  1.00  0.00     0.000 HD 
HETATM   13  H2  UNL     1     -12.164  12.063  71.505  1.00  0.00     0.000 HD 
ENDBRANCH   7  10
BRANCH   8  14
HETATM   14  O   UNL     1      -8.363   9.905  67.897  1.00  0.00    -0.113 OA 
BRANCH  14  15
HETATM   15  C   UNL     1      -7.580   8.686  67.843  1.00  0.00    -0.098 C  
HETATM   16  C   UNL     1      -7.855   8.169  66.404  1.00  0.00    -0.093 C  
HETATM   17  N   UNL     1      -7.318   9.097  65.391  1.00  0.00    -0.088 NA 
HETATM   18  C   UNL     1      -7.294   6.803  66.059  1.00  0.00    -0.075 C  
HETATM   19  H2  UNL     1      -6.326   9.281  65.540  1.00  0.00     0.000 HD 
HETATM   20  H1  UNL     1      -7.499   8.757  64.446  1.00  0.00     0.000 HD 
HETATM   21  C   UNL     1      -7.631   5.734  67.086  1.00  0.00    -0.099 C  
HETATM   22  N   UNL     1      -7.038   4.501  66.542  1.00  0.00    -0.073 NA 
HETATM   23  C   UNL     1      -7.117   6.203  68.483  1.00  0.00    -0.082 C  
HETATM   24  C   UNL     1      -7.858   7.545  68.891  1.00  0.00    -0.124 C  
HETATM   25  O   UNL     1      -7.402   7.963  70.190  1.00  0.00    -0.067 OA 
HETATM   26  H2  UNL     1      -6.043   4.576  66.330  1.00  0.00     0.000 HD 
HETATM   27  H1  UNL     1      -7.263   3.784  67.231  1.00  0.00     0.000 HD 
HETATM   28  H   UNL     1      -7.570   7.274  70.824  1.00  0.00     0.000 HD 
BRANCH  23  29
HETATM   29  O   UNL     1      -7.223   5.166  69.509  1.00  0.00    -0.054 OA 
BRANCH  29  30
HETATM   30  C   UNL     1      -8.415   4.347  69.333  1.00  0.00    -0.073 C  
HETATM   31  O   UNL     1      -8.390   3.203  70.196  1.00  0.00    -0.048 OA 
HETATM   32  C   UNL     1      -8.516   3.577  71.579  1.00  0.00    -0.072 C  
HETATM   33  C   UNL     1      -9.917   4.139  71.817  1.00  0.00    -0.176 C  
HETATM   34  H   UNL     1     -10.602   6.760  68.761  1.00  0.00     0.000 HD 
HETATM   35  O   UNL     1     -10.126   4.463  73.193  1.00  0.00    -0.139 OA 
HETATM   36  C   UNL     1     -10.117   5.399  70.942  1.00  0.00    -0.219 C  
HETATM   37  H1  UNL     1     -11.634   6.732  70.516  1.00  0.00     0.000 HD 
HETATM   38  H2  UNL     1     -11.744   6.071  72.071  1.00  0.00     0.000 HD 
HETATM   39  C   UNL     1      -9.758   5.109  69.476  1.00  0.00    -0.192 C  
HETATM   40  N   UNL     1     -11.502   5.902  71.094  1.00  0.00    -0.176 NA 
HETATM   41  H   UNL     1     -10.996   4.812  73.341  1.00  0.00     0.000 HD 
HETATM   42  O   UNL     1      -9.779   6.292  68.674  1.00  0.00    -0.126 OA 
BRANCH  32  43
HETATM   43  C   UNL     1      -8.201   2.341  72.423  1.00  0.00    -0.054 C  
HETATM   44  O   UNL     1      -7.206   1.560  71.746  1.00  0.00    -0.029 OA 
HETATM   45  H   UNL     1      -7.011   0.792  72.271  1.00  0.00     0.000 HD 
ENDBRANCH  32  43
ENDBRANCH  29  30
ENDBRANCH  23  29
ENDBRANCH  14  15
ENDBRANCH   8  14
TORSDOF 6
ENDMDL
MODEL      275
REMARK 921   NORMALIZED FREE ENERGY PREDICTED BY IDOCK:   -0.54 KCAL/MOL
REMARK 922        TOTAL FREE ENERGY PREDICTED BY IDOCK:   -2.28 KCAL/MOL
REMARK 923 INTER-LIGAND FREE ENERGY PREDICTED BY IDOCK:   -4.29 KCAL/MOL
REMARK 924 INTRA-LIGAND FREE ENERGY PREDICTED BY IDOCK:    2.00 KCAL/MOL
REMARK 927      BINDING AFFINITY PREDICTED BY RF-SCORE:    0.00 PKD
ROOT
HETATM    1  C   UNL     1      -9.096  10.283  68.543  1.00  0.00    -0.138 C  
HETATM    2  C   UNL     1     -10.026  11.352  69.129  1.00  0.00    -0.005 C  
HETATM    3  N   UNL     1      -8.896   9.281  69.613  1.00  0.00    -0.144 NA 
HETATM    4  H1  UNL     1      -8.277   8.570  69.223  1.00  0.00     0.000 HD 
HETATM    5  C   UNL     1     -10.586  12.292  68.086  1.00  0.00    -0.232 C  
HETATM    6  H2  UNL     1      -9.767   8.902  69.983  1.00  0.00     0.000 HD 
HETATM    7  C   UNL     1     -11.086  11.549  66.848  1.00  0.00    -0.307 C  
HETATM    8  C   UNL     1      -9.524   9.698  67.131  1.00  0.00    -0.148 C  
HETATM    9  O   UNL     1     -10.086  10.693  66.274  1.00  0.00    -0.220 OA 
ENDROOT
BRANCH   7  10
HETATM   10  C   UNL     1     -11.464  12.617  65.786  1.00  0.00    -0.358 C  
HETATM   11  N   UNL     1     -12.421  12.123  64.795  1.00  0.00    -0.447 NA 
HETATM   12  H1  UNL     1     -12.668  12.825  64.098  1.00  0.00     0.000 HD 
HETATM   13  H2  UNL     1     -13.254  11.749  65.249  1.00  0.00     0.000 HD 
ENDBRANCH   7  10
BRANCH   8  14
HETATM   14  O   UNL     1     -10.330   8.531  67.289  1.00  0.00    -0.253 OA 
BRANCH  14  15
HETATM   15  C   UNL     1      -9.916   7.443  68.155  1.00  0.00    -0.166 C  
HETATM   16  C   UNL     1      -9.502   6.341  67.142  1.00  0.00    -0.124 C  
HETATM   17  N   UNL     1      -8.329   6.758  66.349  1.00  0.00    -0.116 NA 
HETATM   18  C   UNL     1      -9.151   4.987  67.725  1.00  0.00    -0.123 C  
HETATM   19  H2  UNL     1      -7.550   7.030  66.948  1.00  0.00     0.000 HD 
HETATM   20  H1  UNL     1      -8.057   6.035  65.684  1.00  0.00     0.000 HD 
HETATM   21  C   UNL     1     -10.195   4.457  68.695  1.00  0.00     0.245 C  
HETATM   22  N   UNL     1      -9.686   3.136  69.100  1.00  0.00     0.007 NA 
HETATM   23  C   UNL     1     -10.402   5.507  69.831  1.00  0.00    -0.298 C  
HETATM   24  C   UNL     1     -10.939   6.861  69.201  1.00  0.00    -0.199 C  
HETATM   25  O   UNL     1     -11.153   7.821  70.252  1.00  0.00    -0.257 OA 
HETATM   26  H2  UNL     1      -8.738   3.153  69.477  1.00  0.00     0.000 HD 
HETATM   27  H1  UNL     1     -10.386   2.781  69.751  1.00  0.00     0.000 HD 
HETATM   28  H   UNL     1     -11.770   7.469  70.883  1.00  0.00     0.000 HD 
BRANCH  23  29
HETATM   29  O   UNL     1     -11.248   5.016  70.918  1.00  0.00     0.287 OA 
BRANCH  29  30
HETATM   30  C   UNL     1     -10.516   4.908  72.171  1.00  0.00    -0.192 C  
HETATM   31  O   UNL     1      -9.234   4.299  71.972  1.00  0.00    -0.118 OA 
HETATM   32  C   UNL     1      -8.355   5.148  71.213  1.00  0.00    -0.118 C  
HETATM   33  C   UNL     1      -8.008   6.380  72.048  1.00  0.00    -0.108 C  
HETATM   34  H   UNL     1     -11.546   7.707  73.598  1.00  0.00     0.000 HD 
HETATM   35  O   UNL     1      -7.079   7.228  71.371  1.00  0.00    -0.063 OA 
HETATM   36  C   UNL     1      -9.305   7.164  72.363  1.00  0.00    -0.134 C  
HETATM   37  H1  UNL     1      -9.851   8.827  73.456  1.00  0.00     0.000 HD 
HETATM   38  H2  UNL     1      -8.270   8.912  72.858  1.00  0.00     0.000 HD 
HETATM   39  C   UNL     1     -10.373   6.235  72.962  1.00  0.00    -0.212 C  
HETATM   40  N   UNL     1      -8.996   8.311  73.248  1.00  0.00    -0.244 NA 
HETATM   41  H   UNL     1      -6.863   7.994  71.890  1.00  0.00     0.000 HD 
HETATM   42  O   UNL     1     -11.633   6.894  73.115  1.00  0.00    -0.029 OA 
BRANCH  32  43
HETATM   43  C   UNL     1      -7.135   4.314  70.817  1.00  0.00    -0.037 C  
HETATM   44  O   UNL     1      -6.648   4.779  69.550  1.00  0.00    -0.034 OA 
HETATM   45  H   UNL     1      -5.890   4.261  69.305  1.00  0.00     0.000 HD 
ENDBRANCH  32  43
ENDBRANCH  29  30
ENDBRANCH  23  29
ENDBRANCH  14  15
ENDBRANCH   8  14
TORSDOF 6
ENDMDL
MODEL      276
REMARK 921   NORMALIZED FREE ENERGY PREDICTED BY IDOCK:   -0.18 KCAL/MOL
REMARK 922        TOTAL FREE ENERGY PREDICTED BY IDOCK:   -1.80 KCAL/MOL
REMARK 923 INTER-LIGAND FREE ENERGY PREDICTED BY IDOCK:   -2.89 KCAL/MOL
REMARK 924 INTRA-LIGAND FREE ENERGY PREDICTED BY IDOCK:    1.09 KCAL/MOL
REMARK 927      BINDING AFFINITY PREDICTED BY RF-SCORE:    0.00 PKD
ROOT
HETATM    1  C   UNL     1      -6.931  11.697  66.561  1.00  0.00     0.049 C  
HETATM    2  C   UNL     1      -7.070  13.147  67.041  1.00  0.00     0.307 C  
HETATM    3  N   UNL     1      -5.503  11.346  66.723  1.00  0.00    -0.112 NA 
HETATM    4  H1  UNL     1      -5.411  10.382  66.404  1.00  0.00     0.000 HD 
HETATM    5  C   UNL     1      -8.507  13.575  67.237  1.00  0.00    -0.200 C  
HETATM    6  H2  UNL     1      -5.153  11.495  67.670  1.00  0.00     0.000 HD 
HETATM    7  C   UNL     1      -9.327  12.522  67.981  1.00  0.00    -0.205 C  
HETATM    8  C   UNL     1      -7.964  10.665  67.182  1.00  0.00    -0.121 C  
HETATM    9  O   UNL     1      -9.264  11.229  67.359  1.00  0.00    -0.159 OA 
ENDROOT
BRANCH   7  10
HETATM   10  C   UNL     1     -10.809  12.987  67.961  1.00  0.00    -0.242 C  
HETATM   11  N   UNL     1     -11.041  14.112  67.055  1.00  0.00    -0.300 NA 
HETATM   12  H1  UNL     1     -12.014  14.417  67.042  1.00  0.00     0.000 HD 
HETATM   13  H2  UNL     1     -10.714  13.895  66.113  1.00  0.00     0.000 HD 
ENDBRANCH   7  10
BRANCH   8  14
HETATM   14  O   UNL     1      -7.423  10.049  68.352  1.00  0.00    -0.080 OA 
BRANCH  14  15
HETATM   15  C   UNL     1      -7.286   8.609  68.450  1.00  0.00    -0.086 C  
HETATM   16  C   UNL     1      -5.745   8.414  68.469  1.00  0.00    -0.037 C  
HETATM   17  N   UNL     1      -5.147   9.009  69.679  1.00  0.00    -0.034 NA 
HETATM   18  C   UNL     1      -5.246   6.984  68.414  1.00  0.00    -0.016 C  
HETATM   19  H2  UNL     1      -5.581   8.647  70.528  1.00  0.00     0.000 HD 
HETATM   20  H1  UNL     1      -4.135   8.881  69.691  1.00  0.00     0.000 HD 
HETATM   21  C   UNL     1      -5.875   6.165  67.299  1.00  0.00    -0.017 C  
HETATM   22  N   UNL     1      -5.227   4.847  67.399  1.00  0.00    -0.007 NA 
HETATM   23  C   UNL     1      -7.427   6.199  67.467  1.00  0.00    -0.082 C  
HETATM   24  C   UNL     1      -7.935   7.697  67.342  1.00  0.00    -0.119 C  
HETATM   25  O   UNL     1      -9.368   7.725  67.473  1.00  0.00    -0.137 OA 
HETATM   26  H2  UNL     1      -5.298   4.417  68.322  1.00  0.00     0.000 HD 
HETATM   27  H1  UNL     1      -5.650   4.297  66.651  1.00  0.00     0.000 HD 
HETATM   28  H   UNL     1      -9.759   7.174  66.804  1.00  0.00     0.000 HD 
BRANCH  23  29
HETATM   29  O   UNL     1      -8.121   5.290  66.556  1.00  0.00    -0.107 OA 
BRANCH  29  30
HETATM   30  C   UNL     1      -8.947   4.328  67.273  1.00  0.00    -0.124 C  
HETATM   31  O   UNL     1      -8.255   3.796  68.410  1.00  0.00    -0.077 OA 
HETATM   32  C   UNL     1      -8.054   4.795  69.425  1.00  0.00    -0.070 C  
HETATM   33  C   UNL     1      -9.409   5.184  70.016  1.00  0.00    -0.147 C  
HETATM   34  H   UNL     1     -11.892   5.764  66.827  1.00  0.00     0.000 HD 
HETATM   35  O   UNL     1      -9.265   6.124  71.082  1.00  0.00    -0.152 OA 
HETATM   36  C   UNL     1     -10.299   5.783  68.901  1.00  0.00    -0.227 C  
HETATM   37  H1  UNL     1     -12.233   6.475  68.704  1.00  0.00     0.000 HD 
HETATM   38  H2  UNL     1     -11.606   6.682  70.263  1.00  0.00     0.000 HD 
HETATM   39  C   UNL     1     -10.350   4.848  67.682  1.00  0.00    -0.020 C  
HETATM   40  N   UNL     1     -11.646   6.081  69.440  1.00  0.00    -0.067 NA 
HETATM   41  H   UNL     1     -10.106   6.367  71.450  1.00  0.00     0.000 HD 
HETATM   42  O   UNL     1     -11.033   5.445  66.576  1.00  0.00    -0.239 OA 
BRANCH  32  43
HETATM   43  C   UNL     1      -7.080   4.218  70.454  1.00  0.00    -0.041 C  
HETATM   44  O   UNL     1      -6.012   3.557  69.761  1.00  0.00    -0.021 OA 
HETATM   45  H   UNL     1      -5.408   3.199  70.401  1.00  0.00     0.000 HD 
ENDBRANCH  32  43
ENDBRANCH  29  30
ENDBRANCH  23  29
ENDBRANCH  14  15
ENDBRANCH   8  14
TORSDOF 6
ENDMDL
MODEL      277
REMARK 921   NORMALIZED FREE ENERGY PREDICTED BY IDOCK:   -0.12 KCAL/MOL
REMARK 922        TOTAL FREE ENERGY PREDICTED BY IDOCK:   -1.72 KCAL/MOL
REMARK 923 INTER-LIGAND FREE ENERGY PREDICTED BY IDOCK:   -4.86 KCAL/MOL
REMARK 924 INTRA-LIGAND FREE ENERGY PREDICTED BY IDOCK:    3.13 KCAL/MOL
REMARK 927      BINDING AFFINITY PREDICTED BY RF-SCORE:    0.00 PKD
ROOT
HETATM    1  C   UNL     1     -11.588   9.723  71.926  1.00  0.00     0.032 C  
HETATM    2  C   UNL     1     -12.685  10.321  71.038  1.00  0.00    -0.491 C  
HETATM    3  N   UNL     1     -12.201   8.565  72.614  1.00  0.00    -0.480 NA 
HETATM    4  H1  UNL     1     -11.471   8.168  73.204  1.00  0.00     0.000 HD 
HETATM    5  C   UNL     1     -12.159  11.320  70.032  1.00  0.00    -0.425 C  
HETATM    6  H2  UNL     1     -12.620   7.889  71.975  1.00  0.00     0.000 HD 
HETATM    7  C   UNL     1     -10.899  10.821  69.326  1.00  0.00    -0.242 C  
HETATM    8  C   UNL     1     -10.202   9.436  71.208  1.00  0.00    -0.270 C  
HETATM    9  O   UNL     1      -9.865  10.436  70.246  1.00  0.00     0.025 OA 
ENDROOT
BRANCH   7  10
HETATM   10  C   UNL     1     -10.355  11.992  68.463  1.00  0.00    -0.217 C  
HETATM   11  N   UNL     1     -10.580  13.302  69.073  1.00  0.00    -0.417 NA 
HETATM   12  H1  UNL     1     -10.222  14.071  68.505  1.00  0.00     0.000 HD 
HETATM   13  H2  UNL     1     -10.195  13.336  70.017  1.00  0.00     0.000 HD 
ENDBRANCH   7  10
BRANCH   8  14
HETATM   14  O   UNL     1     -10.158   8.098  70.710  1.00  0.00    -0.188 OA 
BRANCH  14  15
HETATM   15  C   UNL     1      -9.311   7.740  69.589  1.00  0.00    -0.153 C  
HETATM   16  C   UNL     1      -8.310   8.926  69.527  1.00  0.00    -0.119 C  
HETATM   17  N   UNL     1      -7.464   8.975  70.734  1.00  0.00    -0.102 NA 
HETATM   18  C   UNL     1      -7.357   8.943  68.348  1.00  0.00    -0.082 C  
HETATM   19  H2  UNL     1      -6.986   8.089  70.893  1.00  0.00     0.000 HD 
HETATM   20  H1  UNL     1      -6.807   9.754  70.693  1.00  0.00     0.000 HD 
HETATM   21  C   UNL     1      -8.049   8.755  67.007  1.00  0.00    -0.099 C  
HETATM   22  N   UNL     1      -6.964   8.847  66.017  1.00  0.00    -0.083 NA 
HETATM   23  C   UNL     1      -8.855   7.420  67.043  1.00  0.00    -0.128 C  
HETATM   24  C   UNL     1      -9.964   7.507  68.175  1.00  0.00    -0.172 C  
HETATM   25  O   UNL     1     -10.723   6.284  68.191  1.00  0.00    -0.233 OA 
HETATM   26  H2  UNL     1      -6.194   8.200  66.181  1.00  0.00     0.000 HD 
HETATM   27  H1  UNL     1      -7.428   8.721  65.117  1.00  0.00     0.000 HD 
HETATM   28  H   UNL     1     -11.117   6.143  67.337  1.00  0.00     0.000 HD 
BRANCH  23  29
HETATM   29  O   UNL     1      -9.408   7.050  65.740  1.00  0.00     0.030 OA 
BRANCH  29  30
HETATM   30  C   UNL     1      -8.882   5.777  65.268  1.00  0.00    -0.049 C  
HETATM   31  O   UNL     1      -7.463   5.702  65.451  1.00  0.00    -0.071 OA 
HETATM   32  C   UNL     1      -7.108   5.646  66.844  1.00  0.00    -0.070 C  
HETATM   33  C   UNL     1      -7.586   4.315  67.426  1.00  0.00    -0.077 C  
HETATM   34  H   UNL     1     -11.424   3.838  66.114  1.00  0.00     0.000 HD 
HETATM   35  O   UNL     1      -7.198   4.172  68.793  1.00  0.00    -0.054 OA 
HETATM   36  C   UNL     1      -9.126   4.227  67.302  1.00  0.00    -0.137 C  
HETATM   37  H1  UNL     1     -10.609   2.848  67.696  1.00  0.00     0.000 HD 
HETATM   38  H2  UNL     1      -9.273   2.704  68.726  1.00  0.00     0.000 HD 
HETATM   39  C   UNL     1      -9.575   4.522  65.862  1.00  0.00    -0.189 C  
HETATM   40  N   UNL     1      -9.594   2.906  67.778  1.00  0.00    -0.126 NA 
HETATM   41  H   UNL     1      -7.495   3.345  69.155  1.00  0.00     0.000 HD 
HETATM   42  O   UNL     1     -10.999   4.606  65.750  1.00  0.00    -0.237 OA 
BRANCH  32  43
HETATM   43  C   UNL     1      -5.596   5.849  66.945  1.00  0.00    -0.013 C  
HETATM   44  O   UNL     1      -5.189   6.796  65.946  1.00  0.00    -0.020 OA 
HETATM   45  H   UNL     1      -4.249   6.922  66.009  1.00  0.00     0.000 HD 
ENDBRANCH  32  43
ENDBRANCH  29  30
ENDBRANCH  23  29
ENDBRANCH  14  15
ENDBRANCH   8  14
TORSDOF 6
ENDMDL
MODEL      278
REMARK 921   NORMALIZED FREE ENERGY PREDICTED BY IDOCK:    0.34 KCAL/MOL
REMARK 922        TOTAL FREE ENERGY PREDICTED BY IDOCK:   -1.09 KCAL/MOL
REMARK 923 INTER-LIGAND FREE ENERGY PREDICTED BY IDOCK:   -1.10 KCAL/MOL
REMARK 924 INTRA-LIGAND FREE ENERGY PREDICTED BY IDOCK:    0.01 KCAL/MOL
REMARK 927      BINDING AFFINITY PREDICTED BY RF-SCORE:    0.00 PKD
ROOT
HETATM    1  C   UNL     1      -9.017   9.145  67.715  1.00  0.00    -0.127 C  
HETATM    2  C   UNL     1      -8.082   8.410  68.684  1.00  0.00    -0.122 C  
HETATM    3  N   UNL     1     -10.314   8.436  67.778  1.00  0.00    -0.230 NA 
HETATM    4  H1  UNL     1     -10.935   8.924  67.134  1.00  0.00     0.000 HD 
HETATM    5  C   UNL     1      -6.813   9.174  68.981  1.00  0.00    -0.055 C  
HETATM    6  H2  UNL     1     -10.689   8.359  68.724  1.00  0.00     0.000 HD 
HETATM    7  C   UNL     1      -7.080  10.650  69.270  1.00  0.00    -0.107 C  
HETATM    8  C   UNL     1      -9.089  10.720  67.890  1.00  0.00    -0.150 C  
HETATM    9  O   UNL     1      -7.824  11.293  68.223  1.00  0.00    -0.115 OA 
ENDROOT
BRANCH   7  10
HETATM   10  C   UNL     1      -5.703  11.360  69.378  1.00  0.00    -0.058 C  
HETATM   11  N   UNL     1      -5.327  11.668  70.758  1.00  0.00    -0.134 NA 
HETATM   12  H1  UNL     1      -4.423  12.134  70.829  1.00  0.00     0.000 HD 
HETATM   13  H2  UNL     1      -5.352  10.829  71.339  1.00  0.00     0.000 HD 
ENDBRANCH   7  10
BRANCH   8  14
HETATM   14  O   UNL     1     -10.153  11.082  68.771  1.00  0.00    -0.190 OA 
BRANCH  14  15
HETATM   15  C   UNL     1     -10.501  12.471  68.999  1.00  0.00     0.010 C  
HETATM   16  C   UNL     1     -11.819  12.362  69.815  1.00  0.00    -0.317 C  
HETATM   17  N   UNL     1     -11.583  11.733  71.128  1.00  0.00     0.302 NA 
HETATM   18  C   UNL     1     -12.547  13.661  70.097  1.00  0.00    -0.215 C  
HETATM   19  H2  UNL     1     -10.858  12.221  71.653  1.00  0.00     0.000 HD 
HETATM   20  H1  UNL     1     -12.449  11.661  71.664  1.00  0.00     0.000 HD 
HETATM   21  C   UNL     1     -12.752  14.521  68.861  1.00  0.00     0.583 C  
HETATM   22  N   UNL     1     -13.503  15.691  69.346  1.00  0.00     0.726 NA 
HETATM   23  C   UNL     1     -11.362  14.801  68.209  1.00  0.00    -0.301 C  
HETATM   24  C   UNL     1     -10.705  13.426  67.764  1.00  0.00    -0.248 C  
HETATM   25  O   UNL     1      -9.434  13.687  67.142  1.00  0.00    -0.227 OA 
HETATM   26  H2  UNL     1     -13.058  16.178  70.123  1.00  0.00     0.000 HD 
HETATM   27  H1  UNL     1     -13.641  16.268  68.517  1.00  0.00     0.000 HD 
HETATM   28  H   UNL     1      -9.558  14.264  66.396  1.00  0.00     0.000 HD 
BRANCH  23  29
HETATM   29  O   UNL     1     -11.426  15.774  67.119  1.00  0.00    -0.114 OA 
BRANCH  29  30
HETATM   30  C   UNL     1     -10.976  17.093  67.541  1.00  0.00    -0.108 C  
HETATM   31  O   UNL     1     -10.547  17.082  68.908  1.00  0.00    -0.325 OA 
HETATM   32  C   UNL     1      -9.344  16.313  69.081  1.00  0.00    -0.236 C  
HETATM   33  C   UNL     1      -8.190  17.030  68.379  1.00  0.00    -0.250 C  
HETATM   34  H   UNL     1      -9.609  18.090  64.700  1.00  0.00     0.000 HD 
HETATM   35  O   UNL     1      -6.950  16.347  68.578  1.00  0.00    -0.142 OA 
HETATM   36  C   UNL     1      -8.499  17.134  66.866  1.00  0.00    -0.222 C  
HETATM   37  H1  UNL     1      -7.637  17.974  65.191  1.00  0.00     0.000 HD 
HETATM   38  H2  UNL     1      -6.506  17.516  66.364  1.00  0.00     0.000 HD 
HETATM   39  C   UNL     1      -9.894  17.735  66.634  1.00  0.00    -0.322 C  
HETATM   40  N   UNL     1      -7.432  17.906  66.188  1.00  0.00    -0.381 NA 
HETATM   41  H   UNL     1      -6.233  16.792  68.142  1.00  0.00     0.000 HD 
HETATM   42  O   UNL     1     -10.272  17.697  65.256  1.00  0.00    -0.434 OA 
BRANCH  32  43
HETATM   43  C   UNL     1      -9.125  16.129  70.584  1.00  0.00     2.461 C  
HETATM   44  O   UNL     1     -10.003  15.097  71.056  1.00  0.00    -0.054 OA 
HETATM   45  H   UNL     1      -9.867  14.983  71.989  1.00  0.00     0.000 HD 
ENDBRANCH  32  43
ENDBRANCH  29  30
ENDBRANCH  23  29
ENDBRANCH  14  15
ENDBRANCH   8  14
TORSDOF 6
ENDMDL
MODEL      279
REMARK 921   NORMALIZED FREE ENERGY PREDICTED BY IDOCK:    0.41 KCAL/MOL
REMARK 922        TOTAL FREE ENERGY PREDICTED BY IDOCK:   -1.00 KCAL/MOL
REMARK 923 INTER-LIGAND FREE ENERGY PREDICTED BY IDOCK:   -1.54 KCAL/MOL
REMARK 924 INTRA-LIGAND FREE ENERGY PREDICTED BY IDOCK:    0.54 KCAL/MOL
REMARK 927      BINDING AFFINITY PREDICTED BY RF-SCORE:    0.00 PKD
ROOT
HETATM    1  C   UNL     1     -10.243  19.561  69.291  1.00  0.00    -0.101 C  
HETATM    2  C   UNL     1     -11.030  19.741  67.987  1.00  0.00     0.051 C  
HETATM    3  N   UNL     1     -11.203  19.814  70.389  1.00  0.00     2.271 NA 
HETATM    4  H1  UNL     1     -10.680  19.694  71.256  1.00  0.00     0.000 HD 
HETATM    5  C   UNL     1     -10.294  19.226  66.772  1.00  0.00    -0.527 C  
HETATM    6  H2  UNL     1     -12.041  19.234  70.337  1.00  0.00     0.000 HD 
HETATM    7  C   UNL     1      -9.669  17.853  67.014  1.00  0.00    -0.298 C  
HETATM    8  C   UNL     1      -9.407  18.218  69.410  1.00  0.00     0.321 C  
HETATM    9  O   UNL     1      -8.817  17.829  68.170  1.00  0.00    -0.253 OA 
ENDROOT
BRANCH   7  10
HETATM   10  C   UNL     1      -8.797  17.513  65.774  1.00  0.00     0.289 C  
HETATM   11  N   UNL     1      -7.403  17.236  66.116  1.00  0.00    -0.304 NA 
HETATM   12  H1  UNL     1      -6.831  17.013  65.302  1.00  0.00     0.000 HD 
HETATM   13  H2  UNL     1      -7.339  16.500  66.819  1.00  0.00     0.000 HD 
ENDBRANCH   7  10
BRANCH   8  14
HETATM   14  O   UNL     1     -10.177  17.197  70.045  1.00  0.00     0.148 OA 
BRANCH  14  15
HETATM   15  C   UNL     1     -10.443  15.935  69.384  1.00  0.00    -0.265 C  
HETATM   16  C   UNL     1     -11.611  15.350  70.227  1.00  0.00    -0.320 C  
HETATM   17  N   UNL     1     -12.822  16.185  70.113  1.00  0.00    -0.476 NA 
HETATM   18  C   UNL     1     -12.044  13.937  69.890  1.00  0.00    -0.406 C  
HETATM   19  H2  UNL     1     -13.093  16.320  69.140  1.00  0.00     0.000 HD 
HETATM   20  H1  UNL     1     -13.588  15.801  70.666  1.00  0.00     0.000 HD 
HETATM   21  C   UNL     1     -10.889  12.951  69.817  1.00  0.00     0.487 C  
HETATM   22  N   UNL     1     -11.527  11.657  69.527  1.00  0.00    -0.299 NA 
HETATM   23  C   UNL     1      -9.851  13.471  68.774  1.00  0.00    -0.042 C  
HETATM   24  C   UNL     1      -9.286  14.875  69.252  1.00  0.00    -0.104 C  
HETATM   25  O   UNL     1      -8.311  15.343  68.302  1.00  0.00    -0.145 OA 
HETATM   26  H2  UNL     1     -12.122  11.662  68.698  1.00  0.00     0.000 HD 
HETATM   27  H1  UNL     1     -10.752  10.995  69.478  1.00  0.00     0.000 HD 
HETATM   28  H   UNL     1      -7.613  14.703  68.223  1.00  0.00     0.000 HD 
BRANCH  23  29
HETATM   29  O   UNL     1      -8.791  12.504  68.491  1.00  0.00    -0.146 OA 
BRANCH  29  30
HETATM   30  C   UNL     1      -8.586  12.326  67.060  1.00  0.00    -0.191 C  
HETATM   31  O   UNL     1      -8.004  11.048  66.775  1.00  0.00    -0.138 OA 
HETATM   32  C   UNL     1      -8.917   9.973  67.057  1.00  0.00    -0.138 C  
HETATM   33  C   UNL     1     -10.080  10.035  66.066  1.00  0.00    -0.248 C  
HETATM   34  H   UNL     1     -11.252  13.945  65.965  1.00  0.00     0.000 HD 
HETATM   35  O   UNL     1     -10.987   8.946  66.253  1.00  0.00     0.342 OA 
HETATM   36  C   UNL     1     -10.827  11.379  66.239  1.00  0.00    -0.263 C  
HETATM   37  H1  UNL     1     -12.392  12.378  65.338  1.00  0.00     0.000 HD 
HETATM   38  H2  UNL     1     -12.535  10.694  65.248  1.00  0.00     0.000 HD 
HETATM   39  C   UNL     1      -9.845  12.560  66.185  1.00  0.00    -0.258 C  
HETATM   40  N   UNL     1     -11.900  11.491  65.224  1.00  0.00    -0.042 NA 
HETATM   41  H   UNL     1     -11.709   8.984  65.638  1.00  0.00     0.000 HD 
HETATM   42  O   UNL     1     -10.481  13.802  66.501  1.00  0.00    -0.276 OA 
BRANCH  32  43
HETATM   43  C   UNL     1      -8.127   8.665  66.992  1.00  0.00    -0.100 C  
HETATM   44  O   UNL     1      -7.829   8.238  68.328  1.00  0.00    -0.114 OA 
HETATM   45  H   UNL     1      -7.338   7.425  68.288  1.00  0.00     0.000 HD 
ENDBRANCH  32  43
ENDBRANCH  29  30
ENDBRANCH  23  29
ENDBRANCH  14  15
ENDBRANCH   8  14
TORSDOF 6
ENDMDL
MODEL      280
REMARK 921   NORMALIZED FREE ENERGY PREDICTED BY IDOCK:    1.52 KCAL/MOL
REMARK 922        TOTAL FREE ENERGY PREDICTED BY IDOCK:    0.49 KCAL/MOL
REMARK 923 INTER-LIGAND FREE ENERGY PREDICTED BY IDOCK:    0.30 KCAL/MOL
REMARK 924 INTRA-LIGAND FREE ENERGY PREDICTED BY IDOCK:    0.20 KCAL/MOL
REMARK 927      BINDING AFFINITY PREDICTED BY RF-SCORE:    0.00 PKD
ROOT
HETATM    1  C   UNL     1     -13.082   9.406  69.881  1.00  0.00     1.606 C  
HETATM    2  C   UNL     1     -13.385   9.985  71.268  1.00  0.00    -0.410 C  
HETATM    3  N   UNL     1     -12.735  10.560  69.021  1.00  0.00    -0.353 NA 
HETATM    4  H1  UNL     1     -12.534  10.175  68.099  1.00  0.00     0.000 HD 
HETATM    5  C   UNL     1     -13.458   8.931  72.350  1.00  0.00    -0.499 C  
HETATM    6  H2  UNL     1     -11.979  11.133  69.396  1.00  0.00     0.000 HD 
HETATM    7  C   UNL     1     -12.310   7.928  72.259  1.00  0.00    -0.256 C  
HETATM    8  C   UNL     1     -12.055   8.197  69.849  1.00  0.00     0.912 C  
HETATM    9  O   UNL     1     -12.210   7.317  70.963  1.00  0.00    -0.328 OA 
ENDROOT
BRANCH   7  10
HETATM   10  C   UNL     1     -12.591   6.804  73.293  1.00  0.00     2.101 C  
HETATM   11  N   UNL     1     -11.511   5.821  73.374  1.00  0.00    -0.430 NA 
HETATM   12  H1  UNL     1     -11.695   5.083  74.054  1.00  0.00     0.000 HD 
HETATM   13  H2  UNL     1     -10.617   6.276  73.564  1.00  0.00     0.000 HD 
ENDBRANCH   7  10
BRANCH   8  14
HETATM   14  O   UNL     1     -10.722   8.670  69.650  1.00  0.00    -0.229 OA 
BRANCH  14  15
HETATM   15  C   UNL     1      -9.621   7.750  69.437  1.00  0.00    -0.156 C  
HETATM   16  C   UNL     1      -8.448   8.450  70.177  1.00  0.00    -0.126 C  
HETATM   17  N   UNL     1      -8.701   8.525  71.629  1.00  0.00    -0.182 NA 
HETATM   18  C   UNL     1      -7.080   7.814  70.024  1.00  0.00    -0.054 C  
HETATM   19  H2  UNL     1      -8.898   7.605  72.023  1.00  0.00     0.000 HD 
HETATM   20  H1  UNL     1      -7.930   8.984  72.115  1.00  0.00     0.000 HD 
HETATM   21  C   UNL     1      -6.706   7.525  68.579  1.00  0.00    -0.057 C  
HETATM   22  N   UNL     1      -5.348   6.962  68.656  1.00  0.00    -0.016 NA 
HETATM   23  C   UNL     1      -7.807   6.617  67.949  1.00  0.00    -0.112 C  
HETATM   24  C   UNL     1      -9.195   7.387  67.966  1.00  0.00    -0.132 C  
HETATM   25  O   UNL     1     -10.205   6.558  67.363  1.00  0.00    -0.140 OA 
HETATM   26  H2  UNL     1      -5.265   6.157  69.276  1.00  0.00     0.000 HD 
HETATM   27  H1  UNL     1      -5.096   6.768  67.686  1.00  0.00     0.000 HD 
HETATM   28  H   UNL     1      -9.947   6.338  66.474  1.00  0.00     0.000 HD 
BRANCH  23  29
HETATM   29  O   UNL     1      -7.452   6.126  66.618  1.00  0.00    -0.087 OA 
BRANCH  29  30
HETATM   30  C   UNL     1      -8.413   5.151  66.123  1.00  0.00    -0.115 C  
HETATM   31  O   UNL     1      -8.203   4.874  64.733  1.00  0.00    -0.113 OA 
HETATM   32  C   UNL     1      -6.966   4.176  64.511  1.00  0.00    -0.050 C  
HETATM   33  C   UNL     1      -7.070   2.774  65.113  1.00  0.00    -0.054 C  
HETATM   34  H   UNL     1      -8.671   3.278  68.836  1.00  0.00     0.000 HD 
HETATM   35  O   UNL     1      -5.892   2.007  64.861  1.00  0.00    -0.016 OA 
HETATM   36  C   UNL     1      -7.307   2.891  66.638  1.00  0.00    -0.070 C  
HETATM   37  H1  UNL     1      -7.658   1.620  68.226  1.00  0.00     0.000 HD 
HETATM   38  H2  UNL     1      -6.727   0.915  66.999  1.00  0.00     0.000 HD 
HETATM   39  C   UNL     1      -8.485   3.832  66.937  1.00  0.00    -0.105 C  
HETATM   40  N   UNL     1      -7.501   1.543  67.220  1.00  0.00    -0.057 NA 
HETATM   41  H   UNL     1      -5.956   1.136  65.234  1.00  0.00     0.000 HD 
HETATM   42  O   UNL     1      -8.628   4.085  68.337  1.00  0.00    -0.090 OA 
BRANCH  32  43
HETATM   43  C   UNL     1      -6.699   4.176  63.005  1.00  0.00    -0.035 C  
HETATM   44  O   UNL     1      -7.612   3.267  62.373  1.00  0.00    -0.051 OA 
HETATM   45  H   UNL     1      -7.446   3.267  61.438  1.00  0.00     0.000 HD 
ENDBRANCH  32  43
ENDBRANCH  29  30
ENDBRANCH  23  29
ENDBRANCH  14  15
ENDBRANCH   8  14
TORSDOF 6
ENDMDL
MODEL      281
REMARK 921   NORMALIZED FREE ENERGY PREDICTED BY IDOCK:    2.30 KCAL/MOL
REMARK 922        TOTAL FREE ENERGY PREDICTED BY IDOCK:    1.55 KCAL/MOL
REMARK 923 INTER-LIGAND FREE ENERGY PREDICTED BY IDOCK:   -4.13 KCAL/MOL
REMARK 924 INTRA-LIGAND FREE ENERGY PREDICTED BY IDOCK:    5.68 KCAL/MOL
REMARK 927      BINDING AFFINITY PREDICTED BY RF-SCORE:    0.00 PKD
ROOT
HETATM    1  C   UNL     1     -10.613  11.449  66.134  1.00  0.00    -0.265 C  
HETATM    2  C   UNL     1     -10.165  12.660  65.307  1.00  0.00    -0.302 C  
HETATM    3  N   UNL     1      -9.574  10.414  65.944  1.00  0.00    -0.193 NA 
HETATM    4  H1  UNL     1      -9.871   9.609  66.494  1.00  0.00     0.000 HD 
HETATM    5  C   UNL     1     -10.943  13.918  65.622  1.00  0.00    -0.290 C  
HETATM    6  H2  UNL     1      -8.633  10.736  66.173  1.00  0.00     0.000 HD 
HETATM    7  C   UNL     1     -11.107  14.134  67.126  1.00  0.00    -0.307 C  
HETATM    8  C   UNL     1     -11.008  11.753  67.641  1.00  0.00    -0.233 C  
HETATM    9  O   UNL     1     -11.688  13.000  67.788  1.00  0.00    -0.324 OA 
ENDROOT
BRANCH   7  10
HETATM   10  C   UNL     1     -12.066  15.340  67.320  1.00  0.00     0.368 C  
HETATM   11  N   UNL     1     -11.361  16.587  67.617  1.00  0.00    -0.032 NA 
HETATM   12  H1  UNL     1     -11.991  17.379  67.744  1.00  0.00     0.000 HD 
HETATM   13  H2  UNL     1     -10.661  16.789  66.902  1.00  0.00     0.000 HD 
ENDBRANCH   7  10
BRANCH   8  14
HETATM   14  O   UNL     1      -9.881  11.588  68.502  1.00  0.00    -0.192 OA 
BRANCH  14  15
HETATM   15  C   UNL     1      -9.039  10.410  68.423  1.00  0.00    -0.147 C  
HETATM   16  C   UNL     1      -7.748  10.959  67.757  1.00  0.00    -0.107 C  
HETATM   17  N   UNL     1      -7.073  11.939  68.629  1.00  0.00    -0.096 NA 
HETATM   18  C   UNL     1      -6.694   9.935  67.385  1.00  0.00    -0.074 C  
HETATM   19  H2  UNL     1      -6.882  11.551  69.552  1.00  0.00     0.000 HD 
HETATM   20  H1  UNL     1      -6.224  12.300  68.191  1.00  0.00     0.000 HD 
HETATM   21  C   UNL     1      -7.245   8.758  66.596  1.00  0.00    -0.081 C  
HETATM   22  N   UNL     1      -6.067   7.925  66.306  1.00  0.00    -0.044 NA 
HETATM   23  C   UNL     1      -8.390   8.093  67.422  1.00  0.00    -0.122 C  
HETATM   24  C   UNL     1      -9.557   9.145  67.642  1.00  0.00    -0.149 C  
HETATM   25  O   UNL     1     -10.623   8.524  68.383  1.00  0.00    -0.332 OA 
HETATM   26  H2  UNL     1      -5.533   7.657  67.133  1.00  0.00     0.000 HD 
HETATM   27  H1  UNL     1      -6.437   7.135  65.776  1.00  0.00     0.000 HD 
HETATM   28  H   UNL     1     -10.935   7.760  67.911  1.00  0.00     0.000 HD 
BRANCH  23  29
HETATM   29  O   UNL     1      -8.863   6.839  66.838  1.00  0.00    -0.114 OA 
BRANCH  29  30
HETATM   30  C   UNL     1      -7.778   5.888  66.641  1.00  0.00    -0.100 C  
HETATM   31  O   UNL     1      -7.204   5.489  67.892  1.00  0.00    -0.069 OA 
HETATM   32  C   UNL     1      -8.121   4.702  68.671  1.00  0.00    -0.082 C  
HETATM   33  C   UNL     1      -8.347   3.362  67.970  1.00  0.00    -0.084 C  
HETATM   34  H   UNL     1      -9.007   4.256  64.041  1.00  0.00     0.000 HD 
HETATM   35  O   UNL     1      -9.197   2.506  68.736  1.00  0.00    -0.137 OA 
HETATM   36  C   UNL     1      -8.969   3.613  66.576  1.00  0.00    -0.147 C  
HETATM   37  H1  UNL     1      -9.519   2.497  64.930  1.00  0.00     0.000 HD 
HETATM   38  H2  UNL     1      -9.637   1.641  66.387  1.00  0.00     0.000 HD 
HETATM   39  C   UNL     1      -8.146   4.645  65.788  1.00  0.00    -0.103 C  
HETATM   40  N   UNL     1      -9.109   2.330  65.850  1.00  0.00    -0.109 NA 
HETATM   41  H   UNL     1      -9.337   1.674  68.302  1.00  0.00     0.000 HD 
HETATM   42  O   UNL     1      -8.782   5.017  64.563  1.00  0.00    -0.151 OA 
BRANCH  32  43
HETATM   43  C   UNL     1      -7.535   4.566  70.077  1.00  0.00    -0.054 C  
HETATM   44  O   UNL     1      -8.127   3.426  70.716  1.00  0.00    -0.056 OA 
HETATM   45  H   UNL     1      -7.763   3.342  71.590  1.00  0.00     0.000 HD 
ENDBRANCH  32  43
ENDBRANCH  29  30
ENDBRANCH  23  29
ENDBRANCH  14  15
ENDBRANCH   8  14
TORSDOF 6
ENDMDL
MODEL      282
REMARK 921   NORMALIZED FREE ENERGY PREDICTED BY IDOCK:    2.73 KCAL/MOL
REMARK 922        TOTAL FREE ENERGY PREDICTED BY IDOCK:    2.13 KCAL/MOL
REMARK 923 INTER-LIGAND FREE ENERGY PREDICTED BY IDOCK:   -6.98 KCAL/MOL
REMARK 924 INTRA-LIGAND FREE ENERGY PREDICTED BY IDOCK:    9.11 KCAL/MOL
REMARK 927      BINDING AFFINITY PREDICTED BY RF-SCORE:    0.00 PKD
ROOT
HETATM    1  C   UNL     1     -11.529  14.838  68.455  1.00  0.00    -0.314 C  
HETATM    2  C   UNL     1     -11.034  15.844  69.501  1.00  0.00    -0.311 C  
HETATM    3  N   UNL     1     -10.436  14.702  67.466  1.00  0.00    -0.246 NA 
HETATM    4  H1  UNL     1     -10.766  14.033  66.771  1.00  0.00     0.000 HD 
HETATM    5  C   UNL     1     -11.889  15.877  70.747  1.00  0.00    -0.423 C  
HETATM    6  H2  UNL     1      -9.541  14.446  67.884  1.00  0.00     0.000 HD 
HETATM    7  C   UNL     1     -12.234  14.476  71.249  1.00  0.00    -0.355 C  
HETATM    8  C   UNL     1     -12.106  13.476  69.028  1.00  0.00    -0.291 C  
HETATM    9  O   UNL     1     -12.845  13.660  70.237  1.00  0.00    -0.164 OA 
ENDROOT
BRANCH   7  10
HETATM   10  C   UNL     1     -13.253  14.635  72.410  1.00  0.00    -0.406 C  
HETATM   11  N   UNL     1     -14.155  13.490  72.538  1.00  0.00    -0.758 NA 
HETATM   12  H1  UNL     1     -14.824  13.595  73.301  1.00  0.00     0.000 HD 
HETATM   13  H2  UNL     1     -13.629  12.621  72.631  1.00  0.00     0.000 HD 
ENDBRANCH   7  10
BRANCH   8  14
HETATM   14  O   UNL     1     -11.081  12.486  69.107  1.00  0.00    -0.243 OA 
BRANCH  14  15
HETATM   15  C   UNL     1     -11.373  11.082  68.891  1.00  0.00    -0.280 C  
HETATM   16  C   UNL     1     -11.149  10.468  70.301  1.00  0.00    -0.285 C  
HETATM   17  N   UNL     1     -12.130  10.990  71.272  1.00  0.00    -0.250 NA 
HETATM   18  C   UNL     1     -11.228   8.958  70.399  1.00  0.00    -0.259 C  
HETATM   19  H2  UNL     1     -13.087  10.851  70.949  1.00  0.00     0.000 HD 
HETATM   20  H1  UNL     1     -11.984  10.587  72.197  1.00  0.00     0.000 HD 
HETATM   21  C   UNL     1     -10.380   8.239  69.362  1.00  0.00    -0.222 C  
HETATM   22  N   UNL     1     -10.565   6.810  69.660  1.00  0.00    -0.220 NA 
HETATM   23  C   UNL     1     -10.811   8.721  67.941  1.00  0.00    -0.011 C  
HETATM   24  C   UNL     1     -10.549  10.281  67.815  1.00  0.00    -0.250 C  
HETATM   25  O   UNL     1     -10.925  10.720  66.496  1.00  0.00    -0.192 OA 
HETATM   26  H2  UNL     1     -11.540   6.511  69.680  1.00  0.00     0.000 HD 
HETATM   27  H1  UNL     1      -9.996   6.327  68.964  1.00  0.00     0.000 HD 
HETATM   28  H   UNL     1     -10.427  10.236  65.846  1.00  0.00     0.000 HD 
BRANCH  23  29
HETATM   29  O   UNL     1     -10.187   7.955  66.863  1.00  0.00    -0.263 OA 
BRANCH  29  30
HETATM   30  C   UNL     1      -8.733   8.000  66.936  1.00  0.00    -0.130 C  
HETATM   31  O   UNL     1      -8.158   8.258  65.649  1.00  0.00    -0.109 OA 
HETATM   32  C   UNL     1      -8.451   9.591  65.193  1.00  0.00    -0.149 C  
HETATM   33  C   UNL     1      -7.723  10.594  66.088  1.00  0.00    -0.145 C  
HETATM   34  H   UNL     1      -8.421   9.380  69.924  1.00  0.00     0.000 HD 
HETATM   35  O   UNL     1      -7.920  11.936  65.639  1.00  0.00    -0.013 OA 
HETATM   36  C   UNL     1      -8.231  10.444  67.542  1.00  0.00    -0.114 C  
HETATM   37  H1  UNL     1      -7.804  11.247  69.394  1.00  0.00     0.000 HD 
HETATM   38  H2  UNL     1      -7.499  12.316  68.117  1.00  0.00     0.000 HD 
HETATM   39  C   UNL     1      -8.161   8.977  67.996  1.00  0.00    -0.110 C  
HETATM   40  N   UNL     1      -7.469  11.347  68.435  1.00  0.00    -0.103 NA 
HETATM   41  H   UNL     1      -7.468  12.560  66.194  1.00  0.00     0.000 HD 
HETATM   42  O   UNL     1      -8.771   8.782  69.274  1.00  0.00    -0.132 OA 
BRANCH  32  43
HETATM   43  C   UNL     1      -8.044   9.676  63.721  1.00  0.00    -0.148 C  
HETATM   44  O   UNL     1      -6.862   8.888  63.522  1.00  0.00    -0.089 OA 
HETATM   45  H   UNL     1      -6.609   8.941  62.607  1.00  0.00     0.000 HD 
ENDBRANCH  32  43
ENDBRANCH  29  30
ENDBRANCH  23  29
ENDBRANCH  14  15
ENDBRANCH   8  14
TORSDOF 6
ENDMDL
MODEL      283
REMARK 921   NORMALIZED FREE ENERGY PREDICTED BY IDOCK:    2.96 KCAL/MOL
REMARK 922        TOTAL FREE ENERGY PREDICTED BY IDOCK:    2.44 KCAL/MOL
REMARK 923 INTER-LIGAND FREE ENERGY PREDICTED BY IDOCK:    0.17 KCAL/MOL
REMARK 924 INTRA-LIGAND FREE ENERGY PREDICTED BY IDOCK:    2.28 KCAL/MOL
REMARK 927      BINDING AFFINITY PREDICTED BY RF-SCORE:    0.00 PKD
ROOT
HETATM    1  C   UNL     1     -13.082   9.406  69.881  1.00  0.00     1.606 C  
HETATM    2  C   UNL     1     -13.385   9.985  71.268  1.00  0.00    -0.410 C  
HETATM    3  N   UNL     1     -12.735  10.560  69.021  1.00  0.00    -0.353 NA 
HETATM    4  H1  UNL     1     -12.534  10.175  68.099  1.00  0.00     0.000 HD 
HETATM    5  C   UNL     1     -13.458   8.931  72.350  1.00  0.00    -0.499 C  
HETATM    6  H2  UNL     1     -11.979  11.133  69.396  1.00  0.00     0.000 HD 
HETATM    7  C   UNL     1     -12.310   7.928  72.259  1.00  0.00    -0.256 C  
HETATM    8  C   UNL     1     -12.055   8.197  69.849  1.00  0.00     0.912 C  
HETATM    9  O   UNL     1     -12.210   7.317  70.963  1.00  0.00    -0.328 OA 
ENDROOT
BRANCH   7  10
HETATM   10  C   UNL     1     -12.591   6.804  73.293  1.00  0.00     2.101 C  
HETATM   11  N   UNL     1     -12.247   5.472  72.795  1.00  0.00    -0.452 NA 
HETATM   12  H1  UNL     1     -12.432   4.734  73.475  1.00  0.00     0.000 HD 
HETATM   13  H2  UNL     1     -11.279   5.440  72.477  1.00  0.00     0.000 HD 
ENDBRANCH   7  10
BRANCH   8  14
HETATM   14  O   UNL     1     -10.722   8.670  69.650  1.00  0.00    -0.229 OA 
BRANCH  14  15
HETATM   15  C   UNL     1      -9.621   7.750  69.437  1.00  0.00    -0.156 C  
HETATM   16  C   UNL     1      -8.569   8.236  70.472  1.00  0.00    -0.131 C  
HETATM   17  N   UNL     1      -9.054   8.050  71.854  1.00  0.00    -0.142 NA 
HETATM   18  C   UNL     1      -7.209   7.570  70.414  1.00  0.00    -0.064 C  
HETATM   19  H2  UNL     1      -9.332   7.085  72.026  1.00  0.00     0.000 HD 
HETATM   20  H1  UNL     1      -8.363   8.369  72.533  1.00  0.00     0.000 HD 
HETATM   21  C   UNL     1      -6.610   7.538  69.017  1.00  0.00    -0.044 C  
HETATM   22  N   UNL     1      -5.295   6.901  69.193  1.00  0.00    -0.014 NA 
HETATM   23  C   UNL     1      -7.614   6.823  68.058  1.00  0.00    -0.107 C  
HETATM   24  C   UNL     1      -8.969   7.648  68.008  1.00  0.00    -0.126 C  
HETATM   25  O   UNL     1      -9.884   7.001  67.106  1.00  0.00    -0.151 OA 
HETATM   26  H2  UNL     1      -5.332   5.990  69.651  1.00  0.00     0.000 HD 
HETATM   27  H1  UNL     1      -4.894   6.879  68.256  1.00  0.00     0.000 HD 
HETATM   28  H   UNL     1      -9.490   6.939  66.243  1.00  0.00     0.000 HD 
BRANCH  23  29
HETATM   29  O   UNL     1      -7.057   6.573  66.729  1.00  0.00    -0.066 OA 
BRANCH  29  30
HETATM   30  C   UNL     1      -6.339   7.731  66.214  1.00  0.00    -0.046 C  
HETATM   31  O   UNL     1      -5.585   7.394  65.043  1.00  0.00    -0.032 OA 
HETATM   32  C   UNL     1      -6.442   7.085  63.930  1.00  0.00    -0.043 C  
HETATM   33  C   UNL     1      -7.174   8.356  63.497  1.00  0.00    -0.096 C  
HETATM   34  H   UNL     1      -8.567  10.065  66.934  1.00  0.00     0.000 HD 
HETATM   35  O   UNL     1      -7.989   8.125  62.346  1.00  0.00    -0.140 OA 
HETATM   36  C   UNL     1      -8.047   8.866  64.669  1.00  0.00    -0.151 C  
HETATM   37  H1  UNL     1      -9.266  10.482  65.067  1.00  0.00     0.000 HD 
HETATM   38  H2  UNL     1      -9.221  10.069  63.426  1.00  0.00     0.000 HD 
HETATM   39  C   UNL     1      -7.217   8.983  65.957  1.00  0.00    -0.093 C  
HETATM   40  N   UNL     1      -8.691  10.146  64.294  1.00  0.00    -0.188 NA 
HETATM   41  H   UNL     1      -8.443   8.914  62.077  1.00  0.00     0.000 HD 
HETATM   42  O   UNL     1      -8.029   9.298  67.091  1.00  0.00    -0.105 OA 
BRANCH  32  43
HETATM   43  C   UNL     1      -5.570   6.477  62.830  1.00  0.00    -0.023 C  
HETATM   44  O   UNL     1      -5.192   5.149  63.221  1.00  0.00    -0.009 OA 
HETATM   45  H   UNL     1      -4.650   4.772  62.537  1.00  0.00     0.000 HD 
ENDBRANCH  32  43
ENDBRANCH  29  30
ENDBRANCH  23  29
ENDBRANCH  14  15
ENDBRANCH   8  14
TORSDOF 6
ENDMDL
MODEL      284
REMARK 921   NORMALIZED FREE ENERGY PREDICTED BY IDOCK:    3.25 KCAL/MOL
REMARK 922        TOTAL FREE ENERGY PREDICTED BY IDOCK:    2.83 KCAL/MOL
REMARK 923 INTER-LIGAND FREE ENERGY PREDICTED BY IDOCK:    2.46 KCAL/MOL
REMARK 924 INTRA-LIGAND FREE ENERGY PREDICTED BY IDOCK:    0.37 KCAL/MOL
REMARK 927      BINDING AFFINITY PREDICTED BY RF-SCORE:    0.00 PKD
ROOT
HETATM    1  C   UNL     1     -13.744  13.986  71.214  1.00  0.00    -0.160 C  
HETATM    2  C   UNL     1     -13.603  15.343  70.516  1.00  0.00     0.026 C  
HETATM    3  N   UNL     1     -14.067  13.008  70.152  1.00  0.00     3.432 NA 
HETATM    4  H1  UNL     1     -14.161  12.105  70.616  1.00  0.00     0.000 HD 
HETATM    5  C   UNL     1     -12.975  16.402  71.393  1.00  0.00     1.370 C  
HETATM    6  H2  UNL     1     -13.393  13.002  69.386  1.00  0.00     0.000 HD 
HETATM    7  C   UNL     1     -11.747  15.882  72.139  1.00  0.00    -0.485 C  
HETATM    8  C   UNL     1     -12.549  13.579  72.176  1.00  0.00    -0.014 C  
HETATM    9  O   UNL     1     -12.023  14.694  72.898  1.00  0.00    -0.159 OA 
ENDROOT
BRANCH   7  10
HETATM   10  C   UNL     1     -11.303  16.989  73.134  1.00  0.00     1.193 C  
HETATM   11  N   UNL     1     -12.133  17.039  74.337  1.00  0.00    -0.442 NA 
HETATM   12  H1  UNL     1     -11.841  17.766  74.990  1.00  0.00     0.000 HD 
HETATM   13  H2  UNL     1     -12.166  16.129  74.796  1.00  0.00     0.000 HD 
ENDBRANCH   7  10
BRANCH   8  14
HETATM   14  O   UNL     1     -11.570  12.815  71.472  1.00  0.00     1.435 OA 
BRANCH  14  15
HETATM   15  C   UNL     1     -11.951  11.877  70.434  1.00  0.00    -0.311 C  
HETATM   16  C   UNL     1     -11.514  10.512  71.034  1.00  0.00    -0.120 C  
HETATM   17  N   UNL     1     -12.291  10.187  72.245  1.00  0.00     0.095 NA 
HETATM   18  C   UNL     1     -11.635   9.306  70.124  1.00  0.00    -0.078 C  
HETATM   19  H2  UNL     1     -13.294  10.214  72.065  1.00  0.00     0.000 HD 
HETATM   20  H1  UNL     1     -12.004   9.291  72.639  1.00  0.00     0.000 HD 
HETATM   21  C   UNL     1     -11.008   9.515  68.755  1.00  0.00    -0.080 C  
HETATM   22  N   UNL     1     -11.197   8.229  68.063  1.00  0.00    -0.153 NA 
HETATM   23  C   UNL     1     -11.658  10.770  68.093  1.00  0.00    -0.197 C  
HETATM   24  C   UNL     1     -11.358  12.048  68.986  1.00  0.00    -0.275 C  
HETATM   25  O   UNL     1     -11.937  13.209  68.362  1.00  0.00    -0.341 OA 
HETATM   26  H2  UNL     1     -12.166   7.911  68.032  1.00  0.00     0.000 HD 
HETATM   27  H1  UNL     1     -10.776   8.370  67.144  1.00  0.00     0.000 HD 
HETATM   28  H   UNL     1     -11.579  13.312  67.488  1.00  0.00     0.000 HD 
BRANCH  23  29
HETATM   29  O   UNL     1     -11.260  10.952  66.697  1.00  0.00    -0.207 OA 
BRANCH  29  30
HETATM   30  C   UNL     1      -9.850  11.293  66.574  1.00  0.00    -0.208 C  
HETATM   31  O   UNL     1      -9.022  10.131  66.704  1.00  0.00    -0.138 OA 
HETATM   32  C   UNL     1      -9.185   9.235  65.591  1.00  0.00    -0.231 C  
HETATM   33  C   UNL     1      -8.627   9.898  64.332  1.00  0.00    -0.185 C  
HETATM   34  H   UNL     1     -10.110  13.703  64.325  1.00  0.00     0.000 HD 
HETATM   35  O   UNL     1      -8.698   9.024  63.204  1.00  0.00    -0.345 OA 
HETATM   36  C   UNL     1      -9.420  11.196  64.044  1.00  0.00    -0.214 C  
HETATM   37  H1  UNL     1      -9.354  12.751  62.691  1.00  0.00     0.000 HD 
HETATM   38  H2  UNL     1      -8.773  11.292  62.059  1.00  0.00     0.000 HD 
HETATM   39  C   UNL     1      -9.479  12.088  65.295  1.00  0.00    -0.026 C  
HETATM   40  N   UNL     1      -8.831  11.896  62.880  1.00  0.00     0.092 NA 
HETATM   41  H   UNL     1      -8.351   9.435  62.421  1.00  0.00     0.000 HD 
HETATM   42  O   UNL     1     -10.337  13.216  65.109  1.00  0.00    -0.300 OA 
BRANCH  32  43
HETATM   43  C   UNL     1      -8.490   7.921  65.950  1.00  0.00    -0.138 C  
HETATM   44  O   UNL     1      -9.467   6.870  65.970  1.00  0.00    -0.378 OA 
HETATM   45  H   UNL     1      -9.034   6.054  66.193  1.00  0.00     0.000 HD 
ENDBRANCH  32  43
ENDBRANCH  29  30
ENDBRANCH  23  29
ENDBRANCH  14  15
ENDBRANCH   8  14
TORSDOF 6
ENDMDL
MODEL      285
REMARK 921   NORMALIZED FREE ENERGY PREDICTED BY IDOCK:    3.45 KCAL/MOL
REMARK 922        TOTAL FREE ENERGY PREDICTED BY IDOCK:    3.10 KCAL/MOL
REMARK 923 INTER-LIGAND FREE ENERGY PREDICTED BY IDOCK:   -1.87 KCAL/MOL
REMARK 924 INTRA-LIGAND FREE ENERGY PREDICTED BY IDOCK:    4.97 KCAL/MOL
REMARK 927      BINDING AFFINITY PREDICTED BY RF-SCORE:    0.00 PKD
ROOT
HETATM    1  C   UNL     1      -7.976   8.958  68.575  1.00  0.00    -0.104 C  
HETATM    2  C   UNL     1      -9.252   9.716  68.190  1.00  0.00    -0.130 C  
HETATM    3  N   UNL     1      -8.295   8.221  69.818  1.00  0.00    -0.121 NA 
HETATM    4  H1  UNL     1      -7.446   7.717  70.074  1.00  0.00     0.000 HD 
HETATM    5  C   UNL     1      -9.212  10.277  66.787  1.00  0.00    -0.180 C  
HETATM    6  H2  UNL     1      -9.114   7.619  69.734  1.00  0.00     0.000 HD 
HETATM    7  C   UNL     1      -8.681   9.264  65.774  1.00  0.00    -0.156 C  
HETATM    8  C   UNL     1      -7.313   8.096  67.419  1.00  0.00    -0.089 C  
HETATM    9  O   UNL     1      -7.400   8.731  66.143  1.00  0.00    -0.084 OA 
ENDROOT
BRANCH   7  10
HETATM   10  C   UNL     1      -8.515  10.005  64.419  1.00  0.00    -0.173 C  
HETATM   11  N   UNL     1      -7.948   9.156  63.371  1.00  0.00    -0.139 NA 
HETATM   12  H1  UNL     1      -7.839   9.643  62.482  1.00  0.00     0.000 HD 
HETATM   13  H2  UNL     1      -8.496   8.304  63.256  1.00  0.00     0.000 HD 
ENDBRANCH   7  10
BRANCH   8  14
HETATM   14  O   UNL     1      -7.799   6.754  67.447  1.00  0.00    -0.107 OA 
BRANCH  14  15
HETATM   15  C   UNL     1      -7.906   6.017  68.691  1.00  0.00    -0.100 C  
HETATM   16  C   UNL     1      -6.435   5.600  68.966  1.00  0.00    -0.042 C  
HETATM   17  N   UNL     1      -5.582   6.779  69.210  1.00  0.00    -0.014 NA 
HETATM   18  C   UNL     1      -6.206   4.668  70.140  1.00  0.00    -0.026 C  
HETATM   19  H2  UNL     1      -5.953   7.361  69.960  1.00  0.00     0.000 HD 
HETATM   20  H1  UNL     1      -4.616   6.504  69.390  1.00  0.00     0.000 HD 
HETATM   21  C   UNL     1      -7.116   3.451  70.132  1.00  0.00    -0.041 C  
HETATM   22  N   UNL     1      -6.702   2.674  71.312  1.00  0.00    -0.030 NA 
HETATM   23  C   UNL     1      -8.600   3.934  70.095  1.00  0.00    -0.065 C  
HETATM   24  C   UNL     1      -8.849   4.759  68.762  1.00  0.00    -0.098 C  
HETATM   25  O   UNL     1     -10.223   5.183  68.717  1.00  0.00    -0.177 OA 
HETATM   26  H2  UNL     1      -6.721   3.201  72.185  1.00  0.00     0.000 HD 
HETATM   27  H1  UNL     1      -7.313   1.857  71.307  1.00  0.00     0.000 HD 
HETATM   28  H   UNL     1     -10.793   4.423  68.760  1.00  0.00     0.000 HD 
BRANCH  23  29
HETATM   29  O   UNL     1      -9.561   2.846  70.273  1.00  0.00    -0.148 OA 
BRANCH  29  30
HETATM   30  C   UNL     1     -10.271   2.950  71.540  1.00  0.00     0.235 C  
HETATM   31  O   UNL     1      -9.527   2.343  72.603  1.00  0.00    -0.084 OA 
HETATM   32  C   UNL     1      -8.328   3.079  72.900  1.00  0.00    -0.076 C  
HETATM   33  C   UNL     1      -8.709   4.434  73.497  1.00  0.00    -0.099 C  
HETATM   34  H   UNL     1     -11.660   5.918  71.095  1.00  0.00     0.000 HD 
HETATM   35  O   UNL     1      -7.554   5.183  73.879  1.00  0.00    -0.089 OA 
HETATM   36  C   UNL     1      -9.538   5.232  72.462  1.00  0.00    -0.149 C  
HETATM   37  H1  UNL     1     -10.538   7.034  72.376  1.00  0.00     0.000 HD 
HETATM   38  H2  UNL     1      -9.215   7.055  73.432  1.00  0.00     0.000 HD 
HETATM   39  C   UNL     1     -10.706   4.387  71.929  1.00  0.00     0.154 C  
HETATM   40  N   UNL     1      -9.992   6.509  73.059  1.00  0.00    -0.166 NA 
HETATM   41  H   UNL     1      -7.791   6.024  74.250  1.00  0.00     0.000 HD 
HETATM   42  O   UNL     1     -11.393   5.037  70.857  1.00  0.00     0.488 OA 
BRANCH  32  43
HETATM   43  C   UNL     1      -7.476   2.218  73.834  1.00  0.00    -0.037 C  
HETATM   44  O   UNL     1      -6.494   3.052  74.465  1.00  0.00    -0.023 OA 
HETATM   45  H   UNL     1      -5.965   2.516  75.045  1.00  0.00     0.000 HD 
ENDBRANCH  32  43
ENDBRANCH  29  30
ENDBRANCH  23  29
ENDBRANCH  14  15
ENDBRANCH   8  14
TORSDOF 6
ENDMDL
MODEL      286
REMARK 921   NORMALIZED FREE ENERGY PREDICTED BY IDOCK:    4.33 KCAL/MOL
REMARK 922        TOTAL FREE ENERGY PREDICTED BY IDOCK:    4.30 KCAL/MOL
REMARK 923 INTER-LIGAND FREE ENERGY PREDICTED BY IDOCK:    1.69 KCAL/MOL
REMARK 924 INTRA-LIGAND FREE ENERGY PREDICTED BY IDOCK:    2.61 KCAL/MOL
REMARK 927      BINDING AFFINITY PREDICTED BY RF-SCORE:    0.00 PKD
ROOT
HETATM    1  C   UNL     1     -10.274  19.940  69.640  1.00  0.00     0.157 C  
HETATM    2  C   UNL     1     -10.765  18.583  69.124  1.00  0.00     0.691 C  
HETATM    3  N   UNL     1      -9.997  19.756  71.082  1.00  0.00     0.728 NA 
HETATM    4  H1  UNL     1      -9.670  20.659  71.425  1.00  0.00     0.000 HD 
HETATM    5  C   UNL     1     -10.805  18.497  67.615  1.00  0.00    -0.319 C  
HETATM    6  H2  UNL     1      -9.351  18.990  71.276  1.00  0.00     0.000 HD 
HETATM    7  C   UNL     1      -9.539  19.061  66.971  1.00  0.00    -0.318 C  
HETATM    8  C   UNL     1      -9.109  20.615  68.800  1.00  0.00     0.903 C  
HETATM    9  O   UNL     1      -9.252  20.403  67.395  1.00  0.00    -0.371 OA 
ENDROOT
BRANCH   7  10
HETATM   10  C   UNL     1      -9.770  19.087  65.435  1.00  0.00     1.045 C  
HETATM   11  N   UNL     1     -11.065  19.658  65.064  1.00  0.00    -0.094 NA 
HETATM   12  H1  UNL     1     -11.216  19.675  64.055  1.00  0.00     0.000 HD 
HETATM   13  H2  UNL     1     -11.182  20.588  65.466  1.00  0.00     0.000 HD 
ENDBRANCH   7  10
BRANCH   8  14
HETATM   14  O   UNL     1      -7.832  20.252  69.326  1.00  0.00     0.185 OA 
BRANCH  14  15
HETATM   15  C   UNL     1      -7.157  19.042  68.896  1.00  0.00    -0.328 C  
HETATM   16  C   UNL     1      -6.483  19.483  67.567  1.00  0.00    -0.203 C  
HETATM   17  N   UNL     1      -5.455  20.513  67.806  1.00  0.00    -0.196 NA 
HETATM   18  C   UNL     1      -5.804  18.392  66.763  1.00  0.00    -0.170 C  
HETATM   19  H2  UNL     1      -4.766  20.204  68.491  1.00  0.00     0.000 HD 
HETATM   20  H1  UNL     1      -5.013  20.802  66.933  1.00  0.00     0.000 HD 
HETATM   21  C   UNL     1      -6.679  17.169  66.540  1.00  0.00    -0.255 C  
HETATM   22  N   UNL     1      -5.855  16.272  65.715  1.00  0.00     1.935 NA 
HETATM   23  C   UNL     1      -7.138  16.623  67.928  1.00  0.00    -0.140 C  
HETATM   24  C   UNL     1      -7.998  17.731  68.669  1.00  0.00    -0.276 C  
HETATM   25  O   UNL     1      -8.442  17.217  69.939  1.00  0.00     1.009 OA 
HETATM   26  H2  UNL     1      -4.940  16.061  66.115  1.00  0.00     0.000 HD 
HETATM   27  H1  UNL     1      -6.442  15.451  65.566  1.00  0.00     0.000 HD 
HETATM   28  H   UNL     1      -8.950  16.426  69.801  1.00  0.00     0.000 HD 
BRANCH  23  29
HETATM   29  O   UNL     1      -7.831  15.338  67.837  1.00  0.00    -0.125 OA 
BRANCH  29  30
HETATM   30  C   UNL     1      -9.279  15.500  67.841  1.00  0.00    -0.187 C  
HETATM   31  O   UNL     1      -9.826  15.304  66.531  1.00  0.00    -0.244 OA 
HETATM   32  C   UNL     1      -9.705  13.937  66.103  1.00  0.00    -0.272 C  
HETATM   33  C   UNL     1     -10.607  13.061  66.972  1.00  0.00    -0.257 C  
HETATM   34  H   UNL     1      -9.918  14.228  70.825  1.00  0.00     0.000 HD 
HETATM   35  O   UNL     1     -10.582  11.697  66.547  1.00  0.00    -0.234 OA 
HETATM   36  C   UNL     1     -10.150  13.162  68.447  1.00  0.00    -0.231 C  
HETATM   37  H1  UNL     1     -10.769  12.458  70.285  1.00  0.00     0.000 HD 
HETATM   38  H2  UNL     1     -11.165  11.422  69.006  1.00  0.00     0.000 HD 
HETATM   39  C   UNL     1     -10.031  14.631  68.882  1.00  0.00    -0.228 C  
HETATM   40  N   UNL     1     -11.071  12.391  69.313  1.00  0.00    -0.191 NA 
HETATM   41  H   UNL     1     -11.143  11.153  67.086  1.00  0.00     0.000 HD 
HETATM   42  O   UNL     1      -9.458  14.760  70.186  1.00  0.00     0.335 OA 
BRANCH  32  43
HETATM   43  C   UNL     1     -10.052  13.885  64.615  1.00  0.00    -0.109 C  
HETATM   44  O   UNL     1      -9.656  12.609  64.091  1.00  0.00    -0.554 OA 
HETATM   45  H   UNL     1      -9.872  12.578  63.166  1.00  0.00     0.000 HD 
ENDBRANCH  32  43
ENDBRANCH  29  30
ENDBRANCH  23  29
ENDBRANCH  14  15
ENDBRANCH   8  14
TORSDOF 6
ENDMDL
MODEL      287
REMARK 921   NORMALIZED FREE ENERGY PREDICTED BY IDOCK:    5.03 KCAL/MOL
REMARK 922        TOTAL FREE ENERGY PREDICTED BY IDOCK:    5.24 KCAL/MOL
REMARK 923 INTER-LIGAND FREE ENERGY PREDICTED BY IDOCK:    1.35 KCAL/MOL
REMARK 924 INTRA-LIGAND FREE ENERGY PREDICTED BY IDOCK:    3.88 KCAL/MOL
REMARK 927      BINDING AFFINITY PREDICTED BY RF-SCORE:    0.00 PKD
ROOT
HETATM    1  C   UNL     1      -7.321   7.406  70.848  1.00  0.00    -0.073 C  
HETATM    2  C   UNL     1      -8.565   6.876  70.125  1.00  0.00    -0.141 C  
HETATM    3  N   UNL     1      -6.197   6.546  70.417  1.00  0.00    -0.034 NA 
HETATM    4  H1  UNL     1      -5.370   6.898  70.898  1.00  0.00     0.000 HD 
HETATM    5  C   UNL     1      -9.746   7.816  70.203  1.00  0.00    -0.183 C  
HETATM    6  H2  UNL     1      -6.087   6.498  69.404  1.00  0.00     0.000 HD 
HETATM    7  C   UNL     1      -9.351   9.265  69.921  1.00  0.00    -0.198 C  
HETATM    8  C   UNL     1      -7.070   8.968  70.731  1.00  0.00    -0.092 C  
HETATM    9  O   UNL     1      -8.283   9.722  70.765  1.00  0.00    -0.251 OA 
ENDROOT
BRANCH   7  10
HETATM   10  C   UNL     1     -10.595  10.150  70.207  1.00  0.00    -0.264 C  
HETATM   11  N   UNL     1     -10.719  11.275  69.280  1.00  0.00    -0.335 NA 
HETATM   12  H1  UNL     1     -11.536  11.856  69.468  1.00  0.00     0.000 HD 
HETATM   13  H2  UNL     1     -10.717  10.951  68.313  1.00  0.00     0.000 HD 
ENDBRANCH   7  10
BRANCH   8  14
HETATM   14  O   UNL     1      -6.222   9.262  69.620  1.00  0.00    -0.038 OA 
BRANCH  14  15
HETATM   15  C   UNL     1      -6.504   8.736  68.298  1.00  0.00    -0.060 C  
HETATM   16  C   UNL     1      -5.279   7.820  68.029  1.00  0.00    -0.031 C  
HETATM   17  N   UNL     1      -5.245   6.684  68.970  1.00  0.00    -0.012 NA 
HETATM   18  C   UNL     1      -5.180   7.216  66.642  1.00  0.00    -0.022 C  
HETATM   19  H2  UNL     1      -6.118   6.157  68.954  1.00  0.00     0.000 HD 
HETATM   20  H1  UNL     1      -4.441   6.082  68.794  1.00  0.00     0.000 HD 
HETATM   21  C   UNL     1      -5.342   8.236  65.526  1.00  0.00    -0.032 C  
HETATM   22  N   UNL     1      -5.170   7.457  64.289  1.00  0.00    -0.029 NA 
HETATM   23  C   UNL     1      -6.707   8.968  65.711  1.00  0.00    -0.072 C  
HETATM   24  C   UNL     1      -6.707   9.736  67.099  1.00  0.00    -0.075 C  
HETATM   25  O   UNL     1      -7.957  10.431  67.258  1.00  0.00    -0.109 OA 
HETATM   26  H2  UNL     1      -5.794   6.654  64.212  1.00  0.00     0.000 HD 
HETATM   27  H1  UNL     1      -5.278   8.141  63.539  1.00  0.00     0.000 HD 
HETATM   28  H   UNL     1      -8.080  11.035  66.533  1.00  0.00     0.000 HD 
BRANCH  23  29
HETATM   29  O   UNL     1      -7.047   9.838  64.585  1.00  0.00    -0.114 OA 
BRANCH  29  30
HETATM   30  C   UNL     1      -8.091   9.263  63.749  1.00  0.00    -0.155 C  
HETATM   31  O   UNL     1      -8.337   7.894  64.094  1.00  0.00    -0.075 OA 
HETATM   32  C   UNL     1      -8.932   7.773  65.398  1.00  0.00     0.138 C  
HETATM   33  C   UNL     1     -10.342   8.362  65.358  1.00  0.00     2.355 C  
HETATM   34  H   UNL     1     -10.003  11.940  63.420  1.00  0.00     0.000 HD 
HETATM   35  O   UNL     1     -11.011   8.205  66.611  1.00  0.00    -0.230 OA 
HETATM   36  C   UNL     1     -10.260   9.862  64.987  1.00  0.00     0.114 C  
HETATM   37  H1  UNL     1     -11.569  11.412  64.611  1.00  0.00     0.000 HD 
HETATM   38  H2  UNL     1     -12.186  10.265  65.693  1.00  0.00     0.000 HD 
HETATM   39  C   UNL     1      -9.419  10.065  63.717  1.00  0.00    -0.208 C  
HETATM   40  N   UNL     1     -11.624  10.422  64.856  1.00  0.00     1.978 NA 
HETATM   41  H   UNL     1     -11.888   8.570  66.586  1.00  0.00     0.000 HD 
HETATM   42  O   UNL     1      -9.190  11.449  63.440  1.00  0.00    -0.208 OA 
BRANCH  32  43
HETATM   43  C   UNL     1      -8.897   6.295  65.787  1.00  0.00    -0.111 C  
HETATM   44  O   UNL     1      -7.643   5.736  65.371  1.00  0.00    -0.079 OA 
HETATM   45  H   UNL     1      -7.621   4.818  65.612  1.00  0.00     0.000 HD 
ENDBRANCH  32  43
ENDBRANCH  29  30
ENDBRANCH  23  29
ENDBRANCH  14  15
ENDBRANCH   8  14
TORSDOF 6
ENDMDL
MODEL      288
REMARK 921   NORMALIZED FREE ENERGY PREDICTED BY IDOCK:    5.50 KCAL/MOL
REMARK 922        TOTAL FREE ENERGY PREDICTED BY IDOCK:    5.87 KCAL/MOL
REMARK 923 INTER-LIGAND FREE ENERGY PREDICTED BY IDOCK:   -7.88 KCAL/MOL
REMARK 924 INTRA-LIGAND FREE ENERGY PREDICTED BY IDOCK:   13.75 KCAL/MOL
REMARK 927      BINDING AFFINITY PREDICTED BY RF-SCORE:    0.00 PKD
ROOT
HETATM    1  C   UNL     1     -11.732  15.486  68.824  1.00  0.00    -0.357 C  
HETATM    2  C   UNL     1     -11.281  16.289  70.050  1.00  0.00    -0.324 C  
HETATM    3  N   UNL     1     -10.680  15.674  67.801  1.00  0.00    -0.290 NA 
HETATM    4  H1  UNL     1     -10.980  15.140  66.985  1.00  0.00     0.000 HD 
HETATM    5  C   UNL     1     -12.075  15.969  71.297  1.00  0.00    -0.440 C  
HETATM    6  H2  UNL     1      -9.747  15.425  68.127  1.00  0.00     0.000 HD 
HETATM    7  C   UNL     1     -12.266  14.466  71.491  1.00  0.00    -0.334 C  
HETATM    8  C   UNL     1     -12.154  13.982  69.103  1.00  0.00    -0.337 C  
HETATM    9  O   UNL     1     -12.848  13.829  70.342  1.00  0.00    -0.233 OA 
ENDROOT
BRANCH   7  10
HETATM   10  C   UNL     1     -13.238  14.270  72.686  1.00  0.00    -0.510 C  
HETATM   11  N   UNL     1     -14.030  13.045  72.582  1.00  0.00    -0.729 NA 
HETATM   12  H1  UNL     1     -14.669  12.917  73.367  1.00  0.00     0.000 HD 
HETATM   13  H2  UNL     1     -13.427  12.230  72.465  1.00  0.00     0.000 HD 
ENDBRANCH   7  10
BRANCH   8  14
HETATM   14  O   UNL     1     -11.040  13.105  68.936  1.00  0.00    -0.255 OA 
BRANCH  14  15
HETATM   15  C   UNL     1     -11.224  11.721  68.544  1.00  0.00    -0.252 C  
HETATM   16  C   UNL     1     -10.957  10.955  69.870  1.00  0.00    -0.199 C  
HETATM   17  N   UNL     1     -11.977  11.276  70.886  1.00  0.00    -0.350 NA 
HETATM   18  C   UNL     1     -10.921   9.442  69.778  1.00  0.00    -0.234 C  
HETATM   19  H2  UNL     1     -12.920  11.107  70.538  1.00  0.00     0.000 HD 
HETATM   20  H1  UNL     1     -11.802  10.773  71.756  1.00  0.00     0.000 HD 
HETATM   21  C   UNL     1     -10.019   8.925  68.669  1.00  0.00    -0.177 C  
HETATM   22  N   UNL     1     -10.095   7.459  68.786  1.00  0.00    -0.174 NA 
HETATM   23  C   UNL     1     -10.483   9.546  67.315  1.00  0.00    -0.262 C  
HETATM   24  C   UNL     1     -10.340  11.125  67.386  1.00  0.00    -0.196 C  
HETATM   25  O   UNL     1     -10.745  11.695  66.128  1.00  0.00    -0.260 OA 
HETATM   26  H2  UNL     1     -11.045   7.088  68.757  1.00  0.00     0.000 HD 
HETATM   27  H1  UNL     1      -9.490   7.112  68.042  1.00  0.00     0.000 HD 
HETATM   28  H   UNL     1     -10.211  11.335  65.429  1.00  0.00     0.000 HD 
BRANCH  23  29
HETATM   29  O   UNL     1      -9.800   8.970  66.157  1.00  0.00    -0.271 OA 
BRANCH  29  30
HETATM   30  C   UNL     1      -8.366   9.220  66.192  1.00  0.00    -0.119 C  
HETATM   31  O   UNL     1      -8.084  10.574  66.566  1.00  0.00    -0.125 OA 
HETATM   32  C   UNL     1      -8.441  10.833  67.935  1.00  0.00    -0.122 C  
HETATM   33  C   UNL     1      -7.510  10.037  68.851  1.00  0.00    -0.083 C  
HETATM   34  H   UNL     1      -7.367   6.266  67.291  1.00  0.00     0.000 HD 
HETATM   35  O   UNL     1      -7.772  10.310  70.229  1.00  0.00    -0.370 OA 
HETATM   36  C   UNL     1      -7.686   8.526  68.569  1.00  0.00    -0.103 C  
HETATM   37  H1  UNL     1      -6.841   6.752  69.197  1.00  0.00     0.000 HD 
HETATM   38  H2  UNL     1      -6.802   7.964  70.378  1.00  0.00     0.000 HD 
HETATM   39  C   UNL     1      -7.551   8.232  67.066  1.00  0.00    -0.092 C  
HETATM   40  N   UNL     1      -6.725   7.748  69.384  1.00  0.00    -0.039 NA 
HETATM   41  H   UNL     1      -7.193   9.816  70.798  1.00  0.00     0.000 HD 
HETATM   42  O   UNL     1      -7.866   6.872  66.755  1.00  0.00    -0.103 OA 
BRANCH  32  43
HETATM   43  C   UNL     1      -8.370  12.344  68.155  1.00  0.00    -0.178 C  
HETATM   44  O   UNL     1      -7.672  12.940  67.051  1.00  0.00    -0.364 OA 
HETATM   45  H   UNL     1      -7.627  13.879  67.188  1.00  0.00     0.000 HD 
ENDBRANCH  32  43
ENDBRANCH  29  30
ENDBRANCH  23  29
ENDBRANCH  14  15
ENDBRANCH   8  14
TORSDOF 6
ENDMDL
MODEL      289
REMARK 921   NORMALIZED FREE ENERGY PREDICTED BY IDOCK:    5.74 KCAL/MOL
REMARK 922        TOTAL FREE ENERGY PREDICTED BY IDOCK:    6.20 KCAL/MOL
REMARK 923 INTER-LIGAND FREE ENERGY PREDICTED BY IDOCK:   -1.34 KCAL/MOL
REMARK 924 INTRA-LIGAND FREE ENERGY PREDICTED BY IDOCK:    7.53 KCAL/MOL
REMARK 927      BINDING AFFINITY PREDICTED BY RF-SCORE:    0.00 PKD
ROOT
HETATM    1  C   UNL     1     -10.186  16.337  69.447  1.00  0.00    -0.265 C  
HETATM    2  C   UNL     1     -11.333  16.517  68.446  1.00  0.00    -0.209 C  
HETATM    3  N   UNL     1     -10.561  15.187  70.300  1.00  0.00    -0.484 NA 
HETATM    4  H1  UNL     1      -9.798  15.068  70.966  1.00  0.00     0.000 HD 
HETATM    5  C   UNL     1     -10.987  17.445  67.304  1.00  0.00    -0.011 C  
HETATM    6  H2  UNL     1     -10.773  14.342  69.770  1.00  0.00     0.000 HD 
HETATM    7  C   UNL     1      -9.605  17.155  66.722  1.00  0.00    -0.270 C  
HETATM    8  C   UNL     1      -8.729  16.278  68.822  1.00  0.00    -0.244 C  
HETATM    9  O   UNL     1      -8.570  17.171  67.718  1.00  0.00    -0.210 OA 
ENDROOT
BRANCH   7  10
HETATM   10  C   UNL     1      -9.289  18.275  65.692  1.00  0.00     0.677 C  
HETATM   11  N   UNL     1      -7.889  18.697  65.720  1.00  0.00    -0.485 NA 
HETATM   12  H1  UNL     1      -7.683  19.432  65.044  1.00  0.00     0.000 HD 
HETATM   13  H2  UNL     1      -7.265  17.900  65.594  1.00  0.00     0.000 HD 
ENDBRANCH   7  10
BRANCH   8  14
HETATM   14  O   UNL     1      -8.349  14.929  68.551  1.00  0.00    -0.146 OA 
BRANCH  14  15
HETATM   15  C   UNL     1      -9.316  13.954  68.086  1.00  0.00    -0.203 C  
HETATM   16  C   UNL     1      -9.507  13.044  69.331  1.00  0.00     1.130 C  
HETATM   17  N   UNL     1     -10.118  13.790  70.448  1.00  0.00     1.495 NA 
HETATM   18  C   UNL     1     -10.361  11.807  69.137  1.00  0.00    -0.008 C  
HETATM   19  H2  UNL     1     -10.993  14.232  70.169  1.00  0.00     0.000 HD 
HETATM   20  H1  UNL     1     -10.243  13.192  71.265  1.00  0.00     0.000 HD 
HETATM   21  C   UNL     1      -9.962  10.980  67.925  1.00  0.00    -0.174 C  
HETATM   22  N   UNL     1     -10.875   9.825  67.951  1.00  0.00    -0.397 NA 
HETATM   23  C   UNL     1     -10.017  11.890  66.658  1.00  0.00    -0.199 C  
HETATM   24  C   UNL     1      -8.979  13.079  66.821  1.00  0.00    -0.175 C  
HETATM   25  O   UNL     1      -9.013  13.903  65.642  1.00  0.00    -0.130 OA 
HETATM   26  H2  UNL     1     -11.863  10.076  67.977  1.00  0.00     0.000 HD 
HETATM   27  H1  UNL     1     -10.607   9.270  67.138  1.00  0.00     0.000 HD 
HETATM   28  H   UNL     1      -8.810  13.374  64.878  1.00  0.00     0.000 HD 
BRANCH  23  29
HETATM   29  O   UNL     1      -9.832  11.146  65.412  1.00  0.00    -0.217 OA 
BRANCH  29  30
HETATM   30  C   UNL     1      -8.451  11.190  64.953  1.00  0.00     0.220 C  
HETATM   31  O   UNL     1      -7.537  11.193  66.057  1.00  0.00    -0.094 OA 
HETATM   32  C   UNL     1      -7.553   9.941  66.764  1.00  0.00    -0.095 C  
HETATM   33  C   UNL     1      -6.973   8.852  65.860  1.00  0.00    -0.080 C  
HETATM   34  H   UNL     1      -8.769   9.347  62.226  1.00  0.00     0.000 HD 
HETATM   35  O   UNL     1      -6.897   7.596  66.536  1.00  0.00    -0.060 OA 
HETATM   36  C   UNL     1      -7.852   8.718  64.594  1.00  0.00    -0.127 C  
HETATM   37  H1  UNL     1      -7.832   7.644  62.833  1.00  0.00     0.000 HD 
HETATM   38  H2  UNL     1      -7.090   6.831  64.119  1.00  0.00     0.000 HD 
HETATM   39  C   UNL     1      -8.067  10.088  63.931  1.00  0.00    -0.152 C  
HETATM   40  N   UNL     1      -7.252   7.731  63.668  1.00  0.00    -0.077 NA 
HETATM   41  H   UNL     1      -6.536   6.919  65.975  1.00  0.00     0.000 HD 
HETATM   42  O   UNL     1      -9.004  10.022  62.853  1.00  0.00    -0.214 OA 
BRANCH  32  43
HETATM   43  C   UNL     1      -6.773  10.134  68.065  1.00  0.00    -0.063 C  
HETATM   44  O   UNL     1      -7.251   9.192  69.036  1.00  0.00    -0.069 OA 
HETATM   45  H   UNL     1      -6.767   9.313  69.844  1.00  0.00     0.000 HD 
ENDBRANCH  32  43
ENDBRANCH  29  30
ENDBRANCH  23  29
ENDBRANCH  14  15
ENDBRANCH   8  14
TORSDOF 6
ENDMDL
MODEL      290
REMARK 921   NORMALIZED FREE ENERGY PREDICTED BY IDOCK:    6.26 KCAL/MOL
REMARK 922        TOTAL FREE ENERGY PREDICTED BY IDOCK:    6.90 KCAL/MOL
REMARK 923 INTER-LIGAND FREE ENERGY PREDICTED BY IDOCK:    4.22 KCAL/MOL
REMARK 924 INTRA-LIGAND FREE ENERGY PREDICTED BY IDOCK:    2.68 KCAL/MOL
REMARK 927      BINDING AFFINITY PREDICTED BY RF-SCORE:    0.00 PKD
ROOT
HETATM    1  C   UNL     1     -13.125  10.767  71.649  1.00  0.00    -0.446 C  
HETATM    2  C   UNL     1     -13.700  11.368  70.361  1.00  0.00     2.037 C  
HETATM    3  N   UNL     1     -13.534   9.345  71.658  1.00  0.00    -0.389 NA 
HETATM    4  H1  UNL     1     -13.152   8.945  72.514  1.00  0.00     0.000 HD 
HETATM    5  C   UNL     1     -13.128  12.727  70.030  1.00  0.00     0.952 C  
HETATM    6  H2  UNL     1     -13.259   8.838  70.816  1.00  0.00     0.000 HD 
HETATM    7  C   UNL     1     -11.609  12.771  70.192  1.00  0.00    -0.052 C  
HETATM    8  C   UNL     1     -11.583  11.036  71.906  1.00  0.00     2.192 C  
HETATM    9  O   UNL     1     -11.179  12.343  71.494  1.00  0.00     2.923 OA 
ENDROOT
BRANCH   7  10
HETATM   10  C   UNL     1     -11.164  14.247  70.006  1.00  0.00    -0.099 C  
HETATM   11  N   UNL     1      -9.989  14.592  70.805  1.00  0.00     0.562 NA 
HETATM   12  H1  UNL     1      -9.696  15.562  70.683  1.00  0.00     0.000 HD 
HETATM   13  H2  UNL     1      -9.217  13.952  70.616  1.00  0.00     0.000 HD 
ENDBRANCH   7  10
BRANCH   8  14
HETATM   14  O   UNL     1     -10.789   9.976  71.373  1.00  0.00    -0.140 OA 
BRANCH  14  15
HETATM   15  C   UNL     1     -10.955   9.525  70.005  1.00  0.00    -0.251 C  
HETATM   16  C   UNL     1     -10.626   8.010  70.104  1.00  0.00    -0.237 C  
HETATM   17  N   UNL     1     -11.616   7.302  70.937  1.00  0.00    -0.291 NA 
HETATM   18  C   UNL     1     -10.559   7.248  68.795  1.00  0.00    -0.202 C  
HETATM   19  H2  UNL     1     -12.567   7.458  70.604  1.00  0.00     0.000 HD 
HETATM   20  H1  UNL     1     -11.400   6.307  71.002  1.00  0.00     0.000 HD 
HETATM   21  C   UNL     1      -9.685   7.919  67.748  1.00  0.00    -0.155 C  
HETATM   22  N   UNL     1      -9.725   7.005  66.594  1.00  0.00    -0.252 NA 
HETATM   23  C   UNL     1     -10.210   9.370  67.512  1.00  0.00    -0.231 C  
HETATM   24  C   UNL     1     -10.099  10.193  68.864  1.00  0.00    -0.200 C  
HETATM   25  O   UNL     1     -10.561  11.538  68.640  1.00  0.00    -0.194 OA 
HETATM   26  H2  UNL     1     -10.667   6.784  66.271  1.00  0.00     0.000 HD 
HETATM   27  H1  UNL     1      -9.139   7.455  65.891  1.00  0.00     0.000 HD 
HETATM   28  H   UNL     1     -10.044  11.941  67.952  1.00  0.00     0.000 HD 
BRANCH  23  29
HETATM   29  O   UNL     1      -9.556  10.040  66.389  1.00  0.00    -0.176 OA 
BRANCH  29  30
HETATM   30  C   UNL     1      -9.586   9.229  65.180  1.00  0.00    -0.033 C  
HETATM   31  O   UNL     1     -10.319   9.881  64.136  1.00  0.00     0.416 OA 
HETATM   32  C   UNL     1      -9.638  11.055  63.661  1.00  0.00    -0.292 C  
HETATM   33  C   UNL     1      -8.354  10.632  62.947  1.00  0.00    -0.151 C  
HETATM   34  H   UNL     1      -6.568   7.894  65.395  1.00  0.00     0.000 HD 
HETATM   35  O   UNL     1      -7.668  11.755  62.391  1.00  0.00    -0.438 OA 
HETATM   36  C   UNL     1      -7.433   9.894  63.949  1.00  0.00    -0.134 C  
HETATM   37  H1  UNL     1      -5.619   8.911  63.909  1.00  0.00     0.000 HD 
HETATM   38  H2  UNL     1      -5.735  10.144  62.754  1.00  0.00     0.000 HD 
HETATM   39  C   UNL     1      -8.196   8.769  64.666  1.00  0.00    -0.165 C  
HETATM   40  N   UNL     1      -6.226   9.398  63.249  1.00  0.00    -0.091 NA 
HETATM   41  H   UNL     1      -6.871  11.492  61.947  1.00  0.00     0.000 HD 
HETATM   42  O   UNL     1      -7.420   8.175  65.710  1.00  0.00    -0.077 OA 
BRANCH  32  43
HETATM   43  C   UNL     1     -10.610  11.824  62.766  1.00  0.00     0.367 C  
HETATM   44  O   UNL     1     -10.987  13.039  63.428  1.00  0.00    -0.532 OA 
HETATM   45  H   UNL     1     -11.592  13.517  62.872  1.00  0.00     0.000 HD 
ENDBRANCH  32  43
ENDBRANCH  29  30
ENDBRANCH  23  29
ENDBRANCH  14  15
ENDBRANCH   8  14
TORSDOF 6
ENDMDL
MODEL      291
REMARK 921   NORMALIZED FREE ENERGY PREDICTED BY IDOCK:    6.33 KCAL/MOL
REMARK 922        TOTAL FREE ENERGY PREDICTED BY IDOCK:    6.99 KCAL/MOL
REMARK 923 INTER-LIGAND FREE ENERGY PREDICTED BY IDOCK:   -2.94 KCAL/MOL
REMARK 924 INTRA-LIGAND FREE ENERGY PREDICTED BY IDOCK:    9.93 KCAL/MOL
REMARK 927      BINDING AFFINITY PREDICTED BY RF-SCORE:    0.00 PKD
ROOT
HETATM    1  C   UNL     1      -6.864   6.564  73.571  1.00  0.00    -0.077 C  
HETATM    2  C   UNL     1      -8.314   6.094  73.732  1.00  0.00    -0.113 C  
HETATM    3  N   UNL     1      -6.014   5.439  74.019  1.00  0.00    -0.050 NA 
HETATM    4  H1  UNL     1      -5.050   5.752  73.912  1.00  0.00     0.000 HD 
HETATM    5  C   UNL     1      -9.312   6.993  73.039  1.00  0.00    -0.173 C  
HETATM    6  H2  UNL     1      -6.212   4.563  73.534  1.00  0.00     0.000 HD 
HETATM    7  C   UNL     1      -8.865   7.375  71.629  1.00  0.00    -0.116 C  
HETATM    8  C   UNL     1      -6.493   7.181  72.157  1.00  0.00    -0.048 C  
HETATM    9  O   UNL     1      -7.554   7.960  71.604  1.00  0.00    -0.071 OA 
ENDROOT
BRANCH   7  10
HETATM   10  C   UNL     1      -9.868   8.433  71.094  1.00  0.00    -0.192 C  
HETATM   11  N   UNL     1     -10.456   8.061  69.807  1.00  0.00    -0.224 NA 
HETATM   12  H1  UNL     1     -11.115   8.757  69.456  1.00  0.00     0.000 HD 
HETATM   13  H2  UNL     1     -10.891   7.140  69.858  1.00  0.00     0.000 HD 
ENDBRANCH   7  10
BRANCH   8  14
HETATM   14  O   UNL     1      -5.982   6.173  71.284  1.00  0.00    -0.029 OA 
BRANCH  14  15
HETATM   15  C   UNL     1      -6.584   5.923  69.989  1.00  0.00    -0.047 C  
HETATM   16  C   UNL     1      -6.279   4.417  69.757  1.00  0.00    -0.027 C  
HETATM   17  N   UNL     1      -6.972   3.573  70.749  1.00  0.00    -0.033 NA 
HETATM   18  C   UNL     1      -6.649   3.856  68.399  1.00  0.00    -0.045 C  
HETATM   19  H2  UNL     1      -7.975   3.755  70.760  1.00  0.00     0.000 HD 
HETATM   20  H1  UNL     1      -6.772   2.585  70.597  1.00  0.00     0.000 HD 
HETATM   21  C   UNL     1      -6.134   4.691  67.238  1.00  0.00    -0.031 C  
HETATM   22  N   UNL     1      -6.560   3.955  66.036  1.00  0.00    -0.037 NA 
HETATM   23  C   UNL     1      -6.669   6.149  67.394  1.00  0.00    -0.061 C  
HETATM   24  C   UNL     1      -6.116   6.769  68.746  1.00  0.00    -0.026 C  
HETATM   25  O   UNL     1      -6.590   8.121  68.878  1.00  0.00    -0.047 OA 
HETATM   26  H2  UNL     1      -7.561   3.763  65.999  1.00  0.00     0.000 HD 
HETATM   27  H1  UNL     1      -6.214   4.516  65.257  1.00  0.00     0.000 HD 
HETATM   28  H   UNL     1      -6.308   8.632  68.127  1.00  0.00     0.000 HD 
BRANCH  23  29
HETATM   29  O   UNL     1      -6.387   6.990  66.232  1.00  0.00    -0.047 OA 
BRANCH  29  30
HETATM   30  C   UNL     1      -6.335   8.403  66.582  1.00  0.00    -0.055 C  
HETATM   31  O   UNL     1      -6.176   9.221  65.416  1.00  0.00    -0.062 OA 
HETATM   32  C   UNL     1      -7.346   9.189  64.580  1.00  0.00    -0.099 C  
HETATM   33  C   UNL     1      -8.499   9.877  65.311  1.00  0.00    -0.150 C  
HETATM   34  H   UNL     1      -8.468   8.373  69.108  1.00  0.00     0.000 HD 
HETATM   35  O   UNL     1      -9.672   9.938  64.499  1.00  0.00    -0.377 OA 
HETATM   36  C   UNL     1      -8.803   9.110  66.621  1.00  0.00    -0.128 C  
HETATM   37  H1  UNL     1     -10.057   9.313  68.247  1.00  0.00     0.000 HD 
HETATM   38  H2  UNL     1     -10.697   9.972  66.825  1.00  0.00     0.000 HD 
HETATM   39  C   UNL     1      -7.521   8.907  67.445  1.00  0.00    -0.085 C  
HETATM   40  N   UNL     1      -9.857   9.818  67.384  1.00  0.00    -0.166 NA 
HETATM   41  H   UNL     1     -10.389  10.366  64.952  1.00  0.00     0.000 HD 
HETATM   42  O   UNL     1      -7.741   8.065  68.579  1.00  0.00    -0.102 OA 
BRANCH  32  43
HETATM   43  C   UNL     1      -6.982   9.851  63.251  1.00  0.00    -0.126 C  
HETATM   44  O   UNL     1      -6.102   8.981  62.525  1.00  0.00    -0.094 OA 
HETATM   45  H   UNL     1      -5.877   9.393  61.699  1.00  0.00     0.000 HD 
ENDBRANCH  32  43
ENDBRANCH  29  30
ENDBRANCH  23  29
ENDBRANCH  14  15
ENDBRANCH   8  14
TORSDOF 6
ENDMDL
MODEL      292
REMARK 921   NORMALIZED FREE ENERGY PREDICTED BY IDOCK:    6.77 KCAL/MOL
REMARK 922        TOTAL FREE ENERGY PREDICTED BY IDOCK:    7.59 KCAL/MOL
REMARK 923 INTER-LIGAND FREE ENERGY PREDICTED BY IDOCK:   -1.91 KCAL/MOL
REMARK 924 INTRA-LIGAND FREE ENERGY PREDICTED BY IDOCK:    9.51 KCAL/MOL
REMARK 927      BINDING AFFINITY PREDICTED BY RF-SCORE:    0.00 PKD
ROOT
HETATM    1  C   UNL     1      -7.373   7.599  70.535  1.00  0.00    -0.074 C  
HETATM    2  C   UNL     1      -8.609   6.825  70.060  1.00  0.00    -0.141 C  
HETATM    3  N   UNL     1      -6.446   7.639  69.384  1.00  0.00    -0.035 NA 
HETATM    4  H1  UNL     1      -5.624   8.153  69.699  1.00  0.00     0.000 HD 
HETATM    5  C   UNL     1      -9.787   6.947  71.000  1.00  0.00    -0.185 C  
HETATM    6  H2  UNL     1      -6.865   8.025  68.537  1.00  0.00     0.000 HD 
HETATM    7  C   UNL     1     -10.012   8.386  71.461  1.00  0.00    -0.217 C  
HETATM    8  C   UNL     1      -7.662   8.996  71.231  1.00  0.00    -0.080 C  
HETATM    9  O   UNL     1      -8.836   8.971  72.043  1.00  0.00    -0.373 OA 
ENDROOT
BRANCH   7  10
HETATM   10  C   UNL     1     -11.118   8.358  72.551  1.00  0.00    -0.326 C  
HETATM   11  N   UNL     1     -11.896   9.596  72.605  1.00  0.00     0.878 NA 
HETATM   12  H1  UNL     1     -12.622   9.577  73.320  1.00  0.00     0.000 HD 
HETATM   13  H2  UNL     1     -12.290   9.818  71.690  1.00  0.00     0.000 HD 
ENDBRANCH   7  10
BRANCH   8  14
HETATM   14  O   UNL     1      -7.627  10.054  70.273  1.00  0.00    -0.170 OA 
BRANCH  14  15
HETATM   15  C   UNL     1      -7.635   9.780  68.849  1.00  0.00    -0.081 C  
HETATM   16  C   UNL     1      -7.449  11.193  68.230  1.00  0.00    -0.094 C  
HETATM   17  N   UNL     1      -6.129  11.757  68.575  1.00  0.00    -0.049 NA 
HETATM   18  C   UNL     1      -7.563  11.290  66.722  1.00  0.00    -0.151 C  
HETATM   19  H2  UNL     1      -5.372  11.128  68.309  1.00  0.00     0.000 HD 
HETATM   20  H1  UNL     1      -6.007  12.685  68.169  1.00  0.00     0.000 HD 
HETATM   21  C   UNL     1      -8.811  10.622  66.166  1.00  0.00    -0.168 C  
HETATM   22  N   UNL     1      -8.746  10.869  64.716  1.00  0.00    -0.341 NA 
HETATM   23  C   UNL     1      -8.827   9.130  66.624  1.00  0.00    -0.128 C  
HETATM   24  C   UNL     1      -8.886   9.069  68.209  1.00  0.00    -0.134 C  
HETATM   25  O   UNL     1      -8.925   7.693  68.629  1.00  0.00    -0.134 OA 
HETATM   26  H2  UNL     1      -7.878  10.558  64.279  1.00  0.00     0.000 HD 
HETATM   27  H1  UNL     1      -9.583  10.421  64.343  1.00  0.00     0.000 HD 
HETATM   28  H   UNL     1      -9.680   7.264  68.243  1.00  0.00     0.000 HD 
BRANCH  23  29
HETATM   29  O   UNL     1      -9.888   8.349  65.990  1.00  0.00    -0.182 OA 
BRANCH  29  30
HETATM   30  C   UNL     1      -9.353   7.295  65.139  1.00  0.00     0.964 C  
HETATM   31  O   UNL     1      -8.447   7.826  64.164  1.00  0.00     0.015 OA 
HETATM   32  C   UNL     1      -7.244   8.326  64.772  1.00  0.00    -0.082 C  
HETATM   33  C   UNL     1      -6.453   7.151  65.350  1.00  0.00    -0.047 C  
HETATM   34  H   UNL     1      -9.166   4.879  67.389  1.00  0.00     0.000 HD 
HETATM   35  O   UNL     1      -5.209   7.580  65.907  1.00  0.00    -0.024 OA 
HETATM   36  C   UNL     1      -7.304   6.449  66.436  1.00  0.00    -0.081 C  
HETATM   37  H1  UNL     1      -7.149   4.793  67.657  1.00  0.00     0.000 HD 
HETATM   38  H2  UNL     1      -5.651   5.483  67.275  1.00  0.00     0.000 HD 
HETATM   39  C   UNL     1      -8.703   6.109  65.898  1.00  0.00    -0.154 C  
HETATM   40  N   UNL     1      -6.588   5.256  66.941  1.00  0.00    -0.051 NA 
HETATM   41  H   UNL     1      -4.718   6.851  66.266  1.00  0.00     0.000 HD 
HETATM   42  O   UNL     1      -9.564   5.605  66.923  1.00  0.00    -0.128 OA 
BRANCH  32  43
HETATM   43  C   UNL     1      -6.478   9.111  63.706  1.00  0.00    -0.089 C  
HETATM   44  O   UNL     1      -5.147   8.586  63.611  1.00  0.00    -0.054 OA 
HETATM   45  H   UNL     1      -4.671   9.074  62.949  1.00  0.00     0.000 HD 
ENDBRANCH  32  43
ENDBRANCH  29  30
ENDBRANCH  23  29
ENDBRANCH  14  15
ENDBRANCH   8  14
TORSDOF 6
ENDMDL
MODEL      293
REMARK 921   NORMALIZED FREE ENERGY PREDICTED BY IDOCK:    6.95 KCAL/MOL
REMARK 922        TOTAL FREE ENERGY PREDICTED BY IDOCK:    7.83 KCAL/MOL
REMARK 923 INTER-LIGAND FREE ENERGY PREDICTED BY IDOCK:   -2.52 KCAL/MOL
REMARK 924 INTRA-LIGAND FREE ENERGY PREDICTED BY IDOCK:   10.35 KCAL/MOL
REMARK 927      BINDING AFFINITY PREDICTED BY RF-SCORE:    0.00 PKD
ROOT
HETATM    1  C   UNL     1     -10.459  11.341  65.091  1.00  0.00    -0.291 C  
HETATM    2  C   UNL     1      -9.372  12.250  64.505  1.00  0.00     0.384 C  
HETATM    3  N   UNL     1      -9.752  10.183  65.682  1.00  0.00    -0.239 NA 
HETATM    4  H1  UNL     1     -10.475   9.579  66.071  1.00  0.00     0.000 HD 
HETATM    5  C   UNL     1      -9.880  13.624  64.133  1.00  0.00     1.085 C  
HETATM    6  H2  UNL     1      -9.036  10.447  66.359  1.00  0.00     0.000 HD 
HETATM    7  C   UNL     1     -10.768  14.226  65.221  1.00  0.00    -0.366 C  
HETATM    8  C   UNL     1     -11.515  12.053  66.037  1.00  0.00    -0.338 C  
HETATM    9  O   UNL     1     -11.857  13.364  65.587  1.00  0.00    -0.337 OA 
ENDROOT
BRANCH   7  10
HETATM   10  C   UNL     1     -11.371  15.540  64.655  1.00  0.00    -0.357 C  
HETATM   11  N   UNL     1     -11.116  16.699  65.510  1.00  0.00    -0.025 NA 
HETATM   12  H1  UNL     1     -11.512  17.562  65.138  1.00  0.00     0.000 HD 
HETATM   13  H2  UNL     1     -10.117  16.805  65.692  1.00  0.00     0.000 HD 
ENDBRANCH   7  10
BRANCH   8  14
HETATM   14  O   UNL     1     -11.098  11.986  67.401  1.00  0.00    -0.248 OA 
BRANCH  14  15
HETATM   15  C   UNL     1      -9.913  11.246  67.790  1.00  0.00    -0.176 C  
HETATM   16  C   UNL     1      -8.768  12.249  67.475  1.00  0.00    -0.177 C  
HETATM   17  N   UNL     1      -8.856  13.446  68.333  1.00  0.00    -0.274 NA 
HETATM   18  C   UNL     1      -7.354  11.726  67.630  1.00  0.00    -0.119 C  
HETATM   19  H2  UNL     1      -8.876  13.198  69.321  1.00  0.00     0.000 HD 
HETATM   20  H1  UNL     1      -8.105  14.104  68.126  1.00  0.00     0.000 HD 
HETATM   21  C   UNL     1      -7.117  10.403  66.921  1.00  0.00    -0.094 C  
HETATM   22  N   UNL     1      -5.694  10.107  67.159  1.00  0.00    -0.046 NA 
HETATM   23  C   UNL     1      -8.149   9.359  67.452  1.00  0.00    -0.110 C  
HETATM   24  C   UNL     1      -9.617   9.856  67.114  1.00  0.00    -0.162 C  
HETATM   25  O   UNL     1     -10.567   8.881  67.582  1.00  0.00    -0.319 OA 
HETATM   26  H2  UNL     1      -5.428  10.105  68.144  1.00  0.00     0.000 HD 
HETATM   27  H1  UNL     1      -5.535   9.218  66.684  1.00  0.00     0.000 HD 
HETATM   28  H   UNL     1     -10.388   8.041  67.174  1.00  0.00     0.000 HD 
BRANCH  23  29
HETATM   29  O   UNL     1      -7.888   8.002  66.972  1.00  0.00    -0.101 OA 
BRANCH  29  30
HETATM   30  C   UNL     1      -7.487   7.111  68.052  1.00  0.00    -0.099 C  
HETATM   31  O   UNL     1      -6.995   7.850  69.178  1.00  0.00    -0.055 OA 
HETATM   32  C   UNL     1      -8.041   8.602  69.817  1.00  0.00    -0.114 C  
HETATM   33  C   UNL     1      -9.028   7.631  70.465  1.00  0.00    -0.151 C  
HETATM   34  H   UNL     1      -9.785   4.769  67.653  1.00  0.00     0.000 HD 
HETATM   35  O   UNL     1     -10.054   8.324  71.178  1.00  0.00    -0.183 OA 
HETATM   36  C   UNL     1      -9.658   6.737  69.370  1.00  0.00    -0.146 C  
HETATM   37  H1  UNL     1     -10.963   5.142  69.271  1.00  0.00     0.000 HD 
HETATM   38  H2  UNL     1     -11.255   6.162  70.591  1.00  0.00     0.000 HD 
HETATM   39  C   UNL     1      -8.569   6.094  68.497  1.00  0.00    -0.113 C  
HETATM   40  N   UNL     1     -10.548   5.731  69.994  1.00  0.00    -0.283 NA 
HETATM   41  H   UNL     1     -10.667   7.721  71.581  1.00  0.00     0.000 HD 
HETATM   42  O   UNL     1      -9.122   5.392  67.380  1.00  0.00    -0.112 OA 
BRANCH  32  43
HETATM   43  C   UNL     1      -7.381   9.558  70.812  1.00  0.00    -0.084 C  
HETATM   44  O   UNL     1      -8.397  10.129  71.649  1.00  0.00     1.128 OA 
HETATM   45  H   UNL     1      -7.987  10.722  72.267  1.00  0.00     0.000 HD 
ENDBRANCH  32  43
ENDBRANCH  29  30
ENDBRANCH  23  29
ENDBRANCH  14  15
ENDBRANCH   8  14
TORSDOF 6
ENDMDL
MODEL      294
REMARK 921   NORMALIZED FREE ENERGY PREDICTED BY IDOCK:    7.91 KCAL/MOL
REMARK 922        TOTAL FREE ENERGY PREDICTED BY IDOCK:    9.13 KCAL/MOL
REMARK 923 INTER-LIGAND FREE ENERGY PREDICTED BY IDOCK:   -4.34 KCAL/MOL
REMARK 924 INTRA-LIGAND FREE ENERGY PREDICTED BY IDOCK:   13.47 KCAL/MOL
REMARK 927      BINDING AFFINITY PREDICTED BY RF-SCORE:    0.00 PKD
ROOT
HETATM    1  C   UNL     1      -6.463  16.999  68.363  1.00  0.00    -0.155 C  
HETATM    2  C   UNL     1      -7.115  18.112  69.192  1.00  0.00    -0.192 C  
HETATM    3  N   UNL     1      -6.028  15.967  69.330  1.00  0.00    -0.129 NA 
HETATM    4  H1  UNL     1      -5.594  15.227  68.779  1.00  0.00     0.000 HD 
HETATM    5  C   UNL     1      -7.890  19.103  68.354  1.00  0.00    -0.370 C  
HETATM    6  H2  UNL     1      -6.779  15.635  69.935  1.00  0.00     0.000 HD 
HETATM    7  C   UNL     1      -8.771  18.415  67.312  1.00  0.00    -0.259 C  
HETATM    8  C   UNL     1      -7.314  16.468  67.133  1.00  0.00    -0.185 C  
HETATM    9  O   UNL     1      -8.033  17.510  66.474  1.00  0.00    -0.233 OA 
ENDROOT
BRANCH   7  10
HETATM   10  C   UNL     1      -9.368  19.524  66.403  1.00  0.00    -0.379 C  
HETATM   11  N   UNL     1     -10.771  19.286  66.062  1.00  0.00    -0.429 NA 
HETATM   12  H1  UNL     1     -11.163  20.015  65.466  1.00  0.00     0.000 HD 
HETATM   13  H2  UNL     1     -11.334  19.162  66.904  1.00  0.00     0.000 HD 
ENDBRANCH   7  10
BRANCH   8  14
HETATM   14  O   UNL     1      -8.113  15.348  67.517  1.00  0.00    -0.143 OA 
BRANCH  14  15
HETATM   15  C   UNL     1      -8.598  14.398  66.535  1.00  0.00     0.099 C  
HETATM   16  C   UNL     1     -10.125  14.681  66.514  1.00  0.00    -0.279 C  
HETATM   17  N   UNL     1     -10.410  16.038  66.009  1.00  0.00    -0.334 NA 
HETATM   18  C   UNL     1     -10.974  13.739  65.683  1.00  0.00    -0.288 C  
HETATM   19  H2  UNL     1      -9.987  16.194  65.094  1.00  0.00     0.000 HD 
HETATM   20  H1  UNL     1     -11.413  16.223  65.995  1.00  0.00     0.000 HD 
HETATM   21  C   UNL     1     -10.705  12.270  65.969  1.00  0.00    -0.261 C  
HETATM   22  N   UNL     1     -11.650  11.547  65.102  1.00  0.00    -0.045 NA 
HETATM   23  C   UNL     1      -9.187  11.986  65.744  1.00  0.00    -0.060 C  
HETATM   24  C   UNL     1      -8.334  12.862  66.755  1.00  0.00     0.045 C  
HETATM   25  O   UNL     1      -6.935  12.580  66.563  1.00  0.00    -0.266 OA 
HETATM   26  H2  UNL     1     -11.585  11.797  64.116  1.00  0.00     0.000 HD 
HETATM   27  H1  UNL     1     -11.470  10.562  65.294  1.00  0.00     0.000 HD 
HETATM   28  H   UNL     1      -6.776  11.653  66.696  1.00  0.00     0.000 HD 
BRANCH  23  29
HETATM   29  O   UNL     1      -8.855  10.563  65.811  1.00  0.00    -0.162 OA 
BRANCH  29  30
HETATM   30  C   UNL     1      -9.193   9.987  67.105  1.00  0.00    -0.141 C  
HETATM   31  O   UNL     1      -8.203  10.308  68.090  1.00  0.00    -0.111 OA 
HETATM   32  C   UNL     1      -8.204  11.711  68.406  1.00  0.00    -0.155 C  
HETATM   33  C   UNL     1      -9.509  12.060  69.123  1.00  0.00     0.460 C  
HETATM   34  H   UNL     1     -12.481  10.295  66.949  1.00  0.00     0.000 HD 
HETATM   35  O   UNL     1      -9.536  13.430  69.526  1.00  0.00     0.204 OA 
HETATM   36  C   UNL     1     -10.703  11.761  68.185  1.00  0.00    -0.214 C  
HETATM   37  H1  UNL     1     -12.763  11.811  68.280  1.00  0.00     0.000 HD 
HETATM   38  H2  UNL     1     -12.021  12.950  69.289  1.00  0.00     0.000 HD 
HETATM   39  C   UNL     1     -10.613  10.333  67.624  1.00  0.00    -0.263 C  
HETATM   40  N   UNL     1     -11.976  12.008  68.899  1.00  0.00    -0.282 NA 
HETATM   41  H   UNL     1     -10.346  13.646  69.972  1.00  0.00     0.000 HD 
HETATM   42  O   UNL     1     -11.612  10.083  66.632  1.00  0.00     0.550 OA 
BRANCH  32  43
HETATM   43  C   UNL     1      -6.954  11.999  69.238  1.00  0.00    -0.028 C  
HETATM   44  O   UNL     1      -7.020  13.347  69.723  1.00  0.00    -0.334 OA 
HETATM   45  H   UNL     1      -6.243  13.526  70.240  1.00  0.00     0.000 HD 
ENDBRANCH  32  43
ENDBRANCH  29  30
ENDBRANCH  23  29
ENDBRANCH  14  15
ENDBRANCH   8  14
TORSDOF 6
ENDMDL
MODEL      295
REMARK 921   NORMALIZED FREE ENERGY PREDICTED BY IDOCK:    8.01 KCAL/MOL
REMARK 922        TOTAL FREE ENERGY PREDICTED BY IDOCK:    9.26 KCAL/MOL
REMARK 923 INTER-LIGAND FREE ENERGY PREDICTED BY IDOCK:   -3.54 KCAL/MOL
REMARK 924 INTRA-LIGAND FREE ENERGY PREDICTED BY IDOCK:   12.81 KCAL/MOL
REMARK 927      BINDING AFFINITY PREDICTED BY RF-SCORE:    0.00 PKD
ROOT
HETATM    1  C   UNL     1      -5.567  18.248  68.613  1.00  0.00    -0.181 C  
HETATM    2  C   UNL     1      -6.310  19.370  69.348  1.00  0.00    -0.349 C  
HETATM    3  N   UNL     1      -5.126  17.295  69.655  1.00  0.00    -0.156 NA 
HETATM    4  H1  UNL     1      -4.632  16.549  69.166  1.00  0.00     0.000 HD 
HETATM    5  C   UNL     1      -7.094  20.272  68.423  1.00  0.00    -0.232 C  
HETATM    6  H2  UNL     1      -5.886  16.959  70.246  1.00  0.00     0.000 HD 
HETATM    7  C   UNL     1      -7.892  19.483  67.386  1.00  0.00    -0.257 C  
HETATM    8  C   UNL     1      -6.334  17.607  67.381  1.00  0.00    -0.147 C  
HETATM    9  O   UNL     1      -7.074  18.573  66.633  1.00  0.00    -0.195 OA 
ENDROOT
BRANCH   7  10
HETATM   10  C   UNL     1      -8.502  20.507  66.390  1.00  0.00     0.056 C  
HETATM   11  N   UNL     1      -9.965  20.491  66.381  1.00  0.00    -0.577 NA 
HETATM   12  H1  UNL     1     -10.365  21.164  65.727  1.00  0.00     0.000 HD 
HETATM   13  H2  UNL     1     -10.337  20.630  67.321  1.00  0.00     0.000 HD 
ENDBRANCH   7  10
BRANCH   8  14
HETATM   14  O   UNL     1      -7.094  16.471  67.794  1.00  0.00    -0.127 OA 
BRANCH  14  15
HETATM   15  C   UNL     1      -8.377  16.164  67.192  1.00  0.00    -0.197 C  
HETATM   16  C   UNL     1      -9.323  17.197  67.864  1.00  0.00    -0.249 C  
HETATM   17  N   UNL     1      -8.963  18.577  67.483  1.00  0.00    -0.274 NA 
HETATM   18  C   UNL     1     -10.801  17.053  67.564  1.00  0.00    -0.203 C  
HETATM   19  H2  UNL     1      -8.940  18.692  66.470  1.00  0.00     0.000 HD 
HETATM   20  H1  UNL     1      -9.584  19.255  67.924  1.00  0.00     0.000 HD 
HETATM   21  C   UNL     1     -11.324  15.640  67.763  1.00  0.00    -0.261 C  
HETATM   22  N   UNL     1     -12.763  15.733  67.465  1.00  0.00     1.314 NA 
HETATM   23  C   UNL     1     -10.486  14.666  66.878  1.00  0.00    -0.270 C  
HETATM   24  C   UNL     1      -8.969  14.712  67.339  1.00  0.00    -0.195 C  
HETATM   25  O   UNL     1      -8.201  13.796  66.538  1.00  0.00    -0.335 OA 
HETATM   26  H2  UNL     1     -12.973  16.129  66.549  1.00  0.00     0.000 HD 
HETATM   27  H1  UNL     1     -13.114  14.785  67.599  1.00  0.00     0.000 HD 
HETATM   28  H   UNL     1      -8.558  12.919  66.627  1.00  0.00     0.000 HD 
BRANCH  23  29
HETATM   29  O   UNL     1     -11.026  13.307  66.852  1.00  0.00    -0.277 OA 
BRANCH  29  30
HETATM   30  C   UNL     1     -10.363  12.440  67.816  1.00  0.00    -0.216 C  
HETATM   31  O   UNL     1      -9.886  13.186  68.943  1.00  0.00    -0.043 OA 
HETATM   32  C   UNL     1     -10.969  13.702  69.736  1.00  0.00     0.168 C  
HETATM   33  C   UNL     1     -11.699  12.534  70.400  1.00  0.00    -0.012 C  
HETATM   34  H   UNL     1     -12.257   9.753  67.462  1.00  0.00     0.000 HD 
HETATM   35  O   UNL     1     -12.744  12.990  71.261  1.00  0.00    -0.368 OA 
HETATM   36  C   UNL     1     -12.282  11.608  69.306  1.00  0.00    -0.164 C  
HETATM   37  H1  UNL     1     -13.298   9.814  69.212  1.00  0.00     0.000 HD 
HETATM   38  H2  UNL     1     -13.614  10.686  70.628  1.00  0.00     0.000 HD 
HETATM   39  C   UNL     1     -11.201  11.221  68.284  1.00  0.00    -0.267 C  
HETATM   40  N   UNL     1     -12.914  10.425  69.934  1.00  0.00     0.014 NA 
HETATM   41  H   UNL     1     -13.198  12.264  71.674  1.00  0.00     0.000 HD 
HETATM   42  O   UNL     1     -11.743  10.499  67.176  1.00  0.00    -0.125 OA 
BRANCH  32  43
HETATM   43  C   UNL     1     -10.378  14.699  70.734  1.00  0.00     0.913 C  
HETATM   44  O   UNL     1     -11.295  15.790  70.895  1.00  0.00    -0.332 OA 
HETATM   45  H   UNL     1     -10.928  16.410  71.515  1.00  0.00     0.000 HD 
ENDBRANCH  32  43
ENDBRANCH  29  30
ENDBRANCH  23  29
ENDBRANCH  14  15
ENDBRANCH   8  14
TORSDOF 6
ENDMDL
MODEL      296
REMARK 921   NORMALIZED FREE ENERGY PREDICTED BY IDOCK:    8.20 KCAL/MOL
REMARK 922        TOTAL FREE ENERGY PREDICTED BY IDOCK:    9.52 KCAL/MOL
REMARK 923 INTER-LIGAND FREE ENERGY PREDICTED BY IDOCK:   -3.42 KCAL/MOL
REMARK 924 INTRA-LIGAND FREE ENERGY PREDICTED BY IDOCK:   12.94 KCAL/MOL
REMARK 927      BINDING AFFINITY PREDICTED BY RF-SCORE:    0.00 PKD
ROOT
HETATM    1  C   UNL     1      -9.853  14.479  65.211  1.00  0.00    -0.186 C  
HETATM    2  C   UNL     1     -11.331  14.770  65.498  1.00  0.00    -0.343 C  
HETATM    3  N   UNL     1      -9.112  14.867  66.431  1.00  0.00    -0.390 NA 
HETATM    4  H1  UNL     1      -8.129  14.674  66.240  1.00  0.00     0.000 HD 
HETATM    5  C   UNL     1     -12.268  14.154  64.485  1.00  0.00    -0.468 C  
HETATM    6  H2  UNL     1      -9.457  14.414  67.277  1.00  0.00     0.000 HD 
HETATM    7  C   UNL     1     -11.902  12.705  64.165  1.00  0.00    -0.410 C  
HETATM    8  C   UNL     1      -9.534  13.030  64.649  1.00  0.00     0.564 C  
HETATM    9  O   UNL     1     -10.536  12.559  63.746  1.00  0.00    -0.416 OA 
ENDROOT
BRANCH   7  10
HETATM   10  C   UNL     1     -12.810  12.244  62.993  1.00  0.00     0.278 C  
HETATM   11  N   UNL     1     -13.798  11.244  63.397  1.00  0.00     0.768 NA 
HETATM   12  H1  UNL     1     -14.394  10.941  62.627  1.00  0.00     0.000 HD 
HETATM   13  H2  UNL     1     -14.357  11.579  64.182  1.00  0.00     0.000 HD 
ENDBRANCH   7  10
BRANCH   8  14
HETATM   14  O   UNL     1      -9.228  12.130  65.715  1.00  0.00    -0.151 OA 
BRANCH  14  15
HETATM   15  C   UNL     1      -8.309  11.025  65.526  1.00  0.00    -0.024 C  
HETATM   16  C   UNL     1      -9.244   9.787  65.617  1.00  0.00    -0.199 C  
HETATM   17  N   UNL     1     -10.211   9.765  64.504  1.00  0.00    -0.236 NA 
HETATM   18  C   UNL     1      -8.568   8.430  65.610  1.00  0.00    -0.197 C  
HETATM   19  H2  UNL     1      -9.743   9.816  63.599  1.00  0.00     0.000 HD 
HETATM   20  H1  UNL     1     -10.825   8.953  64.564  1.00  0.00     0.000 HD 
HETATM   21  C   UNL     1      -7.429   8.316  66.610  1.00  0.00    -0.086 C  
HETATM   22  N   UNL     1      -6.953   6.930  66.470  1.00  0.00    -0.064 NA 
HETATM   23  C   UNL     1      -6.393   9.447  66.321  1.00  0.00    -0.069 C  
HETATM   24  C   UNL     1      -7.093  10.859  66.511  1.00  0.00    -0.139 C  
HETATM   25  O   UNL     1      -6.130  11.901  66.268  1.00  0.00    -0.487 OA 
HETATM   26  H2  UNL     1      -6.697   6.673  65.517  1.00  0.00     0.000 HD 
HETATM   27  H1  UNL     1      -6.188   6.853  67.141  1.00  0.00     0.000 HD 
HETATM   28  H   UNL     1      -5.395  11.801  66.863  1.00  0.00     0.000 HD 
BRANCH  23  29
HETATM   29  O   UNL     1      -5.167   9.315  67.107  1.00  0.00    -0.035 OA 
BRANCH  29  30
HETATM   30  C   UNL     1      -5.440   9.265  68.537  1.00  0.00    -0.037 C  
HETATM   31  O   UNL     1      -5.485  10.581  69.102  1.00  0.00    -0.038 OA 
HETATM   32  C   UNL     1      -6.623  11.323  68.631  1.00  0.00    -0.064 C  
HETATM   33  C   UNL     1      -7.898  10.684  69.183  1.00  0.00    -0.142 C  
HETATM   34  H   UNL     1      -7.487   6.668  68.567  1.00  0.00     0.000 HD 
HETATM   35  O   UNL     1      -9.060  11.423  68.805  1.00  0.00    -0.288 OA 
HETATM   36  C   UNL     1      -8.005   9.230  68.664  1.00  0.00    -0.100 C  
HETATM   37  H1  UNL     1      -9.257   7.611  68.921  1.00  0.00     0.000 HD 
HETATM   38  H2  UNL     1     -10.045   9.098  69.102  1.00  0.00     0.000 HD 
HETATM   39  C   UNL     1      -6.704   8.457  68.933  1.00  0.00    -0.053 C  
HETATM   40  N   UNL     1      -9.187   8.569  69.263  1.00  0.00    -0.153 NA 
HETATM   41  H   UNL     1      -9.853  11.027  69.148  1.00  0.00     0.000 HD 
HETATM   42  O   UNL     1      -6.713   7.163  68.325  1.00  0.00    -0.056 OA 
BRANCH  32  43
HETATM   43  C   UNL     1      -6.434  12.779  69.060  1.00  0.00    -0.096 C  
HETATM   44  O   UNL     1      -7.411  13.589  68.390  1.00  0.00    -0.098 OA 
HETATM   45  H   UNL     1      -7.293  14.493  68.656  1.00  0.00     0.000 HD 
ENDBRANCH  32  43
ENDBRANCH  29  30
ENDBRANCH  23  29
ENDBRANCH  14  15
ENDBRANCH   8  14
TORSDOF 6
ENDMDL
MODEL      297
REMARK 921   NORMALIZED FREE ENERGY PREDICTED BY IDOCK:   10.48 KCAL/MOL
REMARK 922        TOTAL FREE ENERGY PREDICTED BY IDOCK:   12.60 KCAL/MOL
REMARK 923 INTER-LIGAND FREE ENERGY PREDICTED BY IDOCK:   10.33 KCAL/MOL
REMARK 924 INTRA-LIGAND FREE ENERGY PREDICTED BY IDOCK:    2.27 KCAL/MOL
REMARK 927      BINDING AFFINITY PREDICTED BY RF-SCORE:    0.00 PKD
ROOT
HETATM    1  C   UNL     1     -13.781  14.620  72.049  1.00  0.00    -0.430 C  
HETATM    2  C   UNL     1     -13.791  16.012  71.406  1.00  0.00     0.750 C  
HETATM    3  N   UNL     1     -14.237  13.680  71.001  1.00  0.00     0.641 NA 
HETATM    4  H1  UNL     1     -14.231  12.754  71.428  1.00  0.00     0.000 HD 
HETATM    5  C   UNL     1     -13.065  17.052  72.228  1.00  0.00     3.698 C  
HETATM    6  H2  UNL     1     -13.691  13.734  70.141  1.00  0.00     0.000 HD 
HETATM    7  C   UNL     1     -11.722  16.544  72.748  1.00  0.00    -0.215 C  
HETATM    8  C   UNL     1     -12.440  14.214  72.793  1.00  0.00    -0.057 C  
HETATM    9  O   UNL     1     -11.841  15.314  73.480  1.00  0.00    -0.435 OA 
ENDROOT
BRANCH   7  10
HETATM   10  C   UNL     1     -11.161  17.621  73.718  1.00  0.00     2.082 C  
HETATM   11  N   UNL     1     -10.703  18.826  73.027  1.00  0.00     1.573 NA 
HETATM   12  H1  UNL     1     -10.335  19.533  73.664  1.00  0.00     0.000 HD 
HETATM   13  H2  UNL     1     -11.443  19.214  72.441  1.00  0.00     0.000 HD 
ENDBRANCH   7  10
BRANCH   8  14
HETATM   14  O   UNL     1     -11.560  13.520  71.908  1.00  0.00     1.285 OA 
BRANCH  14  15
HETATM   15  C   UNL     1     -12.071  12.626  70.888  1.00  0.00    -0.047 C  
HETATM   16  C   UNL     1     -11.598  11.233  71.389  1.00  0.00     1.167 C  
HETATM   17  N   UNL     1     -12.244  10.877  72.667  1.00  0.00     1.805 NA 
HETATM   18  C   UNL     1     -11.842  10.063  70.457  1.00  0.00    -0.387 C  
HETATM   19  H2  UNL     1     -13.260  10.926  72.599  1.00  0.00     0.000 HD 
HETATM   20  H1  UNL     1     -11.933   9.963  72.996  1.00  0.00     0.000 HD 
HETATM   21  C   UNL     1     -11.365  10.311  69.035  1.00  0.00    -0.180 C  
HETATM   22  N   UNL     1     -11.653   9.055  68.325  1.00  0.00     0.370 NA 
HETATM   23  C   UNL     1     -12.058  11.600  68.492  1.00  0.00    -0.080 C  
HETATM   24  C   UNL     1     -11.637  12.839  69.390  1.00  0.00    -0.298 C  
HETATM   25  O   UNL     1     -12.258  14.031  68.874  1.00  0.00    -0.464 OA 
HETATM   26  H2  UNL     1     -12.625   8.753  68.390  1.00  0.00     0.000 HD 
HETATM   27  H1  UNL     1     -11.333   9.221  67.371  1.00  0.00     0.000 HD 
HETATM   28  H   UNL     1     -11.996  14.160  67.969  1.00  0.00     0.000 HD 
BRANCH  23  29
HETATM   29  O   UNL     1     -11.812  11.825  67.068  1.00  0.00    -0.599 OA 
BRANCH  29  30
HETATM   30  C   UNL     1     -12.211  13.162  66.653  1.00  0.00    -0.267 C  
HETATM   31  O   UNL     1     -11.157  14.109  66.869  1.00  0.00    -0.296 OA 
HETATM   32  C   UNL     1     -10.041  13.872  65.993  1.00  0.00    -0.313 C  
HETATM   33  C   UNL     1     -10.464  14.172  64.555  1.00  0.00    -0.204 C  
HETATM   34  H   UNL     1     -14.081  12.343  64.051  1.00  0.00     0.000 HD 
HETATM   35  O   UNL     1      -9.373  14.021  63.645  1.00  0.00     2.323 OA 
HETATM   36  C   UNL     1     -11.620  13.224  64.154  1.00  0.00    -0.405 C  
HETATM   37  H1  UNL     1     -12.863  12.939  62.532  1.00  0.00     0.000 HD 
HETATM   38  H2  UNL     1     -11.346  13.560  62.110  1.00  0.00     0.000 HD 
HETATM   39  C   UNL     1     -12.746  13.263  65.200  1.00  0.00    -0.402 C  
HETATM   40  N   UNL     1     -12.101  13.565  62.796  1.00  0.00     0.122 NA 
HETATM   41  H   UNL     1      -9.635  14.208  62.752  1.00  0.00     0.000 HD 
HETATM   42  O   UNL     1     -13.753  12.282  64.941  1.00  0.00     0.145 OA 
BRANCH  32  43
HETATM   43  C   UNL     1      -8.878  14.736  66.482  1.00  0.00    -0.188 C  
HETATM   44  O   UNL     1      -7.839  13.878  66.973  1.00  0.00    -0.365 OA 
HETATM   45  H   UNL     1      -7.116  14.416  67.276  1.00  0.00     0.000 HD 
ENDBRANCH  32  43
ENDBRANCH  29  30
ENDBRANCH  23  29
ENDBRANCH  14  15
ENDBRANCH   8  14
TORSDOF 6
ENDMDL
MODEL      298
REMARK 921   NORMALIZED FREE ENERGY PREDICTED BY IDOCK:   10.99 KCAL/MOL
REMARK 922        TOTAL FREE ENERGY PREDICTED BY IDOCK:   13.29 KCAL/MOL
REMARK 923 INTER-LIGAND FREE ENERGY PREDICTED BY IDOCK:    0.83 KCAL/MOL
REMARK 924 INTRA-LIGAND FREE ENERGY PREDICTED BY IDOCK:   12.46 KCAL/MOL
REMARK 927      BINDING AFFINITY PREDICTED BY RF-SCORE:    0.00 PKD
ROOT
HETATM    1  C   UNL     1      -7.761  15.672  66.932  1.00  0.00    -0.203 C  
HETATM    2  C   UNL     1      -6.877  16.735  67.596  1.00  0.00    -0.158 C  
HETATM    3  N   UNL     1      -8.369  14.895  68.035  1.00  0.00    -0.142 NA 
HETATM    4  H1  UNL     1      -8.956  14.189  67.593  1.00  0.00     0.000 HD 
HETATM    5  C   UNL     1      -6.420  17.812  66.639  1.00  0.00    -0.230 C  
HETATM    6  H2  UNL     1      -8.868  15.473  68.711  1.00  0.00     0.000 HD 
HETATM    7  C   UNL     1      -7.556  18.319  65.752  1.00  0.00    -0.034 C  
HETATM    8  C   UNL     1      -8.774  16.207  65.833  1.00  0.00    -0.091 C  
HETATM    9  O   UNL     1      -8.219  17.260  65.043  1.00  0.00     1.611 OA 
ENDROOT
BRANCH   7  10
HETATM   10  C   UNL     1      -6.933  19.277  64.700  1.00  0.00     0.832 C  
HETATM   11  N   UNL     1      -7.939  19.995  63.918  1.00  0.00     2.908 NA 
HETATM   12  H1  UNL     1      -7.530  20.625  63.227  1.00  0.00     0.000 HD 
HETATM   13  H2  UNL     1      -8.587  20.494  64.527  1.00  0.00     0.000 HD 
ENDBRANCH   7  10
BRANCH   8  14
HETATM   14  O   UNL     1     -10.040  16.512  66.419  1.00  0.00    -0.283 OA 
BRANCH  14  15
HETATM   15  C   UNL     1     -11.017  15.473  66.681  1.00  0.00    -0.248 C  
HETATM   16  C   UNL     1     -11.153  15.518  68.228  1.00  0.00    -0.322 C  
HETATM   17  N   UNL     1     -11.726  16.802  68.677  1.00  0.00     0.090 NA 
HETATM   18  C   UNL     1     -12.004  14.436  68.862  1.00  0.00    -0.337 C  
HETATM   19  H2  UNL     1     -12.614  16.997  68.216  1.00  0.00     0.000 HD 
HETATM   20  H1  UNL     1     -11.815  16.831  69.693  1.00  0.00     0.000 HD 
HETATM   21  C   UNL     1     -11.647  13.034  68.396  1.00  0.00    -0.335 C  
HETATM   22  N   UNL     1     -12.548  12.152  69.156  1.00  0.00     0.314 NA 
HETATM   23  C   UNL     1     -11.757  12.980  66.841  1.00  0.00    -0.383 C  
HETATM   24  C   UNL     1     -10.722  14.002  66.206  1.00  0.00    -0.289 C  
HETATM   25  O   UNL     1     -10.808  13.933  64.771  1.00  0.00    -0.376 OA 
HETATM   26  H2  UNL     1     -13.537  12.384  69.057  1.00  0.00     0.000 HD 
HETATM   27  H1  UNL     1     -12.309  11.211  68.843  1.00  0.00     0.000 HD 
HETATM   28  H   UNL     1     -10.630  13.044  64.483  1.00  0.00     0.000 HD 
BRANCH  23  29
HETATM   29  O   UNL     1     -11.615  11.626  66.304  1.00  0.00    -0.420 OA 
BRANCH  29  30
HETATM   30  C   UNL     1     -10.695  10.822  67.095  1.00  0.00    -0.272 C  
HETATM   31  O   UNL     1      -9.998   9.875  66.276  1.00  0.00    -0.227 OA 
HETATM   32  C   UNL     1      -9.087  10.523  65.372  1.00  0.00    -0.187 C  
HETATM   33  C   UNL     1      -7.953  11.159  66.177  1.00  0.00    -0.090 C  
HETATM   34  H   UNL     1      -9.753  13.127  69.270  1.00  0.00     0.000 HD 
HETATM   35  O   UNL     1      -6.977  11.759  65.325  1.00  0.00     0.724 OA 
HETATM   36  C   UNL     1      -8.543  12.222  67.135  1.00  0.00    -0.187 C  
HETATM   37  H1  UNL     1      -7.857  13.482  68.618  1.00  0.00     0.000 HD 
HETATM   38  H2  UNL     1      -6.694  13.151  67.433  1.00  0.00     0.000 HD 
HETATM   39  C   UNL     1      -9.696  11.633  67.962  1.00  0.00    -0.182 C  
HETATM   40  N   UNL     1      -7.468  12.782  67.986  1.00  0.00    -0.109 NA 
HETATM   41  H   UNL     1      -6.273  12.154  65.825  1.00  0.00     0.000 HD 
HETATM   42  O   UNL     1     -10.364  12.630  68.739  1.00  0.00    -0.202 OA 
BRANCH  32  43
HETATM   43  C   UNL     1      -8.608   9.474  64.366  1.00  0.00    -0.195 C  
HETATM   44  O   UNL     1      -7.899  10.136  63.310  1.00  0.00    -0.149 OA 
HETATM   45  H   UNL     1      -7.602   9.485  62.685  1.00  0.00     0.000 HD 
ENDBRANCH  32  43
ENDBRANCH  29  30
ENDBRANCH  23  29
ENDBRANCH  14  15
ENDBRANCH   8  14
TORSDOF 6
ENDMDL
MODEL      299
REMARK 921   NORMALIZED FREE ENERGY PREDICTED BY IDOCK:   13.17 KCAL/MOL
REMARK 922        TOTAL FREE ENERGY PREDICTED BY IDOCK:   16.24 KCAL/MOL
REMARK 923 INTER-LIGAND FREE ENERGY PREDICTED BY IDOCK:   -0.41 KCAL/MOL
REMARK 924 INTRA-LIGAND FREE ENERGY PREDICTED BY IDOCK:   16.65 KCAL/MOL
REMARK 927      BINDING AFFINITY PREDICTED BY RF-SCORE:    0.00 PKD
ROOT
HETATM    1  C   UNL     1      -5.955  13.353  71.130  1.00  0.00     0.103 C  
HETATM    2  C   UNL     1      -7.074  14.214  70.533  1.00  0.00     0.706 C  
HETATM    3  N   UNL     1      -6.089  13.463  72.599  1.00  0.00     0.237 NA 
HETATM    4  H1  UNL     1      -5.345  12.890  72.996  1.00  0.00     0.000 HD 
HETATM    5  C   UNL     1      -7.283  13.980  69.055  1.00  0.00    -0.092 C  
HETATM    6  H2  UNL     1      -7.018  13.215  72.941  1.00  0.00     0.000 HD 
HETATM    7  C   UNL     1      -7.296  12.493  68.701  1.00  0.00    -0.099 C  
HETATM    8  C   UNL     1      -5.846  11.875  70.562  1.00  0.00    -0.125 C  
HETATM    9  O   UNL     1      -6.124  11.804  69.163  1.00  0.00    -0.064 OA 
ENDROOT
BRANCH   7  10
HETATM   10  C   UNL     1      -7.333  12.384  67.153  1.00  0.00    -0.081 C  
HETATM   11  N   UNL     1      -8.365  13.225  66.546  1.00  0.00    -0.337 NA 
HETATM   12  H1  UNL     1      -8.389  13.153  65.529  1.00  0.00     0.000 HD 
HETATM   13  H2  UNL     1      -8.263  14.196  66.841  1.00  0.00     0.000 HD 
ENDBRANCH   7  10
BRANCH   8  14
HETATM   14  O   UNL     1      -6.606  10.969  71.362  1.00  0.00     0.602 OA 
BRANCH  14  15
HETATM   15  C   UNL     1      -7.493   9.993  70.758  1.00  0.00     0.370 C  
HETATM   16  C   UNL     1      -8.405  10.874  69.860  1.00  0.00     0.725 C  
HETATM   17  N   UNL     1      -7.632  11.512  68.778  1.00  0.00    -0.133 NA 
HETATM   18  C   UNL     1      -9.566  10.171  69.185  1.00  0.00    -0.222 C  
HETATM   19  H2  UNL     1      -7.116  10.825  68.229  1.00  0.00     0.000 HD 
HETATM   20  H1  UNL     1      -8.231  12.090  68.188  1.00  0.00     0.000 HD 
HETATM   21  C   UNL     1     -10.403   9.332  70.138  1.00  0.00    -0.222 C  
HETATM   22  N   UNL     1     -11.481   8.786  69.298  1.00  0.00    -0.189 NA 
HETATM   23  C   UNL     1      -9.471   8.298  70.844  1.00  0.00    -0.162 C  
HETATM   24  C   UNL     1      -8.371   9.073  71.686  1.00  0.00     0.063 C  
HETATM   25  O   UNL     1      -7.528   8.120  72.357  1.00  0.00    -0.102 OA 
HETATM   26  H2  UNL     1     -11.153   8.278  68.476  1.00  0.00     0.000 HD 
HETATM   27  H1  UNL     1     -12.042   8.222  69.937  1.00  0.00     0.000 HD 
HETATM   28  H   UNL     1      -8.058   7.564  72.917  1.00  0.00     0.000 HD 
BRANCH  23  29
HETATM   29  O   UNL     1     -10.206   7.318  71.643  1.00  0.00    -0.193 OA 
BRANCH  29  30
HETATM   30  C   UNL     1     -10.786   6.269  70.817  1.00  0.00    -0.256 C  
HETATM   31  O   UNL     1     -10.114   6.172  69.554  1.00  0.00    -0.168 OA 
HETATM   32  C   UNL     1      -8.767   5.690  69.705  1.00  0.00    -0.110 C  
HETATM   33  C   UNL     1      -8.808   4.234  70.169  1.00  0.00    -0.081 C  
HETATM   34  H   UNL     1     -11.538   4.108  73.204  1.00  0.00     0.000 HD 
HETATM   35  O   UNL     1      -7.496   3.678  70.268  1.00  0.00    -0.041 OA 
HETATM   36  C   UNL     1      -9.519   4.155  71.541  1.00  0.00    -0.154 C  
HETATM   37  H1  UNL     1     -10.116   2.690  72.865  1.00  0.00     0.000 HD 
HETATM   38  H2  UNL     1      -8.747   2.260  71.967  1.00  0.00     0.000 HD 
HETATM   39  C   UNL     1     -10.876   4.877  71.495  1.00  0.00     0.113 C  
HETATM   40  N   UNL     1      -9.647   2.741  71.961  1.00  0.00    -0.127 NA 
HETATM   41  H   UNL     1      -7.521   2.773  70.556  1.00  0.00     0.000 HD 
HETATM   42  O   UNL     1     -11.483   4.960  72.787  1.00  0.00    -0.203 OA 
BRANCH  32  43
HETATM   43  C   UNL     1      -8.054   5.884  68.366  1.00  0.00    -0.109 C  
HETATM   44  O   UNL     1      -6.664   6.137  68.614  1.00  0.00    -0.056 OA 
HETATM   45  H   UNL     1      -6.222   6.259  67.782  1.00  0.00     0.000 HD 
ENDBRANCH  32  43
ENDBRANCH  29  30
ENDBRANCH  23  29
ENDBRANCH  14  15
ENDBRANCH   8  14
TORSDOF 6
ENDMDL
MODEL      300
REMARK 921   NORMALIZED FREE ENERGY PREDICTED BY IDOCK:   14.68 KCAL/MOL
REMARK 922        TOTAL FREE ENERGY PREDICTED BY IDOCK:   18.28 KCAL/MOL
REMARK 923 INTER-LIGAND FREE ENERGY PREDICTED BY IDOCK:   17.64 KCAL/MOL
REMARK 924 INTRA-LIGAND FREE ENERGY PREDICTED BY IDOCK:    0.64 KCAL/MOL
REMARK 927      BINDING AFFINITY PREDICTED BY RF-SCORE:    0.00 PKD
ROOT
HETATM    1  C   UNL     1      -8.245  13.303  70.630  1.00  0.00     5.505 C  
HETATM    2  C   UNL     1      -9.776  13.245  70.688  1.00  0.00     5.563 C  
HETATM    3  N   UNL     1      -7.772  13.091  72.016  1.00  0.00     8.825 NA 
HETATM    4  H1  UNL     1      -6.754  13.129  71.977  1.00  0.00     0.000 HD 
HETATM    5  C   UNL     1     -10.420  13.135  69.326  1.00  0.00     0.183 C  
HETATM    6  H2  UNL     1      -8.130  12.236  72.441  1.00  0.00     0.000 HD 
HETATM    7  C   UNL     1      -9.726  12.101  68.440  1.00  0.00    -0.193 C  
HETATM    8  C   UNL     1      -7.563  12.386  69.528  1.00  0.00     0.689 C  
HETATM    9  O   UNL     1      -8.315  12.337  68.315  1.00  0.00    -0.167 OA 
ENDROOT
BRANCH   7  10
HETATM   10  C   UNL     1     -10.353  12.207  67.022  1.00  0.00    -0.211 C  
HETATM   11  N   UNL     1     -11.732  11.723  66.971  1.00  0.00    -0.594 NA 
HETATM   12  H1  UNL     1     -12.143  11.793  66.040  1.00  0.00     0.000 HD 
HETATM   13  H2  UNL     1     -12.312  12.200  67.663  1.00  0.00     0.000 HD 
ENDBRANCH   7  10
BRANCH   8  14
HETATM   14  O   UNL     1      -7.229  11.108  70.069  1.00  0.00    -0.019 OA 
BRANCH  14  15
HETATM   15  C   UNL     1      -7.808   9.890  69.536  1.00  0.00    -0.140 C  
HETATM   16  C   UNL     1      -7.645   8.892  70.715  1.00  0.00    -0.103 C  
HETATM   17  N   UNL     1      -8.452   9.304  71.880  1.00  0.00    -0.165 NA 
HETATM   18  C   UNL     1      -8.021   7.451  70.435  1.00  0.00    -0.103 C  
HETATM   19  H2  UNL     1      -9.432   9.433  71.630  1.00  0.00     0.000 HD 
HETATM   20  H1  UNL     1      -8.344   8.649  72.654  1.00  0.00     0.000 HD 
HETATM   21  C   UNL     1      -7.387   6.894  69.171  1.00  0.00    -0.093 C  
HETATM   22  N   UNL     1      -7.842   5.495  69.115  1.00  0.00    -0.090 NA 
HETATM   23  C   UNL     1      -7.781   7.809  67.969  1.00  0.00    -0.126 C  
HETATM   24  C   UNL     1      -7.217   9.271  68.215  1.00  0.00    -0.077 C  
HETATM   25  O   UNL     1      -7.560  10.107  67.095  1.00  0.00    -0.091 OA 
HETATM   26  H2  UNL     1      -8.855   5.385  69.156  1.00  0.00     0.000 HD 
HETATM   27  H1  UNL     1      -7.417   5.122  68.266  1.00  0.00     0.000 HD 
HETATM   28  H   UNL     1      -7.203   9.733  66.297  1.00  0.00     0.000 HD 
BRANCH  23  29
HETATM   29  O   UNL     1      -7.378   7.259  66.675  1.00  0.00    -0.077 OA 
BRANCH  29  30
HETATM   30  C   UNL     1      -8.516   6.755  65.919  1.00  0.00    -0.144 C  
HETATM   31  O   UNL     1      -8.487   7.222  64.564  1.00  0.00     0.013 OA 
HETATM   32  C   UNL     1      -7.393   6.647  63.828  1.00  0.00    -0.072 C  
HETATM   33  C   UNL     1      -7.641   5.148  63.655  1.00  0.00    -0.069 C  
HETATM   34  H   UNL     1      -8.778   3.776  67.330  1.00  0.00     0.000 HD 
HETATM   35  O   UNL     1      -6.619   4.535  62.868  1.00  0.00    -0.026 OA 
HETATM   36  C   UNL     1      -7.708   4.478  65.049  1.00  0.00    -0.081 C  
HETATM   37  H1  UNL     1      -8.083   2.601  65.819  1.00  0.00     0.000 HD 
HETATM   38  H2  UNL     1      -7.391   2.563  64.274  1.00  0.00     0.000 HD 
HETATM   39  C   UNL     1      -8.700   5.216  65.962  1.00  0.00    -0.130 C  
HETATM   40  N   UNL     1      -8.039   3.043  64.900  1.00  0.00    -0.086 NA 
HETATM   41  H   UNL     1      -6.774   3.604  62.760  1.00  0.00     0.000 HD 
HETATM   42  O   UNL     1      -8.665   4.720  67.303  1.00  0.00    -0.105 OA 
BRANCH  32  43
HETATM   43  C   UNL     1      -7.278   7.404  62.504  1.00  0.00    -0.083 C  
HETATM   44  O   UNL     1      -6.874   8.754  62.776  1.00  0.00    -0.091 OA 
HETATM   45  H   UNL     1      -6.803   9.224  61.954  1.00  0.00     0.000 HD 
ENDBRANCH  32  43
ENDBRANCH  29  30
ENDBRANCH  23  29
ENDBRANCH  14  15
ENDBRANCH   8  14
TORSDOF 6
ENDMDL
MODEL      301
REMARK 921   NORMALIZED FREE ENERGY PREDICTED BY IDOCK:   15.19 KCAL/MOL
REMARK 922        TOTAL FREE ENERGY PREDICTED BY IDOCK:   18.96 KCAL/MOL
REMARK 923 INTER-LIGAND FREE ENERGY PREDICTED BY IDOCK:   17.92 KCAL/MOL
REMARK 924 INTRA-LIGAND FREE ENERGY PREDICTED BY IDOCK:    1.03 KCAL/MOL
REMARK 927      BINDING AFFINITY PREDICTED BY RF-SCORE:    0.00 PKD
ROOT
HETATM    1  C   UNL     1     -13.776  15.661  72.834  1.00  0.00    -0.545 C  
HETATM    2  C   UNL     1     -13.660  17.078  72.260  1.00  0.00     4.804 C  
HETATM    3  N   UNL     1     -14.404  14.839  71.776  1.00  0.00    -0.518 NA 
HETATM    4  H1  UNL     1     -14.482  13.897  72.157  1.00  0.00     0.000 HD 
HETATM    5  C   UNL     1     -12.766  17.981  73.080  1.00  0.00     6.260 C  
HETATM    6  H2  UNL     1     -13.909  14.877  70.885  1.00  0.00     0.000 HD 
HETATM    7  C   UNL     1     -11.463  17.294  73.484  1.00  0.00     1.000 C  
HETATM    8  C   UNL     1     -12.449  15.063  73.466  1.00  0.00    -0.513 C  
HETATM    9  O   UNL     1     -11.682  16.047  74.162  1.00  0.00    -0.047 OA 
ENDROOT
BRANCH   7  10
HETATM   10  C   UNL     1     -10.720  18.243  74.463  1.00  0.00     3.246 C  
HETATM   11  N   UNL     1      -9.952  19.282  73.776  1.00  0.00     2.888 NA 
HETATM   12  H1  UNL     1      -9.464  19.905  74.420  1.00  0.00     0.000 HD 
HETATM   13  H2  UNL     1     -10.544  19.810  73.135  1.00  0.00     0.000 HD 
ENDBRANCH   7  10
BRANCH   8  14
HETATM   14  O   UNL     1     -11.714  14.322  72.492  1.00  0.00     0.283 OA 
BRANCH  14  15
HETATM   15  C   UNL     1     -12.386  13.626  71.411  1.00  0.00    -0.210 C  
HETATM   16  C   UNL     1     -12.572  12.197  71.991  1.00  0.00     0.190 C  
HETATM   17  N   UNL     1     -13.478  12.206  73.155  1.00  0.00     0.939 NA 
HETATM   18  C   UNL     1     -13.122  11.151  71.042  1.00  0.00    -0.217 C  
HETATM   19  H2  UNL     1     -14.373  12.639  72.930  1.00  0.00     0.000 HD 
HETATM   20  H1  UNL     1     -13.600  11.268  73.536  1.00  0.00     0.000 HD 
HETATM   21  C   UNL     1     -12.391  11.098  69.710  1.00  0.00    -0.246 C  
HETATM   22  N   UNL     1     -13.047  10.005  68.973  1.00  0.00     1.472 NA 
HETATM   23  C   UNL     1     -12.441  12.514  69.055  1.00  0.00     0.446 C  
HETATM   24  C   UNL     1     -11.698  13.553  69.997  1.00  0.00    -0.241 C  
HETATM   25  O   UNL     1     -11.723  14.854  69.381  1.00  0.00    -0.286 OA 
HETATM   26  H2  UNL     1     -14.058  10.107  68.889  1.00  0.00     0.000 HD 
HETATM   27  H1  UNL     1     -12.556   9.969  68.079  1.00  0.00     0.000 HD 
HETATM   28  H   UNL     1     -11.307  14.809  68.527  1.00  0.00     0.000 HD 
BRANCH  23  29
HETATM   29  O   UNL     1     -11.929  12.529  67.685  1.00  0.00    -0.414 OA 
BRANCH  29  30
HETATM   30  C   UNL     1     -10.561  13.026  67.621  1.00  0.00    -0.224 C  
HETATM   31  O   UNL     1      -9.615  11.968  67.820  1.00  0.00    -0.183 OA 
HETATM   32  C   UNL     1      -9.621  11.037  66.724  1.00  0.00    -0.190 C  
HETATM   33  C   UNL     1      -9.078  11.734  65.476  1.00  0.00     0.019 C  
HETATM   34  H   UNL     1     -10.977  15.345  65.301  1.00  0.00     0.000 HD 
HETATM   35  O   UNL     1      -8.993  10.835  64.369  1.00  0.00    -0.191 OA 
HETATM   36  C   UNL     1      -9.996  12.927  65.118  1.00  0.00    -0.157 C  
HETATM   37  H1  UNL     1     -10.037  14.453  63.730  1.00  0.00     0.000 HD 
HETATM   38  H2  UNL     1      -9.264  13.057  63.164  1.00  0.00     0.000 HD 
HETATM   39  C   UNL     1     -10.217  13.831  66.341  1.00  0.00    -0.292 C  
HETATM   40  N   UNL     1      -9.432  13.666  63.966  1.00  0.00     1.431 NA 
HETATM   41  H   UNL     1      -8.655  11.268  63.593  1.00  0.00     0.000 HD 
HETATM   42  O   UNL     1     -11.187  14.851  66.086  1.00  0.00    -0.335 OA 
BRANCH  32  43
HETATM   43  C   UNL     1      -8.801   9.818  67.149  1.00  0.00    -0.132 C  
HETATM   44  O   UNL     1      -8.630   9.848  68.573  1.00  0.00    -0.113 OA 
HETATM   45  H   UNL     1      -8.120   9.091  68.836  1.00  0.00     0.000 HD 
ENDBRANCH  32  43
ENDBRANCH  29  30
ENDBRANCH  23  29
ENDBRANCH  14  15
ENDBRANCH   8  14
TORSDOF 6
ENDMDL
MODEL      302
REMARK 921   NORMALIZED FREE ENERGY PREDICTED BY IDOCK:   19.84 KCAL/MOL
REMARK 922        TOTAL FREE ENERGY PREDICTED BY IDOCK:   25.24 KCAL/MOL
REMARK 923 INTER-LIGAND FREE ENERGY PREDICTED BY IDOCK:   15.50 KCAL/MOL
REMARK 924 INTRA-LIGAND FREE ENERGY PREDICTED BY IDOCK:    9.74 KCAL/MOL
REMARK 927      BINDING AFFINITY PREDICTED BY RF-SCORE:    0.00 PKD
ROOT
HETATM    1  C   UNL     1     -12.356  17.042  68.759  1.00  0.00     2.545 C  
HETATM    2  C   UNL     1     -11.318  17.722  69.660  1.00  0.00     2.121 C  
HETATM    3  N   UNL     1     -11.656  16.719  67.496  1.00  0.00     0.396 NA 
HETATM    4  H1  UNL     1     -12.345  16.267  66.897  1.00  0.00     0.000 HD 
HETATM    5  C   UNL     1     -11.767  17.846  71.098  1.00  0.00     4.808 C  
HETATM    6  H2  UNL     1     -10.810  16.165  67.631  1.00  0.00     0.000 HD 
HETATM    7  C   UNL     1     -12.391  16.553  71.622  1.00  0.00     0.478 C  
HETATM    8  C   UNL     1     -13.162  15.845  69.419  1.00  0.00     1.794 C  
HETATM    9  O   UNL     1     -13.467  16.082  70.794  1.00  0.00    -0.192 OA 
ENDROOT
BRANCH   7  10
HETATM   10  C   UNL     1     -12.973  16.854  73.030  1.00  0.00     1.291 C  
HETATM   11  N   UNL     1     -13.457  15.656  73.715  1.00  0.00    -0.670 NA 
HETATM   12  H1  UNL     1     -13.839  15.854  74.640  1.00  0.00     0.000 HD 
HETATM   13  H2  UNL     1     -12.726  14.946  73.767  1.00  0.00     0.000 HD 
ENDBRANCH   7  10
BRANCH   8  14
HETATM   14  O   UNL     1     -12.514  14.598  69.164  1.00  0.00    -0.148 OA 
BRANCH  14  15
HETATM   15  C   UNL     1     -12.866  13.402  69.903  1.00  0.00     0.380 C  
HETATM   16  C   UNL     1     -12.715  13.858  71.380  1.00  0.00    -0.365 C  
HETATM   17  N   UNL     1     -13.698  14.905  71.719  1.00  0.00    -0.394 NA 
HETATM   18  C   UNL     1     -12.869  12.783  72.438  1.00  0.00    -0.006 C  
HETATM   19  H2  UNL     1     -14.651  14.604  71.515  1.00  0.00     0.000 HD 
HETATM   20  H1  UNL     1     -13.598  15.205  72.689  1.00  0.00     0.000 HD 
HETATM   21  C   UNL     1     -12.026  11.546  72.170  1.00  0.00     2.320 C  
HETATM   22  N   UNL     1     -12.288  10.666  73.320  1.00  0.00     4.095 NA 
HETATM   23  C   UNL     1     -12.391  10.987  70.760  1.00  0.00    -0.398 C  
HETATM   24  C   UNL     1     -12.051  12.077  69.659  1.00  0.00    -0.230 C  
HETATM   25  O   UNL     1     -12.365  11.551  68.356  1.00  0.00    -0.461 OA 
HETATM   26  H2  UNL     1     -13.276  10.469  73.477  1.00  0.00     0.000 HD 
HETATM   27  H1  UNL     1     -11.722   9.836  73.141  1.00  0.00     0.000 HD 
HETATM   28  H   UNL     1     -11.873  10.752  68.209  1.00  0.00     0.000 HD 
BRANCH  23  29
HETATM   29  O   UNL     1     -11.772   9.691  70.480  1.00  0.00    -0.263 OA 
BRANCH  29  30
HETATM   30  C   UNL     1     -10.319   9.760  70.535  1.00  0.00    -0.283 C  
HETATM   31  O   UNL     1      -9.816   9.168  71.739  1.00  0.00    -0.299 OA 
HETATM   32  C   UNL     1     -10.025   7.745  71.760  1.00  0.00    -0.175 C  
HETATM   33  C   UNL     1      -9.150   7.099  70.685  1.00  0.00    -0.158 C  
HETATM   34  H   UNL     1      -9.676   9.348  67.318  1.00  0.00     0.000 HD 
HETATM   35  O   UNL     1      -9.262   5.675  70.705  1.00  0.00    -0.148 OA 
HETATM   36  C   UNL     1      -9.564   7.641  69.296  1.00  0.00    -0.159 C  
HETATM   37  H1  UNL     1      -8.938   7.450  67.339  1.00  0.00     0.000 HD 
HETATM   38  H2  UNL     1      -8.633   6.072  68.275  1.00  0.00     0.000 HD 
HETATM   39  C   UNL     1      -9.590   9.178  69.295  1.00  0.00    -0.159 C  
HETATM   40  N   UNL     1      -8.665   7.092  68.255  1.00  0.00    -0.128 NA 
HETATM   41  H   UNL     1      -8.718   5.272  70.038  1.00  0.00     0.000 HD 
HETATM   42  O   UNL     1     -10.122   9.705  68.077  1.00  0.00    -0.161 OA 
BRANCH  32  43
HETATM   43  C   UNL     1      -9.718   7.253  73.175  1.00  0.00    -0.209 C  
HETATM   44  O   UNL     1      -9.589   8.389  74.042  1.00  0.00     0.278 OA 
HETATM   45  H   UNL     1      -9.398   8.083  74.921  1.00  0.00     0.000 HD 
ENDBRANCH  32  43
ENDBRANCH  29  30
ENDBRANCH  23  29
ENDBRANCH  14  15
ENDBRANCH   8  14
TORSDOF 6
ENDMDL
MODEL      303
REMARK 921   NORMALIZED FREE ENERGY PREDICTED BY IDOCK:   26.08 KCAL/MOL
REMARK 922        TOTAL FREE ENERGY PREDICTED BY IDOCK:   33.67 KCAL/MOL
REMARK 923 INTER-LIGAND FREE ENERGY PREDICTED BY IDOCK:   24.04 KCAL/MOL
REMARK 924 INTRA-LIGAND FREE ENERGY PREDICTED BY IDOCK:    9.64 KCAL/MOL
REMARK 927      BINDING AFFINITY PREDICTED BY RF-SCORE:    0.00 PKD
ROOT
HETATM    1  C   UNL     1     -13.444  14.142  72.112  1.00  0.00    -0.454 C  
HETATM    2  C   UNL     1     -12.641  15.269  71.451  1.00  0.00    -0.444 C  
HETATM    3  N   UNL     1     -14.409  13.672  71.093  1.00  0.00     0.708 NA 
HETATM    4  H1  UNL     1     -14.943  12.923  71.532  1.00  0.00     0.000 HD 
HETATM    5  C   UNL     1     -11.408  15.660  72.233  1.00  0.00    -0.337 C  
HETATM    6  H2  UNL     1     -13.969  13.396  70.214  1.00  0.00     0.000 HD 
HETATM    7  C   UNL     1     -10.619  14.444  72.715  1.00  0.00     3.946 C  
HETATM    8  C   UNL     1     -12.587  13.007  72.816  1.00  0.00     1.035 C  
HETATM    9  O   UNL     1     -11.425  13.523  73.467  1.00  0.00     3.014 OA 
ENDROOT
BRANCH   7  10
HETATM   10  C   UNL     1      -9.492  14.962  73.649  1.00  0.00     8.992 C  
HETATM   11  N   UNL     1      -8.702  13.882  74.241  1.00  0.00     7.283 NA 
HETATM   12  H1  UNL     1      -7.961  14.222  74.855  1.00  0.00     0.000 HD 
HETATM   13  H2  UNL     1      -8.324  13.269  73.519  1.00  0.00     0.000 HD 
ENDBRANCH   7  10
BRANCH   8  14
HETATM   14  O   UNL     1     -12.330  11.933  71.911  1.00  0.00     0.114 OA 
BRANCH  14  15
HETATM   15  C   UNL     1     -11.561  12.138  70.698  1.00  0.00     0.480 C  
HETATM   16  C   UNL     1     -12.652  12.551  69.671  1.00  0.00     0.384 C  
HETATM   17  N   UNL     1     -13.270  13.839  70.038  1.00  0.00     0.167 NA 
HETATM   18  C   UNL     1     -12.200  12.698  68.232  1.00  0.00     0.060 C  
HETATM   19  H2  UNL     1     -12.570  14.571  70.156  1.00  0.00     0.000 HD 
HETATM   20  H1  UNL     1     -13.986  14.110  69.363  1.00  0.00     0.000 HD 
HETATM   21  C   UNL     1     -11.407  11.506  67.721  1.00  0.00    -0.296 C  
HETATM   22  N   UNL     1     -11.113  11.834  66.316  1.00  0.00    -0.308 NA 
HETATM   23  C   UNL     1     -10.182  11.280  68.661  1.00  0.00    -0.203 C  
HETATM   24  C   UNL     1     -10.698  10.953  70.125  1.00  0.00     0.122 C  
HETATM   25  O   UNL     1      -9.567  10.721  70.985  1.00  0.00     1.542 OA 
HETATM   26  H2  UNL     1     -10.645  12.731  66.187  1.00  0.00     0.000 HD 
HETATM   27  H1  UNL     1     -10.581  11.034  65.973  1.00  0.00     0.000 HD 
HETATM   28  H   UNL     1      -9.046  10.005  70.639  1.00  0.00     0.000 HD 
BRANCH  23  29
HETATM   29  O   UNL     1      -9.250  10.274  68.153  1.00  0.00    -0.134 OA 
BRANCH  29  30
HETATM   30  C   UNL     1      -9.726   9.664  66.920  1.00  0.00    -0.186 C  
HETATM   31  O   UNL     1      -8.845   9.947  65.826  1.00  0.00    -0.138 OA 
HETATM   32  C   UNL     1      -7.575   9.291  65.984  1.00  0.00    -0.096 C  
HETATM   33  C   UNL     1      -7.776   7.780  65.862  1.00  0.00    -0.094 C  
HETATM   34  H   UNL     1     -11.011   6.896  68.192  1.00  0.00     0.000 HD 
HETATM   35  O   UNL     1      -6.535   7.077  65.939  1.00  0.00    -0.048 OA 
HETATM   36  C   UNL     1      -8.726   7.300  66.985  1.00  0.00    -0.123 C  
HETATM   37  H1  UNL     1      -9.629   5.538  67.565  1.00  0.00     0.000 HD 
HETATM   38  H2  UNL     1      -8.146   5.301  66.784  1.00  0.00     0.000 HD 
HETATM   39  C   UNL     1     -10.012   8.142  67.011  1.00  0.00    -0.259 C  
HETATM   40  N   UNL     1      -9.003   5.854  66.824  1.00  0.00    -0.117 NA 
HETATM   41  H   UNL     1      -6.660   6.139  65.863  1.00  0.00     0.000 HD 
HETATM   42  O   UNL     1     -10.837   7.828  68.136  1.00  0.00    -0.092 OA 
BRANCH  32  43
HETATM   43  C   UNL     1      -6.623   9.867  64.935  1.00  0.00    -0.119 C  
HETATM   44  O   UNL     1      -6.118  11.124  65.408  1.00  0.00    -0.365 OA 
HETATM   45  H   UNL     1      -5.527  11.482  64.756  1.00  0.00     0.000 HD 
ENDBRANCH  32  43
ENDBRANCH  29  30
ENDBRANCH  23  29
ENDBRANCH  14  15
ENDBRANCH   8  14
TORSDOF 6
ENDMDL
MODEL      304
REMARK 921   NORMALIZED FREE ENERGY PREDICTED BY IDOCK:   26.18 KCAL/MOL
REMARK 922        TOTAL FREE ENERGY PREDICTED BY IDOCK:   33.81 KCAL/MOL
REMARK 923 INTER-LIGAND FREE ENERGY PREDICTED BY IDOCK:   26.26 KCAL/MOL
REMARK 924 INTRA-LIGAND FREE ENERGY PREDICTED BY IDOCK:    7.55 KCAL/MOL
REMARK 927      BINDING AFFINITY PREDICTED BY RF-SCORE:    0.00 PKD
ROOT
HETATM    1  C   UNL     1     -13.442  14.142  72.113  1.00  0.00    -0.454 C  
HETATM    2  C   UNL     1     -12.653  15.274  71.445  1.00  0.00    -0.444 C  
HETATM    3  N   UNL     1     -14.406  13.659  71.100  1.00  0.00     0.708 NA 
HETATM    4  H1  UNL     1     -14.931  12.906  71.544  1.00  0.00     0.000 HD 
HETATM    5  C   UNL     1     -11.421  15.680  72.221  1.00  0.00    -0.459 C  
HETATM    6  H2  UNL     1     -13.968  13.384  70.221  1.00  0.00     0.000 HD 
HETATM    7  C   UNL     1     -10.618  14.473  72.704  1.00  0.00     3.373 C  
HETATM    8  C   UNL     1     -12.571  13.018  72.818  1.00  0.00     1.035 C  
HETATM    9  O   UNL     1     -11.412  13.547  73.462  1.00  0.00     3.014 OA 
ENDROOT
BRANCH   7  10
HETATM   10  C   UNL     1      -9.492  15.005  73.632  1.00  0.00     9.213 C  
HETATM   11  N   UNL     1      -8.553  13.962  74.044  1.00  0.00     7.522 NA 
HETATM   12  H1  UNL     1      -7.813  14.312  74.653  1.00  0.00     0.000 HD 
HETATM   13  H2  UNL     1      -8.161  13.484  73.232  1.00  0.00     0.000 HD 
ENDBRANCH   7  10
BRANCH   8  14
HETATM   14  O   UNL     1     -12.308  11.943  71.916  1.00  0.00     0.114 OA 
BRANCH  14  15
HETATM   15  C   UNL     1     -11.548  12.151  70.699  1.00  0.00     0.480 C  
HETATM   16  C   UNL     1     -12.660  12.406  69.644  1.00  0.00     0.390 C  
HETATM   17  N   UNL     1     -13.397  13.650  69.935  1.00  0.00     0.594 NA 
HETATM   18  C   UNL     1     -12.208  12.515  68.201  1.00  0.00     0.103 C  
HETATM   19  H2  UNL     1     -12.768  14.448  70.017  1.00  0.00     0.000 HD 
HETATM   20  H1  UNL     1     -14.127  13.817  69.242  1.00  0.00     0.000 HD 
HETATM   21  C   UNL     1     -11.304  11.375  67.762  1.00  0.00    -0.287 C  
HETATM   22  N   UNL     1     -11.026  11.651  66.343  1.00  0.00    -0.289 NA 
HETATM   23  C   UNL     1     -10.073  11.314  68.720  1.00  0.00    -0.194 C  
HETATM   24  C   UNL     1     -10.573  11.021  70.197  1.00  0.00     0.379 C  
HETATM   25  O   UNL     1      -9.436  10.941  71.075  1.00  0.00     2.102 OA 
HETATM   26  H2  UNL     1     -10.640  12.579  66.167  1.00  0.00     0.000 HD 
HETATM   27  H1  UNL     1     -10.419  10.886  66.047  1.00  0.00     0.000 HD 
HETATM   28  H   UNL     1      -8.848  10.258  70.772  1.00  0.00     0.000 HD 
BRANCH  23  29
HETATM   29  O   UNL     1      -9.048  10.371  68.274  1.00  0.00    -0.138 OA 
BRANCH  29  30
HETATM   30  C   UNL     1      -7.706  10.836  68.596  1.00  0.00    -0.114 C  
HETATM   31  O   UNL     1      -7.057   9.948  69.516  1.00  0.00    -0.064 OA 
HETATM   32  C   UNL     1      -6.769   8.675  68.912  1.00  0.00    -0.053 C  
HETATM   33  C   UNL     1      -5.705   8.865  67.831  1.00  0.00    -0.035 C  
HETATM   34  H   UNL     1      -6.894  12.110  65.655  1.00  0.00     0.000 HD 
HETATM   35  O   UNL     1      -5.325   7.620  67.244  1.00  0.00    -0.028 OA 
HETATM   36  C   UNL     1      -6.249   9.820  66.741  1.00  0.00    -0.064 C  
HETATM   37  H1  UNL     1      -5.555  10.715  65.017  1.00  0.00     0.000 HD 
HETATM   38  H2  UNL     1      -4.819   9.224  65.338  1.00  0.00     0.000 HD 
HETATM   39  C   UNL     1      -6.797  11.111  67.370  1.00  0.00    -0.089 C  
HETATM   40  N   UNL     1      -5.196  10.085  65.735  1.00  0.00    -0.041 NA 
HETATM   41  H   UNL     1      -4.664   7.738  66.572  1.00  0.00     0.000 HD 
HETATM   42  O   UNL     1      -7.451  11.941  66.407  1.00  0.00     0.069 OA 
BRANCH  32  43
HETATM   43  C   UNL     1      -6.343   7.720  70.028  1.00  0.00    -0.033 C  
HETATM   44  O   UNL     1      -6.852   8.210  71.277  1.00  0.00    -0.048 OA 
HETATM   45  H   UNL     1      -6.587   7.617  71.970  1.00  0.00     0.000 HD 
ENDBRANCH  32  43
ENDBRANCH  29  30
ENDBRANCH  23  29
ENDBRANCH  14  15
ENDBRANCH   8  14
TORSDOF 6
ENDMDL
MODEL      305
REMARK 921   NORMALIZED FREE ENERGY PREDICTED BY IDOCK:   27.34 KCAL/MOL
REMARK 922        TOTAL FREE ENERGY PREDICTED BY IDOCK:   35.37 KCAL/MOL
REMARK 923 INTER-LIGAND FREE ENERGY PREDICTED BY IDOCK:   26.32 KCAL/MOL
REMARK 924 INTRA-LIGAND FREE ENERGY PREDICTED BY IDOCK:    9.05 KCAL/MOL
REMARK 927      BINDING AFFINITY PREDICTED BY RF-SCORE:    0.00 PKD
ROOT
HETATM    1  C   UNL     1     -13.444  14.142  72.112  1.00  0.00    -0.454 C  
HETATM    2  C   UNL     1     -12.641  15.269  71.451  1.00  0.00    -0.444 C  
HETATM    3  N   UNL     1     -14.408  13.672  71.093  1.00  0.00     0.708 NA 
HETATM    4  H1  UNL     1     -14.942  12.923  71.532  1.00  0.00     0.000 HD 
HETATM    5  C   UNL     1     -11.409  15.661  72.233  1.00  0.00    -0.337 C  
HETATM    6  H2  UNL     1     -13.969  13.396  70.215  1.00  0.00     0.000 HD 
HETATM    7  C   UNL     1     -10.619  14.445  72.715  1.00  0.00     3.946 C  
HETATM    8  C   UNL     1     -12.586  13.008  72.816  1.00  0.00     1.035 C  
HETATM    9  O   UNL     1     -11.425  13.524  73.467  1.00  0.00     3.014 OA 
ENDROOT
BRANCH   7  10
HETATM   10  C   UNL     1      -9.492  14.962  73.650  1.00  0.00     8.992 C  
HETATM   11  N   UNL     1      -8.702  13.883  74.243  1.00  0.00     7.283 NA 
HETATM   12  H1  UNL     1      -7.962  14.224  74.856  1.00  0.00     0.000 HD 
HETATM   13  H2  UNL     1      -8.324  13.270  73.521  1.00  0.00     0.000 HD 
ENDBRANCH   7  10
BRANCH   8  14
HETATM   14  O   UNL     1     -12.329  11.933  71.912  1.00  0.00     0.114 OA 
BRANCH  14  15
HETATM   15  C   UNL     1     -11.561  12.138  70.699  1.00  0.00     0.480 C  
HETATM   16  C   UNL     1     -12.665  12.410  69.640  1.00  0.00     0.621 C  
HETATM   17  N   UNL     1     -13.389  13.661  69.933  1.00  0.00     0.594 NA 
HETATM   18  C   UNL     1     -12.204  12.521  68.200  1.00  0.00     0.103 C  
HETATM   19  H2  UNL     1     -12.751  14.452  70.021  1.00  0.00     0.000 HD 
HETATM   20  H1  UNL     1     -14.113  13.840  69.237  1.00  0.00     0.000 HD 
HETATM   21  C   UNL     1     -11.311  11.372  67.760  1.00  0.00    -0.287 C  
HETATM   22  N   UNL     1     -11.022  11.651  66.344  1.00  0.00    -0.289 NA 
HETATM   23  C   UNL     1     -10.086  11.293  68.724  1.00  0.00    -0.194 C  
HETATM   24  C   UNL     1     -10.597  10.999  70.197  1.00  0.00     0.379 C  
HETATM   25  O   UNL     1      -9.465  10.902  71.081  1.00  0.00     2.528 OA 
HETATM   26  H2  UNL     1     -10.624  12.575  66.174  1.00  0.00     0.000 HD 
HETATM   27  H1  UNL     1     -10.422  10.881  66.048  1.00  0.00     0.000 HD 
HETATM   28  H   UNL     1      -8.883  10.214  70.778  1.00  0.00     0.000 HD 
BRANCH  23  29
HETATM   29  O   UNL     1      -9.069  10.340  68.280  1.00  0.00    -0.134 OA 
BRANCH  29  30
HETATM   30  C   UNL     1      -9.064   9.131  69.091  1.00  0.00    -0.144 C  
HETATM   31  O   UNL     1      -9.409   7.981  68.310  1.00  0.00    -0.141 OA 
HETATM   32  C   UNL     1      -8.389   7.667  67.346  1.00  0.00    -0.116 C  
HETATM   33  C   UNL     1      -7.133   7.201  68.083  1.00  0.00    -0.085 C  
HETATM   34  H   UNL     1      -6.551   9.887  71.104  1.00  0.00     0.000 HD 
HETATM   35  O   UNL     1      -6.106   6.807  67.172  1.00  0.00    -0.026 OA 
HETATM   36  C   UNL     1      -6.622   8.343  68.993  1.00  0.00    -0.048 C  
HETATM   37  H1  UNL     1      -5.123   8.628  70.382  1.00  0.00     0.000 HD 
HETATM   38  H2  UNL     1      -4.720   7.497  69.188  1.00  0.00     0.000 HD 
HETATM   39  C   UNL     1      -7.754   8.880  69.883  1.00  0.00    -0.076 C  
HETATM   40  N   UNL     1      -5.459   7.874  69.782  1.00  0.00    -0.023 NA 
HETATM   41  H   UNL     1      -5.326   6.517  67.629  1.00  0.00     0.000 HD 
HETATM   42  O   UNL     1      -7.354  10.040  70.619  1.00  0.00    -0.308 OA 
BRANCH  32  43
HETATM   43  C   UNL     1      -8.962   6.620  66.390  1.00  0.00    -0.148 C  
HETATM   44  O   UNL     1     -10.335   6.382  66.733  1.00  0.00    -0.226 OA 
HETATM   45  H   UNL     1     -10.690   5.731  66.139  1.00  0.00     0.000 HD 
ENDBRANCH  32  43
ENDBRANCH  29  30
ENDBRANCH  23  29
ENDBRANCH  14  15
ENDBRANCH   8  14
TORSDOF 6
ENDMDL
MODEL      306
REMARK 921   NORMALIZED FREE ENERGY PREDICTED BY IDOCK:   27.60 KCAL/MOL
REMARK 922        TOTAL FREE ENERGY PREDICTED BY IDOCK:   35.72 KCAL/MOL
REMARK 923 INTER-LIGAND FREE ENERGY PREDICTED BY IDOCK:    5.10 KCAL/MOL
REMARK 924 INTRA-LIGAND FREE ENERGY PREDICTED BY IDOCK:   30.62 KCAL/MOL
REMARK 927      BINDING AFFINITY PREDICTED BY RF-SCORE:    0.00 PKD
ROOT
HETATM    1  C   UNL     1      -6.377  17.373  68.632  1.00  0.00    -0.179 C  
HETATM    2  C   UNL     1      -7.639  17.457  69.500  1.00  0.00     0.354 C  
HETATM    3  N   UNL     1      -5.515  16.346  69.258  1.00  0.00    -0.122 NA 
HETATM    4  H1  UNL     1      -4.677  16.290  68.681  1.00  0.00     0.000 HD 
HETATM    5  C   UNL     1      -8.761  18.229  68.846  1.00  0.00    -0.141 C  
HETATM    6  H2  UNL     1      -5.981  15.447  69.384  1.00  0.00     0.000 HD 
HETATM    7  C   UNL     1      -8.958  17.836  67.383  1.00  0.00    -0.240 C  
HETATM    8  C   UNL     1      -6.624  17.202  67.074  1.00  0.00    -0.192 C  
HETATM    9  O   UNL     1      -7.751  17.948  66.613  1.00  0.00    -0.216 OA 
ENDROOT
BRANCH   7  10
HETATM   10  C   UNL     1     -10.001  18.813  66.775  1.00  0.00    -0.358 C  
HETATM   11  N   UNL     1     -11.225  18.141  66.339  1.00  0.00     0.578 NA 
HETATM   12  H1  UNL     1     -11.910  18.782  65.940  1.00  0.00     0.000 HD 
HETATM   13  H2  UNL     1     -11.634  17.598  67.100  1.00  0.00     0.000 HD 
ENDBRANCH   7  10
BRANCH   8  14
HETATM   14  O   UNL     1      -6.641  15.820  66.714  1.00  0.00    -0.224 OA 
BRANCH  14  15
HETATM   15  C   UNL     1      -7.764  14.968  67.055  1.00  0.00    -0.084 C  
HETATM   16  C   UNL     1      -7.292  14.297  68.375  1.00  0.00    -0.119 C  
HETATM   17  N   UNL     1      -7.136  15.292  69.453  1.00  0.00    -0.176 NA 
HETATM   18  C   UNL     1      -8.187  13.210  68.936  1.00  0.00     0.223 C  
HETATM   19  H2  UNL     1      -7.989  15.832  69.591  1.00  0.00     0.000 HD 
HETATM   20  H1  UNL     1      -6.826  14.852  70.319  1.00  0.00     0.000 HD 
HETATM   21  C   UNL     1      -8.577  12.158  67.911  1.00  0.00    -0.167 C  
HETATM   22  N   UNL     1      -9.393  11.193  68.665  1.00  0.00    -0.193 NA 
HETATM   23  C   UNL     1      -9.265  12.867  66.703  1.00  0.00    -0.221 C  
HETATM   24  C   UNL     1      -8.237  13.871  66.029  1.00  0.00     1.786 C  
HETATM   25  O   UNL     1      -8.865  14.506  64.901  1.00  0.00     1.469 OA 
HETATM   26  H2  UNL     1     -10.185  11.610  69.154  1.00  0.00     0.000 HD 
HETATM   27  H1  UNL     1      -9.655  10.487  67.977  1.00  0.00     0.000 HD 
HETATM   28  H   UNL     1      -9.151  13.844  64.281  1.00  0.00     0.000 HD 
BRANCH  23  29
HETATM   29  O   UNL     1      -9.846  11.928  65.744  1.00  0.00    -0.230 OA 
BRANCH  29  30
HETATM   30  C   UNL     1      -9.317  10.582  65.912  1.00  0.00    -0.181 C  
HETATM   31  O   UNL     1      -8.192  10.355  65.054  1.00  0.00    -0.159 OA 
HETATM   32  C   UNL     1      -7.057  11.147  65.445  1.00  0.00     0.451 C  
HETATM   33  C   UNL     1      -6.546  10.649  66.797  1.00  0.00    -0.091 C  
HETATM   34  H   UNL     1      -9.853  10.233  69.156  1.00  0.00     0.000 HD 
HETATM   35  O   UNL     1      -5.372  11.354  67.206  1.00  0.00    -0.047 OA 
HETATM   36  C   UNL     1      -7.659  10.819  67.859  1.00  0.00    -0.091 C  
HETATM   37  H1  UNL     1      -7.944  10.370  69.852  1.00  0.00     0.000 HD 
HETATM   38  H2  UNL     1      -6.324  10.661  69.459  1.00  0.00     0.000 HD 
HETATM   39  C   UNL     1      -8.976  10.191  67.374  1.00  0.00    -0.134 C  
HETATM   40  N   UNL     1      -7.210  10.258  69.153  1.00  0.00    -0.074 NA 
HETATM   41  H   UNL     1      -5.054  11.045  68.045  1.00  0.00     0.000 HD 
HETATM   42  O   UNL     1     -10.062  10.472  68.260  1.00  0.00    -0.153 OA 
BRANCH  32  43
HETATM   43  C   UNL     1      -6.019  11.052  64.326  1.00  0.00     0.601 C  
HETATM   44  O   UNL     1      -5.906  12.333  63.691  1.00  0.00     3.430 OA 
HETATM   45  H   UNL     1      -5.261  12.274  62.995  1.00  0.00     0.000 HD 
ENDBRANCH  32  43
ENDBRANCH  29  30
ENDBRANCH  23  29
ENDBRANCH  14  15
ENDBRANCH   8  14
TORSDOF 6
ENDMDL
MODEL      307
REMARK 921   NORMALIZED FREE ENERGY PREDICTED BY IDOCK:   29.47 KCAL/MOL
REMARK 922        TOTAL FREE ENERGY PREDICTED BY IDOCK:   38.25 KCAL/MOL
REMARK 923 INTER-LIGAND FREE ENERGY PREDICTED BY IDOCK:   26.05 KCAL/MOL
REMARK 924 INTRA-LIGAND FREE ENERGY PREDICTED BY IDOCK:   12.20 KCAL/MOL
REMARK 927      BINDING AFFINITY PREDICTED BY RF-SCORE:    0.00 PKD
ROOT
HETATM    1  C   UNL     1      -8.666  19.787  71.015  1.00  0.00     2.455 C  
HETATM    2  C   UNL     1      -7.693  19.793  69.830  1.00  0.00     0.316 C  
HETATM    3  N   UNL     1      -9.687  20.815  70.714  1.00  0.00     1.026 NA 
HETATM    4  H1  UNL     1     -10.334  20.811  71.502  1.00  0.00     0.000 HD 
HETATM    5  C   UNL     1      -6.763  18.602  69.816  1.00  0.00     0.004 C  
HETATM    6  H2  UNL     1     -10.145  20.681  69.813  1.00  0.00     0.000 HD 
HETATM    7  C   UNL     1      -7.497  17.291  70.097  1.00  0.00     1.760 C  
HETATM    8  C   UNL     1      -9.231  18.365  71.435  1.00  0.00     7.442 C  
HETATM    9  O   UNL     1      -8.253  17.331  71.318  1.00  0.00     6.839 OA 
ENDROOT
BRANCH   7  10
HETATM   10  C   UNL     1      -6.425  16.177  70.238  1.00  0.00     0.238 C  
HETATM   11  N   UNL     1      -6.954  14.947  70.827  1.00  0.00     0.062 NA 
HETATM   12  H1  UNL     1      -6.249  14.216  70.919  1.00  0.00     0.000 HD 
HETATM   13  H2  UNL     1      -7.762  14.611  70.303  1.00  0.00     0.000 HD 
ENDBRANCH   7  10
BRANCH   8  14
HETATM   14  O   UNL     1     -10.462  18.092  70.766  1.00  0.00     1.436 OA 
BRANCH  14  15
HETATM   15  C   UNL     1     -10.498  17.314  69.542  1.00  0.00    -0.054 C  
HETATM   16  C   UNL     1     -11.756  16.424  69.743  1.00  0.00     0.104 C  
HETATM   17  N   UNL     1     -12.984  17.240  69.796  1.00  0.00     5.602 NA 
HETATM   18  C   UNL     1     -12.004  15.362  68.690  1.00  0.00    -0.240 C  
HETATM   19  H2  UNL     1     -13.074  17.836  68.974  1.00  0.00     0.000 HD 
HETATM   20  H1  UNL     1     -13.810  16.655  69.928  1.00  0.00     0.000 HD 
HETATM   21  C   UNL     1     -10.784  14.506  68.394  1.00  0.00    -0.243 C  
HETATM   22  N   UNL     1     -11.251  13.530  67.397  1.00  0.00    -0.285 NA 
HETATM   23  C   UNL     1      -9.609  15.440  67.966  1.00  0.00    -0.206 C  
HETATM   24  C   UNL     1      -9.258  16.423  69.161  1.00  0.00    -0.216 C  
HETATM   25  O   UNL     1      -8.159  17.267  68.773  1.00  0.00    -0.266 OA 
HETATM   26  H2  UNL     1     -11.675  13.950  66.569  1.00  0.00     0.000 HD 
HETATM   27  H1  UNL     1     -10.432  12.955  67.198  1.00  0.00     0.000 HD 
HETATM   28  H   UNL     1      -7.410  16.728  68.543  1.00  0.00     0.000 HD 
BRANCH  23  29
HETATM   29  O   UNL     1      -8.442  14.704  67.479  1.00  0.00    -0.164 OA 
BRANCH  29  30
HETATM   30  C   UNL     1      -8.061  15.117  66.135  1.00  0.00     0.963 C  
HETATM   31  O   UNL     1      -9.200  15.173  65.267  1.00  0.00     0.163 OA 
HETATM   32  C   UNL     1     -10.098  16.234  65.636  1.00  0.00    -0.312 C  
HETATM   33  C   UNL     1      -9.417  17.577  65.372  1.00  0.00     1.011 C  
HETATM   34  H   UNL     1      -5.655  17.243  66.926  1.00  0.00     0.000 HD 
HETATM   35  O   UNL     1     -10.290  18.672  65.654  1.00  0.00    -0.572 OA 
HETATM   36  C   UNL     1      -8.141  17.682  66.242  1.00  0.00    -0.246 C  
HETATM   37  H1  UNL     1      -6.581  19.006  66.503  1.00  0.00     0.000 HD 
HETATM   38  H2  UNL     1      -8.021  19.758  66.028  1.00  0.00     0.000 HD 
HETATM   39  C   UNL     1      -7.254  16.440  66.062  1.00  0.00     0.811 C  
HETATM   40  N   UNL     1      -7.422  18.938  65.930  1.00  0.00    -0.430 NA 
HETATM   41  H   UNL     1      -9.867  19.507  65.490  1.00  0.00     0.000 HD 
HETATM   42  O   UNL     1      -6.149  16.432  66.970  1.00  0.00    -0.223 OA 
BRANCH  32  43
HETATM   43  C   UNL     1     -11.393  16.040  64.846  1.00  0.00    -0.229 C  
HETATM   44  O   UNL     1     -11.544  14.646  64.541  1.00  0.00    -0.494 OA 
HETATM   45  H   UNL     1     -12.349  14.526  64.050  1.00  0.00     0.000 HD 
ENDBRANCH  32  43
ENDBRANCH  29  30
ENDBRANCH  23  29
ENDBRANCH  14  15
ENDBRANCH   8  14
TORSDOF 6
ENDMDL
MODEL      308
REMARK 921   NORMALIZED FREE ENERGY PREDICTED BY IDOCK:   30.82 KCAL/MOL
REMARK 922        TOTAL FREE ENERGY PREDICTED BY IDOCK:   40.07 KCAL/MOL
REMARK 923 INTER-LIGAND FREE ENERGY PREDICTED BY IDOCK:   34.28 KCAL/MOL
REMARK 924 INTRA-LIGAND FREE ENERGY PREDICTED BY IDOCK:    5.79 KCAL/MOL
REMARK 927      BINDING AFFINITY PREDICTED BY RF-SCORE:    0.00 PKD
ROOT
HETATM    1  C   UNL     1     -13.388  13.755  72.293  1.00  0.00    -0.521 C  
HETATM    2  C   UNL     1     -12.552  14.829  71.585  1.00  0.00    -0.394 C  
HETATM    3  N   UNL     1     -14.351  13.254  71.287  1.00  0.00     1.159 NA 
HETATM    4  H1  UNL     1     -14.906  12.541  71.757  1.00  0.00     0.000 HD 
HETATM    5  C   UNL     1     -11.321  15.233  72.362  1.00  0.00    -0.346 C  
HETATM    6  H2  UNL     1     -13.907  12.924  70.430  1.00  0.00     0.000 HD 
HETATM    7  C   UNL     1     -10.564  14.027  72.916  1.00  0.00     5.744 C  
HETATM    8  C   UNL     1     -12.564  12.640  73.065  1.00  0.00     2.835 C  
HETATM    9  O   UNL     1     -11.399  13.164  73.704  1.00  0.00     5.656 OA 
ENDROOT
BRANCH   7  10
HETATM   10  C   UNL     1      -9.437  14.568  73.838  1.00  0.00     9.343 C  
HETATM   11  N   UNL     1      -8.230  14.945  73.101  1.00  0.00     6.581 NA 
HETATM   12  H1  UNL     1      -7.490  15.300  73.707  1.00  0.00     0.000 HD 
HETATM   13  H2  UNL     1      -8.449  15.613  72.362  1.00  0.00     0.000 HD 
ENDBRANCH   7  10
BRANCH   8  14
HETATM   14  O   UNL     1     -12.321  11.515  72.221  1.00  0.00     0.597 OA 
BRANCH  14  15
HETATM   15  C   UNL     1     -11.024  11.301  71.608  1.00  0.00     4.245 C  
HETATM   16  C   UNL     1     -11.109  12.170  70.323  1.00  0.00     0.820 C  
HETATM   17  N   UNL     1     -11.221  13.604  70.654  1.00  0.00    -0.069 NA 
HETATM   18  C   UNL     1      -9.949  12.055  69.354  1.00  0.00     0.594 C  
HETATM   19  H2  UNL     1     -10.462  13.908  71.264  1.00  0.00     0.000 HD 
HETATM   20  H1  UNL     1     -11.276  14.174  69.810  1.00  0.00     0.000 HD 
HETATM   21  C   UNL     1      -9.590  10.619  69.007  1.00  0.00    -0.195 C  
HETATM   22  N   UNL     1      -8.490  10.738  68.037  1.00  0.00    -0.121 NA 
HETATM   23  C   UNL     1      -9.282   9.847  70.327  1.00  0.00    -0.068 C  
HETATM   24  C   UNL     1     -10.578   9.836  71.243  1.00  0.00    -0.058 C  
HETATM   25  O   UNL     1     -10.300   9.103  72.450  1.00  0.00    -0.034 OA 
HETATM   26  H2  UNL     1      -7.702  11.295  68.367  1.00  0.00     0.000 HD 
HETATM   27  H1  UNL     1      -8.249   9.774  67.803  1.00  0.00     0.000 HD 
HETATM   28  H   UNL     1     -10.030   8.218  72.230  1.00  0.00     0.000 HD 
BRANCH  23  29
HETATM   29  O   UNL     1      -8.745   8.506  70.094  1.00  0.00    -0.130 OA 
BRANCH  29  30
HETATM   30  C   UNL     1      -9.631   7.704  69.262  1.00  0.00    -0.159 C  
HETATM   31  O   UNL     1      -9.002   7.355  68.022  1.00  0.00    -0.132 OA 
HETATM   32  C   UNL     1      -7.908   6.442  68.219  1.00  0.00    -0.105 C  
HETATM   33  C   UNL     1      -8.461   5.099  68.698  1.00  0.00    -0.088 C  
HETATM   34  H   UNL     1     -11.142   5.985  71.647  1.00  0.00     0.000 HD 
HETATM   35  O   UNL     1      -7.424   4.127  68.843  1.00  0.00    -0.055 OA 
HETATM   36  C   UNL     1      -9.190   5.299  70.048  1.00  0.00    -0.138 C  
HETATM   37  H1  UNL     1     -10.289   4.157  71.369  1.00  0.00     0.000 HD 
HETATM   38  H2  UNL     1      -9.130   3.263  70.518  1.00  0.00     0.000 HD 
HETATM   39  C   UNL     1     -10.212   6.442  69.952  1.00  0.00    -0.183 C  
HETATM   40  N   UNL     1      -9.808   4.024  70.479  1.00  0.00    -0.187 NA 
HETATM   41  H   UNL     1      -7.766   3.293  69.140  1.00  0.00     0.000 HD 
HETATM   42  O   UNL     1     -10.786   6.757  71.224  1.00  0.00    -0.224 OA 
BRANCH  32  43
HETATM   43  C   UNL     1      -7.138   6.351  66.901  1.00  0.00    -0.073 C  
HETATM   44  O   UNL     1      -5.739   6.221  67.190  1.00  0.00    -0.012 OA 
HETATM   45  H   UNL     1      -5.261   6.165  66.371  1.00  0.00     0.000 HD 
ENDBRANCH  32  43
ENDBRANCH  29  30
ENDBRANCH  23  29
ENDBRANCH  14  15
ENDBRANCH   8  14
TORSDOF 6
ENDMDL
MODEL      309
REMARK 921   NORMALIZED FREE ENERGY PREDICTED BY IDOCK:   32.35 KCAL/MOL
REMARK 922        TOTAL FREE ENERGY PREDICTED BY IDOCK:   42.15 KCAL/MOL
REMARK 923 INTER-LIGAND FREE ENERGY PREDICTED BY IDOCK:   -1.89 KCAL/MOL
REMARK 924 INTRA-LIGAND FREE ENERGY PREDICTED BY IDOCK:   44.04 KCAL/MOL
REMARK 927      BINDING AFFINITY PREDICTED BY RF-SCORE:    0.00 PKD
ROOT
HETATM    1  C   UNL     1     -11.718  11.540  65.689  1.00  0.00     0.249 C  
HETATM    2  C   UNL     1     -10.634  12.281  64.896  1.00  0.00    -0.329 C  
HETATM    3  N   UNL     1     -11.028  10.440  66.398  1.00  0.00     0.011 NA 
HETATM    4  H1  UNL     1     -11.748   9.947  66.925  1.00  0.00     0.000 HD 
HETATM    5  C   UNL     1     -11.098  13.614  64.355  1.00  0.00    -0.378 C  
HETATM    6  H2  UNL     1     -10.247  10.755  66.975  1.00  0.00     0.000 HD 
HETATM    7  C   UNL     1     -11.864  14.426  65.399  1.00  0.00    -0.366 C  
HETATM    8  C   UNL     1     -12.657  12.450  66.587  1.00  0.00     1.176 C  
HETATM    9  O   UNL     1     -12.964  13.700  65.967  1.00  0.00    -0.294 OA 
ENDROOT
BRANCH   7  10
HETATM   10  C   UNL     1     -12.440  15.678  64.682  1.00  0.00     0.331 C  
HETATM   11  N   UNL     1     -13.214  15.345  63.487  1.00  0.00     0.738 NA 
HETATM   12  H1  UNL     1     -13.592  16.167  63.017  1.00  0.00     0.000 HD 
HETATM   13  H2  UNL     1     -13.953  14.677  63.706  1.00  0.00     0.000 HD 
ENDBRANCH   7  10
BRANCH   8  14
HETATM   14  O   UNL     1     -12.137  12.560  67.913  1.00  0.00    -0.384 OA 
BRANCH  14  15
HETATM   15  C   UNL     1     -11.058  13.477  68.224  1.00  0.00    -0.261 C  
HETATM   16  C   UNL     1     -11.674  14.859  67.872  1.00  0.00    -0.321 C  
HETATM   17  N   UNL     1     -12.810  15.179  68.757  1.00  0.00     0.097 NA 
HETATM   18  C   UNL     1     -10.741  16.051  67.942  1.00  0.00    -0.316 C  
HETATM   19  H2  UNL     1     -12.545  15.127  69.741  1.00  0.00     0.000 HD 
HETATM   20  H1  UNL     1     -13.215  16.086  68.526  1.00  0.00     0.000 HD 
HETATM   21  C   UNL     1      -9.434  15.841  67.195  1.00  0.00    -0.213 C  
HETATM   22  N   UNL     1      -8.711  17.114  67.352  1.00  0.00    -0.202 NA 
HETATM   23  C   UNL     1      -8.736  14.563  67.756  1.00  0.00    -0.174 C  
HETATM   24  C   UNL     1      -9.668  13.304  67.505  1.00  0.00    -0.224 C  
HETATM   25  O   UNL     1      -9.013  12.122  68.001  1.00  0.00    -0.175 OA 
HETATM   26  H2  UNL     1      -8.593  17.408  68.322  1.00  0.00     0.000 HD 
HETATM   27  H1  UNL     1      -7.833  16.973  66.851  1.00  0.00     0.000 HD 
HETATM   28  H   UNL     1      -8.174  12.018  67.567  1.00  0.00     0.000 HD 
BRANCH  23  29
HETATM   29  O   UNL     1      -7.382  14.375  67.235  1.00  0.00    -0.176 OA 
BRANCH  29  30
HETATM   30  C   UNL     1      -6.661  15.636  67.127  1.00  0.00    -0.045 C  
HETATM   31  O   UNL     1      -7.466  16.640  66.497  1.00  0.00    -0.252 OA 
HETATM   32  C   UNL     1      -8.575  17.029  67.325  1.00  0.00    -0.195 C  
HETATM   33  C   UNL     1      -8.044  17.759  68.559  1.00  0.00    -0.297 C  
HETATM   34  H   UNL     1      -4.954  15.483  69.954  1.00  0.00     0.000 HD 
HETATM   35  O   UNL     1      -9.108  18.232  69.386  1.00  0.00     0.153 OA 
HETATM   36  C   UNL     1      -7.135  16.801  69.366  1.00  0.00    -0.143 C  
HETATM   37  H1  UNL     1      -5.941  16.890  71.046  1.00  0.00     0.000 HD 
HETATM   38  H2  UNL     1      -7.252  17.960  71.101  1.00  0.00     0.000 HD 
HETATM   39  C   UNL     1      -6.069  16.167  68.458  1.00  0.00    -0.112 C  
HETATM   40  N   UNL     1      -6.541  17.521  70.515  1.00  0.00     0.993 NA 
HETATM   41  H   UNL     1      -8.779  18.686  70.153  1.00  0.00     0.000 HD 
HETATM   42  O   UNL     1      -5.316  15.158  69.138  1.00  0.00    -0.094 OA 
BRANCH  32  43
HETATM   43  C   UNL     1      -9.515  17.880  66.469  1.00  0.00    -0.299 C  
HETATM   44  O   UNL     1     -10.672  18.217  67.247  1.00  0.00    -0.390 OA 
HETATM   45  H   UNL     1     -11.256  18.745  66.715  1.00  0.00     0.000 HD 
ENDBRANCH  32  43
ENDBRANCH  29  30
ENDBRANCH  23  29
ENDBRANCH  14  15
ENDBRANCH   8  14
TORSDOF 6
ENDMDL
MODEL      310
REMARK 921   NORMALIZED FREE ENERGY PREDICTED BY IDOCK:   36.65 KCAL/MOL
REMARK 922        TOTAL FREE ENERGY PREDICTED BY IDOCK:   47.95 KCAL/MOL
REMARK 923 INTER-LIGAND FREE ENERGY PREDICTED BY IDOCK:   34.22 KCAL/MOL
REMARK 924 INTRA-LIGAND FREE ENERGY PREDICTED BY IDOCK:   13.73 KCAL/MOL
REMARK 927      BINDING AFFINITY PREDICTED BY RF-SCORE:    0.00 PKD
ROOT
HETATM    1  C   UNL     1     -13.865   8.940  69.014  1.00  0.00     9.394 C  
HETATM    2  C   UNL     1     -13.682   9.979  70.128  1.00  0.00     1.000 C  
HETATM    3  N   UNL     1     -13.369   9.576  67.774  1.00  0.00    10.551 NA 
HETATM    4  H1  UNL     1     -13.490   8.885  67.034  1.00  0.00     0.000 HD 
HETATM    5  C   UNL     1     -13.848   9.402  71.514  1.00  0.00    -0.297 C  
HETATM    6  H2  UNL     1     -12.413   9.924  67.850  1.00  0.00     0.000 HD 
HETATM    7  C   UNL     1     -13.106   8.076  71.682  1.00  0.00    -0.329 C  
HETATM    8  C   UNL     1     -13.287   7.495  69.320  1.00  0.00     6.696 C  
HETATM    9  O   UNL     1     -13.469   7.109  70.683  1.00  0.00     0.087 OA 
ENDROOT
BRANCH   7  10
HETATM   10  C   UNL     1     -13.496   7.496  73.069  1.00  0.00     1.539 C  
HETATM   11  N   UNL     1     -12.442   7.658  74.070  1.00  0.00     3.605 NA 
HETATM   12  H1  UNL     1     -12.699   7.277  74.981  1.00  0.00     0.000 HD 
HETATM   13  H2  UNL     1     -12.161   8.635  74.150  1.00  0.00     0.000 HD 
ENDBRANCH   7  10
BRANCH   8  14
HETATM   14  O   UNL     1     -11.946   7.375  68.846  1.00  0.00     1.077 OA 
BRANCH  14  15
HETATM   15  C   UNL     1     -11.206   6.136  68.984  1.00  0.00    -0.304 C  
HETATM   16  C   UNL     1     -10.001   6.556  69.870  1.00  0.00    -0.167 C  
HETATM   17  N   UNL     1     -10.445   6.970  71.215  1.00  0.00    -0.207 NA 
HETATM   18  C   UNL     1      -8.927   5.509  70.089  1.00  0.00    -0.154 C  
HETATM   19  H2  UNL     1     -11.006   6.246  71.663  1.00  0.00     0.000 HD 
HETATM   20  H1  UNL     1      -9.654   7.246  71.796  1.00  0.00     0.000 HD 
HETATM   21  C   UNL     1      -8.444   4.859  68.802  1.00  0.00    -0.086 C  
HETATM   22  N   UNL     1      -7.392   3.925  69.233  1.00  0.00    -0.053 NA 
HETATM   23  C   UNL     1      -9.672   4.241  68.062  1.00  0.00    -0.107 C  
HETATM   24  C   UNL     1     -10.696   5.396  67.691  1.00  0.00    -0.042 C  
HETATM   25  O   UNL     1     -11.816   4.828  66.988  1.00  0.00     3.003 OA 
HETATM   26  H2  UNL     1      -7.692   3.261  69.947  1.00  0.00     0.000 HD 
HETATM   27  H1  UNL     1      -7.068   3.488  68.369  1.00  0.00     0.000 HD 
HETATM   28  H   UNL     1     -11.508   4.381  66.208  1.00  0.00     0.000 HD 
BRANCH  23  29
HETATM   29  O   UNL     1      -9.294   3.430  66.905  1.00  0.00    -0.180 OA 
BRANCH  29  30
HETATM   30  C   UNL     1      -7.998   3.820  66.368  1.00  0.00    -0.089 C  
HETATM   31  O   UNL     1      -7.988   3.752  64.936  1.00  0.00    -0.088 OA 
HETATM   32  C   UNL     1      -8.840   4.751  64.351  1.00  0.00    -0.142 C  
HETATM   33  C   UNL     1      -8.244   6.133  64.618  1.00  0.00    -0.094 C  
HETATM   34  H   UNL     1      -7.223   6.159  68.572  1.00  0.00     0.000 HD 
HETATM   35  O   UNL     1      -9.012   7.165  63.997  1.00  0.00     0.181 OA 
HETATM   36  C   UNL     1      -8.176   6.372  66.146  1.00  0.00    -0.122 C  
HETATM   37  H1  UNL     1      -7.471   7.826  67.429  1.00  0.00     0.000 HD 
HETATM   38  H2  UNL     1      -7.969   8.442  65.933  1.00  0.00     0.000 HD 
HETATM   39  C   UNL     1      -7.478   5.199  66.852  1.00  0.00    -0.087 C  
HETATM   40  N   UNL     1      -7.516   7.669  66.422  1.00  0.00    -0.082 NA 
HETATM   41  H   UNL     1      -8.641   8.024  64.163  1.00  0.00     0.000 HD 
HETATM   42  O   UNL     1      -7.541   5.315  68.276  1.00  0.00    -0.078 OA 
BRANCH  32  43
HETATM   43  C   UNL     1      -8.982   4.424  62.863  1.00  0.00    -0.123 C  
HETATM   44  O   UNL     1      -8.821   3.010  62.683  1.00  0.00    -0.084 OA 
HETATM   45  H   UNL     1      -8.909   2.807  61.759  1.00  0.00     0.000 HD 
ENDBRANCH  32  43
ENDBRANCH  29  30
ENDBRANCH  23  29
ENDBRANCH  14  15
ENDBRANCH   8  14
TORSDOF 6
ENDMDL
MODEL      311
REMARK 921   NORMALIZED FREE ENERGY PREDICTED BY IDOCK:   37.27 KCAL/MOL
REMARK 922        TOTAL FREE ENERGY PREDICTED BY IDOCK:   48.79 KCAL/MOL
REMARK 923 INTER-LIGAND FREE ENERGY PREDICTED BY IDOCK:   36.09 KCAL/MOL
REMARK 924 INTRA-LIGAND FREE ENERGY PREDICTED BY IDOCK:   12.70 KCAL/MOL
REMARK 927      BINDING AFFINITY PREDICTED BY RF-SCORE:    0.00 PKD
ROOT
HETATM    1  C   UNL     1      -8.771  10.919  65.292  1.00  0.00    -0.139 C  
HETATM    2  C   UNL     1      -9.970  10.211  64.650  1.00  0.00    -0.304 C  
HETATM    3  N   UNL     1      -8.449  12.064  64.411  1.00  0.00     0.872 NA 
HETATM    4  H1  UNL     1      -7.652  12.535  64.838  1.00  0.00     0.000 HD 
HETATM    5  C   UNL     1     -10.629   9.205  65.565  1.00  0.00     1.570 C  
HETATM    6  H2  UNL     1      -9.243  12.682  64.242  1.00  0.00     0.000 HD 
HETATM    7  C   UNL     1     -10.830   9.753  66.977  1.00  0.00    -0.094 C  
HETATM    8  C   UNL     1      -8.921  11.264  66.834  1.00  0.00    -0.162 C  
HETATM    9  O   UNL     1      -9.612  10.246  67.558  1.00  0.00    -0.154 OA 
ENDROOT
BRANCH   7  10
HETATM   10  C   UNL     1     -11.339   8.583  67.863  1.00  0.00     0.981 C  
HETATM   11  N   UNL     1     -10.406   8.230  68.932  1.00  0.00    -0.217 NA 
HETATM   12  H1  UNL     1     -10.741   7.462  69.514  1.00  0.00     0.000 HD 
HETATM   13  H2  UNL     1     -10.178   9.046  69.502  1.00  0.00     0.000 HD 
ENDBRANCH   7  10
BRANCH   8  14
HETATM   14  O   UNL     1      -9.452  12.578  67.009  1.00  0.00    -0.204 OA 
BRANCH  14  15
HETATM   15  C   UNL     1      -8.610  13.681  67.430  1.00  0.00    -0.209 C  
HETATM   16  C   UNL     1      -7.595  12.988  68.381  1.00  0.00    -0.133 C  
HETATM   17  N   UNL     1      -6.749  12.026  67.650  1.00  0.00    -0.097 NA 
HETATM   18  C   UNL     1      -6.642  13.900  69.129  1.00  0.00    -0.111 C  
HETATM   19  H2  UNL     1      -6.281  12.465  66.858  1.00  0.00     0.000 HD 
HETATM   20  H1  UNL     1      -6.082  11.572  68.275  1.00  0.00     0.000 HD 
HETATM   21  C   UNL     1      -7.336  15.054  69.834  1.00  0.00    -0.060 C  
HETATM   22  N   UNL     1      -6.250  15.773  70.520  1.00  0.00     0.078 NA 
HETATM   23  C   UNL     1      -8.158  15.862  68.782  1.00  0.00    -0.190 C  
HETATM   24  C   UNL     1      -9.265  14.920  68.145  1.00  0.00    -0.186 C  
HETATM   25  O   UNL     1     -10.038  15.673  67.193  1.00  0.00    -0.247 OA 
HETATM   26  H2  UNL     1      -5.487  16.059  69.907  1.00  0.00     0.000 HD 
HETATM   27  H1  UNL     1      -6.716  16.547  70.994  1.00  0.00     0.000 HD 
HETATM   28  H   UNL     1     -10.434  16.422  67.625  1.00  0.00     0.000 HD 
BRANCH  23  29
HETATM   29  O   UNL     1      -8.714  17.103  69.321  1.00  0.00    -0.055 OA 
BRANCH  29  30
HETATM   30  C   UNL     1      -9.131  16.954  70.708  1.00  0.00     4.400 C  
HETATM   31  O   UNL     1     -10.391  17.595  70.943  1.00  0.00     1.632 OA 
HETATM   32  C   UNL     1     -11.464  16.923  70.261  1.00  0.00     0.693 C  
HETATM   33  C   UNL     1     -11.672  15.546  70.893  1.00  0.00    -0.375 C  
HETATM   34  H   UNL     1      -7.945  13.918  71.266  1.00  0.00     0.000 HD 
HETATM   35  O   UNL     1     -12.775  14.859  70.301  1.00  0.00    -0.478 OA 
HETATM   36  C   UNL     1     -10.380  14.710  70.730  1.00  0.00     0.913 C  
HETATM   37  H1  UNL     1      -9.683  12.857  71.310  1.00  0.00     0.000 HD 
HETATM   38  H2  UNL     1     -11.362  12.902  71.099  1.00  0.00     0.000 HD 
HETATM   39  C   UNL     1      -9.156  15.493  71.230  1.00  0.00     3.447 C  
HETATM   40  N   UNL     1     -10.535  13.408  71.417  1.00  0.00     5.345 NA 
HETATM   41  H   UNL     1     -12.905  14.003  70.694  1.00  0.00     0.000 HD 
HETATM   42  O   UNL     1      -7.930  14.813  70.946  1.00  0.00     1.400 OA 
BRANCH  32  43
HETATM   43  C   UNL     1     -12.697  17.824  70.340  1.00  0.00    11.819 C  
HETATM   44  O   UNL     1     -13.759  17.100  70.979  1.00  0.00     6.358 OA 
HETATM   45  H   UNL     1     -14.525  17.660  71.027  1.00  0.00     0.000 HD 
ENDBRANCH  32  43
ENDBRANCH  29  30
ENDBRANCH  23  29
ENDBRANCH  14  15
ENDBRANCH   8  14
TORSDOF 6
ENDMDL
MODEL      312
REMARK 921   NORMALIZED FREE ENERGY PREDICTED BY IDOCK:   40.41 KCAL/MOL
REMARK 922        TOTAL FREE ENERGY PREDICTED BY IDOCK:   53.03 KCAL/MOL
REMARK 923 INTER-LIGAND FREE ENERGY PREDICTED BY IDOCK:   27.97 KCAL/MOL
REMARK 924 INTRA-LIGAND FREE ENERGY PREDICTED BY IDOCK:   25.07 KCAL/MOL
REMARK 927      BINDING AFFINITY PREDICTED BY RF-SCORE:    0.00 PKD
ROOT
HETATM    1  C   UNL     1      -7.967  14.529  65.863  1.00  0.00     2.825 C  
HETATM    2  C   UNL     1      -6.512  14.234  65.479  1.00  0.00    10.801 C  
HETATM    3  N   UNL     1      -8.463  13.320  66.555  1.00  0.00    -0.399 NA 
HETATM    4  H1  UNL     1      -9.431  13.516  66.810  1.00  0.00     0.000 HD 
HETATM    5  C   UNL     1      -5.751  15.463  65.038  1.00  0.00    12.596 C  
HETATM    6  H2  UNL     1      -7.884  13.039  67.347  1.00  0.00     0.000 HD 
HETATM    7  C   UNL     1      -5.990  16.655  65.964  1.00  0.00     1.210 C  
HETATM    8  C   UNL     1      -8.214  15.901  66.621  1.00  0.00    -0.282 C  
HETATM    9  O   UNL     1      -7.385  16.955  66.130  1.00  0.00    -0.268 OA 
ENDROOT
BRANCH   7  10
HETATM   10  C   UNL     1      -5.312  17.892  65.314  1.00  0.00    -0.013 C  
HETATM   11  N   UNL     1      -6.259  18.757  64.611  1.00  0.00    -0.461 NA 
HETATM   12  H1  UNL     1      -5.813  19.570  64.185  1.00  0.00     0.000 HD 
HETATM   13  H2  UNL     1      -7.021  19.041  65.227  1.00  0.00     0.000 HD 
ENDBRANCH   7  10
BRANCH   8  14
HETATM   14  O   UNL     1      -8.159  15.714  68.035  1.00  0.00    -0.133 OA 
BRANCH  14  15
HETATM   15  C   UNL     1      -8.825  14.596  68.673  1.00  0.00    -0.183 C  
HETATM   16  C   UNL     1      -7.683  13.950  69.506  1.00  0.00     0.439 C  
HETATM   17  N   UNL     1      -7.215  14.863  70.567  1.00  0.00    -0.066 NA 
HETATM   18  C   UNL     1      -8.009  12.640  70.196  1.00  0.00     3.113 C  
HETATM   19  H2  UNL     1      -7.984  15.173  71.161  1.00  0.00     0.000 HD 
HETATM   20  H1  UNL     1      -6.466  14.439  71.114  1.00  0.00     0.000 HD 
HETATM   21  C   UNL     1      -8.646  11.613  69.273  1.00  0.00     0.496 C  
HETATM   22  N   UNL     1      -8.835  10.424  70.120  1.00  0.00    -0.248 NA 
HETATM   23  C   UNL     1      -9.929  12.236  68.641  1.00  0.00    -0.118 C  
HETATM   24  C   UNL     1      -9.526  13.506  67.779  1.00  0.00    -0.216 C  
HETATM   25  O   UNL     1     -10.708  14.065  67.177  1.00  0.00    -0.280 OA 
HETATM   26  H2  UNL     1      -9.364  10.601  70.974  1.00  0.00     0.000 HD 
HETATM   27  H1  UNL     1      -9.262   9.735  69.502  1.00  0.00     0.000 HD 
HETATM   28  H   UNL     1     -11.131  13.406  66.637  1.00  0.00     0.000 HD 
BRANCH  23  29
HETATM   29  O   UNL     1     -10.720  11.267  67.881  1.00  0.00    -0.186 OA 
BRANCH  29  30
HETATM   30  C   UNL     1      -9.922  10.124  67.460  1.00  0.00    -0.191 C  
HETATM   31  O   UNL     1     -10.239   9.736  66.118  1.00  0.00    -0.259 OA 
HETATM   32  C   UNL     1      -9.822  10.729  65.165  1.00  0.00    -0.277 C  
HETATM   33  C   UNL     1      -8.294  10.783  65.139  1.00  0.00    -0.064 C  
HETATM   34  H   UNL     1      -7.117  10.858  69.049  1.00  0.00     0.000 HD 
HETATM   35  O   UNL     1      -7.818  11.704  64.157  1.00  0.00     0.811 OA 
HETATM   36  C   UNL     1      -7.774  11.190  66.539  1.00  0.00    -0.146 C  
HETATM   37  H1  UNL     1      -5.952  11.425  67.478  1.00  0.00     0.000 HD 
HETATM   38  H2  UNL     1      -5.890  11.732  65.814  1.00  0.00     0.000 HD 
HETATM   39  C   UNL     1      -8.390  10.299  67.630  1.00  0.00    -0.114 C  
HETATM   40  N   UNL     1      -6.294  11.158  66.554  1.00  0.00    -0.131 NA 
HETATM   41  H   UNL     1      -6.869  11.738  64.140  1.00  0.00     0.000 HD 
HETATM   42  O   UNL     1      -8.055  10.751  68.945  1.00  0.00    -0.129 OA 
BRANCH  32  43
HETATM   43  C   UNL     1     -10.443  10.365  63.815  1.00  0.00     0.441 C  
HETATM   44  O   UNL     1     -10.216  11.442  62.896  1.00  0.00    -0.599 OA 
HETATM   45  H   UNL     1     -10.602  11.216  62.058  1.00  0.00     0.000 HD 
ENDBRANCH  32  43
ENDBRANCH  29  30
ENDBRANCH  23  29
ENDBRANCH  14  15
ENDBRANCH   8  14
TORSDOF 6
ENDMDL
MODEL      313
REMARK 921   NORMALIZED FREE ENERGY PREDICTED BY IDOCK:   46.90 KCAL/MOL
REMARK 922        TOTAL FREE ENERGY PREDICTED BY IDOCK:   61.80 KCAL/MOL
REMARK 923 INTER-LIGAND FREE ENERGY PREDICTED BY IDOCK:   57.96 KCAL/MOL
REMARK 924 INTRA-LIGAND FREE ENERGY PREDICTED BY IDOCK:    3.84 KCAL/MOL
REMARK 927      BINDING AFFINITY PREDICTED BY RF-SCORE:    0.00 PKD
ROOT
HETATM    1  C   UNL     1     -12.563  14.682  69.836  1.00  0.00    -0.180 C  
HETATM    2  C   UNL     1     -12.631  13.151  69.775  1.00  0.00     0.122 C  
HETATM    3  N   UNL     1     -12.195  15.022  71.228  1.00  0.00    -0.295 NA 
HETATM    4  H1  UNL     1     -12.149  16.040  71.268  1.00  0.00     0.000 HD 
HETATM    5  C   UNL     1     -12.692  12.613  68.364  1.00  0.00     1.424 C  
HETATM    6  H2  UNL     1     -11.340  14.565  71.545  1.00  0.00     0.000 HD 
HETATM    7  C   UNL     1     -11.682  13.293  67.441  1.00  0.00    -0.373 C  
HETATM    8  C   UNL     1     -11.689  15.377  68.708  1.00  0.00    -0.351 C  
HETATM    9  O   UNL     1     -11.807  14.724  67.444  1.00  0.00    -0.377 OA 
ENDROOT
BRANCH   7  10
HETATM   10  C   UNL     1     -11.962  12.794  65.997  1.00  0.00    -0.432 C  
HETATM   11  N   UNL     1     -12.612  13.803  65.162  1.00  0.00    -0.614 NA 
HETATM   12  H1  UNL     1     -12.795  13.475  64.213  1.00  0.00     0.000 HD 
HETATM   13  H2  UNL     1     -12.073  14.670  65.150  1.00  0.00     0.000 HD 
ENDBRANCH   7  10
BRANCH   8  14
HETATM   14  O   UNL     1     -10.345  15.565  69.154  1.00  0.00    -0.212 OA 
BRANCH  14  15
HETATM   15  C   UNL     1      -9.865  16.869  69.568  1.00  0.00     0.049 C  
HETATM   16  C   UNL     1     -10.583  17.826  68.576  1.00  0.00    -0.255 C  
HETATM   17  N   UNL     1     -12.045  17.799  68.772  1.00  0.00     2.163 NA 
HETATM   18  C   UNL     1     -10.180  19.286  68.637  1.00  0.00    -0.438 C  
HETATM   19  H2  UNL     1     -12.297  18.003  69.739  1.00  0.00     0.000 HD 
HETATM   20  H1  UNL     1     -12.516  18.428  68.121  1.00  0.00     0.000 HD 
HETATM   21  C   UNL     1      -8.675  19.500  68.594  1.00  0.00    -0.335 C  
HETATM   22  N   UNL     1      -8.511  20.963  68.619  1.00  0.00     1.033 NA 
HETATM   23  C   UNL     1      -8.022  18.701  69.765  1.00  0.00     0.849 C  
HETATM   24  C   UNL     1      -8.317  17.153  69.571  1.00  0.00     0.570 C  
HETATM   25  O   UNL     1      -7.694  16.415  70.638  1.00  0.00     2.174 OA 
HETATM   26  H2  UNL     1      -8.974  21.421  69.404  1.00  0.00     0.000 HD 
HETATM   27  H1  UNL     1      -7.501  21.107  68.590  1.00  0.00     0.000 HD 
HETATM   28  H   UNL     1      -6.758  16.587  70.640  1.00  0.00     0.000 HD 
BRANCH  23  29
HETATM   29  O   UNL     1      -6.597  18.987  69.928  1.00  0.00    -0.176 OA 
BRANCH  29  30
HETATM   30  C   UNL     1      -6.261  19.304  71.309  1.00  0.00     0.421 C  
HETATM   31  O   UNL     1      -7.062  20.386  71.802  1.00  0.00    -0.023 OA 
HETATM   32  C   UNL     1      -8.443  20.007  71.936  1.00  0.00     2.693 C  
HETATM   33  C   UNL     1      -8.569  18.968  73.051  1.00  0.00     7.622 C  
HETATM   34  H   UNL     1      -5.599  16.247  72.380  1.00  0.00     0.000 HD 
HETATM   35  O   UNL     1      -9.932  18.606  73.278  1.00  0.00     3.975 OA 
HETATM   36  C   UNL     1      -7.744  17.714  72.675  1.00  0.00    13.210 C  
HETATM   37  H1  UNL     1      -7.239  15.910  73.539  1.00  0.00     0.000 HD 
HETATM   38  H2  UNL     1      -8.738  16.501  74.057  1.00  0.00     0.000 HD 
HETATM   39  C   UNL     1      -6.308  18.101  72.286  1.00  0.00     3.140 C  
HETATM   40  N   UNL     1      -7.783  16.737  73.787  1.00  0.00    14.266 NA 
HETATM   41  H   UNL     1     -10.010  17.961  73.971  1.00  0.00     0.000 HD 
HETATM   42  O   UNL     1      -5.570  16.985  71.782  1.00  0.00     0.364 OA 
BRANCH  32  43
HETATM   43  C   UNL     1      -9.249  21.281  72.193  1.00  0.00     3.632 C  
HETATM   44  O   UNL     1     -10.636  20.934  72.317  1.00  0.00     4.316 OA 
HETATM   45  H   UNL     1     -11.136  21.725  72.476  1.00  0.00     0.000 HD 
ENDBRANCH  32  43
ENDBRANCH  29  30
ENDBRANCH  23  29
ENDBRANCH  14  15
ENDBRANCH   8  14
TORSDOF 6
ENDMDL
MODEL      314
REMARK 921   NORMALIZED FREE ENERGY PREDICTED BY IDOCK:   56.29 KCAL/MOL
REMARK 922        TOTAL FREE ENERGY PREDICTED BY IDOCK:   74.48 KCAL/MOL
REMARK 923 INTER-LIGAND FREE ENERGY PREDICTED BY IDOCK:   51.84 KCAL/MOL
REMARK 924 INTRA-LIGAND FREE ENERGY PREDICTED BY IDOCK:   22.65 KCAL/MOL
REMARK 927      BINDING AFFINITY PREDICTED BY RF-SCORE:    0.00 PKD
ROOT
HETATM    1  C   UNL     1     -13.003  10.788  71.852  1.00  0.00    -0.419 C  
HETATM    2  C   UNL     1     -12.781  11.839  70.758  1.00  0.00    -0.256 C  
HETATM    3  N   UNL     1     -13.934   9.790  71.281  1.00  0.00    -0.131 NA 
HETATM    4  H1  UNL     1     -14.082   9.091  72.008  1.00  0.00     0.000 HD 
HETATM    5  C   UNL     1     -11.624  12.768  71.049  1.00  0.00     1.139 C  
HETATM    6  H2  UNL     1     -13.613   9.394  70.397  1.00  0.00     0.000 HD 
HETATM    7  C   UNL     1     -10.389  12.015  71.542  1.00  0.00     9.060 C  
HETATM    8  C   UNL     1     -11.688  10.196  72.514  1.00  0.00     2.178 C  
HETATM    9  O   UNL     1     -10.665  11.179  72.676  1.00  0.00     7.929 OA 
ENDROOT
BRANCH   7  10
HETATM   10  C   UNL     1      -9.341  13.076  71.978  1.00  0.00    17.931 C  
HETATM   11  N   UNL     1      -8.497  12.623  73.083  1.00  0.00    18.026 NA 
HETATM   12  H1  UNL     1      -7.810  13.319  73.369  1.00  0.00     0.000 HD 
HETATM   13  H2  UNL     1      -8.046  11.736  72.858  1.00  0.00     0.000 HD 
ENDBRANCH   7  10
BRANCH   8  14
HETATM   14  O   UNL     1     -11.269   9.012  71.834  1.00  0.00    -0.354 OA 
BRANCH  14  15
HETATM   15  C   UNL     1     -11.300   8.925  70.387  1.00  0.00    -0.202 C  
HETATM   16  C   UNL     1     -11.321   7.391  70.140  1.00  0.00    -0.177 C  
HETATM   17  N   UNL     1     -12.563   6.784  70.656  1.00  0.00    -0.476 NA 
HETATM   18  C   UNL     1     -11.203   6.939  68.698  1.00  0.00    -0.082 C  
HETATM   19  H2  UNL     1     -13.390   7.238  70.270  1.00  0.00     0.000 HD 
HETATM   20  H1  UNL     1     -12.577   5.777  70.494  1.00  0.00     0.000 HD 
HETATM   21  C   UNL     1     -10.046   7.585  67.954  1.00  0.00    -0.182 C  
HETATM   22  N   UNL     1     -10.089   6.983  66.611  1.00  0.00    -0.384 NA 
HETATM   23  C   UNL     1     -10.204   9.136  68.032  1.00  0.00    -0.211 C  
HETATM   24  C   UNL     1     -10.145   9.593  69.551  1.00  0.00    -0.209 C  
HETATM   25  O   UNL     1     -10.267  11.025  69.620  1.00  0.00    -0.435 OA 
HETATM   26  H2  UNL     1     -10.990   7.076  66.142  1.00  0.00     0.000 HD 
HETATM   27  H1  UNL     1      -9.313   7.416  66.111  1.00  0.00     0.000 HD 
HETATM   28  H   UNL     1      -9.569  11.428  69.115  1.00  0.00     0.000 HD 
BRANCH  23  29
HETATM   29  O   UNL     1      -9.246   9.852  67.190  1.00  0.00    -0.137 OA 
BRANCH  29  30
HETATM   30  C   UNL     1      -9.315   9.422  65.801  1.00  0.00    -0.239 C  
HETATM   31  O   UNL     1      -8.380  10.142  64.988  1.00  0.00    -0.143 OA 
HETATM   32  C   UNL     1      -7.021   9.802  65.313  1.00  0.00    -0.111 C  
HETATM   33  C   UNL     1      -6.760   8.351  64.909  1.00  0.00    -0.067 C  
HETATM   34  H   UNL     1      -9.951   6.215  66.299  1.00  0.00     0.000 HD 
HETATM   35  O   UNL     1      -5.401   7.977  65.143  1.00  0.00    -0.032 OA 
HETATM   36  C   UNL     1      -7.708   7.421  65.704  1.00  0.00    -0.104 C  
HETATM   37  H1  UNL     1      -8.155   5.408  65.781  1.00  0.00     0.000 HD 
HETATM   38  H2  UNL     1      -6.557   5.720  65.317  1.00  0.00     0.000 HD 
HETATM   39  C   UNL     1      -9.165   7.893  65.582  1.00  0.00     0.111 C  
HETATM   40  N   UNL     1      -7.530   6.021  65.257  1.00  0.00    -0.080 NA 
HETATM   41  H   UNL     1      -5.239   7.076  64.892  1.00  0.00     0.000 HD 
HETATM   42  O   UNL     1     -10.043   7.152  66.433  1.00  0.00    -0.122 OA 
BRANCH  32  43
HETATM   43  C   UNL     1      -6.111  10.807  64.605  1.00  0.00     0.142 C  
HETATM   44  O   UNL     1      -5.713  10.259  63.340  1.00  0.00    -0.124 OA 
HETATM   45  H   UNL     1      -5.148  10.883  62.900  1.00  0.00     0.000 HD 
ENDBRANCH  32  43
ENDBRANCH  29  30
ENDBRANCH  23  29
ENDBRANCH  14  15
ENDBRANCH   8  14
TORSDOF 6
ENDMDL
