MODEL        1
REMARK 921   NORMALIZED FREE ENERGY PREDICTED BY IDOCK:   -4.57 KCAL/MOL
REMARK 922        TOTAL FREE ENERGY PREDICTED BY IDOCK:   -4.88 KCAL/MOL
REMARK 923 INTER-LIGAND FREE ENERGY PREDICTED BY IDOCK:   -4.83 KCAL/MOL
REMARK 924 INTRA-LIGAND FREE ENERGY PREDICTED BY IDOCK:   -0.05 KCAL/MOL
REMARK 927      BINDING AFFINITY PREDICTED BY RF-SCORE:    0.00 PKD
ROOT
HETATM    1  O   UNL     1     -12.357  10.646  68.626  1.00  0.00    -0.820 OA 
HETATM    2  C   UNL     1     -11.437  11.271  69.516  1.00  0.00    -0.307 C  
HETATM    3  H   UNL     1     -11.953   9.946  68.128  1.00  0.00     0.000 HD 
ENDROOT
BRANCH   2   4
HETATM    4  C   UNL     1     -12.078  12.385  70.309  1.00  0.00    -0.377 A  
HETATM    5  C   UNL     1     -12.858  12.102  71.445  1.00  0.00    -0.276 A  
HETATM    6 CL   UNL     1     -13.110  10.478  71.985  1.00  0.00    -0.569 Cl 
HETATM    7  C   UNL     1     -13.461  13.128  72.179  1.00  0.00    -0.653 A  
HETATM    8  C   UNL     1     -13.288  14.450  71.785  1.00  0.00    -0.366 A  
HETATM    9  C   UNL     1     -12.518  14.758  70.668  1.00  0.00    -0.407 A  
HETATM   10 CL   UNL     1     -14.033  15.715  72.683  1.00  0.00    -0.647 Cl 
HETATM   11  C   UNL     1     -11.916  13.730  69.936  1.00  0.00    -0.412 A  
ENDBRANCH   2   4
TORSDOF 1
ENDMDL
MODEL        2
REMARK 921   NORMALIZED FREE ENERGY PREDICTED BY IDOCK:   -4.52 KCAL/MOL
REMARK 922        TOTAL FREE ENERGY PREDICTED BY IDOCK:   -4.83 KCAL/MOL
REMARK 923 INTER-LIGAND FREE ENERGY PREDICTED BY IDOCK:   -4.79 KCAL/MOL
REMARK 924 INTRA-LIGAND FREE ENERGY PREDICTED BY IDOCK:   -0.05 KCAL/MOL
REMARK 927      BINDING AFFINITY PREDICTED BY RF-SCORE:    0.00 PKD
ROOT
HETATM    1  O   UNL     1     -11.524  16.392  63.723  1.00  0.00    -1.590 OA 
HETATM    2  C   UNL     1     -12.382  15.452  64.362  1.00  0.00    -0.077 C  
HETATM    3  H   UNL     1     -11.924  17.250  63.649  1.00  0.00     0.000 HD 
ENDROOT
BRANCH   2   4
HETATM    4  C   UNL     1     -11.746  14.088  64.480  1.00  0.00    -0.428 A  
HETATM    5  C   UNL     1     -10.961  13.755  65.599  1.00  0.00    -0.288 A  
HETATM    6 CL   UNL     1     -10.697  14.882  66.884  1.00  0.00    -0.302 Cl 
HETATM    7  C   UNL     1     -10.363  12.496  65.712  1.00  0.00    -0.288 A  
HETATM    8  C   UNL     1     -10.546  11.555  64.705  1.00  0.00    -0.311 A  
HETATM    9  C   UNL     1     -11.320  11.856  63.589  1.00  0.00    -0.536 A  
HETATM   10 CL   UNL     1      -9.806  10.006  64.838  1.00  0.00    -0.388 Cl 
HETATM   11  C   UNL     1     -11.917  13.115  63.480  1.00  0.00    -0.580 A  
ENDBRANCH   2   4
TORSDOF 1
ENDMDL
MODEL        3
REMARK 921   NORMALIZED FREE ENERGY PREDICTED BY IDOCK:   -4.49 KCAL/MOL
REMARK 922        TOTAL FREE ENERGY PREDICTED BY IDOCK:   -4.80 KCAL/MOL
REMARK 923 INTER-LIGAND FREE ENERGY PREDICTED BY IDOCK:   -4.76 KCAL/MOL
REMARK 924 INTRA-LIGAND FREE ENERGY PREDICTED BY IDOCK:   -0.04 KCAL/MOL
REMARK 927      BINDING AFFINITY PREDICTED BY RF-SCORE:    0.00 PKD
ROOT
HETATM    1  O   UNL     1     -13.474  16.171  73.826  1.00  0.00    -0.913 OA 
HETATM    2  C   UNL     1     -12.350  15.350  73.525  1.00  0.00    -0.542 C  
HETATM    3  H   UNL     1     -13.609  16.264  74.762  1.00  0.00     0.000 HD 
ENDROOT
BRANCH   2   4
HETATM    4  C   UNL     1     -12.135  15.201  72.038  1.00  0.00    -0.453 A  
HETATM    5  C   UNL     1     -12.591  14.057  71.357  1.00  0.00    -0.372 A  
HETATM    6 CL   UNL     1     -13.417  12.783  72.186  1.00  0.00    -0.637 Cl 
HETATM    7  C   UNL     1     -12.389  13.908  69.982  1.00  0.00    -0.378 A  
HETATM    8  C   UNL     1     -11.730  14.905  69.271  1.00  0.00    -0.316 A  
HETATM    9  C   UNL     1     -11.273  16.049  69.919  1.00  0.00    -0.361 A  
HETATM   10 CL   UNL     1     -11.475  14.723  67.579  1.00  0.00    -0.356 Cl 
HETATM   11  C   UNL     1     -11.476  16.194  71.294  1.00  0.00    -0.433 A  
ENDBRANCH   2   4
TORSDOF 1
ENDMDL
MODEL        4
REMARK 921   NORMALIZED FREE ENERGY PREDICTED BY IDOCK:   -4.42 KCAL/MOL
REMARK 922        TOTAL FREE ENERGY PREDICTED BY IDOCK:   -4.72 KCAL/MOL
REMARK 923 INTER-LIGAND FREE ENERGY PREDICTED BY IDOCK:   -4.69 KCAL/MOL
REMARK 924 INTRA-LIGAND FREE ENERGY PREDICTED BY IDOCK:   -0.03 KCAL/MOL
REMARK 927      BINDING AFFINITY PREDICTED BY RF-SCORE:    0.00 PKD
ROOT
HETATM    1  O   UNL     1     -13.031  15.811  74.333  1.00  0.00    -0.819 OA 
HETATM    2  C   UNL     1     -13.480  15.839  72.981  1.00  0.00    -0.583 C  
HETATM    3  H   UNL     1     -13.275  16.596  74.808  1.00  0.00     0.000 HD 
ENDROOT
BRANCH   2   4
HETATM    4  C   UNL     1     -13.092  14.591  72.226  1.00  0.00    -0.458 A  
HETATM    5  C   UNL     1     -12.190  14.655  71.148  1.00  0.00    -0.340 A  
HETATM    6 CL   UNL     1     -11.485  16.153  70.648  1.00  0.00    -0.408 Cl 
HETATM    7  C   UNL     1     -11.833  13.505  70.438  1.00  0.00    -0.293 A  
HETATM    8  C   UNL     1     -12.372  12.276  70.802  1.00  0.00    -0.290 A  
HETATM    9  C   UNL     1     -13.263  12.184  71.866  1.00  0.00    -0.474 A  
HETATM   10 CL   UNL     1     -11.937  10.858  69.927  1.00  0.00    -0.391 Cl 
HETATM   11  C   UNL     1     -13.619  13.336  72.574  1.00  0.00    -0.637 A  
ENDBRANCH   2   4
TORSDOF 1
ENDMDL
MODEL        5
REMARK 921   NORMALIZED FREE ENERGY PREDICTED BY IDOCK:   -4.41 KCAL/MOL
REMARK 922        TOTAL FREE ENERGY PREDICTED BY IDOCK:   -4.72 KCAL/MOL
REMARK 923 INTER-LIGAND FREE ENERGY PREDICTED BY IDOCK:   -4.69 KCAL/MOL
REMARK 924 INTRA-LIGAND FREE ENERGY PREDICTED BY IDOCK:   -0.02 KCAL/MOL
REMARK 927      BINDING AFFINITY PREDICTED BY RF-SCORE:    0.00 PKD
ROOT
HETATM    1  O   UNL     1     -11.748  16.389  63.827  1.00  0.00    -1.553 OA 
HETATM    2  C   UNL     1     -10.799  16.196  64.871  1.00  0.00    -0.334 C  
HETATM    3  H   UNL     1     -11.530  17.132  63.277  1.00  0.00     0.000 HD 
ENDROOT
BRANCH   2   4
HETATM    4  C   UNL     1     -11.146  15.016  65.746  1.00  0.00    -0.346 A  
HETATM    5  C   UNL     1     -11.124  15.130  67.149  1.00  0.00    -0.335 A  
HETATM    6 CL   UNL     1     -10.709  16.618  67.927  1.00  0.00    -0.346 Cl 
HETATM    7  C   UNL     1     -11.437  14.039  67.965  1.00  0.00    -0.342 A  
HETATM    8  C   UNL     1     -11.779  12.821  67.387  1.00  0.00    -0.366 A  
HETATM    9  C   UNL     1     -11.812  12.683  66.003  1.00  0.00    -0.492 A  
HETATM   10 CL   UNL     1     -12.159  11.475  68.390  1.00  0.00    -0.254 Cl 
HETATM   11  C   UNL     1     -11.499  13.775  65.189  1.00  0.00    -0.329 A  
ENDBRANCH   2   4
TORSDOF 1
ENDMDL
MODEL        6
REMARK 921   NORMALIZED FREE ENERGY PREDICTED BY IDOCK:   -4.39 KCAL/MOL
REMARK 922        TOTAL FREE ENERGY PREDICTED BY IDOCK:   -4.69 KCAL/MOL
REMARK 923 INTER-LIGAND FREE ENERGY PREDICTED BY IDOCK:   -4.64 KCAL/MOL
REMARK 924 INTRA-LIGAND FREE ENERGY PREDICTED BY IDOCK:   -0.05 KCAL/MOL
REMARK 927      BINDING AFFINITY PREDICTED BY RF-SCORE:    0.00 PKD
ROOT
HETATM    1  O   UNL     1     -12.333  10.633  68.522  1.00  0.00    -0.814 OA 
HETATM    2  C   UNL     1     -11.591  10.952  69.695  1.00  0.00    -0.322 C  
HETATM    3  H   UNL     1     -11.964   9.895  68.054  1.00  0.00     0.000 HD 
ENDROOT
BRANCH   2   4
HETATM    4  C   UNL     1     -12.178  12.127  70.440  1.00  0.00    -0.378 A  
HETATM    5  C   UNL     1     -11.924  13.444  70.017  1.00  0.00    -0.337 A  
HETATM    6 CL   UNL     1     -10.942  13.775  68.632  1.00  0.00    -0.275 Cl 
HETATM    7  C   UNL     1     -12.457  14.538  70.706  1.00  0.00    -0.420 A  
HETATM    8  C   UNL     1     -13.254  14.324  71.826  1.00  0.00    -0.367 A  
HETATM    9  C   UNL     1     -13.524  13.031  72.263  1.00  0.00    -0.645 A  
HETATM   10 CL   UNL     1     -13.909  15.668  72.679  1.00  0.00    -0.659 Cl 
HETATM   11  C   UNL     1     -12.989  11.940  71.572  1.00  0.00    -0.427 A  
ENDBRANCH   2   4
TORSDOF 1
ENDMDL
MODEL        7
REMARK 921   NORMALIZED FREE ENERGY PREDICTED BY IDOCK:   -4.36 KCAL/MOL
REMARK 922        TOTAL FREE ENERGY PREDICTED BY IDOCK:   -4.66 KCAL/MOL
REMARK 923 INTER-LIGAND FREE ENERGY PREDICTED BY IDOCK:   -4.63 KCAL/MOL
REMARK 924 INTRA-LIGAND FREE ENERGY PREDICTED BY IDOCK:   -0.03 KCAL/MOL
REMARK 927      BINDING AFFINITY PREDICTED BY RF-SCORE:    0.00 PKD
ROOT
HETATM    1  O   UNL     1     -11.589  16.347  63.911  1.00  0.00    -1.564 OA 
HETATM    2  C   UNL     1     -10.797  15.425  64.654  1.00  0.00    -0.258 C  
HETATM    3  H   UNL     1     -11.465  16.252  62.974  1.00  0.00     0.000 HD 
ENDROOT
BRANCH   2   4
HETATM    4  C   UNL     1     -10.993  15.577  66.143  1.00  0.00    -0.247 A  
HETATM    5  C   UNL     1     -11.566  14.540  66.902  1.00  0.00    -0.385 A  
HETATM    6 CL   UNL     1     -12.061  13.053  66.170  1.00  0.00    -0.481 Cl 
HETATM    7  C   UNL     1     -11.758  14.676  68.280  1.00  0.00    -0.359 A  
HETATM    8  C   UNL     1     -11.376  15.853  68.916  1.00  0.00    -0.377 A  
HETATM    9  C   UNL     1     -10.804  16.893  68.190  1.00  0.00    -0.351 A  
HETATM   10 CL   UNL     1     -11.615  16.026  70.611  1.00  0.00    -0.407 Cl 
HETATM   11  C   UNL     1     -10.613  16.753  66.812  1.00  0.00    -0.203 A  
ENDBRANCH   2   4
TORSDOF 1
ENDMDL
MODEL        8
REMARK 921   NORMALIZED FREE ENERGY PREDICTED BY IDOCK:   -4.31 KCAL/MOL
REMARK 922        TOTAL FREE ENERGY PREDICTED BY IDOCK:   -4.61 KCAL/MOL
REMARK 923 INTER-LIGAND FREE ENERGY PREDICTED BY IDOCK:   -4.56 KCAL/MOL
REMARK 924 INTRA-LIGAND FREE ENERGY PREDICTED BY IDOCK:   -0.05 KCAL/MOL
REMARK 927      BINDING AFFINITY PREDICTED BY RF-SCORE:    0.00 PKD
ROOT
HETATM    1  O   UNL     1     -12.281  15.890  63.813  1.00  0.00    -1.213 OA 
HETATM    2  C   UNL     1     -11.127  15.660  64.615  1.00  0.00    -0.373 C  
HETATM    3  H   UNL     1     -12.146  16.586  63.181  1.00  0.00     0.000 HD 
ENDROOT
BRANCH   2   4
HETATM    4  C   UNL     1     -11.342  14.554  65.619  1.00  0.00    -0.336 A  
HETATM    5  C   UNL     1     -11.248  13.204  65.232  1.00  0.00    -0.291 A  
HETATM    6 CL   UNL     1     -10.878  12.756  63.603  1.00  0.00    -0.417 Cl 
HETATM    7  C   UNL     1     -11.454  12.174  66.155  1.00  0.00    -0.429 A  
HETATM    8  C   UNL     1     -11.753  12.483  67.477  1.00  0.00    -0.374 A  
HETATM    9  C   UNL     1     -11.848  13.809  67.887  1.00  0.00    -0.413 A  
HETATM   10 CL   UNL     1     -12.012  11.217  68.614  1.00  0.00    -0.366 Cl 
HETATM   11  C   UNL     1     -11.642  14.837  66.962  1.00  0.00    -0.352 A  
ENDBRANCH   2   4
TORSDOF 1
ENDMDL
MODEL        9
REMARK 921   NORMALIZED FREE ENERGY PREDICTED BY IDOCK:   -4.29 KCAL/MOL
REMARK 922        TOTAL FREE ENERGY PREDICTED BY IDOCK:   -4.59 KCAL/MOL
REMARK 923 INTER-LIGAND FREE ENERGY PREDICTED BY IDOCK:   -4.57 KCAL/MOL
REMARK 924 INTRA-LIGAND FREE ENERGY PREDICTED BY IDOCK:   -0.02 KCAL/MOL
REMARK 927      BINDING AFFINITY PREDICTED BY RF-SCORE:    0.00 PKD
ROOT
HETATM    1  O   UNL     1     -12.462  13.959  62.850  1.00  0.00    -1.034 OA 
HETATM    2  C   UNL     1     -11.949  12.749  63.401  1.00  0.00    -0.535 C  
HETATM    3  H   UNL     1     -12.526  13.922  61.903  1.00  0.00     0.000 HD 
ENDROOT
BRANCH   2   4
HETATM    4  C   UNL     1     -11.846  12.807  64.906  1.00  0.00    -0.424 A  
HETATM    5  C   UNL     1     -11.098  11.847  65.612  1.00  0.00    -0.310 A  
HETATM    6 CL   UNL     1     -10.263  10.573  64.794  1.00  0.00    -0.411 Cl 
HETATM    7  C   UNL     1     -11.005  11.890  67.007  1.00  0.00    -0.326 A  
HETATM    8  C   UNL     1     -11.659  12.896  67.710  1.00  0.00    -0.343 A  
HETATM    9  C   UNL     1     -12.402  13.859  67.036  1.00  0.00    -0.287 A  
HETATM   10 CL   UNL     1     -11.550  12.947  69.427  1.00  0.00    -0.358 Cl 
HETATM   11  C   UNL     1     -12.493  13.814  65.642  1.00  0.00    -0.541 A  
ENDBRANCH   2   4
TORSDOF 1
ENDMDL
MODEL       10
REMARK 921   NORMALIZED FREE ENERGY PREDICTED BY IDOCK:   -4.29 KCAL/MOL
REMARK 922        TOTAL FREE ENERGY PREDICTED BY IDOCK:   -4.59 KCAL/MOL
REMARK 923 INTER-LIGAND FREE ENERGY PREDICTED BY IDOCK:   -4.57 KCAL/MOL
REMARK 924 INTRA-LIGAND FREE ENERGY PREDICTED BY IDOCK:   -0.02 KCAL/MOL
REMARK 927      BINDING AFFINITY PREDICTED BY RF-SCORE:    0.00 PKD
ROOT
HETATM    1  O   UNL     1     -11.507  16.391  63.914  1.00  0.00    -1.569 OA 
HETATM    2  C   UNL     1     -12.285  15.203  64.027  1.00  0.00    -0.045 C  
HETATM    3  H   UNL     1     -11.723  16.888  63.134  1.00  0.00     0.000 HD 
ENDROOT
BRANCH   2   4
HETATM    4  C   UNL     1     -11.943  14.413  65.267  1.00  0.00    -0.382 A  
HETATM    5  C   UNL     1     -12.081  13.013  65.287  1.00  0.00    -0.441 A  
HETATM    6 CL   UNL     1     -12.637  12.140  63.901  1.00  0.00    -0.577 Cl 
HETATM    7  C   UNL     1     -11.773  12.275  66.434  1.00  0.00    -0.431 A  
HETATM    8  C   UNL     1     -11.321  12.931  67.574  1.00  0.00    -0.308 A  
HETATM    9  C   UNL     1     -11.172  14.314  67.580  1.00  0.00    -0.322 A  
HETATM   10 CL   UNL     1     -10.946  12.026  68.990  1.00  0.00    -0.268 Cl 
HETATM   11  C   UNL     1     -11.481  15.049  66.431  1.00  0.00    -0.225 A  
ENDBRANCH   2   4
TORSDOF 1
ENDMDL
MODEL       11
REMARK 921   NORMALIZED FREE ENERGY PREDICTED BY IDOCK:   -4.28 KCAL/MOL
REMARK 922        TOTAL FREE ENERGY PREDICTED BY IDOCK:   -4.58 KCAL/MOL
REMARK 923 INTER-LIGAND FREE ENERGY PREDICTED BY IDOCK:   -4.56 KCAL/MOL
REMARK 924 INTRA-LIGAND FREE ENERGY PREDICTED BY IDOCK:   -0.02 KCAL/MOL
REMARK 927      BINDING AFFINITY PREDICTED BY RF-SCORE:    0.00 PKD
ROOT
HETATM    1  O   UNL     1     -14.219   9.523  72.738  1.00  0.00    -0.799 OA 
HETATM    2  C   UNL     1     -13.070   9.750  71.927  1.00  0.00    -0.446 C  
HETATM    3  H   UNL     1     -14.316   8.609  72.974  1.00  0.00     0.000 HD 
ENDROOT
BRANCH   2   4
HETATM    4  C   UNL     1     -12.916  11.204  71.551  1.00  0.00    -0.542 A  
HETATM    5  C   UNL     1     -12.163  11.579  70.423  1.00  0.00    -0.355 A  
HETATM    6 CL   UNL     1     -11.393  10.399  69.419  1.00  0.00    -0.300 Cl 
HETATM    7  C   UNL     1     -12.010  12.923  70.073  1.00  0.00    -0.380 A  
HETATM    8  C   UNL     1     -12.610  13.910  70.848  1.00  0.00    -0.361 A  
HETATM    9  C   UNL     1     -13.363  13.567  71.966  1.00  0.00    -0.563 A  
HETATM   10 CL   UNL     1     -12.418  15.566  70.422  1.00  0.00    -0.448 Cl 
HETATM   11  C   UNL     1     -13.515  12.221  72.314  1.00  0.00    -0.365 A  
ENDBRANCH   2   4
TORSDOF 1
ENDMDL
MODEL       12
REMARK 921   NORMALIZED FREE ENERGY PREDICTED BY IDOCK:   -4.26 KCAL/MOL
REMARK 922        TOTAL FREE ENERGY PREDICTED BY IDOCK:   -4.56 KCAL/MOL
REMARK 923 INTER-LIGAND FREE ENERGY PREDICTED BY IDOCK:   -4.51 KCAL/MOL
REMARK 924 INTRA-LIGAND FREE ENERGY PREDICTED BY IDOCK:   -0.05 KCAL/MOL
REMARK 927      BINDING AFFINITY PREDICTED BY RF-SCORE:    0.00 PKD
ROOT
HETATM    1  O   UNL     1     -12.496  11.622  63.079  1.00  0.00    -0.972 OA 
HETATM    2  C   UNL     1     -11.277  12.035  63.689  1.00  0.00    -0.450 C  
HETATM    3  H   UNL     1     -12.379  11.387  62.167  1.00  0.00     0.000 HD 
ENDROOT
BRANCH   2   4
HETATM    4  C   UNL     1     -11.464  12.409  65.140  1.00  0.00    -0.379 A  
HETATM    5  C   UNL     1     -11.959  13.677  65.497  1.00  0.00    -0.384 A  
HETATM    6 CL   UNL     1     -12.380  14.852  64.299  1.00  0.00    -0.448 Cl 
HETATM    7  C   UNL     1     -12.127  14.033  66.838  1.00  0.00    -0.465 A  
HETATM    8  C   UNL     1     -11.804  13.123  67.838  1.00  0.00    -0.348 A  
HETATM    9  C   UNL     1     -11.316  11.862  67.513  1.00  0.00    -0.381 A  
HETATM   10 CL   UNL     1     -12.005  13.561  69.491  1.00  0.00    -0.383 Cl 
HETATM   11  C   UNL     1     -11.149  11.508  66.171  1.00  0.00    -0.302 A  
ENDBRANCH   2   4
TORSDOF 1
ENDMDL
MODEL       13
REMARK 921   NORMALIZED FREE ENERGY PREDICTED BY IDOCK:   -4.26 KCAL/MOL
REMARK 922        TOTAL FREE ENERGY PREDICTED BY IDOCK:   -4.56 KCAL/MOL
REMARK 923 INTER-LIGAND FREE ENERGY PREDICTED BY IDOCK:   -4.53 KCAL/MOL
REMARK 924 INTRA-LIGAND FREE ENERGY PREDICTED BY IDOCK:   -0.02 KCAL/MOL
REMARK 927      BINDING AFFINITY PREDICTED BY RF-SCORE:    0.00 PKD
ROOT
HETATM    1  O   UNL     1     -11.565  16.304  63.732  1.00  0.00    -1.539 OA 
HETATM    2  C   UNL     1     -10.892  15.739  64.852  1.00  0.00    -0.413 C  
HETATM    3  H   UNL     1     -11.712  15.667  63.043  1.00  0.00     0.000 HD 
ENDROOT
BRANCH   2   4
HETATM    4  C   UNL     1     -10.660  16.752  65.948  1.00  0.00    -0.255 A  
HETATM    5  C   UNL     1     -10.503  16.342  67.284  1.00  0.00    -0.300 A  
HETATM    6 CL   UNL     1     -10.560  14.671  67.728  1.00  0.00    -0.249 Cl 
HETATM    7  C   UNL     1     -10.295  17.274  68.305  1.00  0.00    -0.361 A  
HETATM    8  C   UNL     1     -10.239  18.630  67.998  1.00  0.00    -0.385 A  
HETATM    9  C   UNL     1     -10.388  19.062  66.685  1.00  0.00    -0.501 A  
HETATM   10 CL   UNL     1      -9.988  19.781  69.253  1.00  0.00    -0.426 Cl 
HETATM   11  C   UNL     1     -10.596  18.127  65.666  1.00  0.00    -0.104 A  
ENDBRANCH   2   4
TORSDOF 1
ENDMDL
MODEL       14
REMARK 921   NORMALIZED FREE ENERGY PREDICTED BY IDOCK:   -4.25 KCAL/MOL
REMARK 922        TOTAL FREE ENERGY PREDICTED BY IDOCK:   -4.54 KCAL/MOL
REMARK 923 INTER-LIGAND FREE ENERGY PREDICTED BY IDOCK:   -4.51 KCAL/MOL
REMARK 924 INTRA-LIGAND FREE ENERGY PREDICTED BY IDOCK:   -0.03 KCAL/MOL
REMARK 927      BINDING AFFINITY PREDICTED BY RF-SCORE:    0.00 PKD
ROOT
HETATM    1  O   UNL     1     -14.381  15.546  70.792  1.00  0.00    -0.844 OA 
HETATM    2  C   UNL     1     -13.012  15.212  70.999  1.00  0.00    -0.431 C  
HETATM    3  H   UNL     1     -14.526  16.484  70.805  1.00  0.00     0.000 HD 
ENDROOT
BRANCH   2   4
HETATM    4  C   UNL     1     -12.781  13.720  70.979  1.00  0.00    -0.416 A  
HETATM    5  C   UNL     1     -12.013  13.125  69.961  1.00  0.00    -0.321 A  
HETATM    6 CL   UNL     1     -11.299  14.070  68.700  1.00  0.00    -0.285 Cl 
HETATM    7  C   UNL     1     -11.801  11.744  69.932  1.00  0.00    -0.423 A  
HETATM    8  C   UNL     1     -12.353  10.941  70.924  1.00  0.00    -0.400 A  
HETATM    9  C   UNL     1     -13.113  11.503  71.944  1.00  0.00    -0.492 A  
HETATM   10 CL   UNL     1     -12.098   9.239  70.888  1.00  0.00    -0.320 Cl 
HETATM   11  C   UNL     1     -13.323  12.885  71.971  1.00  0.00    -0.579 A  
ENDBRANCH   2   4
TORSDOF 1
ENDMDL
MODEL       15
REMARK 921   NORMALIZED FREE ENERGY PREDICTED BY IDOCK:   -4.22 KCAL/MOL
REMARK 922        TOTAL FREE ENERGY PREDICTED BY IDOCK:   -4.52 KCAL/MOL
REMARK 923 INTER-LIGAND FREE ENERGY PREDICTED BY IDOCK:   -4.56 KCAL/MOL
REMARK 924 INTRA-LIGAND FREE ENERGY PREDICTED BY IDOCK:    0.05 KCAL/MOL
REMARK 927      BINDING AFFINITY PREDICTED BY RF-SCORE:    0.00 PKD
ROOT
HETATM    1  O   UNL     1     -11.532  16.486  70.994  1.00  0.00    -0.574 OA 
HETATM    2  C   UNL     1     -12.239  15.675  70.061  1.00  0.00    -0.327 C  
HETATM    3  H   UNL     1     -11.392  17.367  70.669  1.00  0.00     0.000 HD 
ENDROOT
BRANCH   2   4
HETATM    4  C   UNL     1     -12.462  14.274  70.578  1.00  0.00    -0.428 A  
HETATM    5  C   UNL     1     -13.287  14.043  71.695  1.00  0.00    -0.367 A  
HETATM    6 CL   UNL     1     -14.081  15.343  72.514  1.00  0.00    -0.615 Cl 
HETATM    7  C   UNL     1     -13.492  12.750  72.184  1.00  0.00    -0.591 A  
HETATM    8  C   UNL     1     -12.876  11.671  71.559  1.00  0.00    -0.364 A  
HETATM    9  C   UNL     1     -12.058  11.871  70.451  1.00  0.00    -0.421 A  
HETATM   10 CL   UNL     1     -13.122  10.078  72.162  1.00  0.00    -0.519 Cl 
HETATM   11  C   UNL     1     -11.855  13.165  69.964  1.00  0.00    -0.360 A  
ENDBRANCH   2   4
TORSDOF 1
ENDMDL
MODEL       16
REMARK 921   NORMALIZED FREE ENERGY PREDICTED BY IDOCK:   -4.20 KCAL/MOL
REMARK 922        TOTAL FREE ENERGY PREDICTED BY IDOCK:   -4.49 KCAL/MOL
REMARK 923 INTER-LIGAND FREE ENERGY PREDICTED BY IDOCK:   -4.44 KCAL/MOL
REMARK 924 INTRA-LIGAND FREE ENERGY PREDICTED BY IDOCK:   -0.05 KCAL/MOL
REMARK 927      BINDING AFFINITY PREDICTED BY RF-SCORE:    0.00 PKD
ROOT
HETATM    1  O   UNL     1     -12.574  11.467  63.036  1.00  0.00    -0.958 OA 
HETATM    2  C   UNL     1     -11.456  12.231  63.476  1.00  0.00    -0.476 C  
HETATM    3  H   UNL     1     -12.522  11.257  62.111  1.00  0.00     0.000 HD 
ENDROOT
BRANCH   2   4
HETATM    4  C   UNL     1     -11.538  12.566  64.946  1.00  0.00    -0.386 A  
HETATM    5  C   UNL     1     -10.974  11.711  65.911  1.00  0.00    -0.280 A  
HETATM    6 CL   UNL     1     -10.161  10.253  65.459  1.00  0.00    -0.361 Cl 
HETATM    7  C   UNL     1     -11.053  12.011  67.274  1.00  0.00    -0.341 A  
HETATM    8  C   UNL     1     -11.697  13.172  67.688  1.00  0.00    -0.369 A  
HETATM    9  C   UNL     1     -12.260  14.037  66.755  1.00  0.00    -0.439 A  
HETATM   10 CL   UNL     1     -11.800  13.541  69.366  1.00  0.00    -0.368 Cl 
HETATM   11  C   UNL     1     -12.179  13.735  65.392  1.00  0.00    -0.465 A  
ENDBRANCH   2   4
TORSDOF 1
ENDMDL
MODEL       17
REMARK 921   NORMALIZED FREE ENERGY PREDICTED BY IDOCK:   -4.16 KCAL/MOL
REMARK 922        TOTAL FREE ENERGY PREDICTED BY IDOCK:   -4.45 KCAL/MOL
REMARK 923 INTER-LIGAND FREE ENERGY PREDICTED BY IDOCK:   -4.43 KCAL/MOL
REMARK 924 INTRA-LIGAND FREE ENERGY PREDICTED BY IDOCK:   -0.02 KCAL/MOL
REMARK 927      BINDING AFFINITY PREDICTED BY RF-SCORE:    0.00 PKD
ROOT
HETATM    1  O   UNL     1     -12.361  14.222  63.299  1.00  0.00    -1.118 OA 
HETATM    2  C   UNL     1     -12.059  12.831  63.362  1.00  0.00    -0.534 C  
HETATM    3  H   UNL     1     -12.637  14.489  62.431  1.00  0.00     0.000 HD 
ENDROOT
BRANCH   2   4
HETATM    4  C   UNL     1     -11.620  12.406  64.743  1.00  0.00    -0.395 A  
HETATM    5  C   UNL     1     -10.653  11.397  64.910  1.00  0.00    -0.307 A  
HETATM    6 CL   UNL     1      -9.925  10.611  63.553  1.00  0.00    -0.378 Cl 
HETATM    7  C   UNL     1     -10.247  10.993  66.185  1.00  0.00    -0.298 A  
HETATM    8  C   UNL     1     -10.803  11.595  67.309  1.00  0.00    -0.256 A  
HETATM    9  C   UNL     1     -11.758  12.598  67.171  1.00  0.00    -0.438 A  
HETATM   10 CL   UNL     1     -10.310  11.096  68.880  1.00  0.00    -0.211 Cl 
HETATM   11  C   UNL     1     -12.162  13.000  65.895  1.00  0.00    -0.493 A  
ENDBRANCH   2   4
TORSDOF 1
ENDMDL
MODEL       18
REMARK 921   NORMALIZED FREE ENERGY PREDICTED BY IDOCK:   -4.16 KCAL/MOL
REMARK 922        TOTAL FREE ENERGY PREDICTED BY IDOCK:   -4.45 KCAL/MOL
REMARK 923 INTER-LIGAND FREE ENERGY PREDICTED BY IDOCK:   -4.42 KCAL/MOL
REMARK 924 INTRA-LIGAND FREE ENERGY PREDICTED BY IDOCK:   -0.02 KCAL/MOL
REMARK 927      BINDING AFFINITY PREDICTED BY RF-SCORE:    0.00 PKD
ROOT
HETATM    1  O   UNL     1     -14.177   8.886  73.364  1.00  0.00    -1.241 OA 
HETATM    2  C   UNL     1     -13.752   9.027  72.012  1.00  0.00    -0.461 C  
HETATM    3  H   UNL     1     -15.120   8.954  73.452  1.00  0.00     0.000 HD 
ENDROOT
BRANCH   2   4
HETATM    4  C   UNL     1     -12.252   8.920  71.872  1.00  0.00    -0.445 A  
HETATM    5  C   UNL     1     -11.564   9.681  70.910  1.00  0.00    -0.344 A  
HETATM    6 CL   UNL     1     -12.398  10.771  69.857  1.00  0.00    -0.378 Cl 
HETATM    7  C   UNL     1     -10.177   9.581  70.769  1.00  0.00    -0.363 A  
HETATM    8  C   UNL     1      -9.461   8.719  71.593  1.00  0.00    -0.288 A  
HETATM    9  C   UNL     1     -10.116   7.958  72.555  1.00  0.00    -0.325 A  
HETATM   10 CL   UNL     1      -7.754   8.590  71.419  1.00  0.00    -0.115 Cl 
HETATM   11  C   UNL     1     -11.504   8.060  72.694  1.00  0.00    -0.465 A  
ENDBRANCH   2   4
TORSDOF 1
ENDMDL
MODEL       19
REMARK 921   NORMALIZED FREE ENERGY PREDICTED BY IDOCK:   -4.12 KCAL/MOL
REMARK 922        TOTAL FREE ENERGY PREDICTED BY IDOCK:   -4.40 KCAL/MOL
REMARK 923 INTER-LIGAND FREE ENERGY PREDICTED BY IDOCK:   -4.38 KCAL/MOL
REMARK 924 INTRA-LIGAND FREE ENERGY PREDICTED BY IDOCK:   -0.03 KCAL/MOL
REMARK 927      BINDING AFFINITY PREDICTED BY RF-SCORE:    0.00 PKD
ROOT
HETATM    1  O   UNL     1     -12.450  14.244  63.453  1.00  0.00    -1.125 OA 
HETATM    2  C   UNL     1     -11.464  13.782  64.371  1.00  0.00    -0.372 C  
HETATM    3  H   UNL     1     -12.645  13.601  62.782  1.00  0.00     0.000 HD 
ENDROOT
BRANCH   2   4
HETATM    4  C   UNL     1     -11.154  14.804  65.438  1.00  0.00    -0.359 A  
HETATM    5  C   UNL     1     -11.345  14.503  66.799  1.00  0.00    -0.352 A  
HETATM    6 CL   UNL     1     -11.932  12.958  67.308  1.00  0.00    -0.413 Cl 
HETATM    7  C   UNL     1     -11.068  15.448  67.791  1.00  0.00    -0.320 A  
HETATM    8  C   UNL     1     -10.594  16.705  67.433  1.00  0.00    -0.295 A  
HETATM    9  C   UNL     1     -10.392  17.027  66.095  1.00  0.00    -0.326 A  
HETATM   10 CL   UNL     1     -10.256  17.871  68.653  1.00  0.00    -0.388 Cl 
HETATM   11  C   UNL     1     -10.670  16.081  65.104  1.00  0.00    -0.429 A  
ENDBRANCH   2   4
TORSDOF 1
ENDMDL
MODEL       20
REMARK 921   NORMALIZED FREE ENERGY PREDICTED BY IDOCK:   -4.11 KCAL/MOL
REMARK 922        TOTAL FREE ENERGY PREDICTED BY IDOCK:   -4.40 KCAL/MOL
REMARK 923 INTER-LIGAND FREE ENERGY PREDICTED BY IDOCK:   -4.43 KCAL/MOL
REMARK 924 INTRA-LIGAND FREE ENERGY PREDICTED BY IDOCK:    0.03 KCAL/MOL
REMARK 927      BINDING AFFINITY PREDICTED BY RF-SCORE:    0.00 PKD
ROOT
HETATM    1  O   UNL     1     -12.476  14.047  63.261  1.00  0.00    -1.139 OA 
HETATM    2  C   UNL     1     -11.435  13.341  63.929  1.00  0.00    -0.362 C  
HETATM    3  H   UNL     1     -12.437  13.936  62.319  1.00  0.00     0.000 HD 
ENDROOT
BRANCH   2   4
HETATM    4  C   UNL     1     -11.497  13.518  65.427  1.00  0.00    -0.318 A  
HETATM    5  C   UNL     1     -11.241  14.770  66.014  1.00  0.00    -0.341 A  
HETATM    6 CL   UNL     1     -10.854  16.155  65.053  1.00  0.00    -0.430 Cl 
HETATM    7  C   UNL     1     -11.289  14.940  67.401  1.00  0.00    -0.354 A  
HETATM    8  C   UNL     1     -11.597  13.857  68.217  1.00  0.00    -0.337 A  
HETATM    9  C   UNL     1     -11.858  12.608  67.662  1.00  0.00    -0.390 A  
HETATM   10 CL   UNL     1     -11.652  14.061  69.925  1.00  0.00    -0.329 Cl 
HETATM   11  C   UNL     1     -11.809  12.441  66.275  1.00  0.00    -0.431 A  
ENDBRANCH   2   4
TORSDOF 1
ENDMDL
MODEL       21
REMARK 921   NORMALIZED FREE ENERGY PREDICTED BY IDOCK:   -4.06 KCAL/MOL
REMARK 922        TOTAL FREE ENERGY PREDICTED BY IDOCK:   -4.35 KCAL/MOL
REMARK 923 INTER-LIGAND FREE ENERGY PREDICTED BY IDOCK:   -4.30 KCAL/MOL
REMARK 924 INTRA-LIGAND FREE ENERGY PREDICTED BY IDOCK:   -0.05 KCAL/MOL
REMARK 927      BINDING AFFINITY PREDICTED BY RF-SCORE:    0.00 PKD
ROOT
HETATM    1  O   UNL     1     -12.351  11.559  62.869  1.00  0.00    -0.958 OA 
HETATM    2  C   UNL     1     -11.203  12.138  63.482  1.00  0.00    -0.458 C  
HETATM    3  H   UNL     1     -12.395  11.748  61.940  1.00  0.00     0.000 HD 
ENDROOT
BRANCH   2   4
HETATM    4  C   UNL     1     -11.134  11.838  64.960  1.00  0.00    -0.343 A  
HETATM    5  C   UNL     1     -11.847  12.621  65.886  1.00  0.00    -0.444 A  
HETATM    6 CL   UNL     1     -12.834  13.948  65.377  1.00  0.00    -0.523 Cl 
HETATM    7  C   UNL     1     -11.782  12.355  67.257  1.00  0.00    -0.419 A  
HETATM    8  C   UNL     1     -11.003  11.298  67.717  1.00  0.00    -0.252 A  
HETATM    9  C   UNL     1     -10.291  10.506  66.822  1.00  0.00    -0.301 A  
HETATM   10 CL   UNL     1     -10.917  10.970  69.404  1.00  0.00    -0.282 Cl 
HETATM   11  C   UNL     1     -10.358  10.775  65.452  1.00  0.00    -0.315 A  
ENDBRANCH   2   4
TORSDOF 1
ENDMDL
MODEL       22
REMARK 921   NORMALIZED FREE ENERGY PREDICTED BY IDOCK:   -4.06 KCAL/MOL
REMARK 922        TOTAL FREE ENERGY PREDICTED BY IDOCK:   -4.35 KCAL/MOL
REMARK 923 INTER-LIGAND FREE ENERGY PREDICTED BY IDOCK:   -4.30 KCAL/MOL
REMARK 924 INTRA-LIGAND FREE ENERGY PREDICTED BY IDOCK:   -0.05 KCAL/MOL
REMARK 927      BINDING AFFINITY PREDICTED BY RF-SCORE:    0.00 PKD
ROOT
HETATM    1  O   UNL     1     -14.156   8.867  73.383  1.00  0.00    -1.256 OA 
HETATM    2  C   UNL     1     -14.218   8.637  71.979  1.00  0.00    -0.443 C  
HETATM    3  H   UNL     1     -14.937   8.566  73.830  1.00  0.00     0.000 HD 
ENDROOT
BRANCH   2   4
HETATM    4  C   UNL     1     -12.975   9.117  71.268  1.00  0.00    -0.307 A  
HETATM    5  C   UNL     1     -11.907   8.236  71.015  1.00  0.00    -0.255 A  
HETATM    6 CL   UNL     1     -11.973   6.576  71.496  1.00  0.00    -0.387 Cl 
HETATM    7  C   UNL     1     -10.750   8.674  70.364  1.00  0.00    -0.248 A  
HETATM    8  C   UNL     1     -10.650  10.000  69.956  1.00  0.00    -0.293 A  
HETATM    9  C   UNL     1     -11.692  10.891  70.191  1.00  0.00    -0.433 A  
HETATM   10 CL   UNL     1      -9.225  10.544  69.159  1.00  0.00    -0.194 Cl 
HETATM   11  C   UNL     1     -12.848  10.450  70.842  1.00  0.00    -0.482 A  
ENDBRANCH   2   4
TORSDOF 1
ENDMDL
MODEL       23
REMARK 921   NORMALIZED FREE ENERGY PREDICTED BY IDOCK:   -4.06 KCAL/MOL
REMARK 922        TOTAL FREE ENERGY PREDICTED BY IDOCK:   -4.34 KCAL/MOL
REMARK 923 INTER-LIGAND FREE ENERGY PREDICTED BY IDOCK:   -4.35 KCAL/MOL
REMARK 924 INTRA-LIGAND FREE ENERGY PREDICTED BY IDOCK:    0.01 KCAL/MOL
REMARK 927      BINDING AFFINITY PREDICTED BY RF-SCORE:    0.00 PKD
ROOT
HETATM    1  O   UNL     1     -11.457  16.652  64.178  1.00  0.00    -1.375 OA 
HETATM    2  C   UNL     1     -10.672  15.666  64.840  1.00  0.00    -0.382 C  
HETATM    3  H   UNL     1     -11.262  16.702  63.250  1.00  0.00     0.000 HD 
ENDROOT
BRANCH   2   4
HETATM    4  C   UNL     1     -10.983  15.586  66.316  1.00  0.00    -0.242 A  
HETATM    5  C   UNL     1     -10.605  16.625  67.187  1.00  0.00    -0.264 A  
HETATM    6 CL   UNL     1      -9.780  18.031  66.610  1.00  0.00    -0.317 Cl 
HETATM    7  C   UNL     1     -10.883  16.555  68.555  1.00  0.00    -0.349 A  
HETATM    8  C   UNL     1     -11.545  15.445  69.068  1.00  0.00    -0.347 A  
HETATM    9  C   UNL     1     -11.934  14.405  68.228  1.00  0.00    -0.323 A  
HETATM   10 CL   UNL     1     -11.884  15.353  70.753  1.00  0.00    -0.348 Cl 
HETATM   11  C   UNL     1     -11.655  14.478  66.860  1.00  0.00    -0.399 A  
ENDBRANCH   2   4
TORSDOF 1
ENDMDL
MODEL       24
REMARK 921   NORMALIZED FREE ENERGY PREDICTED BY IDOCK:   -4.04 KCAL/MOL
REMARK 922        TOTAL FREE ENERGY PREDICTED BY IDOCK:   -4.33 KCAL/MOL
REMARK 923 INTER-LIGAND FREE ENERGY PREDICTED BY IDOCK:   -4.28 KCAL/MOL
REMARK 924 INTRA-LIGAND FREE ENERGY PREDICTED BY IDOCK:   -0.04 KCAL/MOL
REMARK 927      BINDING AFFINITY PREDICTED BY RF-SCORE:    0.00 PKD
ROOT
HETATM    1  O   UNL     1     -10.738  12.907  68.762  1.00  0.00    -0.247 OA 
HETATM    2  C   UNL     1     -11.839  13.807  68.851  1.00  0.00    -0.360 C  
HETATM    3  H   UNL     1     -10.610  12.584  67.879  1.00  0.00     0.000 HD 
ENDROOT
BRANCH   2   4
HETATM    4  C   UNL     1     -12.043  14.321  70.255  1.00  0.00    -0.403 A  
HETATM    5  C   UNL     1     -11.500  15.557  70.654  1.00  0.00    -0.358 A  
HETATM    6 CL   UNL     1     -10.588  16.537  69.559  1.00  0.00    -0.322 Cl 
HETATM    7  C   UNL     1     -11.678  16.036  71.955  1.00  0.00    -0.588 A  
HETATM    8  C   UNL     1     -12.404  15.284  72.873  1.00  0.00    -0.408 A  
HETATM    9  C   UNL     1     -12.955  14.061  72.504  1.00  0.00    -0.480 A  
HETATM   10 CL   UNL     1     -12.620  15.869  74.477  1.00  0.00    -0.691 Cl 
HETATM   11  C   UNL     1     -12.775  13.585  71.202  1.00  0.00    -0.425 A  
ENDBRANCH   2   4
TORSDOF 1
ENDMDL
MODEL       25
REMARK 921   NORMALIZED FREE ENERGY PREDICTED BY IDOCK:   -4.03 KCAL/MOL
REMARK 922        TOTAL FREE ENERGY PREDICTED BY IDOCK:   -4.32 KCAL/MOL
REMARK 923 INTER-LIGAND FREE ENERGY PREDICTED BY IDOCK:   -4.29 KCAL/MOL
REMARK 924 INTRA-LIGAND FREE ENERGY PREDICTED BY IDOCK:   -0.03 KCAL/MOL
REMARK 927      BINDING AFFINITY PREDICTED BY RF-SCORE:    0.00 PKD
ROOT
HETATM    1  O   UNL     1     -14.229  15.604  70.713  1.00  0.00    -0.809 OA 
HETATM    2  C   UNL     1     -12.821  15.401  70.766  1.00  0.00    -0.466 C  
HETATM    3  H   UNL     1     -14.491  16.413  71.136  1.00  0.00     0.000 HD 
ENDROOT
BRANCH   2   4
HETATM    4  C   UNL     1     -12.405  14.114  70.094  1.00  0.00    -0.413 A  
HETATM    5  C   UNL     1     -12.608  12.874  70.727  1.00  0.00    -0.232 A  
HETATM    6 CL   UNL     1     -13.344  12.768  72.289  1.00  0.00    -0.621 Cl 
HETATM    7  C   UNL     1     -12.219  11.680  70.114  1.00  0.00    -0.367 A  
HETATM    8  C   UNL     1     -11.624  11.712  68.858  1.00  0.00    -0.314 A  
HETATM    9  C   UNL     1     -11.415  12.924  68.208  1.00  0.00    -0.348 A  
HETATM   10 CL   UNL     1     -11.139  10.243  68.103  1.00  0.00    -0.331 Cl 
HETATM   11  C   UNL     1     -11.805  14.117  68.823  1.00  0.00    -0.384 A  
ENDBRANCH   2   4
TORSDOF 1
ENDMDL
MODEL       26
REMARK 921   NORMALIZED FREE ENERGY PREDICTED BY IDOCK:   -4.02 KCAL/MOL
REMARK 922        TOTAL FREE ENERGY PREDICTED BY IDOCK:   -4.30 KCAL/MOL
REMARK 923 INTER-LIGAND FREE ENERGY PREDICTED BY IDOCK:   -4.25 KCAL/MOL
REMARK 924 INTRA-LIGAND FREE ENERGY PREDICTED BY IDOCK:   -0.05 KCAL/MOL
REMARK 927      BINDING AFFINITY PREDICTED BY RF-SCORE:    0.00 PKD
ROOT
HETATM    1  O   UNL     1     -12.380  15.018  68.396  1.00  0.00    -0.576 OA 
HETATM    2  C   UNL     1     -11.387  14.425  69.226  1.00  0.00    -0.284 C  
HETATM    3  H   UNL     1     -12.047  15.771  67.922  1.00  0.00     0.000 HD 
ENDROOT
BRANCH   2   4
HETATM    4  C   UNL     1     -11.915  13.228  69.981  1.00  0.00    -0.399 A  
HETATM    5  C   UNL     1     -12.662  13.396  71.161  1.00  0.00    -0.328 A  
HETATM    6 CL   UNL     1     -13.012  14.968  71.793  1.00  0.00    -0.391 Cl 
HETATM    7  C   UNL     1     -13.148  12.293  71.869  1.00  0.00    -0.469 A  
HETATM    8  C   UNL     1     -12.894  11.008  71.402  1.00  0.00    -0.443 A  
HETATM    9  C   UNL     1     -12.162  10.814  70.235  1.00  0.00    -0.431 A  
HETATM   10 CL   UNL     1     -13.487   9.648  72.274  1.00  0.00    -0.518 Cl 
HETATM   11  C   UNL     1     -11.677  11.919  69.529  1.00  0.00    -0.410 A  
ENDBRANCH   2   4
TORSDOF 1
ENDMDL
MODEL       27
REMARK 921   NORMALIZED FREE ENERGY PREDICTED BY IDOCK:   -3.97 KCAL/MOL
REMARK 922        TOTAL FREE ENERGY PREDICTED BY IDOCK:   -4.24 KCAL/MOL
REMARK 923 INTER-LIGAND FREE ENERGY PREDICTED BY IDOCK:   -4.21 KCAL/MOL
REMARK 924 INTRA-LIGAND FREE ENERGY PREDICTED BY IDOCK:   -0.03 KCAL/MOL
REMARK 927      BINDING AFFINITY PREDICTED BY RF-SCORE:    0.00 PKD
ROOT
HETATM    1  O   UNL     1     -14.375  13.585  72.543  1.00  0.00    -0.713 OA 
HETATM    2  C   UNL     1     -13.070  13.181  72.141  1.00  0.00    -0.378 C  
HETATM    3  H   UNL     1     -14.772  12.967  73.144  1.00  0.00     0.000 HD 
ENDROOT
BRANCH   2   4
HETATM    4  C   UNL     1     -12.438  14.164  71.185  1.00  0.00    -0.445 A  
HETATM    5  C   UNL     1     -11.910  15.382  71.651  1.00  0.00    -0.401 A  
HETATM    6 CL   UNL     1     -11.954  15.802  73.328  1.00  0.00    -0.562 Cl 
HETATM    7  C   UNL     1     -11.331  16.301  70.770  1.00  0.00    -0.327 A  
HETATM    8  C   UNL     1     -11.271  16.009  69.412  1.00  0.00    -0.349 A  
HETATM    9  C   UNL     1     -11.782  14.810  68.925  1.00  0.00    -0.340 A  
HETATM   10 CL   UNL     1     -10.563  17.140  68.324  1.00  0.00    -0.366 Cl 
HETATM   11  C   UNL     1     -12.361  13.894  69.808  1.00  0.00    -0.330 A  
ENDBRANCH   2   4
TORSDOF 1
ENDMDL
MODEL       28
REMARK 921   NORMALIZED FREE ENERGY PREDICTED BY IDOCK:   -3.92 KCAL/MOL
REMARK 922        TOTAL FREE ENERGY PREDICTED BY IDOCK:   -4.20 KCAL/MOL
REMARK 923 INTER-LIGAND FREE ENERGY PREDICTED BY IDOCK:   -4.18 KCAL/MOL
REMARK 924 INTRA-LIGAND FREE ENERGY PREDICTED BY IDOCK:   -0.02 KCAL/MOL
REMARK 927      BINDING AFFINITY PREDICTED BY RF-SCORE:    0.00 PKD
ROOT
HETATM    1  O   UNL     1     -13.603   9.227  70.922  1.00  0.00    -0.583 OA 
HETATM    2  C   UNL     1     -12.959  10.257  71.666  1.00  0.00    -0.465 C  
HETATM    3  H   UNL     1     -13.909   8.521  71.478  1.00  0.00     0.000 HD 
ENDROOT
BRANCH   2   4
HETATM    4  C   UNL     1     -12.473  11.379  70.781  1.00  0.00    -0.460 A  
HETATM    5  C   UNL     1     -12.743  12.721  71.108  1.00  0.00    -0.263 A  
HETATM    6 CL   UNL     1     -13.633  13.141  72.531  1.00  0.00    -0.665 Cl 
HETATM    7  C   UNL     1     -12.303  13.765  70.290  1.00  0.00    -0.407 A  
HETATM    8  C   UNL     1     -11.583  13.479  69.135  1.00  0.00    -0.310 A  
HETATM    9  C   UNL     1     -11.298  12.161  68.791  1.00  0.00    -0.339 A  
HETATM   10 CL   UNL     1     -11.043  14.762  68.123  1.00  0.00    -0.273 Cl 
HETATM   11  C   UNL     1     -11.740  11.119  69.611  1.00  0.00    -0.410 A  
ENDBRANCH   2   4
TORSDOF 1
ENDMDL
MODEL       29
REMARK 921   NORMALIZED FREE ENERGY PREDICTED BY IDOCK:   -3.92 KCAL/MOL
REMARK 922        TOTAL FREE ENERGY PREDICTED BY IDOCK:   -4.20 KCAL/MOL
REMARK 923 INTER-LIGAND FREE ENERGY PREDICTED BY IDOCK:   -4.17 KCAL/MOL
REMARK 924 INTRA-LIGAND FREE ENERGY PREDICTED BY IDOCK:   -0.02 KCAL/MOL
REMARK 927      BINDING AFFINITY PREDICTED BY RF-SCORE:    0.00 PKD
ROOT
HETATM    1  O   UNL     1     -11.675  16.410  63.702  1.00  0.00    -1.520 OA 
HETATM    2  C   UNL     1     -11.924  15.270  64.519  1.00  0.00    -0.271 C  
HETATM    3  H   UNL     1     -12.380  16.571  63.087  1.00  0.00     0.000 HD 
ENDROOT
BRANCH   2   4
HETATM    4  C   UNL     1     -10.803  15.013  65.497  1.00  0.00    -0.360 A  
HETATM    5  C   UNL     1     -10.749  13.813  66.228  1.00  0.00    -0.285 A  
HETATM    6 CL   UNL     1     -11.949  12.583  66.035  1.00  0.00    -0.479 Cl 
HETATM    7  C   UNL     1      -9.718  13.571  67.141  1.00  0.00    -0.244 A  
HETATM    8  C   UNL     1      -8.728  14.529  67.331  1.00  0.00    -0.199 A  
HETATM    9  C   UNL     1      -8.756  15.723  66.619  1.00  0.00    -0.323 A  
HETATM   10 CL   UNL     1      -7.460  14.237  68.459  1.00  0.00    -0.113 Cl 
HETATM   11  C   UNL     1      -9.788  15.962  65.706  1.00  0.00    -0.380 A  
ENDBRANCH   2   4
TORSDOF 1
ENDMDL
MODEL       30
REMARK 921   NORMALIZED FREE ENERGY PREDICTED BY IDOCK:   -3.92 KCAL/MOL
REMARK 922        TOTAL FREE ENERGY PREDICTED BY IDOCK:   -4.20 KCAL/MOL
REMARK 923 INTER-LIGAND FREE ENERGY PREDICTED BY IDOCK:   -4.15 KCAL/MOL
REMARK 924 INTRA-LIGAND FREE ENERGY PREDICTED BY IDOCK:   -0.05 KCAL/MOL
REMARK 927      BINDING AFFINITY PREDICTED BY RF-SCORE:    0.00 PKD
ROOT
HETATM    1  O   UNL     1     -11.136  14.570  70.508  1.00  0.00    -0.484 OA 
HETATM    2  C   UNL     1     -12.129  13.804  69.834  1.00  0.00    -0.348 C  
HETATM    3  H   UNL     1     -11.061  15.449  70.157  1.00  0.00     0.000 HD 
ENDROOT
BRANCH   2   4
HETATM    4  C   UNL     1     -12.248  12.406  70.392  1.00  0.00    -0.370 A  
HETATM    5  C   UNL     1     -13.022  12.154  71.540  1.00  0.00    -0.295 A  
HETATM    6 CL   UNL     1     -13.872  13.422  72.352  1.00  0.00    -0.693 Cl 
HETATM    7  C   UNL     1     -13.130  10.863  72.067  1.00  0.00    -0.462 A  
HETATM    8  C   UNL     1     -12.465   9.809  71.449  1.00  0.00    -0.387 A  
HETATM    9  C   UNL     1     -11.696  10.031  70.311  1.00  0.00    -0.327 A  
HETATM   10 CL   UNL     1     -12.592   8.220  72.098  1.00  0.00    -0.373 Cl 
HETATM   11  C   UNL     1     -11.590  11.322  69.786  1.00  0.00    -0.408 A  
ENDBRANCH   2   4
TORSDOF 1
ENDMDL
MODEL       31
REMARK 921   NORMALIZED FREE ENERGY PREDICTED BY IDOCK:   -3.86 KCAL/MOL
REMARK 922        TOTAL FREE ENERGY PREDICTED BY IDOCK:   -4.13 KCAL/MOL
REMARK 923 INTER-LIGAND FREE ENERGY PREDICTED BY IDOCK:   -4.10 KCAL/MOL
REMARK 924 INTRA-LIGAND FREE ENERGY PREDICTED BY IDOCK:   -0.02 KCAL/MOL
REMARK 927      BINDING AFFINITY PREDICTED BY RF-SCORE:    0.00 PKD
ROOT
HETATM    1  O   UNL     1     -13.482  15.521  70.357  1.00  0.00    -0.791 OA 
HETATM    2  C   UNL     1     -12.077  15.605  70.136  1.00  0.00    -0.377 C  
HETATM    3  H   UNL     1     -13.723  15.792  71.235  1.00  0.00     0.000 HD 
ENDROOT
BRANCH   2   4
HETATM    4  C   UNL     1     -11.694  15.173  68.741  1.00  0.00    -0.366 A  
HETATM    5  C   UNL     1     -10.992  16.043  67.886  1.00  0.00    -0.327 A  
HETATM    6 CL   UNL     1     -10.534  17.631  68.394  1.00  0.00    -0.372 Cl 
HETATM    7  C   UNL     1     -10.641  15.652  66.591  1.00  0.00    -0.307 A  
HETATM    8  C   UNL     1     -10.986  14.384  66.136  1.00  0.00    -0.320 A  
HETATM    9  C   UNL     1     -11.676  13.503  66.961  1.00  0.00    -0.424 A  
HETATM   10 CL   UNL     1     -10.559  13.903  64.540  1.00  0.00    -0.428 Cl 
HETATM   11  C   UNL     1     -12.026  13.896  68.256  1.00  0.00    -0.392 A  
ENDBRANCH   2   4
TORSDOF 1
ENDMDL
MODEL       32
REMARK 921   NORMALIZED FREE ENERGY PREDICTED BY IDOCK:   -3.84 KCAL/MOL
REMARK 922        TOTAL FREE ENERGY PREDICTED BY IDOCK:   -4.12 KCAL/MOL
REMARK 923 INTER-LIGAND FREE ENERGY PREDICTED BY IDOCK:   -4.09 KCAL/MOL
REMARK 924 INTRA-LIGAND FREE ENERGY PREDICTED BY IDOCK:   -0.02 KCAL/MOL
REMARK 927      BINDING AFFINITY PREDICTED BY RF-SCORE:    0.00 PKD
ROOT
HETATM    1  O   UNL     1     -12.063  10.468  68.217  1.00  0.00    -0.797 OA 
HETATM    2  C   UNL     1     -11.034  10.655  67.250  1.00  0.00    -0.284 C  
HETATM    3  H   UNL     1     -11.963   9.652  68.692  1.00  0.00     0.000 HD 
ENDROOT
BRANCH   2   4
HETATM    4  C   UNL     1     -11.191  11.953  66.495  1.00  0.00    -0.383 A  
HETATM    5  C   UNL     1     -10.914  12.020  65.117  1.00  0.00    -0.310 A  
HETATM    6 CL   UNL     1     -10.391  10.629  64.233  1.00  0.00    -0.405 Cl 
HETATM    7  C   UNL     1     -11.050  13.220  64.412  1.00  0.00    -0.407 A  
HETATM    8  C   UNL     1     -11.469  14.366  65.078  1.00  0.00    -0.372 A  
HETATM    9  C   UNL     1     -11.754  14.327  66.439  1.00  0.00    -0.403 A  
HETATM   10 CL   UNL     1     -11.633  15.846  64.214  1.00  0.00    -0.322 Cl 
HETATM   11  C   UNL     1     -11.616  13.126  67.141  1.00  0.00    -0.410 A  
ENDBRANCH   2   4
TORSDOF 1
ENDMDL
MODEL       33
REMARK 921   NORMALIZED FREE ENERGY PREDICTED BY IDOCK:   -3.84 KCAL/MOL
REMARK 922        TOTAL FREE ENERGY PREDICTED BY IDOCK:   -4.11 KCAL/MOL
REMARK 923 INTER-LIGAND FREE ENERGY PREDICTED BY IDOCK:   -4.08 KCAL/MOL
REMARK 924 INTRA-LIGAND FREE ENERGY PREDICTED BY IDOCK:   -0.02 KCAL/MOL
REMARK 927      BINDING AFFINITY PREDICTED BY RF-SCORE:    0.00 PKD
ROOT
HETATM    1  O   UNL     1     -12.524  14.805  69.261  1.00  0.00    -0.562 OA 
HETATM    2  C   UNL     1     -11.648  15.405  68.313  1.00  0.00    -0.348 C  
HETATM    3  H   UNL     1     -12.628  15.338  70.040  1.00  0.00     0.000 HD 
ENDROOT
BRANCH   2   4
HETATM    4  C   UNL     1     -11.481  14.557  67.075  1.00  0.00    -0.383 A  
HETATM    5  C   UNL     1     -10.677  14.996  66.006  1.00  0.00    -0.326 A  
HETATM    6 CL   UNL     1      -9.844  16.511  66.066  1.00  0.00    -0.346 Cl 
HETATM    7  C   UNL     1     -10.525  14.220  64.853  1.00  0.00    -0.454 A  
HETATM    8  C   UNL     1     -11.173  12.994  64.758  1.00  0.00    -0.317 A  
HETATM    9  C   UNL     1     -11.971  12.535  65.801  1.00  0.00    -0.482 A  
HETATM   10 CL   UNL     1     -10.992  12.038  63.337  1.00  0.00    -0.477 Cl 
HETATM   11  C   UNL     1     -12.122  13.313  66.952  1.00  0.00    -0.389 A  
ENDBRANCH   2   4
TORSDOF 1
ENDMDL
MODEL       34
REMARK 921   NORMALIZED FREE ENERGY PREDICTED BY IDOCK:   -3.81 KCAL/MOL
REMARK 922        TOTAL FREE ENERGY PREDICTED BY IDOCK:   -4.08 KCAL/MOL
REMARK 923 INTER-LIGAND FREE ENERGY PREDICTED BY IDOCK:   -4.06 KCAL/MOL
REMARK 924 INTRA-LIGAND FREE ENERGY PREDICTED BY IDOCK:   -0.03 KCAL/MOL
REMARK 927      BINDING AFFINITY PREDICTED BY RF-SCORE:    0.00 PKD
ROOT
HETATM    1  O   UNL     1     -12.859  10.365  69.669  1.00  0.00    -0.633 OA 
HETATM    2  C   UNL     1     -11.847  11.356  69.811  1.00  0.00    -0.364 C  
HETATM    3  H   UNL     1     -12.929   9.812  70.438  1.00  0.00     0.000 HD 
ENDROOT
BRANCH   2   4
HETATM    4  C   UNL     1     -11.734  12.235  68.589  1.00  0.00    -0.377 A  
HETATM    5  C   UNL     1     -11.954  13.622  68.678  1.00  0.00    -0.360 A  
HETATM    6 CL   UNL     1     -12.353  14.377  70.182  1.00  0.00    -0.392 Cl 
HETATM    7  C   UNL     1     -11.860  14.441  67.549  1.00  0.00    -0.418 A  
HETATM    8  C   UNL     1     -11.541  13.881  66.317  1.00  0.00    -0.365 A  
HETATM    9  C   UNL     1     -11.315  12.513  66.201  1.00  0.00    -0.388 A  
HETATM   10 CL   UNL     1     -11.429  14.886  64.924  1.00  0.00    -0.395 Cl 
HETATM   11  C   UNL     1     -11.410  11.697  67.332  1.00  0.00    -0.367 A  
ENDBRANCH   2   4
TORSDOF 1
ENDMDL
MODEL       35
REMARK 921   NORMALIZED FREE ENERGY PREDICTED BY IDOCK:   -3.80 KCAL/MOL
REMARK 922        TOTAL FREE ENERGY PREDICTED BY IDOCK:   -4.07 KCAL/MOL
REMARK 923 INTER-LIGAND FREE ENERGY PREDICTED BY IDOCK:   -4.03 KCAL/MOL
REMARK 924 INTRA-LIGAND FREE ENERGY PREDICTED BY IDOCK:   -0.04 KCAL/MOL
REMARK 927      BINDING AFFINITY PREDICTED BY RF-SCORE:    0.00 PKD
ROOT
HETATM    1  O   UNL     1     -12.388  15.008  68.370  1.00  0.00    -0.576 OA 
HETATM    2  C   UNL     1     -11.367  14.364  69.126  1.00  0.00    -0.277 C  
HETATM    3  H   UNL     1     -12.063  15.768  67.903  1.00  0.00     0.000 HD 
ENDROOT
BRANCH   2   4
HETATM    4  C   UNL     1     -11.884  13.155  69.869  1.00  0.00    -0.378 A  
HETATM    5  C   UNL     1     -11.677  11.859  69.364  1.00  0.00    -0.339 A  
HETATM    6 CL   UNL     1     -10.821  11.592  67.884  1.00  0.00    -0.237 Cl 
HETATM    7  C   UNL     1     -12.159  10.735  70.042  1.00  0.00    -0.423 A  
HETATM    8  C   UNL     1     -12.853  10.897  71.236  1.00  0.00    -0.433 A  
HETATM    9  C   UNL     1     -13.068  12.168  71.760  1.00  0.00    -0.457 A  
HETATM   10 CL   UNL     1     -13.452   9.517  72.071  1.00  0.00    -0.497 Cl 
HETATM   11  C   UNL     1     -12.584  13.289  71.080  1.00  0.00    -0.408 A  
ENDBRANCH   2   4
TORSDOF 1
ENDMDL
MODEL       36
REMARK 921   NORMALIZED FREE ENERGY PREDICTED BY IDOCK:   -3.79 KCAL/MOL
REMARK 922        TOTAL FREE ENERGY PREDICTED BY IDOCK:   -4.05 KCAL/MOL
REMARK 923 INTER-LIGAND FREE ENERGY PREDICTED BY IDOCK:   -4.03 KCAL/MOL
REMARK 924 INTRA-LIGAND FREE ENERGY PREDICTED BY IDOCK:   -0.02 KCAL/MOL
REMARK 927      BINDING AFFINITY PREDICTED BY RF-SCORE:    0.00 PKD
ROOT
HETATM    1  O   UNL     1     -13.607  14.658  73.137  1.00  0.00    -0.569 OA 
HETATM    2  C   UNL     1     -13.643  13.421  72.433  1.00  0.00    -0.606 C  
HETATM    3  H   UNL     1     -14.109  14.626  73.943  1.00  0.00     0.000 HD 
ENDROOT
BRANCH   2   4
HETATM    4  C   UNL     1     -12.846  13.472  71.151  1.00  0.00    -0.387 A  
HETATM    5  C   UNL     1     -12.377  12.290  70.549  1.00  0.00    -0.264 A  
HETATM    6 CL   UNL     1     -12.696  10.737  71.241  1.00  0.00    -0.510 Cl 
HETATM    7  C   UNL     1     -11.632  12.330  69.367  1.00  0.00    -0.378 A  
HETATM    8  C   UNL     1     -11.350  13.555  68.772  1.00  0.00    -0.290 A  
HETATM    9  C   UNL     1     -11.805  14.738  69.344  1.00  0.00    -0.360 A  
HETATM   10 CL   UNL     1     -10.429  13.608  67.319  1.00  0.00    -0.258 Cl 
HETATM   11  C   UNL     1     -12.550  14.695  70.526  1.00  0.00    -0.409 A  
ENDBRANCH   2   4
TORSDOF 1
ENDMDL
MODEL       37
REMARK 921   NORMALIZED FREE ENERGY PREDICTED BY IDOCK:   -3.77 KCAL/MOL
REMARK 922        TOTAL FREE ENERGY PREDICTED BY IDOCK:   -4.03 KCAL/MOL
REMARK 923 INTER-LIGAND FREE ENERGY PREDICTED BY IDOCK:   -3.99 KCAL/MOL
REMARK 924 INTRA-LIGAND FREE ENERGY PREDICTED BY IDOCK:   -0.05 KCAL/MOL
REMARK 927      BINDING AFFINITY PREDICTED BY RF-SCORE:    0.00 PKD
ROOT
HETATM    1  O   UNL     1     -12.360  14.394  67.748  1.00  0.00    -0.620 OA 
HETATM    2  C   UNL     1     -10.976  14.662  67.548  1.00  0.00    -0.298 C  
HETATM    3  H   UNL     1     -12.543  13.463  67.786  1.00  0.00     0.000 HD 
ENDROOT
BRANCH   2   4
HETATM    4  C   UNL     1     -10.685  16.142  67.489  1.00  0.00    -0.304 A  
HETATM    5  C   UNL     1     -10.652  16.819  66.256  1.00  0.00    -0.190 A  
HETATM    6 CL   UNL     1     -10.949  15.994  64.765  1.00  0.00    -0.456 Cl 
HETATM    7  C   UNL     1     -10.376  18.188  66.192  1.00  0.00    -0.394 A  
HETATM    8  C   UNL     1     -10.131  18.896  67.364  1.00  0.00    -0.361 A  
HETATM    9  C   UNL     1     -10.161  18.252  68.596  1.00  0.00    -0.407 A  
HETATM   10 CL   UNL     1      -9.785  20.581  67.288  1.00  0.00    -0.605 Cl 
HETATM   11  C   UNL     1     -10.437  16.883  68.657  1.00  0.00    -0.352 A  
ENDBRANCH   2   4
TORSDOF 1
ENDMDL
MODEL       38
REMARK 921   NORMALIZED FREE ENERGY PREDICTED BY IDOCK:   -3.76 KCAL/MOL
REMARK 922        TOTAL FREE ENERGY PREDICTED BY IDOCK:   -4.03 KCAL/MOL
REMARK 923 INTER-LIGAND FREE ENERGY PREDICTED BY IDOCK:   -4.02 KCAL/MOL
REMARK 924 INTRA-LIGAND FREE ENERGY PREDICTED BY IDOCK:   -0.01 KCAL/MOL
REMARK 927      BINDING AFFINITY PREDICTED BY RF-SCORE:    0.00 PKD
ROOT
HETATM    1  O   UNL     1     -13.630   9.642  70.703  1.00  0.00    -0.599 OA 
HETATM    2  C   UNL     1     -12.608  10.384  71.360  1.00  0.00    -0.434 C  
HETATM    3  H   UNL     1     -13.754   8.783  71.089  1.00  0.00     0.000 HD 
ENDROOT
BRANCH   2   4
HETATM    4  C   UNL     1     -12.411  11.749  70.746  1.00  0.00    -0.433 A  
HETATM    5  C   UNL     1     -11.803  11.889  69.484  1.00  0.00    -0.331 A  
HETATM    6 CL   UNL     1     -11.266  10.513  68.584  1.00  0.00    -0.319 Cl 
HETATM    7  C   UNL     1     -11.611  13.150  68.913  1.00  0.00    -0.354 A  
HETATM    8  C   UNL     1     -12.026  14.287  69.597  1.00  0.00    -0.336 A  
HETATM    9  C   UNL     1     -12.633  14.177  70.844  1.00  0.00    -0.433 A  
HETATM   10 CL   UNL     1     -11.786  15.842  68.898  1.00  0.00    -0.407 Cl 
HETATM   11  C   UNL     1     -12.824  12.915  71.413  1.00  0.00    -0.377 A  
ENDBRANCH   2   4
TORSDOF 1
ENDMDL
MODEL       39
REMARK 921   NORMALIZED FREE ENERGY PREDICTED BY IDOCK:   -3.74 KCAL/MOL
REMARK 922        TOTAL FREE ENERGY PREDICTED BY IDOCK:   -4.00 KCAL/MOL
REMARK 923 INTER-LIGAND FREE ENERGY PREDICTED BY IDOCK:   -3.97 KCAL/MOL
REMARK 924 INTRA-LIGAND FREE ENERGY PREDICTED BY IDOCK:   -0.03 KCAL/MOL
REMARK 927      BINDING AFFINITY PREDICTED BY RF-SCORE:    0.00 PKD
ROOT
HETATM    1  O   UNL     1     -13.223   9.993  70.660  1.00  0.00    -0.588 OA 
HETATM    2  C   UNL     1     -12.043  10.785  70.748  1.00  0.00    -0.372 C  
HETATM    3  H   UNL     1     -13.330   9.425  71.414  1.00  0.00     0.000 HD 
ENDROOT
BRANCH   2   4
HETATM    4  C   UNL     1     -11.871  11.687  69.550  1.00  0.00    -0.414 A  
HETATM    5  C   UNL     1     -12.015  13.081  69.673  1.00  0.00    -0.302 A  
HETATM    6 CL   UNL     1     -12.383  13.819  71.194  1.00  0.00    -0.442 Cl 
HETATM    7  C   UNL     1     -11.865  13.922  68.567  1.00  0.00    -0.401 A  
HETATM    8  C   UNL     1     -11.568  13.377  67.322  1.00  0.00    -0.360 A  
HETATM    9  C   UNL     1     -11.417  12.002  67.173  1.00  0.00    -0.401 A  
HETATM   10 CL   UNL     1     -11.388  14.409  65.957  1.00  0.00    -0.330 Cl 
HETATM   11  C   UNL     1     -11.567  11.163  68.281  1.00  0.00    -0.359 A  
ENDBRANCH   2   4
TORSDOF 1
ENDMDL
MODEL       40
REMARK 921   NORMALIZED FREE ENERGY PREDICTED BY IDOCK:   -3.73 KCAL/MOL
REMARK 922        TOTAL FREE ENERGY PREDICTED BY IDOCK:   -4.00 KCAL/MOL
REMARK 923 INTER-LIGAND FREE ENERGY PREDICTED BY IDOCK:   -3.97 KCAL/MOL
REMARK 924 INTRA-LIGAND FREE ENERGY PREDICTED BY IDOCK:   -0.02 KCAL/MOL
REMARK 927      BINDING AFFINITY PREDICTED BY RF-SCORE:    0.00 PKD
ROOT
HETATM    1  O   UNL     1     -14.136   8.933  73.240  1.00  0.00    -1.211 OA 
HETATM    2  C   UNL     1     -13.167   9.545  72.396  1.00  0.00    -0.368 C  
HETATM    3  H   UNL     1     -14.649   9.573  73.719  1.00  0.00     0.000 HD 
ENDROOT
BRANCH   2   4
HETATM    4  C   UNL     1     -12.351   8.527  71.635  1.00  0.00    -0.371 A  
HETATM    5  C   UNL     1     -11.485   8.928  70.601  1.00  0.00    -0.242 A  
HETATM    6 CL   UNL     1     -11.312  10.592  70.163  1.00  0.00    -0.380 Cl 
HETATM    7  C   UNL     1     -10.732   7.991  69.887  1.00  0.00    -0.242 A  
HETATM    8  C   UNL     1     -10.836   6.640  70.202  1.00  0.00    -0.279 A  
HETATM    9  C   UNL     1     -11.681   6.217  71.223  1.00  0.00    -0.300 A  
HETATM   10 CL   UNL     1      -9.914   5.483  69.322  1.00  0.00    -0.238 Cl 
HETATM   11  C   UNL     1     -12.433   7.157  71.935  1.00  0.00    -0.341 A  
ENDBRANCH   2   4
TORSDOF 1
ENDMDL
MODEL       41
REMARK 921   NORMALIZED FREE ENERGY PREDICTED BY IDOCK:   -3.71 KCAL/MOL
REMARK 922        TOTAL FREE ENERGY PREDICTED BY IDOCK:   -3.97 KCAL/MOL
REMARK 923 INTER-LIGAND FREE ENERGY PREDICTED BY IDOCK:   -3.93 KCAL/MOL
REMARK 924 INTRA-LIGAND FREE ENERGY PREDICTED BY IDOCK:   -0.04 KCAL/MOL
REMARK 927      BINDING AFFINITY PREDICTED BY RF-SCORE:    0.00 PKD
ROOT
HETATM    1  O   UNL     1     -12.955  12.383  64.968  1.00  0.00    -0.705 OA 
HETATM    2  C   UNL     1     -11.673  12.650  65.527  1.00  0.00    -0.402 C  
HETATM    3  H   UNL     1     -12.903  12.142  64.050  1.00  0.00     0.000 HD 
ENDROOT
BRANCH   2   4
HETATM    4  C   UNL     1     -11.757  13.033  66.985  1.00  0.00    -0.441 A  
HETATM    5  C   UNL     1     -11.592  12.065  67.993  1.00  0.00    -0.342 A  
HETATM    6 CL   UNL     1     -11.282  10.407  67.610  1.00  0.00    -0.361 Cl 
HETATM    7  C   UNL     1     -11.676  12.410  69.345  1.00  0.00    -0.384 A  
HETATM    8  C   UNL     1     -11.922  13.731  69.704  1.00  0.00    -0.342 A  
HETATM    9  C   UNL     1     -12.085  14.709  68.728  1.00  0.00    -0.237 A  
HETATM   10 CL   UNL     1     -12.031  14.159  71.368  1.00  0.00    -0.304 Cl 
HETATM   11  C   UNL     1     -12.001  14.360  67.377  1.00  0.00    -0.407 A  
ENDBRANCH   2   4
TORSDOF 1
ENDMDL
MODEL       42
REMARK 921   NORMALIZED FREE ENERGY PREDICTED BY IDOCK:   -3.71 KCAL/MOL
REMARK 922        TOTAL FREE ENERGY PREDICTED BY IDOCK:   -3.97 KCAL/MOL
REMARK 923 INTER-LIGAND FREE ENERGY PREDICTED BY IDOCK:   -3.95 KCAL/MOL
REMARK 924 INTRA-LIGAND FREE ENERGY PREDICTED BY IDOCK:   -0.02 KCAL/MOL
REMARK 927      BINDING AFFINITY PREDICTED BY RF-SCORE:    0.00 PKD
ROOT
HETATM    1  O   UNL     1     -12.488  13.960  62.839  1.00  0.00    -1.034 OA 
HETATM    2  C   UNL     1     -12.029  12.786  63.503  1.00  0.00    -0.555 C  
HETATM    3  H   UNL     1     -13.070  13.758  62.117  1.00  0.00     0.000 HD 
ENDROOT
BRANCH   2   4
HETATM    4  C   UNL     1     -11.102  13.106  64.651  1.00  0.00    -0.366 A  
HETATM    5  C   UNL     1     -10.272  12.113  65.202  1.00  0.00    -0.278 A  
HETATM    6 CL   UNL     1     -10.269  10.495  64.588  1.00  0.00    -0.410 Cl 
HETATM    7  C   UNL     1      -9.417  12.399  66.270  1.00  0.00    -0.220 A  
HETATM    8  C   UNL     1      -9.382  13.685  66.799  1.00  0.00    -0.261 A  
HETATM    9  C   UNL     1     -10.190  14.687  66.270  1.00  0.00    -0.302 A  
HETATM   10 CL   UNL     1      -8.334  14.040  68.117  1.00  0.00    -0.154 Cl 
HETATM   11  C   UNL     1     -11.044  14.397  65.202  1.00  0.00    -0.365 A  
ENDBRANCH   2   4
TORSDOF 1
ENDMDL
MODEL       43
REMARK 921   NORMALIZED FREE ENERGY PREDICTED BY IDOCK:   -3.70 KCAL/MOL
REMARK 922        TOTAL FREE ENERGY PREDICTED BY IDOCK:   -3.96 KCAL/MOL
REMARK 923 INTER-LIGAND FREE ENERGY PREDICTED BY IDOCK:   -3.97 KCAL/MOL
REMARK 924 INTRA-LIGAND FREE ENERGY PREDICTED BY IDOCK:    0.01 KCAL/MOL
REMARK 927      BINDING AFFINITY PREDICTED BY RF-SCORE:    0.00 PKD
ROOT
HETATM    1  O   UNL     1     -11.276  11.145  63.021  1.00  0.00    -0.820 OA 
HETATM    2  C   UNL     1     -10.639  12.188  63.753  1.00  0.00    -0.439 C  
HETATM    3  H   UNL     1     -11.059  11.173  62.097  1.00  0.00     0.000 HD 
ENDROOT
BRANCH   2   4
HETATM    4  C   UNL     1     -10.984  12.144  65.223  1.00  0.00    -0.349 A  
HETATM    5  C   UNL     1     -10.496  11.112  66.045  1.00  0.00    -0.256 A  
HETATM    6 CL   UNL     1      -9.480   9.861  65.416  1.00  0.00    -0.295 Cl 
HETATM    7  C   UNL     1     -10.817  11.061  67.405  1.00  0.00    -0.327 A  
HETATM    8  C   UNL     1     -11.629  12.044  67.958  1.00  0.00    -0.342 A  
HETATM    9  C   UNL     1     -12.122  13.078  67.168  1.00  0.00    -0.325 A  
HETATM   10 CL   UNL     1     -12.030  11.981  69.631  1.00  0.00    -0.372 Cl 
HETATM   11  C   UNL     1     -11.800  13.127  65.809  1.00  0.00    -0.442 A  
ENDBRANCH   2   4
TORSDOF 1
ENDMDL
MODEL       44
REMARK 921   NORMALIZED FREE ENERGY PREDICTED BY IDOCK:   -3.69 KCAL/MOL
REMARK 922        TOTAL FREE ENERGY PREDICTED BY IDOCK:   -3.96 KCAL/MOL
REMARK 923 INTER-LIGAND FREE ENERGY PREDICTED BY IDOCK:   -3.97 KCAL/MOL
REMARK 924 INTRA-LIGAND FREE ENERGY PREDICTED BY IDOCK:    0.01 KCAL/MOL
REMARK 927      BINDING AFFINITY PREDICTED BY RF-SCORE:    0.00 PKD
ROOT
HETATM    1  O   UNL     1     -12.568  15.439  69.343  1.00  0.00    -0.596 OA 
HETATM    2  C   UNL     1     -11.316  15.367  68.667  1.00  0.00    -0.330 C  
HETATM    3  H   UNL     1     -12.490  15.847  70.197  1.00  0.00     0.000 HD 
ENDROOT
BRANCH   2   4
HETATM    4  C   UNL     1     -11.439  14.718  67.309  1.00  0.00    -0.378 A  
HETATM    5  C   UNL     1     -11.724  13.345  67.192  1.00  0.00    -0.379 A  
HETATM    6 CL   UNL     1     -11.952  12.348  68.588  1.00  0.00    -0.329 Cl 
HETATM    7  C   UNL     1     -11.831  12.735  65.939  1.00  0.00    -0.490 A  
HETATM    8  C   UNL     1     -11.657  13.494  64.787  1.00  0.00    -0.349 A  
HETATM    9  C   UNL     1     -11.378  14.855  64.874  1.00  0.00    -0.415 A  
HETATM   10 CL   UNL     1     -11.784  12.746  63.242  1.00  0.00    -0.543 Cl 
HETATM   11  C   UNL     1     -11.272  15.461  66.129  1.00  0.00    -0.161 A  
ENDBRANCH   2   4
TORSDOF 1
ENDMDL
MODEL       45
REMARK 921   NORMALIZED FREE ENERGY PREDICTED BY IDOCK:   -3.69 KCAL/MOL
REMARK 922        TOTAL FREE ENERGY PREDICTED BY IDOCK:   -3.95 KCAL/MOL
REMARK 923 INTER-LIGAND FREE ENERGY PREDICTED BY IDOCK:   -3.93 KCAL/MOL
REMARK 924 INTRA-LIGAND FREE ENERGY PREDICTED BY IDOCK:   -0.02 KCAL/MOL
REMARK 927      BINDING AFFINITY PREDICTED BY RF-SCORE:    0.00 PKD
ROOT
HETATM    1  O   UNL     1     -12.460  13.746  63.203  1.00  0.00    -1.089 OA 
HETATM    2  C   UNL     1     -12.295  14.481  64.412  1.00  0.00    -0.413 C  
HETATM    3  H   UNL     1     -12.930  14.243  62.544  1.00  0.00     0.000 HD 
ENDROOT
BRANCH   2   4
HETATM    4  C   UNL     1     -11.547  13.692  65.460  1.00  0.00    -0.337 A  
HETATM    5  C   UNL     1     -10.347  14.181  66.007  1.00  0.00    -0.309 A  
HETATM    6 CL   UNL     1      -9.682  15.700  65.512  1.00  0.00    -0.336 Cl 
HETATM    7  C   UNL     1      -9.645  13.453  66.972  1.00  0.00    -0.244 A  
HETATM    8  C   UNL     1     -10.139  12.227  67.404  1.00  0.00    -0.200 A  
HETATM    9  C   UNL     1     -11.326  11.722  66.882  1.00  0.00    -0.386 A  
HETATM   10 CL   UNL     1      -9.275  11.325  68.588  1.00  0.00    -0.179 Cl 
HETATM   11  C   UNL     1     -12.025  12.452  65.917  1.00  0.00    -0.434 A  
ENDBRANCH   2   4
TORSDOF 1
ENDMDL
MODEL       46
REMARK 921   NORMALIZED FREE ENERGY PREDICTED BY IDOCK:   -3.68 KCAL/MOL
REMARK 922        TOTAL FREE ENERGY PREDICTED BY IDOCK:   -3.94 KCAL/MOL
REMARK 923 INTER-LIGAND FREE ENERGY PREDICTED BY IDOCK:   -3.90 KCAL/MOL
REMARK 924 INTRA-LIGAND FREE ENERGY PREDICTED BY IDOCK:   -0.05 KCAL/MOL
REMARK 927      BINDING AFFINITY PREDICTED BY RF-SCORE:    0.00 PKD
ROOT
HETATM    1  O   UNL     1     -10.140  14.068  69.401  1.00  0.00    -0.420 OA 
HETATM    2  C   UNL     1     -11.423  13.494  69.174  1.00  0.00    -0.295 C  
HETATM    3  H   UNL     1      -9.980  14.236  70.322  1.00  0.00     0.000 HD 
ENDROOT
BRANCH   2   4
HETATM    4  C   UNL     1     -11.678  13.229  67.710  1.00  0.00    -0.398 A  
HETATM    5  C   UNL     1     -11.310  12.002  67.128  1.00  0.00    -0.333 A  
HETATM    6 CL   UNL     1     -10.561  10.750  68.057  1.00  0.00    -0.223 Cl 
HETATM    7  C   UNL     1     -11.535  11.752  65.771  1.00  0.00    -0.258 A  
HETATM    8  C   UNL     1     -12.135  12.727  64.981  1.00  0.00    -0.441 A  
HETATM    9  C   UNL     1     -12.512  13.947  65.533  1.00  0.00    -0.541 A  
HETATM   10 CL   UNL     1     -12.409  12.424  63.309  1.00  0.00    -0.586 Cl 
HETATM   11  C   UNL     1     -12.286  14.194  66.890  1.00  0.00    -0.400 A  
ENDBRANCH   2   4
TORSDOF 1
ENDMDL
MODEL       47
REMARK 921   NORMALIZED FREE ENERGY PREDICTED BY IDOCK:   -3.68 KCAL/MOL
REMARK 922        TOTAL FREE ENERGY PREDICTED BY IDOCK:   -3.94 KCAL/MOL
REMARK 923 INTER-LIGAND FREE ENERGY PREDICTED BY IDOCK:   -3.92 KCAL/MOL
REMARK 924 INTRA-LIGAND FREE ENERGY PREDICTED BY IDOCK:   -0.02 KCAL/MOL
REMARK 927      BINDING AFFINITY PREDICTED BY RF-SCORE:    0.00 PKD
ROOT
HETATM    1  O   UNL     1     -12.298  14.360  67.576  1.00  0.00    -0.621 OA 
HETATM    2  C   UNL     1     -12.386  13.842  66.252  1.00  0.00    -0.449 C  
HETATM    3  H   UNL     1     -12.835  15.134  67.694  1.00  0.00     0.000 HD 
ENDROOT
BRANCH   2   4
HETATM    4  C   UNL     1     -11.532  12.612  66.064  1.00  0.00    -0.414 A  
HETATM    5  C   UNL     1     -11.279  12.103  64.776  1.00  0.00    -0.323 A  
HETATM    6 CL   UNL     1     -11.924  12.863  63.363  1.00  0.00    -0.624 Cl 
HETATM    7  C   UNL     1     -10.496  10.960  64.594  1.00  0.00    -0.384 A  
HETATM    8  C   UNL     1      -9.954  10.313  65.700  1.00  0.00    -0.280 A  
HETATM    9  C   UNL     1     -10.185  10.797  66.983  1.00  0.00    -0.261 A  
HETATM   10 CL   UNL     1      -8.993   8.902  65.480  1.00  0.00    -0.242 Cl 
HETATM   11  C   UNL     1     -10.969  11.940  67.162  1.00  0.00    -0.319 A  
ENDBRANCH   2   4
TORSDOF 1
ENDMDL
MODEL       48
REMARK 921   NORMALIZED FREE ENERGY PREDICTED BY IDOCK:   -3.67 KCAL/MOL
REMARK 922        TOTAL FREE ENERGY PREDICTED BY IDOCK:   -3.93 KCAL/MOL
REMARK 923 INTER-LIGAND FREE ENERGY PREDICTED BY IDOCK:   -4.05 KCAL/MOL
REMARK 924 INTRA-LIGAND FREE ENERGY PREDICTED BY IDOCK:    0.12 KCAL/MOL
REMARK 927      BINDING AFFINITY PREDICTED BY RF-SCORE:    0.00 PKD
ROOT
HETATM    1  O   UNL     1     -12.315  13.701  63.071  1.00  0.00    -1.041 OA 
HETATM    2  C   UNL     1     -12.415  12.335  63.460  1.00  0.00    -0.534 C  
HETATM    3  H   UNL     1     -12.906  13.915  62.359  1.00  0.00     0.000 HD 
ENDROOT
BRANCH   2   4
HETATM    4  C   UNL     1     -11.475  11.995  64.592  1.00  0.00    -0.371 A  
HETATM    5  C   UNL     1     -11.565  12.664  65.826  1.00  0.00    -0.387 A  
HETATM    6 CL   UNL     1     -12.752  13.891  66.104  1.00  0.00    -0.428 Cl 
HETATM    7  C   UNL     1     -10.693  12.360  66.876  1.00  0.00    -0.269 A  
HETATM    8  C   UNL     1      -9.722  11.380  66.703  1.00  0.00    -0.200 A  
HETATM    9  C   UNL     1      -9.614  10.700  65.494  1.00  0.00    -0.271 A  
HETATM   10 CL   UNL     1      -8.644  11.006  67.991  1.00  0.00    -0.129 Cl 
HETATM   11  C   UNL     1     -10.487  11.006  64.446  1.00  0.00    -0.422 A  
ENDBRANCH   2   4
TORSDOF 1
ENDMDL
MODEL       49
REMARK 921   NORMALIZED FREE ENERGY PREDICTED BY IDOCK:   -3.66 KCAL/MOL
REMARK 922        TOTAL FREE ENERGY PREDICTED BY IDOCK:   -3.92 KCAL/MOL
REMARK 923 INTER-LIGAND FREE ENERGY PREDICTED BY IDOCK:   -3.88 KCAL/MOL
REMARK 924 INTRA-LIGAND FREE ENERGY PREDICTED BY IDOCK:   -0.04 KCAL/MOL
REMARK 927      BINDING AFFINITY PREDICTED BY RF-SCORE:    0.00 PKD
ROOT
HETATM    1  O   UNL     1     -11.062  16.635  64.011  1.00  0.00    -1.338 OA 
HETATM    2  C   UNL     1     -11.092  16.742  65.431  1.00  0.00     0.054 C  
HETATM    3  H   UNL     1     -11.710  16.022  63.684  1.00  0.00     0.000 HD 
ENDROOT
BRANCH   2   4
HETATM    4  C   UNL     1     -10.061  17.715  65.951  1.00  0.00    -0.192 A  
HETATM    5  C   UNL     1      -8.838  17.256  66.473  1.00  0.00    -0.261 A  
HETATM    6 CL   UNL     1      -8.461  15.569  66.536  1.00  0.00    -0.313 Cl 
HETATM    7  C   UNL     1      -7.883  18.150  66.963  1.00  0.00    -0.238 A  
HETATM    8  C   UNL     1      -8.139  19.517  66.934  1.00  0.00    -0.282 A  
HETATM    9  C   UNL     1      -9.338  19.998  66.419  1.00  0.00    -0.481 A  
HETATM   10 CL   UNL     1      -6.966  20.620  67.541  1.00  0.00    -0.371 Cl 
HETATM   11  C   UNL     1     -10.292  19.101  65.929  1.00  0.00    -0.463 A  
ENDBRANCH   2   4
TORSDOF 1
ENDMDL
MODEL       50
REMARK 921   NORMALIZED FREE ENERGY PREDICTED BY IDOCK:   -3.66 KCAL/MOL
REMARK 922        TOTAL FREE ENERGY PREDICTED BY IDOCK:   -3.92 KCAL/MOL
REMARK 923 INTER-LIGAND FREE ENERGY PREDICTED BY IDOCK:   -3.88 KCAL/MOL
REMARK 924 INTRA-LIGAND FREE ENERGY PREDICTED BY IDOCK:   -0.04 KCAL/MOL
REMARK 927      BINDING AFFINITY PREDICTED BY RF-SCORE:    0.00 PKD
ROOT
HETATM    1  O   UNL     1     -10.749   7.578  73.831  1.00  0.00    -0.490 OA 
HETATM    2  C   UNL     1     -11.451   7.349  72.613  1.00  0.00    -0.291 C  
HETATM    3  H   UNL     1     -10.723   6.804  74.381  1.00  0.00     0.000 HD 
ENDROOT
BRANCH   2   4
HETATM    4  C   UNL     1     -11.492   8.579  71.739  1.00  0.00    -0.378 A  
HETATM    5  C   UNL     1     -12.655   9.368  71.664  1.00  0.00    -0.375 A  
HETATM    6 CL   UNL     1     -14.075   8.971  72.567  1.00  0.00    -0.508 Cl 
HETATM    7  C   UNL     1     -12.703  10.504  70.851  1.00  0.00    -0.495 A  
HETATM    8  C   UNL     1     -11.587  10.866  70.105  1.00  0.00    -0.338 A  
HETATM    9  C   UNL     1     -10.423  10.106  70.165  1.00  0.00    -0.311 A  
HETATM   10 CL   UNL     1     -11.645  12.262  69.100  1.00  0.00    -0.349 Cl 
HETATM   11  C   UNL     1     -10.377   8.970  70.978  1.00  0.00    -0.348 A  
ENDBRANCH   2   4
TORSDOF 1
ENDMDL
MODEL       51
REMARK 921   NORMALIZED FREE ENERGY PREDICTED BY IDOCK:   -3.65 KCAL/MOL
REMARK 922        TOTAL FREE ENERGY PREDICTED BY IDOCK:   -3.91 KCAL/MOL
REMARK 923 INTER-LIGAND FREE ENERGY PREDICTED BY IDOCK:   -3.88 KCAL/MOL
REMARK 924 INTRA-LIGAND FREE ENERGY PREDICTED BY IDOCK:   -0.03 KCAL/MOL
REMARK 927      BINDING AFFINITY PREDICTED BY RF-SCORE:    0.00 PKD
ROOT
HETATM    1  O   UNL     1     -11.510   9.538  68.423  1.00  0.00    -0.446 OA 
HETATM    2  C   UNL     1     -10.996   9.792  69.726  1.00  0.00    -0.256 C  
HETATM    3  H   UNL     1     -11.071   8.811  67.999  1.00  0.00     0.000 HD 
ENDROOT
BRANCH   2   4
HETATM    4  C   UNL     1     -11.694  10.948  70.400  1.00  0.00    -0.444 A  
HETATM    5  C   UNL     1     -12.614  10.725  71.440  1.00  0.00    -0.410 A  
HETATM    6 CL   UNL     1     -12.978   9.127  71.996  1.00  0.00    -0.451 Cl 
HETATM    7  C   UNL     1     -13.271  11.790  72.063  1.00  0.00    -0.460 A  
HETATM    8  C   UNL     1     -13.012  13.093  71.653  1.00  0.00    -0.335 A  
HETATM    9  C   UNL     1     -12.104  13.343  70.629  1.00  0.00    -0.374 A  
HETATM   10 CL   UNL     1     -13.822  14.407  72.415  1.00  0.00    -0.568 Cl 
HETATM   11  C   UNL     1     -11.449  12.275  70.008  1.00  0.00    -0.133 A  
ENDBRANCH   2   4
TORSDOF 1
ENDMDL
MODEL       52
REMARK 921   NORMALIZED FREE ENERGY PREDICTED BY IDOCK:   -3.64 KCAL/MOL
REMARK 922        TOTAL FREE ENERGY PREDICTED BY IDOCK:   -3.90 KCAL/MOL
REMARK 923 INTER-LIGAND FREE ENERGY PREDICTED BY IDOCK:   -3.90 KCAL/MOL
REMARK 924 INTRA-LIGAND FREE ENERGY PREDICTED BY IDOCK:    0.00 KCAL/MOL
REMARK 927      BINDING AFFINITY PREDICTED BY RF-SCORE:    0.00 PKD
ROOT
HETATM    1  O   UNL     1     -12.194   6.661  70.035  1.00  0.00    -0.605 OA 
HETATM    2  C   UNL     1     -11.680   7.324  71.185  1.00  0.00    -0.303 C  
HETATM    3  H   UNL     1     -12.041   5.724  70.063  1.00  0.00     0.000 HD 
ENDROOT
BRANCH   2   4
HETATM    4  C   UNL     1     -11.923   8.814  71.140  1.00  0.00    -0.331 A  
HETATM    5  C   UNL     1     -11.217   9.630  70.237  1.00  0.00    -0.271 A  
HETATM    6 CL   UNL     1     -10.054   8.968  69.142  1.00  0.00    -0.191 Cl 
HETATM    7  C   UNL     1     -11.432  11.011  70.195  1.00  0.00    -0.383 A  
HETATM    8  C   UNL     1     -12.358  11.591  71.055  1.00  0.00    -0.329 A  
HETATM    9  C   UNL     1     -13.072  10.806  71.955  1.00  0.00    -0.557 A  
HETATM   10 CL   UNL     1     -12.620  13.291  71.009  1.00  0.00    -0.435 Cl 
HETATM   11  C   UNL     1     -12.856   9.426  71.995  1.00  0.00    -0.496 A  
ENDBRANCH   2   4
TORSDOF 1
ENDMDL
MODEL       53
REMARK 921   NORMALIZED FREE ENERGY PREDICTED BY IDOCK:   -3.63 KCAL/MOL
REMARK 922        TOTAL FREE ENERGY PREDICTED BY IDOCK:   -3.89 KCAL/MOL
REMARK 923 INTER-LIGAND FREE ENERGY PREDICTED BY IDOCK:   -3.86 KCAL/MOL
REMARK 924 INTRA-LIGAND FREE ENERGY PREDICTED BY IDOCK:   -0.02 KCAL/MOL
REMARK 927      BINDING AFFINITY PREDICTED BY RF-SCORE:    0.00 PKD
ROOT
HETATM    1  O   UNL     1     -12.560  10.769  69.031  1.00  0.00    -0.728 OA 
HETATM    2  C   UNL     1     -11.839  11.917  68.595  1.00  0.00    -0.308 C  
HETATM    3  H   UNL     1     -12.896  10.871  69.914  1.00  0.00     0.000 HD 
ENDROOT
BRANCH   2   4
HETATM    4  C   UNL     1     -11.304  11.755  67.192  1.00  0.00    -0.387 A  
HETATM    5  C   UNL     1     -11.486  12.767  66.232  1.00  0.00    -0.354 A  
HETATM    6 CL   UNL     1     -12.319  14.234  66.614  1.00  0.00    -0.422 Cl 
HETATM    7  C   UNL     1     -11.000  12.620  64.930  1.00  0.00    -0.326 A  
HETATM    8  C   UNL     1     -10.323  11.459  64.573  1.00  0.00    -0.313 A  
HETATM    9  C   UNL     1     -10.125  10.444  65.505  1.00  0.00    -0.352 A  
HETATM   10 CL   UNL     1      -9.728  11.273  62.969  1.00  0.00    -0.378 Cl 
HETATM   11  C   UNL     1     -10.612  10.594  66.806  1.00  0.00    -0.297 A  
ENDBRANCH   2   4
TORSDOF 1
ENDMDL
MODEL       54
REMARK 921   NORMALIZED FREE ENERGY PREDICTED BY IDOCK:   -3.63 KCAL/MOL
REMARK 922        TOTAL FREE ENERGY PREDICTED BY IDOCK:   -3.88 KCAL/MOL
REMARK 923 INTER-LIGAND FREE ENERGY PREDICTED BY IDOCK:   -3.87 KCAL/MOL
REMARK 924 INTRA-LIGAND FREE ENERGY PREDICTED BY IDOCK:   -0.01 KCAL/MOL
REMARK 927      BINDING AFFINITY PREDICTED BY RF-SCORE:    0.00 PKD
ROOT
HETATM    1  O   UNL     1     -11.416   6.641  68.941  1.00  0.00    -0.582 OA 
HETATM    2  C   UNL     1     -10.534   7.462  69.700  1.00  0.00    -0.232 C  
HETATM    3  H   UNL     1     -10.974   5.885  68.573  1.00  0.00     0.000 HD 
ENDROOT
BRANCH   2   4
HETATM    4  C   UNL     1     -11.237   8.664  70.285  1.00  0.00    -0.196 A  
HETATM    5  C   UNL     1     -12.141   8.517  71.353  1.00  0.00    -0.303 A  
HETATM    6 CL   UNL     1     -12.479   6.968  72.044  1.00  0.00    -0.317 Cl 
HETATM    7  C   UNL     1     -12.801   9.624  71.896  1.00  0.00    -0.515 A  
HETATM    8  C   UNL     1     -12.562  10.891  71.376  1.00  0.00    -0.403 A  
HETATM    9  C   UNL     1     -11.671  11.065  70.322  1.00  0.00    -0.445 A  
HETATM   10 CL   UNL     1     -13.378  12.255  72.037  1.00  0.00    -0.578 Cl 
HETATM   11  C   UNL     1     -11.012   9.956  69.782  1.00  0.00    -0.304 A  
ENDBRANCH   2   4
TORSDOF 1
ENDMDL
MODEL       55
REMARK 921   NORMALIZED FREE ENERGY PREDICTED BY IDOCK:   -3.62 KCAL/MOL
REMARK 922        TOTAL FREE ENERGY PREDICTED BY IDOCK:   -3.88 KCAL/MOL
REMARK 923 INTER-LIGAND FREE ENERGY PREDICTED BY IDOCK:   -3.84 KCAL/MOL
REMARK 924 INTRA-LIGAND FREE ENERGY PREDICTED BY IDOCK:   -0.04 KCAL/MOL
REMARK 927      BINDING AFFINITY PREDICTED BY RF-SCORE:    0.00 PKD
ROOT
HETATM    1  O   UNL     1     -12.265  10.719  68.314  1.00  0.00    -0.815 OA 
HETATM    2  C   UNL     1     -11.468  10.790  69.492  1.00  0.00    -0.294 C  
HETATM    3  H   UNL     1     -12.244  11.528  67.817  1.00  0.00     0.000 HD 
ENDROOT
BRANCH   2   4
HETATM    4  C   UNL     1     -11.501   9.503  70.281  1.00  0.00    -0.256 A  
HETATM    5  C   UNL     1     -12.254   9.406  71.466  1.00  0.00    -0.369 A  
HETATM    6 CL   UNL     1     -13.174  10.744  72.063  1.00  0.00    -0.561 Cl 
HETATM    7  C   UNL     1     -12.284   8.221  72.206  1.00  0.00    -0.428 A  
HETATM    8  C   UNL     1     -11.561   7.117  71.767  1.00  0.00    -0.280 A  
HETATM    9  C   UNL     1     -10.811   7.184  70.597  1.00  0.00    -0.268 A  
HETATM   10 CL   UNL     1     -11.591   5.657  72.679  1.00  0.00    -0.348 Cl 
HETATM   11  C   UNL     1     -10.784   8.371  69.859  1.00  0.00    -0.227 A  
ENDBRANCH   2   4
TORSDOF 1
ENDMDL
MODEL       56
REMARK 921   NORMALIZED FREE ENERGY PREDICTED BY IDOCK:   -3.61 KCAL/MOL
REMARK 922        TOTAL FREE ENERGY PREDICTED BY IDOCK:   -3.87 KCAL/MOL
REMARK 923 INTER-LIGAND FREE ENERGY PREDICTED BY IDOCK:   -3.84 KCAL/MOL
REMARK 924 INTRA-LIGAND FREE ENERGY PREDICTED BY IDOCK:   -0.03 KCAL/MOL
REMARK 927      BINDING AFFINITY PREDICTED BY RF-SCORE:    0.00 PKD
ROOT
HETATM    1  O   UNL     1     -11.875  10.288  68.232  1.00  0.00    -0.734 OA 
HETATM    2  C   UNL     1     -11.236  10.871  69.363  1.00  0.00    -0.272 C  
HETATM    3  H   UNL     1     -11.970  10.906  67.516  1.00  0.00     0.000 HD 
ENDROOT
BRANCH   2   4
HETATM    4  C   UNL     1     -11.085   9.890  70.500  1.00  0.00    -0.398 A  
HETATM    5  C   UNL     1      -9.814   9.415  70.875  1.00  0.00    -0.268 A  
HETATM    6 CL   UNL     1      -8.380   9.935  70.060  1.00  0.00    -0.207 Cl 
HETATM    7  C   UNL     1      -9.667   8.500  71.922  1.00  0.00    -0.358 A  
HETATM    8  C   UNL     1     -10.790   8.053  72.609  1.00  0.00    -0.368 A  
HETATM    9  C   UNL     1     -12.058   8.509  72.261  1.00  0.00    -0.455 A  
HETATM   10 CL   UNL     1     -10.613   6.923  73.895  1.00  0.00    -0.357 Cl 
HETATM   11  C   UNL     1     -12.202   9.424  71.214  1.00  0.00    -0.425 A  
ENDBRANCH   2   4
TORSDOF 1
ENDMDL
MODEL       57
REMARK 921   NORMALIZED FREE ENERGY PREDICTED BY IDOCK:   -3.60 KCAL/MOL
REMARK 922        TOTAL FREE ENERGY PREDICTED BY IDOCK:   -3.86 KCAL/MOL
REMARK 923 INTER-LIGAND FREE ENERGY PREDICTED BY IDOCK:   -3.84 KCAL/MOL
REMARK 924 INTRA-LIGAND FREE ENERGY PREDICTED BY IDOCK:   -0.02 KCAL/MOL
REMARK 927      BINDING AFFINITY PREDICTED BY RF-SCORE:    0.00 PKD
ROOT
HETATM    1  O   UNL     1     -13.498  12.459  72.704  1.00  0.00    -0.600 OA 
HETATM    2  C   UNL     1     -12.918  12.291  71.414  1.00  0.00    -0.256 C  
HETATM    3  H   UNL     1     -13.880  11.654  73.033  1.00  0.00     0.000 HD 
ENDROOT
BRANCH   2   4
HETATM    4  C   UNL     1     -12.311  13.571  70.891  1.00  0.00    -0.437 A  
HETATM    5  C   UNL     1     -11.795  13.640  69.584  1.00  0.00    -0.335 A  
HETATM    6 CL   UNL     1     -11.839  12.274  68.523  1.00  0.00    -0.373 Cl 
HETATM    7  C   UNL     1     -11.225  14.819  69.096  1.00  0.00    -0.287 A  
HETATM    8  C   UNL     1     -11.166  15.945  69.910  1.00  0.00    -0.348 A  
HETATM    9  C   UNL     1     -11.673  15.905  71.205  1.00  0.00    -0.504 A  
HETATM   10 CL   UNL     1     -10.460  17.396  69.313  1.00  0.00    -0.283 Cl 
HETATM   11  C   UNL     1     -12.243  14.724  71.691  1.00  0.00    -0.413 A  
ENDBRANCH   2   4
TORSDOF 1
ENDMDL
MODEL       58
REMARK 921   NORMALIZED FREE ENERGY PREDICTED BY IDOCK:   -3.58 KCAL/MOL
REMARK 922        TOTAL FREE ENERGY PREDICTED BY IDOCK:   -3.83 KCAL/MOL
REMARK 923 INTER-LIGAND FREE ENERGY PREDICTED BY IDOCK:   -3.81 KCAL/MOL
REMARK 924 INTRA-LIGAND FREE ENERGY PREDICTED BY IDOCK:   -0.02 KCAL/MOL
REMARK 927      BINDING AFFINITY PREDICTED BY RF-SCORE:    0.00 PKD
ROOT
HETATM    1  O   UNL     1     -10.255  17.980  68.081  1.00  0.00    -0.345 OA 
HETATM    2  C   UNL     1     -10.595  16.659  68.492  1.00  0.00    -0.338 C  
HETATM    3  H   UNL     1     -10.065  18.547  68.819  1.00  0.00     0.000 HD 
ENDROOT
BRANCH   2   4
HETATM    4  C   UNL     1     -10.899  15.758  67.319  1.00  0.00    -0.298 A  
HETATM    5  C   UNL     1     -11.600  14.552  67.503  1.00  0.00    -0.381 A  
HETATM    6 CL   UNL     1     -12.149  14.056  69.066  1.00  0.00    -0.383 Cl 
HETATM    7  C   UNL     1     -11.878  13.709  66.423  1.00  0.00    -0.433 A  
HETATM    8  C   UNL     1     -11.459  14.064  65.146  1.00  0.00    -0.328 A  
HETATM    9  C   UNL     1     -10.767  15.253  64.936  1.00  0.00    -0.423 A  
HETATM   10 CL   UNL     1     -11.795  13.026  63.815  1.00  0.00    -0.533 Cl 
HETATM   11  C   UNL     1     -10.490  16.094  66.018  1.00  0.00    -0.349 A  
ENDBRANCH   2   4
TORSDOF 1
ENDMDL
MODEL       59
REMARK 921   NORMALIZED FREE ENERGY PREDICTED BY IDOCK:   -3.57 KCAL/MOL
REMARK 922        TOTAL FREE ENERGY PREDICTED BY IDOCK:   -3.83 KCAL/MOL
REMARK 923 INTER-LIGAND FREE ENERGY PREDICTED BY IDOCK:   -3.80 KCAL/MOL
REMARK 924 INTRA-LIGAND FREE ENERGY PREDICTED BY IDOCK:   -0.02 KCAL/MOL
REMARK 927      BINDING AFFINITY PREDICTED BY RF-SCORE:    0.00 PKD
ROOT
HETATM    1  O   UNL     1     -10.870  17.355  67.635  1.00  0.00    -0.338 OA 
HETATM    2  C   UNL     1     -10.446  16.049  68.012  1.00  0.00    -0.275 C  
HETATM    3  H   UNL     1     -10.438  17.658  66.845  1.00  0.00     0.000 HD 
ENDROOT
BRANCH   2   4
HETATM    4  C   UNL     1     -11.133  15.567  69.267  1.00  0.00    -0.285 A  
HETATM    5  C   UNL     1     -11.839  14.350  69.278  1.00  0.00    -0.325 A  
HETATM    6 CL   UNL     1     -11.944  13.355  67.867  1.00  0.00    -0.382 Cl 
HETATM    7  C   UNL     1     -12.484  13.901  70.434  1.00  0.00    -0.404 A  
HETATM    8  C   UNL     1     -12.428  14.665  71.595  1.00  0.00    -0.345 A  
HETATM    9  C   UNL     1     -11.733  15.870  71.613  1.00  0.00    -0.563 A  
HETATM   10 CL   UNL     1     -13.225  14.117  73.019  1.00  0.00    -0.564 Cl 
HETATM   11  C   UNL     1     -11.089  16.317  70.455  1.00  0.00    -0.322 A  
ENDBRANCH   2   4
TORSDOF 1
ENDMDL
MODEL       60
REMARK 921   NORMALIZED FREE ENERGY PREDICTED BY IDOCK:   -3.55 KCAL/MOL
REMARK 922        TOTAL FREE ENERGY PREDICTED BY IDOCK:   -3.81 KCAL/MOL
REMARK 923 INTER-LIGAND FREE ENERGY PREDICTED BY IDOCK:   -3.76 KCAL/MOL
REMARK 924 INTRA-LIGAND FREE ENERGY PREDICTED BY IDOCK:   -0.05 KCAL/MOL
REMARK 927      BINDING AFFINITY PREDICTED BY RF-SCORE:    0.00 PKD
ROOT
HETATM    1  O   UNL     1     -11.292  12.995  69.822  1.00  0.00    -0.470 OA 
HETATM    2  C   UNL     1     -11.926  11.792  69.399  1.00  0.00    -0.298 C  
HETATM    3  H   UNL     1     -11.441  13.710  69.214  1.00  0.00     0.000 HD 
ENDROOT
BRANCH   2   4
HETATM    4  C   UNL     1     -11.690  10.655  70.364  1.00  0.00    -0.446 A  
HETATM    5  C   UNL     1     -10.480   9.936  70.345  1.00  0.00    -0.285 A  
HETATM    6 CL   UNL     1      -9.217  10.323  69.229  1.00  0.00    -0.209 Cl 
HETATM    7  C   UNL     1     -10.257   8.877  71.230  1.00  0.00    -0.361 A  
HETATM    8  C   UNL     1     -11.242   8.527  72.148  1.00  0.00    -0.362 A  
HETATM    9  C   UNL     1     -12.446   9.224  72.190  1.00  0.00    -0.421 A  
HETATM   10 CL   UNL     1     -10.973   7.220  73.235  1.00  0.00    -0.390 Cl 
HETATM   11  C   UNL     1     -12.666  10.282  71.304  1.00  0.00    -0.523 A  
ENDBRANCH   2   4
TORSDOF 1
ENDMDL
MODEL       61
REMARK 921   NORMALIZED FREE ENERGY PREDICTED BY IDOCK:   -3.54 KCAL/MOL
REMARK 922        TOTAL FREE ENERGY PREDICTED BY IDOCK:   -3.80 KCAL/MOL
REMARK 923 INTER-LIGAND FREE ENERGY PREDICTED BY IDOCK:   -3.76 KCAL/MOL
REMARK 924 INTRA-LIGAND FREE ENERGY PREDICTED BY IDOCK:   -0.04 KCAL/MOL
REMARK 927      BINDING AFFINITY PREDICTED BY RF-SCORE:    0.00 PKD
ROOT
HETATM    1  O   UNL     1     -12.308  10.622  68.511  1.00  0.00    -0.814 OA 
HETATM    2  C   UNL     1     -11.290  11.048  67.611  1.00  0.00    -0.281 C  
HETATM    3  H   UNL     1     -12.411   9.677  68.514  1.00  0.00     0.000 HD 
ENDROOT
BRANCH   2   4
HETATM    4  C   UNL     1     -11.126  12.549  67.606  1.00  0.00    -0.301 A  
HETATM    5  C   UNL     1     -11.629  13.324  66.545  1.00  0.00    -0.350 A  
HETATM    6 CL   UNL     1     -12.458  12.597  65.212  1.00  0.00    -0.539 Cl 
HETATM    7  C   UNL     1     -11.475  14.713  66.530  1.00  0.00    -0.354 A  
HETATM    8  C   UNL     1     -10.816  15.344  67.579  1.00  0.00    -0.305 A  
HETATM    9  C   UNL     1     -10.312  14.602  68.643  1.00  0.00    -0.246 A  
HETATM   10 CL   UNL     1     -10.619  17.054  67.561  1.00  0.00    -0.331 Cl 
HETATM   11  C   UNL     1     -10.468  13.213  68.655  1.00  0.00    -0.242 A  
ENDBRANCH   2   4
TORSDOF 1
ENDMDL
MODEL       62
REMARK 921   NORMALIZED FREE ENERGY PREDICTED BY IDOCK:   -3.52 KCAL/MOL
REMARK 922        TOTAL FREE ENERGY PREDICTED BY IDOCK:   -3.77 KCAL/MOL
REMARK 923 INTER-LIGAND FREE ENERGY PREDICTED BY IDOCK:   -3.73 KCAL/MOL
REMARK 924 INTRA-LIGAND FREE ENERGY PREDICTED BY IDOCK:   -0.04 KCAL/MOL
REMARK 927      BINDING AFFINITY PREDICTED BY RF-SCORE:    0.00 PKD
ROOT
HETATM    1  O   UNL     1     -10.043  15.442  69.524  1.00  0.00    -0.245 OA 
HETATM    2  C   UNL     1     -10.968  16.062  68.636  1.00  0.00    -0.323 C  
HETATM    3  H   UNL     1      -9.926  15.940  70.324  1.00  0.00     0.000 HD 
ENDROOT
BRANCH   2   4
HETATM    4  C   UNL     1     -11.154  15.270  67.364  1.00  0.00    -0.326 A  
HETATM    5  C   UNL     1     -10.444  15.607  66.197  1.00  0.00    -0.317 A  
HETATM    6 CL   UNL     1      -9.329  16.929  66.170  1.00  0.00    -0.290 Cl 
HETATM    7  C   UNL     1     -10.618  14.884  65.013  1.00  0.00    -0.446 A  
HETATM    8  C   UNL     1     -11.503  13.812  64.985  1.00  0.00    -0.332 A  
HETATM    9  C   UNL     1     -12.214  13.454  66.125  1.00  0.00    -0.471 A  
HETATM   10 CL   UNL     1     -11.722  12.922  63.528  1.00  0.00    -0.573 Cl 
HETATM   11  C   UNL     1     -12.039  14.180  67.308  1.00  0.00    -0.407 A  
ENDBRANCH   2   4
TORSDOF 1
ENDMDL
MODEL       63
REMARK 921   NORMALIZED FREE ENERGY PREDICTED BY IDOCK:   -3.52 KCAL/MOL
REMARK 922        TOTAL FREE ENERGY PREDICTED BY IDOCK:   -3.77 KCAL/MOL
REMARK 923 INTER-LIGAND FREE ENERGY PREDICTED BY IDOCK:   -3.84 KCAL/MOL
REMARK 924 INTRA-LIGAND FREE ENERGY PREDICTED BY IDOCK:    0.07 KCAL/MOL
REMARK 927      BINDING AFFINITY PREDICTED BY RF-SCORE:    0.00 PKD
ROOT
HETATM    1  O   UNL     1      -9.318  20.563  66.092  1.00  0.00    -0.618 OA 
HETATM    2  C   UNL     1     -10.519  19.828  65.879  1.00  0.00    -0.486 C  
HETATM    3  H   UNL     1      -9.350  21.425  65.695  1.00  0.00     0.000 HD 
ENDROOT
BRANCH   2   4
HETATM    4  C   UNL     1     -10.468  18.457  66.510  1.00  0.00    -0.411 A  
HETATM    5  C   UNL     1     -10.354  18.312  67.905  1.00  0.00    -0.399 A  
HETATM    6 CL   UNL     1     -10.276  19.687  68.952  1.00  0.00    -0.492 Cl 
HETATM    7  C   UNL     1     -10.299  17.046  68.495  1.00  0.00    -0.359 A  
HETATM    8  C   UNL     1     -10.359  15.910  67.696  1.00  0.00    -0.281 A  
HETATM    9  C   UNL     1     -10.476  16.025  66.315  1.00  0.00    -0.326 A  
HETATM   10 CL   UNL     1     -10.286  14.350  68.420  1.00  0.00    -0.236 Cl 
HETATM   11  C   UNL     1     -10.531  17.292  65.727  1.00  0.00    -0.237 A  
ENDBRANCH   2   4
TORSDOF 1
ENDMDL
MODEL       64
REMARK 921   NORMALIZED FREE ENERGY PREDICTED BY IDOCK:   -3.52 KCAL/MOL
REMARK 922        TOTAL FREE ENERGY PREDICTED BY IDOCK:   -3.77 KCAL/MOL
REMARK 923 INTER-LIGAND FREE ENERGY PREDICTED BY IDOCK:   -3.72 KCAL/MOL
REMARK 924 INTRA-LIGAND FREE ENERGY PREDICTED BY IDOCK:   -0.05 KCAL/MOL
REMARK 927      BINDING AFFINITY PREDICTED BY RF-SCORE:    0.00 PKD
ROOT
HETATM    1  O   UNL     1     -10.077  14.188  66.325  1.00  0.00    -0.281 OA 
HETATM    2  C   UNL     1     -11.369  14.646  66.712  1.00  0.00    -0.356 C  
HETATM    3  H   UNL     1     -10.011  14.054  65.387  1.00  0.00     0.000 HD 
ENDROOT
BRANCH   2   4
HETATM    4  C   UNL     1     -11.474  14.859  68.203  1.00  0.00    -0.348 A  
HETATM    5  C   UNL     1     -11.207  16.118  68.770  1.00  0.00    -0.365 A  
HETATM    6 CL   UNL     1     -10.756  17.471  67.791  1.00  0.00    -0.372 Cl 
HETATM    7  C   UNL     1     -11.295  16.321  70.150  1.00  0.00    -0.292 A  
HETATM    8  C   UNL     1     -11.655  15.265  70.980  1.00  0.00    -0.356 A  
HETATM    9  C   UNL     1     -11.929  14.010  70.446  1.00  0.00    -0.398 A  
HETATM   10 CL   UNL     1     -11.760  15.510  72.681  1.00  0.00    -0.557 Cl 
HETATM   11  C   UNL     1     -11.840  13.810  69.065  1.00  0.00    -0.397 A  
ENDBRANCH   2   4
TORSDOF 1
ENDMDL
MODEL       65
REMARK 921   NORMALIZED FREE ENERGY PREDICTED BY IDOCK:   -3.50 KCAL/MOL
REMARK 922        TOTAL FREE ENERGY PREDICTED BY IDOCK:   -3.75 KCAL/MOL
REMARK 923 INTER-LIGAND FREE ENERGY PREDICTED BY IDOCK:   -3.70 KCAL/MOL
REMARK 924 INTRA-LIGAND FREE ENERGY PREDICTED BY IDOCK:   -0.05 KCAL/MOL
REMARK 927      BINDING AFFINITY PREDICTED BY RF-SCORE:    0.00 PKD
ROOT
HETATM    1  O   UNL     1      -9.488  14.987  65.590  1.00  0.00    -0.434 OA 
HETATM    2  C   UNL     1     -10.894  15.136  65.759  1.00  0.00    -0.353 C  
HETATM    3  H   UNL     1      -9.210  15.193  64.705  1.00  0.00     0.000 HD 
ENDROOT
BRANCH   2   4
HETATM    4  C   UNL     1     -11.337  14.810  67.165  1.00  0.00    -0.363 A  
HETATM    5  C   UNL     1     -11.725  13.502  67.511  1.00  0.00    -0.367 A  
HETATM    6 CL   UNL     1     -11.705  12.219  66.352  1.00  0.00    -0.447 Cl 
HETATM    7  C   UNL     1     -12.143  13.194  68.809  1.00  0.00    -0.226 A  
HETATM    8  C   UNL     1     -12.175  14.192  69.777  1.00  0.00    -0.344 A  
HETATM    9  C   UNL     1     -11.793  15.492  69.463  1.00  0.00    -0.390 A  
HETATM   10 CL   UNL     1     -12.695  13.817  71.375  1.00  0.00    -0.440 Cl 
HETATM   11  C   UNL     1     -11.375  15.797  68.164  1.00  0.00    -0.337 A  
ENDBRANCH   2   4
TORSDOF 1
ENDMDL
MODEL       66
REMARK 921   NORMALIZED FREE ENERGY PREDICTED BY IDOCK:   -3.49 KCAL/MOL
REMARK 922        TOTAL FREE ENERGY PREDICTED BY IDOCK:   -3.75 KCAL/MOL
REMARK 923 INTER-LIGAND FREE ENERGY PREDICTED BY IDOCK:   -3.72 KCAL/MOL
REMARK 924 INTRA-LIGAND FREE ENERGY PREDICTED BY IDOCK:   -0.02 KCAL/MOL
REMARK 927      BINDING AFFINITY PREDICTED BY RF-SCORE:    0.00 PKD
ROOT
HETATM    1  O   UNL     1     -11.849  12.167  70.560  1.00  0.00    -0.500 OA 
HETATM    2  C   UNL     1     -12.602  11.201  71.285  1.00  0.00    -0.398 C  
HETATM    3  H   UNL     1     -12.135  13.054  70.742  1.00  0.00     0.000 HD 
ENDROOT
BRANCH   2   4
HETATM    4  C   UNL     1     -12.148   9.790  70.995  1.00  0.00    -0.434 A  
HETATM    5  C   UNL     1     -12.850   8.688  71.516  1.00  0.00    -0.319 A  
HETATM    6 CL   UNL     1     -14.258   8.897  72.499  1.00  0.00    -0.485 Cl 
HETATM    7  C   UNL     1     -12.432   7.379  71.258  1.00  0.00    -0.381 A  
HETATM    8  C   UNL     1     -11.306   7.159  70.472  1.00  0.00    -0.297 A  
HETATM    9  C   UNL     1     -10.595   8.230  69.941  1.00  0.00    -0.232 A  
HETATM   10 CL   UNL     1     -10.784   5.549  70.157  1.00  0.00    -0.374 Cl 
HETATM   11  C   UNL     1     -11.016   9.538  70.201  1.00  0.00    -0.302 A  
ENDBRANCH   2   4
TORSDOF 1
ENDMDL
MODEL       67
REMARK 921   NORMALIZED FREE ENERGY PREDICTED BY IDOCK:   -3.48 KCAL/MOL
REMARK 922        TOTAL FREE ENERGY PREDICTED BY IDOCK:   -3.74 KCAL/MOL
REMARK 923 INTER-LIGAND FREE ENERGY PREDICTED BY IDOCK:   -3.69 KCAL/MOL
REMARK 924 INTRA-LIGAND FREE ENERGY PREDICTED BY IDOCK:   -0.05 KCAL/MOL
REMARK 927      BINDING AFFINITY PREDICTED BY RF-SCORE:    0.00 PKD
ROOT
HETATM    1  O   UNL     1     -10.821   8.312  67.506  1.00  0.00    -0.487 OA 
HETATM    2  C   UNL     1      -9.870   9.340  67.247  1.00  0.00    -0.182 C  
HETATM    3  H   UNL     1     -10.482   7.651  68.099  1.00  0.00     0.000 HD 
ENDROOT
BRANCH   2   4
HETATM    4  C   UNL     1     -10.408  10.389  66.305  1.00  0.00    -0.270 A  
HETATM    5  C   UNL     1     -11.212  11.440  66.783  1.00  0.00    -0.252 A  
HETATM    6 CL   UNL     1     -11.612  11.580  68.460  1.00  0.00    -0.350 Cl 
HETATM    7  C   UNL     1     -11.721  12.411  65.915  1.00  0.00    -0.476 A  
HETATM    8  C   UNL     1     -11.427  12.343  64.557  1.00  0.00    -0.337 A  
HETATM    9  C   UNL     1     -10.631  11.316  64.059  1.00  0.00    -0.450 A  
HETATM   10 CL   UNL     1     -12.055  13.534  63.485  1.00  0.00    -0.501 Cl 
HETATM   11  C   UNL     1     -10.124  10.347  64.929  1.00  0.00    -0.382 A  
ENDBRANCH   2   4
TORSDOF 1
ENDMDL
MODEL       68
REMARK 921   NORMALIZED FREE ENERGY PREDICTED BY IDOCK:   -3.46 KCAL/MOL
REMARK 922        TOTAL FREE ENERGY PREDICTED BY IDOCK:   -3.71 KCAL/MOL
REMARK 923 INTER-LIGAND FREE ENERGY PREDICTED BY IDOCK:   -3.68 KCAL/MOL
REMARK 924 INTRA-LIGAND FREE ENERGY PREDICTED BY IDOCK:   -0.03 KCAL/MOL
REMARK 927      BINDING AFFINITY PREDICTED BY RF-SCORE:    0.00 PKD
ROOT
HETATM    1  O   UNL     1     -13.605  15.189  70.494  1.00  0.00    -0.674 OA 
HETATM    2  C   UNL     1     -12.211  14.965  70.305  1.00  0.00    -0.335 C  
HETATM    3  H   UNL     1     -13.777  15.993  70.969  1.00  0.00     0.000 HD 
ENDROOT
BRANCH   2   4
HETATM    4  C   UNL     1     -11.937  13.687  69.549  1.00  0.00    -0.397 A  
HETATM    5  C   UNL     1     -11.513  13.722  68.208  1.00  0.00    -0.312 A  
HETATM    6 CL   UNL     1     -11.283  15.220  67.373  1.00  0.00    -0.328 Cl 
HETATM    7  C   UNL     1     -11.265  12.543  67.499  1.00  0.00    -0.342 A  
HETATM    8  C   UNL     1     -11.435  11.314  68.127  1.00  0.00    -0.306 A  
HETATM    9  C   UNL     1     -11.849  11.251  69.453  1.00  0.00    -0.424 A  
HETATM   10 CL   UNL     1     -11.135   9.860  67.256  1.00  0.00    -0.191 Cl 
HETATM   11  C   UNL     1     -12.096  12.432  70.159  1.00  0.00    -0.366 A  
ENDBRANCH   2   4
TORSDOF 1
ENDMDL
MODEL       69
REMARK 921   NORMALIZED FREE ENERGY PREDICTED BY IDOCK:   -3.46 KCAL/MOL
REMARK 922        TOTAL FREE ENERGY PREDICTED BY IDOCK:   -3.71 KCAL/MOL
REMARK 923 INTER-LIGAND FREE ENERGY PREDICTED BY IDOCK:   -3.71 KCAL/MOL
REMARK 924 INTRA-LIGAND FREE ENERGY PREDICTED BY IDOCK:   -0.00 KCAL/MOL
REMARK 927      BINDING AFFINITY PREDICTED BY RF-SCORE:    0.00 PKD
ROOT
HETATM    1  O   UNL     1     -11.061  17.371  64.692  1.00  0.00    -1.029 OA 
HETATM    2  C   UNL     1     -10.532  16.745  65.857  1.00  0.00    -0.301 C  
HETATM    3  H   UNL     1     -11.798  16.892  64.331  1.00  0.00     0.000 HD 
ENDROOT
BRANCH   2   4
HETATM    4  C   UNL     1      -9.361  17.506  66.431  1.00  0.00    -0.265 A  
HETATM    5  C   UNL     1      -9.552  18.747  67.065  1.00  0.00    -0.303 A  
HETATM    6 CL   UNL     1     -11.125  19.449  67.221  1.00  0.00    -0.461 Cl 
HETATM    7  C   UNL     1      -8.471  19.461  67.591  1.00  0.00    -0.339 A  
HETATM    8  C   UNL     1      -7.186  18.938  67.492  1.00  0.00    -0.214 A  
HETATM    9  C   UNL     1      -6.970  17.711  66.873  1.00  0.00    -0.219 A  
HETATM   10 CL   UNL     1      -5.853  19.817  68.135  1.00  0.00    -0.239 Cl 
HETATM   11  C   UNL     1      -8.053  17.000  66.347  1.00  0.00    -0.335 A  
ENDBRANCH   2   4
TORSDOF 1
ENDMDL
MODEL       70
REMARK 921   NORMALIZED FREE ENERGY PREDICTED BY IDOCK:   -3.46 KCAL/MOL
REMARK 922        TOTAL FREE ENERGY PREDICTED BY IDOCK:   -3.71 KCAL/MOL
REMARK 923 INTER-LIGAND FREE ENERGY PREDICTED BY IDOCK:   -3.68 KCAL/MOL
REMARK 924 INTRA-LIGAND FREE ENERGY PREDICTED BY IDOCK:   -0.03 KCAL/MOL
REMARK 927      BINDING AFFINITY PREDICTED BY RF-SCORE:    0.00 PKD
ROOT
HETATM    1  O   UNL     1     -12.713  14.359  69.308  1.00  0.00    -0.519 OA 
HETATM    2  C   UNL     1     -11.648  14.805  68.474  1.00  0.00    -0.321 C  
HETATM    3  H   UNL     1     -12.810  14.899  70.084  1.00  0.00     0.000 HD 
ENDROOT
BRANCH   2   4
HETATM    4  C   UNL     1     -11.493  13.947  67.242  1.00  0.00    -0.369 A  
HETATM    5  C   UNL     1     -10.320  13.199  67.029  1.00  0.00    -0.249 A  
HETATM    6 CL   UNL     1      -9.017  13.223  68.166  1.00  0.00    -0.192 Cl 
HETATM    7  C   UNL     1     -10.166  12.409  65.887  1.00  0.00    -0.273 A  
HETATM    8  C   UNL     1     -11.186  12.356  64.943  1.00  0.00    -0.311 A  
HETATM    9  C   UNL     1     -12.358  13.082  65.130  1.00  0.00    -0.536 A  
HETATM   10 CL   UNL     1     -10.998  11.387  63.533  1.00  0.00    -0.455 Cl 
HETATM   11  C   UNL     1     -12.509  13.871  66.274  1.00  0.00    -0.454 A  
ENDBRANCH   2   4
TORSDOF 1
ENDMDL
MODEL       71
REMARK 921   NORMALIZED FREE ENERGY PREDICTED BY IDOCK:   -3.44 KCAL/MOL
REMARK 922        TOTAL FREE ENERGY PREDICTED BY IDOCK:   -3.69 KCAL/MOL
REMARK 923 INTER-LIGAND FREE ENERGY PREDICTED BY IDOCK:   -3.66 KCAL/MOL
REMARK 924 INTRA-LIGAND FREE ENERGY PREDICTED BY IDOCK:   -0.02 KCAL/MOL
REMARK 927      BINDING AFFINITY PREDICTED BY RF-SCORE:    0.00 PKD
ROOT
HETATM    1  O   UNL     1     -10.053  10.311  67.935  1.00  0.00    -0.160 OA 
HETATM    2  C   UNL     1     -11.243  11.053  67.684  1.00  0.00    -0.305 C  
HETATM    3  H   UNL     1      -9.720   9.893  67.150  1.00  0.00     0.000 HD 
ENDROOT
BRANCH   2   4
HETATM    4  C   UNL     1     -11.773  11.717  68.932  1.00  0.00    -0.384 A  
HETATM    5  C   UNL     1     -11.963  13.110  68.979  1.00  0.00    -0.285 A  
HETATM    6 CL   UNL     1     -11.608  14.116  67.618  1.00  0.00    -0.370 Cl 
HETATM    7  C   UNL     1     -12.447  13.733  70.133  1.00  0.00    -0.332 A  
HETATM    8  C   UNL     1     -12.748  12.968  71.255  1.00  0.00    -0.293 A  
HETATM    9  C   UNL     1     -12.573  11.588  71.234  1.00  0.00    -0.452 A  
HETATM   10 CL   UNL     1     -13.339  13.732  72.679  1.00  0.00    -0.639 Cl 
HETATM   11  C   UNL     1     -12.089  10.968  70.078  1.00  0.00    -0.441 A  
ENDBRANCH   2   4
TORSDOF 1
ENDMDL
MODEL       72
REMARK 921   NORMALIZED FREE ENERGY PREDICTED BY IDOCK:   -3.43 KCAL/MOL
REMARK 922        TOTAL FREE ENERGY PREDICTED BY IDOCK:   -3.68 KCAL/MOL
REMARK 923 INTER-LIGAND FREE ENERGY PREDICTED BY IDOCK:   -3.65 KCAL/MOL
REMARK 924 INTRA-LIGAND FREE ENERGY PREDICTED BY IDOCK:   -0.03 KCAL/MOL
REMARK 927      BINDING AFFINITY PREDICTED BY RF-SCORE:    0.00 PKD
ROOT
HETATM    1  O   UNL     1     -13.115  12.796  64.913  1.00  0.00    -0.833 OA 
HETATM    2  C   UNL     1     -12.097  12.471  65.855  1.00  0.00    -0.352 C  
HETATM    3  H   UNL     1     -13.335  12.059  64.356  1.00  0.00     0.000 HD 
ENDROOT
BRANCH   2   4
HETATM    4  C   UNL     1     -11.747  13.642  66.741  1.00  0.00    -0.426 A  
HETATM    5  C   UNL     1     -10.950  14.696  66.257  1.00  0.00    -0.327 A  
HETATM    6 CL   UNL     1     -10.348  14.702  64.636  1.00  0.00    -0.278 Cl 
HETATM    7  C   UNL     1     -10.615  15.780  67.074  1.00  0.00    -0.316 A  
HETATM    8  C   UNL     1     -11.076  15.822  68.386  1.00  0.00    -0.341 A  
HETATM    9  C   UNL     1     -11.868  14.795  68.888  1.00  0.00    -0.331 A  
HETATM   10 CL   UNL     1     -10.661  17.153  69.396  1.00  0.00    -0.268 Cl 
HETATM   11  C   UNL     1     -12.202  13.713  68.069  1.00  0.00    -0.175 A  
ENDBRANCH   2   4
TORSDOF 1
ENDMDL
MODEL       73
REMARK 921   NORMALIZED FREE ENERGY PREDICTED BY IDOCK:   -3.43 KCAL/MOL
REMARK 922        TOTAL FREE ENERGY PREDICTED BY IDOCK:   -3.68 KCAL/MOL
REMARK 923 INTER-LIGAND FREE ENERGY PREDICTED BY IDOCK:   -3.63 KCAL/MOL
REMARK 924 INTRA-LIGAND FREE ENERGY PREDICTED BY IDOCK:   -0.05 KCAL/MOL
REMARK 927      BINDING AFFINITY PREDICTED BY RF-SCORE:    0.00 PKD
ROOT
HETATM    1  O   UNL     1     -11.053   8.835  67.354  1.00  0.00    -0.418 OA 
HETATM    2  C   UNL     1     -10.196   9.972  67.389  1.00  0.00    -0.219 C  
HETATM    3  H   UNL     1     -10.708   8.111  67.862  1.00  0.00     0.000 HD 
ENDROOT
BRANCH   2   4
HETATM    4  C   UNL     1     -10.744  11.124  66.581  1.00  0.00    -0.322 A  
HETATM    5  C   UNL     1     -10.487  11.221  65.202  1.00  0.00    -0.291 A  
HETATM    6 CL   UNL     1      -9.544  10.030  64.373  1.00  0.00    -0.359 Cl 
HETATM    7  C   UNL     1     -10.984  12.288  64.449  1.00  0.00    -0.374 A  
HETATM    8  C   UNL     1     -11.748  13.271  65.069  1.00  0.00    -0.333 A  
HETATM    9  C   UNL     1     -12.021  13.198  66.431  1.00  0.00    -0.462 A  
HETATM   10 CL   UNL     1     -12.358  14.590  64.146  1.00  0.00    -0.441 Cl 
HETATM   11  C   UNL     1     -11.522  12.129  67.181  1.00  0.00    -0.413 A  
ENDBRANCH   2   4
TORSDOF 1
ENDMDL
MODEL       74
REMARK 921   NORMALIZED FREE ENERGY PREDICTED BY IDOCK:   -3.43 KCAL/MOL
REMARK 922        TOTAL FREE ENERGY PREDICTED BY IDOCK:   -3.68 KCAL/MOL
REMARK 923 INTER-LIGAND FREE ENERGY PREDICTED BY IDOCK:   -3.66 KCAL/MOL
REMARK 924 INTRA-LIGAND FREE ENERGY PREDICTED BY IDOCK:   -0.02 KCAL/MOL
REMARK 927      BINDING AFFINITY PREDICTED BY RF-SCORE:    0.00 PKD
ROOT
HETATM    1  O   UNL     1     -14.031  14.205  72.293  1.00  0.00    -0.477 OA 
HETATM    2  C   UNL     1     -13.144  13.313  71.626  1.00  0.00    -0.363 C  
HETATM    3  H   UNL     1     -14.439  13.805  73.052  1.00  0.00     0.000 HD 
ENDROOT
BRANCH   2   4
HETATM    4  C   UNL     1     -12.496  13.949  70.420  1.00  0.00    -0.404 A  
HETATM    5  C   UNL     1     -11.900  13.156  69.423  1.00  0.00    -0.326 A  
HETATM    6 CL   UNL     1     -11.888  11.429  69.529  1.00  0.00    -0.390 Cl 
HETATM    7  C   UNL     1     -11.291  13.738  68.307  1.00  0.00    -0.317 A  
HETATM    8  C   UNL     1     -11.275  15.122  68.175  1.00  0.00    -0.320 A  
HETATM    9  C   UNL     1     -11.861  15.930  69.145  1.00  0.00    -0.340 A  
HETATM   10 CL   UNL     1     -10.522  15.842  66.805  1.00  0.00    -0.306 Cl 
HETATM   11  C   UNL     1     -12.468  15.345  70.259  1.00  0.00    -0.413 A  
ENDBRANCH   2   4
TORSDOF 1
ENDMDL
MODEL       75
REMARK 921   NORMALIZED FREE ENERGY PREDICTED BY IDOCK:   -3.39 KCAL/MOL
REMARK 922        TOTAL FREE ENERGY PREDICTED BY IDOCK:   -3.64 KCAL/MOL
REMARK 923 INTER-LIGAND FREE ENERGY PREDICTED BY IDOCK:   -3.82 KCAL/MOL
REMARK 924 INTRA-LIGAND FREE ENERGY PREDICTED BY IDOCK:    0.18 KCAL/MOL
REMARK 927      BINDING AFFINITY PREDICTED BY RF-SCORE:    0.00 PKD
ROOT
HETATM    1  O   UNL     1     -14.409  13.372  72.422  1.00  0.00    -0.617 OA 
HETATM    2  C   UNL     1     -13.155  12.718  72.256  1.00  0.00    -0.295 C  
HETATM    3  H   UNL     1     -14.749  13.276  73.303  1.00  0.00     0.000 HD 
ENDROOT
BRANCH   2   4
HETATM    4  C   UNL     1     -12.613  12.871  70.855  1.00  0.00    -0.355 A  
HETATM    5  C   UNL     1     -12.433  14.146  70.289  1.00  0.00    -0.353 A  
HETATM    6 CL   UNL     1     -12.813  15.586  71.170  1.00  0.00    -0.518 Cl 
HETATM    7  C   UNL     1     -11.939  14.295  68.990  1.00  0.00    -0.360 A  
HETATM    8  C   UNL     1     -11.618  13.168  68.242  1.00  0.00    -0.335 A  
HETATM    9  C   UNL     1     -11.783  11.895  68.778  1.00  0.00    -0.379 A  
HETATM   10 CL   UNL     1     -11.015  13.348  66.640  1.00  0.00    -0.288 Cl 
HETATM   11  C   UNL     1     -12.277  11.749  70.078  1.00  0.00    -0.317 A  
ENDBRANCH   2   4
TORSDOF 1
ENDMDL
MODEL       76
REMARK 921   NORMALIZED FREE ENERGY PREDICTED BY IDOCK:   -3.39 KCAL/MOL
REMARK 922        TOTAL FREE ENERGY PREDICTED BY IDOCK:   -3.63 KCAL/MOL
REMARK 923 INTER-LIGAND FREE ENERGY PREDICTED BY IDOCK:   -3.61 KCAL/MOL
REMARK 924 INTRA-LIGAND FREE ENERGY PREDICTED BY IDOCK:   -0.02 KCAL/MOL
REMARK 927      BINDING AFFINITY PREDICTED BY RF-SCORE:    0.00 PKD
ROOT
HETATM    1  O   UNL     1      -8.166  10.299  70.222  1.00  0.00    -0.377 OA 
HETATM    2  C   UNL     1      -9.333  10.259  69.406  1.00  0.00    -0.199 C  
HETATM    3  H   UNL     1      -7.390  10.530  69.725  1.00  0.00     0.000 HD 
ENDROOT
BRANCH   2   4
HETATM    4  C   UNL     1     -10.567   9.891  70.195  1.00  0.00    -0.350 A  
HETATM    5  C   UNL     1     -11.727  10.684  70.124  1.00  0.00    -0.332 A  
HETATM    6 CL   UNL     1     -11.794  12.099  69.132  1.00  0.00    -0.360 Cl 
HETATM    7  C   UNL     1     -12.871  10.355  70.858  1.00  0.00    -0.482 A  
HETATM    8  C   UNL     1     -12.867   9.226  71.670  1.00  0.00    -0.372 A  
HETATM    9  C   UNL     1     -11.734   8.423  71.755  1.00  0.00    -0.371 A  
HETATM   10 CL   UNL     1     -14.271   8.820  72.578  1.00  0.00    -0.472 Cl 
HETATM   11  C   UNL     1     -10.592   8.754  71.020  1.00  0.00    -0.293 A  
ENDBRANCH   2   4
TORSDOF 1
ENDMDL
MODEL       77
REMARK 921   NORMALIZED FREE ENERGY PREDICTED BY IDOCK:   -3.39 KCAL/MOL
REMARK 922        TOTAL FREE ENERGY PREDICTED BY IDOCK:   -3.63 KCAL/MOL
REMARK 923 INTER-LIGAND FREE ENERGY PREDICTED BY IDOCK:   -3.60 KCAL/MOL
REMARK 924 INTRA-LIGAND FREE ENERGY PREDICTED BY IDOCK:   -0.03 KCAL/MOL
REMARK 927      BINDING AFFINITY PREDICTED BY RF-SCORE:    0.00 PKD
ROOT
HETATM    1  O   UNL     1     -13.446  11.387  72.273  1.00  0.00    -0.601 OA 
HETATM    2  C   UNL     1     -13.192  10.111  71.693  1.00  0.00    -0.418 C  
HETATM    3  H   UNL     1     -14.275  11.411  72.736  1.00  0.00     0.000 HD 
ENDROOT
BRANCH   2   4
HETATM    4  C   UNL     1     -11.874  10.072  70.957  1.00  0.00    -0.476 A  
HETATM    5  C   UNL     1     -10.838   9.220  71.383  1.00  0.00    -0.364 A  
HETATM    6 CL   UNL     1     -11.030   8.181  72.753  1.00  0.00    -0.441 Cl 
HETATM    7  C   UNL     1      -9.613   9.184  70.711  1.00  0.00    -0.338 A  
HETATM    8  C   UNL     1      -9.410  10.000  69.604  1.00  0.00    -0.220 A  
HETATM    9  C   UNL     1     -10.418  10.849  69.159  1.00  0.00    -0.248 A  
HETATM   10 CL   UNL     1      -7.900   9.961  68.778  1.00  0.00    -0.088 Cl 
HETATM   11  C   UNL     1     -11.643  10.883  69.833  1.00  0.00    -0.410 A  
ENDBRANCH   2   4
TORSDOF 1
ENDMDL
MODEL       78
REMARK 921   NORMALIZED FREE ENERGY PREDICTED BY IDOCK:   -3.38 KCAL/MOL
REMARK 922        TOTAL FREE ENERGY PREDICTED BY IDOCK:   -3.63 KCAL/MOL
REMARK 923 INTER-LIGAND FREE ENERGY PREDICTED BY IDOCK:   -3.59 KCAL/MOL
REMARK 924 INTRA-LIGAND FREE ENERGY PREDICTED BY IDOCK:   -0.04 KCAL/MOL
REMARK 927      BINDING AFFINITY PREDICTED BY RF-SCORE:    0.00 PKD
ROOT
HETATM    1  O   UNL     1     -12.611  14.036  66.700  1.00  0.00    -0.516 OA 
HETATM    2  C   UNL     1     -11.250  14.196  67.087  1.00  0.00    -0.317 C  
HETATM    3  H   UNL     1     -12.870  13.123  66.671  1.00  0.00     0.000 HD 
ENDROOT
BRANCH   2   4
HETATM    4  C   UNL     1     -10.838  15.648  67.134  1.00  0.00    -0.297 A  
HETATM    5  C   UNL     1     -10.830  16.354  68.351  1.00  0.00    -0.342 A  
HETATM    6 CL   UNL     1     -11.282  15.594  69.838  1.00  0.00    -0.300 Cl 
HETATM    7  C   UNL     1     -10.457  17.700  68.401  1.00  0.00    -0.360 A  
HETATM    8  C   UNL     1     -10.084  18.355  67.232  1.00  0.00    -0.352 A  
HETATM    9  C   UNL     1     -10.079  17.680  66.016  1.00  0.00    -0.263 A  
HETATM   10 CL   UNL     1      -9.629  20.014  67.289  1.00  0.00    -0.498 Cl 
HETATM   11  C   UNL     1     -10.453  16.333  65.969  1.00  0.00    -0.342 A  
ENDBRANCH   2   4
TORSDOF 1
ENDMDL
MODEL       79
REMARK 921   NORMALIZED FREE ENERGY PREDICTED BY IDOCK:   -3.38 KCAL/MOL
REMARK 922        TOTAL FREE ENERGY PREDICTED BY IDOCK:   -3.62 KCAL/MOL
REMARK 923 INTER-LIGAND FREE ENERGY PREDICTED BY IDOCK:   -3.58 KCAL/MOL
REMARK 924 INTRA-LIGAND FREE ENERGY PREDICTED BY IDOCK:   -0.05 KCAL/MOL
REMARK 927      BINDING AFFINITY PREDICTED BY RF-SCORE:    0.00 PKD
ROOT
HETATM    1  O   UNL     1      -9.815  10.353  68.054  1.00  0.00    -0.148 OA 
HETATM    2  C   UNL     1     -11.231  10.506  68.065  1.00  0.00    -0.294 C  
HETATM    3  H   UNL     1      -9.543   9.569  67.592  1.00  0.00     0.000 HD 
ENDROOT
BRANCH   2   4
HETATM    4  C   UNL     1     -11.664  11.752  68.799  1.00  0.00    -0.389 A  
HETATM    5  C   UNL     1     -11.996  11.702  70.166  1.00  0.00    -0.359 A  
HETATM    6 CL   UNL     1     -11.917  10.223  71.060  1.00  0.00    -0.452 Cl 
HETATM    7  C   UNL     1     -12.405  12.850  70.851  1.00  0.00    -0.365 A  
HETATM    8  C   UNL     1     -12.483  14.063  70.176  1.00  0.00    -0.319 A  
HETATM    9  C   UNL     1     -12.157  14.142  68.826  1.00  0.00    -0.326 A  
HETATM   10 CL   UNL     1     -12.991  15.478  71.015  1.00  0.00    -0.534 Cl 
HETATM   11  C   UNL     1     -11.748  12.992  68.144  1.00  0.00    -0.391 A  
ENDBRANCH   2   4
TORSDOF 1
ENDMDL
MODEL       80
REMARK 921   NORMALIZED FREE ENERGY PREDICTED BY IDOCK:   -3.31 KCAL/MOL
REMARK 922        TOTAL FREE ENERGY PREDICTED BY IDOCK:   -3.55 KCAL/MOL
REMARK 923 INTER-LIGAND FREE ENERGY PREDICTED BY IDOCK:   -3.50 KCAL/MOL
REMARK 924 INTRA-LIGAND FREE ENERGY PREDICTED BY IDOCK:   -0.05 KCAL/MOL
REMARK 927      BINDING AFFINITY PREDICTED BY RF-SCORE:    0.00 PKD
ROOT
HETATM    1  O   UNL     1      -9.399  10.877  69.219  1.00  0.00    -0.377 OA 
HETATM    2  C   UNL     1     -10.603  10.388  68.637  1.00  0.00    -0.209 C  
HETATM    3  H   UNL     1      -9.200  10.450  70.044  1.00  0.00     0.000 HD 
ENDROOT
BRANCH   2   4
HETATM    4  C   UNL     1     -10.919  11.067  67.326  1.00  0.00    -0.356 A  
HETATM    5  C   UNL     1     -10.427  10.551  66.113  1.00  0.00    -0.168 A  
HETATM    6 CL   UNL     1      -9.452   9.122  66.069  1.00  0.00    -0.298 Cl 
HETATM    7  C   UNL     1     -10.709  11.178  64.896  1.00  0.00    -0.318 A  
HETATM    8  C   UNL     1     -11.489  12.329  64.879  1.00  0.00    -0.332 A  
HETATM    9  C   UNL     1     -11.991  12.858  66.063  1.00  0.00    -0.505 A  
HETATM   10 CL   UNL     1     -11.833  13.106  63.382  1.00  0.00    -0.547 Cl 
HETATM   11  C   UNL     1     -11.708  12.229  67.279  1.00  0.00    -0.394 A  
ENDBRANCH   2   4
TORSDOF 1
ENDMDL
MODEL       81
REMARK 921   NORMALIZED FREE ENERGY PREDICTED BY IDOCK:   -3.31 KCAL/MOL
REMARK 922        TOTAL FREE ENERGY PREDICTED BY IDOCK:   -3.55 KCAL/MOL
REMARK 923 INTER-LIGAND FREE ENERGY PREDICTED BY IDOCK:   -3.50 KCAL/MOL
REMARK 924 INTRA-LIGAND FREE ENERGY PREDICTED BY IDOCK:   -0.05 KCAL/MOL
REMARK 927      BINDING AFFINITY PREDICTED BY RF-SCORE:    0.00 PKD
ROOT
HETATM    1  O   UNL     1      -9.586   8.378  65.244  1.00  0.00    -0.323 OA 
HETATM    2  C   UNL     1      -9.047   9.640  64.862  1.00  0.00    -0.232 C  
HETATM    3  H   UNL     1      -8.947   7.679  65.171  1.00  0.00     0.000 HD 
ENDROOT
BRANCH   2   4
HETATM    4  C   UNL     1     -10.062  10.751  64.978  1.00  0.00    -0.377 A  
HETATM    5  C   UNL     1     -10.342  11.342  66.224  1.00  0.00    -0.247 A  
HETATM    6 CL   UNL     1      -9.537  10.830  67.667  1.00  0.00    -0.170 Cl 
HETATM    7  C   UNL     1     -11.286  12.366  66.340  1.00  0.00    -0.392 A  
HETATM    8  C   UNL     1     -11.960  12.813  65.208  1.00  0.00    -0.429 A  
HETATM    9  C   UNL     1     -11.699  12.249  63.964  1.00  0.00    -0.506 A  
HETATM   10 CL   UNL     1     -13.127  14.071  65.349  1.00  0.00    -0.377 Cl 
HETATM   11  C   UNL     1     -10.755  11.225  63.851  1.00  0.00    -0.451 A  
ENDBRANCH   2   4
TORSDOF 1
ENDMDL
MODEL       82
REMARK 921   NORMALIZED FREE ENERGY PREDICTED BY IDOCK:   -3.28 KCAL/MOL
REMARK 922        TOTAL FREE ENERGY PREDICTED BY IDOCK:   -3.52 KCAL/MOL
REMARK 923 INTER-LIGAND FREE ENERGY PREDICTED BY IDOCK:   -3.47 KCAL/MOL
REMARK 924 INTRA-LIGAND FREE ENERGY PREDICTED BY IDOCK:   -0.05 KCAL/MOL
REMARK 927      BINDING AFFINITY PREDICTED BY RF-SCORE:    0.00 PKD
ROOT
HETATM    1  O   UNL     1      -9.531   9.807  70.546  1.00  0.00    -0.327 OA 
HETATM    2  C   UNL     1     -10.915   9.849  70.215  1.00  0.00    -0.309 C  
HETATM    3  H   UNL     1      -9.324   9.088  71.130  1.00  0.00     0.000 HD 
ENDROOT
BRANCH   2   4
HETATM    4  C   UNL     1     -11.245  10.993  69.286  1.00  0.00    -0.321 A  
HETATM    5  C   UNL     1     -11.071  10.862  67.895  1.00  0.00    -0.302 A  
HETATM    6 CL   UNL     1     -10.485   9.394  67.193  1.00  0.00    -0.321 Cl 
HETATM    7  C   UNL     1     -11.367  11.920  67.030  1.00  0.00    -0.392 A  
HETATM    8  C   UNL     1     -11.842  13.120  67.546  1.00  0.00    -0.360 A  
HETATM    9  C   UNL     1     -12.026  13.275  68.916  1.00  0.00    -0.336 A  
HETATM   10 CL   UNL     1     -12.201  14.425  66.483  1.00  0.00    -0.419 Cl 
HETATM   11  C   UNL     1     -11.730  12.216  69.779  1.00  0.00    -0.381 A  
ENDBRANCH   2   4
TORSDOF 1
ENDMDL
MODEL       83
REMARK 921   NORMALIZED FREE ENERGY PREDICTED BY IDOCK:   -3.25 KCAL/MOL
REMARK 922        TOTAL FREE ENERGY PREDICTED BY IDOCK:   -3.49 KCAL/MOL
REMARK 923 INTER-LIGAND FREE ENERGY PREDICTED BY IDOCK:   -3.44 KCAL/MOL
REMARK 924 INTRA-LIGAND FREE ENERGY PREDICTED BY IDOCK:   -0.04 KCAL/MOL
REMARK 927      BINDING AFFINITY PREDICTED BY RF-SCORE:    0.00 PKD
ROOT
HETATM    1  O   UNL     1     -11.378   5.390  65.980  1.00  0.00    -0.773 OA 
HETATM    2  C   UNL     1     -10.192   5.710  66.700  1.00  0.00    -0.229 C  
HETATM    3  H   UNL     1     -11.196   4.887  65.195  1.00  0.00     0.000 HD 
ENDROOT
BRANCH   2   4
HETATM    4  C   UNL     1     -10.482   6.509  67.947  1.00  0.00    -0.273 A  
HETATM    5  C   UNL     1     -10.392   7.913  67.938  1.00  0.00    -0.221 A  
HETATM    6 CL   UNL     1      -9.957   8.781  66.507  1.00  0.00    -0.346 Cl 
HETATM    7  C   UNL     1     -10.651   8.660  69.092  1.00  0.00    -0.193 A  
HETATM    8  C   UNL     1     -11.006   8.008  70.268  1.00  0.00    -0.242 A  
HETATM    9  C   UNL     1     -11.105   6.621  70.304  1.00  0.00    -0.379 A  
HETATM   10 CL   UNL     1     -11.320   8.924  71.691  1.00  0.00    -0.382 Cl 
HETATM   11  C   UNL     1     -10.845   5.878  69.149  1.00  0.00    -0.406 A  
ENDBRANCH   2   4
TORSDOF 1
ENDMDL
MODEL       84
REMARK 921   NORMALIZED FREE ENERGY PREDICTED BY IDOCK:   -3.24 KCAL/MOL
REMARK 922        TOTAL FREE ENERGY PREDICTED BY IDOCK:   -3.47 KCAL/MOL
REMARK 923 INTER-LIGAND FREE ENERGY PREDICTED BY IDOCK:   -3.44 KCAL/MOL
REMARK 924 INTRA-LIGAND FREE ENERGY PREDICTED BY IDOCK:   -0.03 KCAL/MOL
REMARK 927      BINDING AFFINITY PREDICTED BY RF-SCORE:    0.00 PKD
ROOT
HETATM    1  O   UNL     1      -8.019  17.857  65.840  1.00  0.00    -0.523 OA 
HETATM    2  C   UNL     1      -8.798  17.158  66.805  1.00  0.00    -0.246 C  
HETATM    3  H   UNL     1      -7.538  18.581  66.224  1.00  0.00     0.000 HD 
ENDROOT
BRANCH   2   4
HETATM    4  C   UNL     1      -9.563  16.008  66.195  1.00  0.00    -0.366 A  
HETATM    5  C   UNL     1      -9.221  14.677  66.496  1.00  0.00    -0.266 A  
HETATM    6 CL   UNL     1      -7.924  14.301  67.577  1.00  0.00    -0.187 Cl 
HETATM    7  C   UNL     1      -9.919  13.607  65.929  1.00  0.00    -0.304 A  
HETATM    8  C   UNL     1     -10.971  13.857  65.054  1.00  0.00    -0.368 A  
HETATM    9  C   UNL     1     -11.333  15.164  64.742  1.00  0.00    -0.399 A  
HETATM   10 CL   UNL     1     -11.829  12.542  64.350  1.00  0.00    -0.425 Cl 
HETATM   11  C   UNL     1     -10.632  16.232  65.311  1.00  0.00    -0.357 A  
ENDBRANCH   2   4
TORSDOF 1
ENDMDL
MODEL       85
REMARK 921   NORMALIZED FREE ENERGY PREDICTED BY IDOCK:   -3.23 KCAL/MOL
REMARK 922        TOTAL FREE ENERGY PREDICTED BY IDOCK:   -3.46 KCAL/MOL
REMARK 923 INTER-LIGAND FREE ENERGY PREDICTED BY IDOCK:   -3.44 KCAL/MOL
REMARK 924 INTRA-LIGAND FREE ENERGY PREDICTED BY IDOCK:   -0.02 KCAL/MOL
REMARK 927      BINDING AFFINITY PREDICTED BY RF-SCORE:    0.00 PKD
ROOT
HETATM    1  O   UNL     1      -9.009  10.661  69.725  1.00  0.00    -0.392 OA 
HETATM    2  C   UNL     1      -8.904   9.403  70.384  1.00  0.00    -0.249 C  
HETATM    3  H   UNL     1      -8.160  11.017  69.494  1.00  0.00     0.000 HD 
ENDROOT
BRANCH   2   4
HETATM    4  C   UNL     1     -10.255   8.837  70.751  1.00  0.00    -0.262 A  
HETATM    5  C   UNL     1     -10.570   7.494  70.475  1.00  0.00    -0.225 A  
HETATM    6 CL   UNL     1      -9.431   6.437  69.716  1.00  0.00    -0.156 Cl 
HETATM    7  C   UNL     1     -11.821   6.965  70.805  1.00  0.00    -0.427 A  
HETATM    8  C   UNL     1     -12.772   7.774  71.418  1.00  0.00    -0.308 A  
HETATM    9  C   UNL     1     -12.484   9.105  71.705  1.00  0.00    -0.447 A  
HETATM   10 CL   UNL     1     -14.315   7.128  71.821  1.00  0.00    -0.551 Cl 
HETATM   11  C   UNL     1     -11.232   9.631  71.374  1.00  0.00    -0.426 A  
ENDBRANCH   2   4
TORSDOF 1
ENDMDL
MODEL       86
REMARK 921   NORMALIZED FREE ENERGY PREDICTED BY IDOCK:   -3.22 KCAL/MOL
REMARK 922        TOTAL FREE ENERGY PREDICTED BY IDOCK:   -3.46 KCAL/MOL
REMARK 923 INTER-LIGAND FREE ENERGY PREDICTED BY IDOCK:   -3.44 KCAL/MOL
REMARK 924 INTRA-LIGAND FREE ENERGY PREDICTED BY IDOCK:   -0.02 KCAL/MOL
REMARK 927      BINDING AFFINITY PREDICTED BY RF-SCORE:    0.00 PKD
ROOT
HETATM    1  O   UNL     1     -11.038   7.963  68.047  1.00  0.00    -0.457 OA 
HETATM    2  C   UNL     1     -10.164   8.780  67.274  1.00  0.00    -0.263 C  
HETATM    3  H   UNL     1     -10.738   7.064  68.095  1.00  0.00     0.000 HD 
ENDROOT
BRANCH   2   4
HETATM    4  C   UNL     1     -10.642  10.211  67.197  1.00  0.00    -0.308 A  
HETATM    5  C   UNL     1     -10.401  10.987  66.048  1.00  0.00    -0.254 A  
HETATM    6 CL   UNL     1      -9.560  10.341  64.682  1.00  0.00    -0.347 Cl 
HETATM    7  C   UNL     1     -10.833  12.315  65.973  1.00  0.00    -0.310 A  
HETATM    8  C   UNL     1     -11.514  12.880  67.045  1.00  0.00    -0.339 A  
HETATM    9  C   UNL     1     -11.769  12.133  68.191  1.00  0.00    -0.402 A  
HETATM   10 CL   UNL     1     -12.043  14.515  66.957  1.00  0.00    -0.381 Cl 
HETATM   11  C   UNL     1     -11.336  10.806  68.264  1.00  0.00    -0.376 A  
ENDBRANCH   2   4
TORSDOF 1
ENDMDL
MODEL       87
REMARK 921   NORMALIZED FREE ENERGY PREDICTED BY IDOCK:   -3.22 KCAL/MOL
REMARK 922        TOTAL FREE ENERGY PREDICTED BY IDOCK:   -3.45 KCAL/MOL
REMARK 923 INTER-LIGAND FREE ENERGY PREDICTED BY IDOCK:   -3.42 KCAL/MOL
REMARK 924 INTRA-LIGAND FREE ENERGY PREDICTED BY IDOCK:   -0.03 KCAL/MOL
REMARK 927      BINDING AFFINITY PREDICTED BY RF-SCORE:    0.00 PKD
ROOT
HETATM    1  O   UNL     1      -9.421  17.862  68.285  1.00  0.00    -0.279 OA 
HETATM    2  C   UNL     1     -10.765  17.479  68.007  1.00  0.00    -0.341 C  
HETATM    3  H   UNL     1      -9.212  18.717  67.929  1.00  0.00     0.000 HD 
ENDROOT
BRANCH   2   4
HETATM    4  C   UNL     1     -11.098  16.119  68.573  1.00  0.00    -0.357 A  
HETATM    5  C   UNL     1     -11.287  15.014  67.723  1.00  0.00    -0.330 A  
HETATM    6 CL   UNL     1     -11.141  15.160  66.006  1.00  0.00    -0.334 Cl 
HETATM    7  C   UNL     1     -11.603  13.754  68.239  1.00  0.00    -0.373 A  
HETATM    8  C   UNL     1     -11.731  13.585  69.614  1.00  0.00    -0.314 A  
HETATM    9  C   UNL     1     -11.545  14.660  70.477  1.00  0.00    -0.319 A  
HETATM   10 CL   UNL     1     -12.126  12.036  70.252  1.00  0.00    -0.419 Cl 
HETATM   11  C   UNL     1     -11.229  15.919  69.958  1.00  0.00    -0.354 A  
ENDBRANCH   2   4
TORSDOF 1
ENDMDL
MODEL       88
REMARK 921   NORMALIZED FREE ENERGY PREDICTED BY IDOCK:   -3.21 KCAL/MOL
REMARK 922        TOTAL FREE ENERGY PREDICTED BY IDOCK:   -3.44 KCAL/MOL
REMARK 923 INTER-LIGAND FREE ENERGY PREDICTED BY IDOCK:   -3.42 KCAL/MOL
REMARK 924 INTRA-LIGAND FREE ENERGY PREDICTED BY IDOCK:   -0.02 KCAL/MOL
REMARK 927      BINDING AFFINITY PREDICTED BY RF-SCORE:    0.00 PKD
ROOT
HETATM    1  O   UNL     1     -11.291   5.300  65.708  1.00  0.00    -0.792 OA 
HETATM    2  C   UNL     1     -10.378   5.359  66.799  1.00  0.00    -0.272 C  
HETATM    3  H   UNL     1     -11.233   4.478  65.236  1.00  0.00     0.000 HD 
ENDROOT
BRANCH   2   4
HETATM    4  C   UNL     1     -10.471   6.666  67.549  1.00  0.00    -0.299 A  
HETATM    5  C   UNL     1     -10.547   6.684  68.954  1.00  0.00    -0.230 A  
HETATM    6 CL   UNL     1     -10.532   5.222  69.878  1.00  0.00    -0.377 Cl 
HETATM    7  C   UNL     1     -10.641   7.890  69.655  1.00  0.00    -0.234 A  
HETATM    8  C   UNL     1     -10.656   9.093  68.957  1.00  0.00    -0.199 A  
HETATM    9  C   UNL     1     -10.578   9.104  67.568  1.00  0.00    -0.317 A  
HETATM   10 CL   UNL     1     -10.776  10.579  69.817  1.00  0.00    -0.310 Cl 
HETATM   11  C   UNL     1     -10.484   7.896  66.870  1.00  0.00    -0.388 A  
ENDBRANCH   2   4
TORSDOF 1
ENDMDL
MODEL       89
REMARK 921   NORMALIZED FREE ENERGY PREDICTED BY IDOCK:   -3.20 KCAL/MOL
REMARK 922        TOTAL FREE ENERGY PREDICTED BY IDOCK:   -3.44 KCAL/MOL
REMARK 923 INTER-LIGAND FREE ENERGY PREDICTED BY IDOCK:   -3.39 KCAL/MOL
REMARK 924 INTRA-LIGAND FREE ENERGY PREDICTED BY IDOCK:   -0.05 KCAL/MOL
REMARK 927      BINDING AFFINITY PREDICTED BY RF-SCORE:    0.00 PKD
ROOT
HETATM    1  O   UNL     1     -13.185  13.843  65.670  1.00  0.00    -0.623 OA 
HETATM    2  C   UNL     1     -11.774  13.962  65.524  1.00  0.00    -0.349 C  
HETATM    3  H   UNL     1     -13.617  14.689  65.675  1.00  0.00     0.000 HD 
ENDROOT
BRANCH   2   4
HETATM    4  C   UNL     1     -11.087  12.617  65.516  1.00  0.00    -0.329 A  
HETATM    5  C   UNL     1     -10.692  12.005  66.719  1.00  0.00    -0.243 A  
HETATM    6 CL   UNL     1     -10.979  12.756  68.251  1.00  0.00    -0.262 Cl 
HETATM    7  C   UNL     1     -10.048  10.764  66.719  1.00  0.00    -0.267 A  
HETATM    8  C   UNL     1      -9.795  10.119  65.513  1.00  0.00    -0.298 A  
HETATM    9  C   UNL     1     -10.179  10.700  64.309  1.00  0.00    -0.391 A  
HETATM   10 CL   UNL     1      -8.998   8.593  65.509  1.00  0.00    -0.227 Cl 
HETATM   11  C   UNL     1     -10.822  11.942  64.312  1.00  0.00    -0.396 A  
ENDBRANCH   2   4
TORSDOF 1
ENDMDL
MODEL       90
REMARK 921   NORMALIZED FREE ENERGY PREDICTED BY IDOCK:   -3.16 KCAL/MOL
REMARK 922        TOTAL FREE ENERGY PREDICTED BY IDOCK:   -3.40 KCAL/MOL
REMARK 923 INTER-LIGAND FREE ENERGY PREDICTED BY IDOCK:   -3.37 KCAL/MOL
REMARK 924 INTRA-LIGAND FREE ENERGY PREDICTED BY IDOCK:   -0.02 KCAL/MOL
REMARK 927      BINDING AFFINITY PREDICTED BY RF-SCORE:    0.00 PKD
ROOT
HETATM    1  O   UNL     1     -12.809  13.565  64.749  1.00  0.00    -0.677 OA 
HETATM    2  C   UNL     1     -12.586  13.907  66.113  1.00  0.00    -0.380 C  
HETATM    3  H   UNL     1     -13.278  14.245  64.281  1.00  0.00     0.000 HD 
ENDROOT
BRANCH   2   4
HETATM    4  C   UNL     1     -11.840  12.826  66.857  1.00  0.00    -0.440 A  
HETATM    5  C   UNL     1     -11.648  12.913  68.248  1.00  0.00    -0.335 A  
HETATM    6 CL   UNL     1     -12.259  14.248  69.162  1.00  0.00    -0.324 Cl 
HETATM    7  C   UNL     1     -10.951  11.920  68.943  1.00  0.00    -0.285 A  
HETATM    8  C   UNL     1     -10.440  10.826  68.253  1.00  0.00    -0.181 A  
HETATM    9  C   UNL     1     -10.619  10.713  66.878  1.00  0.00    -0.311 A  
HETATM   10 CL   UNL     1      -9.578   9.604  69.105  1.00  0.00    -0.166 Cl 
HETATM   11  C   UNL     1     -11.316  11.708  66.186  1.00  0.00    -0.275 A  
ENDBRANCH   2   4
TORSDOF 1
ENDMDL
MODEL       91
REMARK 921   NORMALIZED FREE ENERGY PREDICTED BY IDOCK:   -3.11 KCAL/MOL
REMARK 922        TOTAL FREE ENERGY PREDICTED BY IDOCK:   -3.34 KCAL/MOL
REMARK 923 INTER-LIGAND FREE ENERGY PREDICTED BY IDOCK:   -3.31 KCAL/MOL
REMARK 924 INTRA-LIGAND FREE ENERGY PREDICTED BY IDOCK:   -0.03 KCAL/MOL
REMARK 927      BINDING AFFINITY PREDICTED BY RF-SCORE:    0.00 PKD
ROOT
HETATM    1  O   UNL     1      -8.794  12.515  66.151  1.00  0.00    -0.419 OA 
HETATM    2  C   UNL     1     -10.033  11.820  66.049  1.00  0.00    -0.229 C  
HETATM    3  H   UNL     1      -8.374  12.623  65.306  1.00  0.00     0.000 HD 
ENDROOT
BRANCH   2   4
HETATM    4  C   UNL     1     -10.701  11.647  67.392  1.00  0.00    -0.277 A  
HETATM    5  C   UNL     1     -11.356  12.727  68.013  1.00  0.00    -0.292 A  
HETATM    6 CL   UNL     1     -11.430  14.286  67.269  1.00  0.00    -0.350 Cl 
HETATM    7  C   UNL     1     -11.970  12.577  69.260  1.00  0.00    -0.304 A  
HETATM    8  C   UNL     1     -11.939  11.342  69.899  1.00  0.00    -0.365 A  
HETATM    9  C   UNL     1     -11.302  10.257  69.305  1.00  0.00    -0.253 A  
HETATM   10 CL   UNL     1     -12.690  11.155  71.436  1.00  0.00    -0.526 Cl 
HETATM   11  C   UNL     1     -10.689  10.410  68.058  1.00  0.00    -0.292 A  
ENDBRANCH   2   4
TORSDOF 1
ENDMDL
MODEL       92
REMARK 921   NORMALIZED FREE ENERGY PREDICTED BY IDOCK:   -3.09 KCAL/MOL
REMARK 922        TOTAL FREE ENERGY PREDICTED BY IDOCK:   -3.32 KCAL/MOL
REMARK 923 INTER-LIGAND FREE ENERGY PREDICTED BY IDOCK:   -3.29 KCAL/MOL
REMARK 924 INTRA-LIGAND FREE ENERGY PREDICTED BY IDOCK:   -0.03 KCAL/MOL
REMARK 927      BINDING AFFINITY PREDICTED BY RF-SCORE:    0.00 PKD
ROOT
HETATM    1  O   UNL     1      -7.372   9.691  71.049  1.00  0.00    -0.321 OA 
HETATM    2  C   UNL     1      -8.149   8.523  70.807  1.00  0.00    -0.120 C  
HETATM    3  H   UNL     1      -6.465   9.578  70.789  1.00  0.00     0.000 HD 
ENDROOT
BRANCH   2   4
HETATM    4  C   UNL     1      -9.590   8.702  71.222  1.00  0.00    -0.292 A  
HETATM    5  C   UNL     1     -10.143   7.920  72.252  1.00  0.00    -0.236 A  
HETATM    6 CL   UNL     1      -9.203   6.733  73.089  1.00  0.00    -0.143 Cl 
HETATM    7  C   UNL     1     -11.479   8.074  72.636  1.00  0.00    -0.465 A  
HETATM    8  C   UNL     1     -12.276   9.016  71.995  1.00  0.00    -0.375 A  
HETATM    9  C   UNL     1     -11.753   9.805  70.975  1.00  0.00    -0.453 A  
HETATM   10 CL   UNL     1     -13.921   9.205  72.462  1.00  0.00    -0.510 Cl 
HETATM   11  C   UNL     1     -10.417   9.648  70.593  1.00  0.00    -0.379 A  
ENDBRANCH   2   4
TORSDOF 1
ENDMDL
MODEL       93
REMARK 921   NORMALIZED FREE ENERGY PREDICTED BY IDOCK:   -3.09 KCAL/MOL
REMARK 922        TOTAL FREE ENERGY PREDICTED BY IDOCK:   -3.31 KCAL/MOL
REMARK 923 INTER-LIGAND FREE ENERGY PREDICTED BY IDOCK:   -3.29 KCAL/MOL
REMARK 924 INTRA-LIGAND FREE ENERGY PREDICTED BY IDOCK:   -0.02 KCAL/MOL
REMARK 927      BINDING AFFINITY PREDICTED BY RF-SCORE:    0.00 PKD
ROOT
HETATM    1  O   UNL     1      -9.905  20.554  66.072  1.00  0.00    -0.635 OA 
HETATM    2  C   UNL     1      -9.832  19.139  66.217  1.00  0.00    -0.383 C  
HETATM    3  H   UNL     1     -10.570  20.816  65.448  1.00  0.00     0.000 HD 
ENDROOT
BRANCH   2   4
HETATM    4  C   UNL     1      -8.773  18.721  67.209  1.00  0.00    -0.287 A  
HETATM    5  C   UNL     1      -8.284  17.402  67.224  1.00  0.00    -0.205 A  
HETATM    6 CL   UNL     1      -8.862  16.211  66.110  1.00  0.00    -0.371 Cl 
HETATM    7  C   UNL     1      -7.309  17.005  68.144  1.00  0.00    -0.192 A  
HETATM    8  C   UNL     1      -6.811  17.926  69.059  1.00  0.00    -0.242 A  
HETATM    9  C   UNL     1      -7.275  19.238  69.064  1.00  0.00    -0.388 A  
HETATM   10 CL   UNL     1      -5.614  17.440  70.197  1.00  0.00    -0.240 Cl 
HETATM   11  C   UNL     1      -8.250  19.631  68.142  1.00  0.00    -0.348 A  
ENDBRANCH   2   4
TORSDOF 1
ENDMDL
MODEL       94
REMARK 921   NORMALIZED FREE ENERGY PREDICTED BY IDOCK:   -3.08 KCAL/MOL
REMARK 922        TOTAL FREE ENERGY PREDICTED BY IDOCK:   -3.30 KCAL/MOL
REMARK 923 INTER-LIGAND FREE ENERGY PREDICTED BY IDOCK:   -3.27 KCAL/MOL
REMARK 924 INTRA-LIGAND FREE ENERGY PREDICTED BY IDOCK:   -0.03 KCAL/MOL
REMARK 927      BINDING AFFINITY PREDICTED BY RF-SCORE:    0.00 PKD
ROOT
HETATM    1  O   UNL     1     -12.506  14.391  67.773  1.00  0.00    -0.588 OA 
HETATM    2  C   UNL     1     -11.278  14.079  68.425  1.00  0.00    -0.266 C  
HETATM    3  H   UNL     1     -12.490  15.252  67.373  1.00  0.00     0.000 HD 
ENDROOT
BRANCH   2   4
HETATM    4  C   UNL     1     -11.303  12.710  69.061  1.00  0.00    -0.345 A  
HETATM    5  C   UNL     1     -10.499  11.670  68.560  1.00  0.00    -0.217 A  
HETATM    6 CL   UNL     1      -9.449  11.913  67.207  1.00  0.00    -0.174 Cl 
HETATM    7  C   UNL     1     -10.522  10.398  69.139  1.00  0.00    -0.248 A  
HETATM    8  C   UNL     1     -11.349  10.152  70.229  1.00  0.00    -0.315 A  
HETATM    9  C   UNL     1     -12.151  11.164  70.748  1.00  0.00    -0.458 A  
HETATM   10 CL   UNL     1     -11.383   8.586  70.941  1.00  0.00    -0.295 Cl 
HETATM   11  C   UNL     1     -12.126  12.435  70.166  1.00  0.00    -0.366 A  
ENDBRANCH   2   4
TORSDOF 1
ENDMDL
MODEL       95
REMARK 921   NORMALIZED FREE ENERGY PREDICTED BY IDOCK:   -3.07 KCAL/MOL
REMARK 922        TOTAL FREE ENERGY PREDICTED BY IDOCK:   -3.30 KCAL/MOL
REMARK 923 INTER-LIGAND FREE ENERGY PREDICTED BY IDOCK:   -3.27 KCAL/MOL
REMARK 924 INTRA-LIGAND FREE ENERGY PREDICTED BY IDOCK:   -0.02 KCAL/MOL
REMARK 927      BINDING AFFINITY PREDICTED BY RF-SCORE:    0.00 PKD
ROOT
HETATM    1  O   UNL     1      -8.163  11.619  69.087  1.00  0.00    -0.365 OA 
HETATM    2  C   UNL     1      -9.199  10.862  68.468  1.00  0.00    -0.181 C  
HETATM    3  H   UNL     1      -7.462  11.829  68.482  1.00  0.00     0.000 HD 
ENDROOT
BRANCH   2   4
HETATM    4  C   UNL     1     -10.313  10.528  69.430  1.00  0.00    -0.258 A  
HETATM    5  C   UNL     1     -10.138   9.542  70.418  1.00  0.00    -0.271 A  
HETATM    6 CL   UNL     1      -8.648   8.679  70.579  1.00  0.00    -0.150 Cl 
HETATM    7  C   UNL     1     -11.168   9.222  71.308  1.00  0.00    -0.425 A  
HETATM    8  C   UNL     1     -12.386   9.888  71.220  1.00  0.00    -0.381 A  
HETATM    9  C   UNL     1     -12.584  10.870  70.255  1.00  0.00    -0.342 A  
HETATM   10 CL   UNL     1     -13.658   9.493  72.310  1.00  0.00    -0.515 Cl 
HETATM   11  C   UNL     1     -11.552  11.188  69.367  1.00  0.00    -0.388 A  
ENDBRANCH   2   4
TORSDOF 1
ENDMDL
MODEL       96
REMARK 921   NORMALIZED FREE ENERGY PREDICTED BY IDOCK:   -3.07 KCAL/MOL
REMARK 922        TOTAL FREE ENERGY PREDICTED BY IDOCK:   -3.29 KCAL/MOL
REMARK 923 INTER-LIGAND FREE ENERGY PREDICTED BY IDOCK:   -3.27 KCAL/MOL
REMARK 924 INTRA-LIGAND FREE ENERGY PREDICTED BY IDOCK:   -0.02 KCAL/MOL
REMARK 927      BINDING AFFINITY PREDICTED BY RF-SCORE:    0.00 PKD
ROOT
HETATM    1  O   UNL     1      -7.851  14.719  69.985  1.00  0.00    -0.390 OA 
HETATM    2  C   UNL     1      -8.501  14.828  68.723  1.00  0.00    -0.170 C  
HETATM    3  H   UNL     1      -7.611  13.823  70.189  1.00  0.00     0.000 HD 
ENDROOT
BRANCH   2   4
HETATM    4  C   UNL     1      -8.882  16.253  68.399  1.00  0.00    -0.202 A  
HETATM    5  C   UNL     1     -10.161  16.558  67.899  1.00  0.00    -0.273 A  
HETATM    6 CL   UNL     1     -11.348  15.326  67.642  1.00  0.00    -0.330 Cl 
HETATM    7  C   UNL     1     -10.519  17.874  67.590  1.00  0.00    -0.406 A  
HETATM    8  C   UNL     1      -9.600  18.900  67.780  1.00  0.00    -0.312 A  
HETATM    9  C   UNL     1      -8.330  18.626  68.277  1.00  0.00    -0.350 A  
HETATM   10 CL   UNL     1     -10.035  20.520  67.396  1.00  0.00    -0.571 Cl 
HETATM   11  C   UNL     1      -7.975  17.310  68.586  1.00  0.00    -0.267 A  
ENDBRANCH   2   4
TORSDOF 1
ENDMDL
MODEL       97
REMARK 921   NORMALIZED FREE ENERGY PREDICTED BY IDOCK:   -3.06 KCAL/MOL
REMARK 922        TOTAL FREE ENERGY PREDICTED BY IDOCK:   -3.29 KCAL/MOL
REMARK 923 INTER-LIGAND FREE ENERGY PREDICTED BY IDOCK:   -3.24 KCAL/MOL
REMARK 924 INTRA-LIGAND FREE ENERGY PREDICTED BY IDOCK:   -0.05 KCAL/MOL
REMARK 927      BINDING AFFINITY PREDICTED BY RF-SCORE:    0.00 PKD
ROOT
HETATM    1  O   UNL     1     -12.169   5.207  73.105  1.00  0.00    -0.481 OA 
HETATM    2  C   UNL     1     -10.895   5.809  72.899  1.00  0.00    -0.261 C  
HETATM    3  H   UNL     1     -12.121   4.459  73.689  1.00  0.00     0.000 HD 
ENDROOT
BRANCH   2   4
HETATM    4  C   UNL     1     -10.970   6.996  71.969  1.00  0.00    -0.264 A  
HETATM    5  C   UNL     1     -10.746   6.843  70.589  1.00  0.00    -0.236 A  
HETATM    6 CL   UNL     1     -10.385   5.299  69.898  1.00  0.00    -0.366 Cl 
HETATM    7  C   UNL     1     -10.806   7.939  69.723  1.00  0.00    -0.202 A  
HETATM    8  C   UNL     1     -11.094   9.202  70.229  1.00  0.00    -0.239 A  
HETATM    9  C   UNL     1     -11.324   9.381  71.590  1.00  0.00    -0.452 A  
HETATM   10 CL   UNL     1     -11.164  10.555  69.167  1.00  0.00    -0.289 Cl 
HETATM   11  C   UNL     1     -11.263   8.283  72.453  1.00  0.00    -0.451 A  
ENDBRANCH   2   4
TORSDOF 1
ENDMDL
MODEL       98
REMARK 921   NORMALIZED FREE ENERGY PREDICTED BY IDOCK:   -3.06 KCAL/MOL
REMARK 922        TOTAL FREE ENERGY PREDICTED BY IDOCK:   -3.28 KCAL/MOL
REMARK 923 INTER-LIGAND FREE ENERGY PREDICTED BY IDOCK:   -3.25 KCAL/MOL
REMARK 924 INTRA-LIGAND FREE ENERGY PREDICTED BY IDOCK:   -0.04 KCAL/MOL
REMARK 927      BINDING AFFINITY PREDICTED BY RF-SCORE:    0.00 PKD
ROOT
HETATM    1  O   UNL     1     -11.915  10.797  68.963  1.00  0.00    -0.482 OA 
HETATM    2  C   UNL     1     -10.719  10.472  69.665  1.00  0.00    -0.259 C  
HETATM    3  H   UNL     1     -11.843  11.621  68.496  1.00  0.00     0.000 HD 
ENDROOT
BRANCH   2   4
HETATM    4  C   UNL     1     -10.833   9.163  70.408  1.00  0.00    -0.285 A  
HETATM    5  C   UNL     1     -10.750   7.938  69.721  1.00  0.00    -0.233 A  
HETATM    6 CL   UNL     1     -10.509   7.877  68.009  1.00  0.00    -0.261 Cl 
HETATM    7  C   UNL     1     -10.862   6.721  70.401  1.00  0.00    -0.306 A  
HETATM    8  C   UNL     1     -11.055   6.717  71.778  1.00  0.00    -0.249 A  
HETATM    9  C   UNL     1     -11.137   7.914  72.482  1.00  0.00    -0.423 A  
HETATM   10 CL   UNL     1     -11.199   5.221  72.617  1.00  0.00    -0.318 Cl 
HETATM   11  C   UNL     1     -11.025   9.129  71.799  1.00  0.00    -0.429 A  
ENDBRANCH   2   4
TORSDOF 1
ENDMDL
MODEL       99
REMARK 921   NORMALIZED FREE ENERGY PREDICTED BY IDOCK:   -3.05 KCAL/MOL
REMARK 922        TOTAL FREE ENERGY PREDICTED BY IDOCK:   -3.28 KCAL/MOL
REMARK 923 INTER-LIGAND FREE ENERGY PREDICTED BY IDOCK:   -3.23 KCAL/MOL
REMARK 924 INTRA-LIGAND FREE ENERGY PREDICTED BY IDOCK:   -0.04 KCAL/MOL
REMARK 927      BINDING AFFINITY PREDICTED BY RF-SCORE:    0.00 PKD
ROOT
HETATM    1  O   UNL     1     -10.815  15.994  69.060  1.00  0.00    -0.245 OA 
HETATM    2  C   UNL     1     -11.883  15.354  68.368  1.00  0.00    -0.244 C  
HETATM    3  H   UNL     1     -10.982  16.918  69.200  1.00  0.00     0.000 HD 
ENDROOT
BRANCH   2   4
HETATM    4  C   UNL     1     -11.617  13.884  68.145  1.00  0.00    -0.370 A  
HETATM    5  C   UNL     1     -11.814  12.953  69.182  1.00  0.00    -0.303 A  
HETATM    6 CL   UNL     1     -12.371  13.446  70.744  1.00  0.00    -0.440 Cl 
HETATM    7  C   UNL     1     -11.562  11.592  68.986  1.00  0.00    -0.379 A  
HETATM    8  C   UNL     1     -11.113  11.146  67.747  1.00  0.00    -0.285 A  
HETATM    9  C   UNL     1     -10.914  12.045  66.704  1.00  0.00    -0.330 A  
HETATM   10 CL   UNL     1     -10.798   9.472  67.504  1.00  0.00    -0.308 Cl 
HETATM   11  C   UNL     1     -11.167  13.405  66.903  1.00  0.00    -0.330 A  
ENDBRANCH   2   4
TORSDOF 1
ENDMDL
MODEL      100
REMARK 921   NORMALIZED FREE ENERGY PREDICTED BY IDOCK:   -3.04 KCAL/MOL
REMARK 922        TOTAL FREE ENERGY PREDICTED BY IDOCK:   -3.27 KCAL/MOL
REMARK 923 INTER-LIGAND FREE ENERGY PREDICTED BY IDOCK:   -3.24 KCAL/MOL
REMARK 924 INTRA-LIGAND FREE ENERGY PREDICTED BY IDOCK:   -0.02 KCAL/MOL
REMARK 927      BINDING AFFINITY PREDICTED BY RF-SCORE:    0.00 PKD
ROOT
HETATM    1  O   UNL     1      -6.584  18.861  68.657  1.00  0.00    -0.246 OA 
HETATM    2  C   UNL     1      -7.495  19.342  67.673  1.00  0.00    -0.252 C  
HETATM    3  H   UNL     1      -6.051  19.557  69.022  1.00  0.00     0.000 HD 
ENDROOT
BRANCH   2   4
HETATM    4  C   UNL     1      -8.343  18.236  67.092  1.00  0.00    -0.250 A  
HETATM    5  C   UNL     1      -9.708  18.443  66.825  1.00  0.00    -0.326 A  
HETATM    6 CL   UNL     1     -10.470  19.963  67.141  1.00  0.00    -0.573 Cl 
HETATM    7  C   UNL     1     -10.502  17.421  66.294  1.00  0.00    -0.276 A  
HETATM    8  C   UNL     1      -9.936  16.181  66.022  1.00  0.00    -0.348 A  
HETATM    9  C   UNL     1      -8.587  15.951  66.273  1.00  0.00    -0.348 A  
HETATM   10 CL   UNL     1     -10.911  14.919  65.374  1.00  0.00    -0.351 Cl 
HETATM   11  C   UNL     1      -7.796  16.974  66.803  1.00  0.00    -0.274 A  
ENDBRANCH   2   4
TORSDOF 1
ENDMDL
MODEL      101
REMARK 921   NORMALIZED FREE ENERGY PREDICTED BY IDOCK:   -3.03 KCAL/MOL
REMARK 922        TOTAL FREE ENERGY PREDICTED BY IDOCK:   -3.25 KCAL/MOL
REMARK 923 INTER-LIGAND FREE ENERGY PREDICTED BY IDOCK:   -3.21 KCAL/MOL
REMARK 924 INTRA-LIGAND FREE ENERGY PREDICTED BY IDOCK:   -0.05 KCAL/MOL
REMARK 927      BINDING AFFINITY PREDICTED BY RF-SCORE:    0.00 PKD
ROOT
HETATM    1  O   UNL     1     -11.208  12.019  67.029  1.00  0.00    -0.282 OA 
HETATM    2  C   UNL     1     -10.321  12.436  65.996  1.00  0.00    -0.251 C  
HETATM    3  H   UNL     1     -11.402  11.090  66.981  1.00  0.00     0.000 HD 
ENDROOT
BRANCH   2   4
HETATM    4  C   UNL     1     -10.013  13.912  66.072  1.00  0.00    -0.325 A  
HETATM    5  C   UNL     1     -10.765  14.842  65.331  1.00  0.00    -0.377 A  
HETATM    6 CL   UNL     1     -12.071  14.341  64.313  1.00  0.00    -0.493 Cl 
HETATM    7  C   UNL     1     -10.481  16.210  65.390  1.00  0.00    -0.396 A  
HETATM    8  C   UNL     1      -9.442  16.663  66.194  1.00  0.00    -0.287 A  
HETATM    9  C   UNL     1      -8.684  15.766  66.940  1.00  0.00    -0.274 A  
HETATM   10 CL   UNL     1      -9.086  18.346  66.265  1.00  0.00    -0.260 Cl 
HETATM   11  C   UNL     1      -8.971  14.399  66.879  1.00  0.00    -0.263 A  
ENDBRANCH   2   4
TORSDOF 1
ENDMDL
MODEL      102
REMARK 921   NORMALIZED FREE ENERGY PREDICTED BY IDOCK:   -3.02 KCAL/MOL
REMARK 922        TOTAL FREE ENERGY PREDICTED BY IDOCK:   -3.24 KCAL/MOL
REMARK 923 INTER-LIGAND FREE ENERGY PREDICTED BY IDOCK:   -3.19 KCAL/MOL
REMARK 924 INTRA-LIGAND FREE ENERGY PREDICTED BY IDOCK:   -0.05 KCAL/MOL
REMARK 927      BINDING AFFINITY PREDICTED BY RF-SCORE:    0.00 PKD
ROOT
HETATM    1  O   UNL     1      -8.714  19.414  69.141  1.00  0.00    -0.299 OA 
HETATM    2  C   UNL     1     -10.113  19.278  68.910  1.00  0.00    -0.362 C  
HETATM    3  H   UNL     1      -8.514  20.147  69.711  1.00  0.00     0.000 HD 
ENDROOT
BRANCH   2   4
HETATM    4  C   UNL     1     -10.430  18.113  68.004  1.00  0.00    -0.387 A  
HETATM    5  C   UNL     1     -10.470  18.279  66.607  1.00  0.00    -0.360 A  
HETATM    6 CL   UNL     1     -10.153  19.812  65.872  1.00  0.00    -0.528 Cl 
HETATM    7  C   UNL     1     -10.771  17.207  65.762  1.00  0.00    -0.140 A  
HETATM    8  C   UNL     1     -11.033  15.954  66.306  1.00  0.00    -0.112 A  
HETATM    9  C   UNL     1     -10.996  15.761  67.683  1.00  0.00    -0.302 A  
HETATM   10 CL   UNL     1     -11.409  14.633  65.268  1.00  0.00    -0.341 Cl 
HETATM   11  C   UNL     1     -10.695  16.835  68.526  1.00  0.00    -0.358 A  
ENDBRANCH   2   4
TORSDOF 1
ENDMDL
MODEL      103
REMARK 921   NORMALIZED FREE ENERGY PREDICTED BY IDOCK:   -3.01 KCAL/MOL
REMARK 922        TOTAL FREE ENERGY PREDICTED BY IDOCK:   -3.24 KCAL/MOL
REMARK 923 INTER-LIGAND FREE ENERGY PREDICTED BY IDOCK:   -3.19 KCAL/MOL
REMARK 924 INTRA-LIGAND FREE ENERGY PREDICTED BY IDOCK:   -0.05 KCAL/MOL
REMARK 927      BINDING AFFINITY PREDICTED BY RF-SCORE:    0.00 PKD
ROOT
HETATM    1  O   UNL     1     -12.089  15.578  68.446  1.00  0.00    -0.520 OA 
HETATM    2  C   UNL     1     -10.748  15.685  68.914  1.00  0.00    -0.238 C  
HETATM    3  H   UNL     1     -12.530  14.812  68.795  1.00  0.00     0.000 HD 
ENDROOT
BRANCH   2   4
HETATM    4  C   UNL     1     -10.047  16.902  68.360  1.00  0.00    -0.304 A  
HETATM    5  C   UNL     1      -9.395  16.850  67.114  1.00  0.00    -0.234 A  
HETATM    6 CL   UNL     1      -9.374  15.404  66.165  1.00  0.00    -0.347 Cl 
HETATM    7  C   UNL     1      -8.737  17.970  66.598  1.00  0.00    -0.276 A  
HETATM    8  C   UNL     1      -8.727  19.157  67.322  1.00  0.00    -0.286 A  
HETATM    9  C   UNL     1      -9.367  19.237  68.555  1.00  0.00    -0.443 A  
HETATM   10 CL   UNL     1      -7.913  20.537  66.692  1.00  0.00    -0.245 Cl 
HETATM   11  C   UNL     1     -10.024  18.115  69.068  1.00  0.00    -0.294 A  
ENDBRANCH   2   4
TORSDOF 1
ENDMDL
MODEL      104
REMARK 921   NORMALIZED FREE ENERGY PREDICTED BY IDOCK:   -3.01 KCAL/MOL
REMARK 922        TOTAL FREE ENERGY PREDICTED BY IDOCK:   -3.24 KCAL/MOL
REMARK 923 INTER-LIGAND FREE ENERGY PREDICTED BY IDOCK:   -3.21 KCAL/MOL
REMARK 924 INTRA-LIGAND FREE ENERGY PREDICTED BY IDOCK:   -0.02 KCAL/MOL
REMARK 927      BINDING AFFINITY PREDICTED BY RF-SCORE:    0.00 PKD
ROOT
HETATM    1  O   UNL     1      -5.840  18.721  67.931  1.00  0.00    -0.193 OA 
HETATM    2  C   UNL     1      -7.067  19.267  67.456  1.00  0.00    -0.213 C  
HETATM    3  H   UNL     1      -5.095  19.265  67.708  1.00  0.00     0.000 HD 
ENDROOT
BRANCH   2   4
HETATM    4  C   UNL     1      -8.251  18.401  67.811  1.00  0.00    -0.265 A  
HETATM    5  C   UNL     1      -9.556  18.785  67.449  1.00  0.00    -0.306 A  
HETATM    6 CL   UNL     1      -9.858  20.251  66.582  1.00  0.00    -0.574 Cl 
HETATM    7  C   UNL     1     -10.659  17.992  67.782  1.00  0.00    -0.409 A  
HETATM    8  C   UNL     1     -10.468  16.804  68.478  1.00  0.00    -0.335 A  
HETATM    9  C   UNL     1      -9.188  16.399  68.845  1.00  0.00    -0.259 A  
HETATM   10 CL   UNL     1     -11.824  15.829  68.893  1.00  0.00    -0.398 Cl 
HETATM   11  C   UNL     1      -8.088  17.194  68.511  1.00  0.00    -0.260 A  
ENDBRANCH   2   4
TORSDOF 1
ENDMDL
MODEL      105
REMARK 921   NORMALIZED FREE ENERGY PREDICTED BY IDOCK:   -2.99 KCAL/MOL
REMARK 922        TOTAL FREE ENERGY PREDICTED BY IDOCK:   -3.21 KCAL/MOL
REMARK 923 INTER-LIGAND FREE ENERGY PREDICTED BY IDOCK:   -3.19 KCAL/MOL
REMARK 924 INTRA-LIGAND FREE ENERGY PREDICTED BY IDOCK:   -0.03 KCAL/MOL
REMARK 927      BINDING AFFINITY PREDICTED BY RF-SCORE:    0.00 PKD
ROOT
HETATM    1  O   UNL     1     -11.152  17.495  64.825  1.00  0.00    -0.959 OA 
HETATM    2  C   UNL     1     -10.616  16.248  65.257  1.00  0.00    -0.336 C  
HETATM    3  H   UNL     1     -11.821  17.386  64.159  1.00  0.00     0.000 HD 
ENDROOT
BRANCH   2   4
HETATM    4  C   UNL     1      -9.552  16.421  66.315  1.00  0.00    -0.338 A  
HETATM    5  C   UNL     1      -9.746  15.922  67.616  1.00  0.00    -0.223 A  
HETATM    6 CL   UNL     1     -11.195  15.088  68.057  1.00  0.00    -0.308 Cl 
HETATM    7  C   UNL     1      -8.769  16.085  68.603  1.00  0.00    -0.206 A  
HETATM    8  C   UNL     1      -7.585  16.748  68.297  1.00  0.00    -0.188 A  
HETATM    9  C   UNL     1      -7.367  17.248  67.017  1.00  0.00    -0.218 A  
HETATM   10 CL   UNL     1      -6.382  16.955  69.511  1.00  0.00    -0.230 Cl 
HETATM   11  C   UNL     1      -8.346  17.083  66.033  1.00  0.00    -0.180 A  
ENDBRANCH   2   4
TORSDOF 1
ENDMDL
MODEL      106
REMARK 921   NORMALIZED FREE ENERGY PREDICTED BY IDOCK:   -2.99 KCAL/MOL
REMARK 922        TOTAL FREE ENERGY PREDICTED BY IDOCK:   -3.21 KCAL/MOL
REMARK 923 INTER-LIGAND FREE ENERGY PREDICTED BY IDOCK:   -3.18 KCAL/MOL
REMARK 924 INTRA-LIGAND FREE ENERGY PREDICTED BY IDOCK:   -0.03 KCAL/MOL
REMARK 927      BINDING AFFINITY PREDICTED BY RF-SCORE:    0.00 PKD
ROOT
HETATM    1  O   UNL     1     -10.459   7.695  66.333  1.00  0.00    -0.483 OA 
HETATM    2  C   UNL     1      -9.628   8.203  67.372  1.00  0.00    -0.160 C  
HETATM    3  H   UNL     1      -9.962   7.220  65.677  1.00  0.00     0.000 HD 
ENDROOT
BRANCH   2   4
HETATM    4  C   UNL     1     -10.418   8.958  68.415  1.00  0.00    -0.230 A  
HETATM    5  C   UNL     1     -10.562   8.444  69.717  1.00  0.00    -0.221 A  
HETATM    6 CL   UNL     1      -9.841   6.942  70.180  1.00  0.00    -0.181 Cl 
HETATM    7  C   UNL     1     -11.298   9.133  70.685  1.00  0.00    -0.323 A  
HETATM    8  C   UNL     1     -11.896  10.346  70.362  1.00  0.00    -0.328 A  
HETATM    9  C   UNL     1     -11.766  10.878  69.083  1.00  0.00    -0.397 A  
HETATM   10 CL   UNL     1     -12.807  11.194  71.551  1.00  0.00    -0.545 Cl 
HETATM   11  C   UNL     1     -11.029  10.187  68.117  1.00  0.00    -0.313 A  
ENDBRANCH   2   4
TORSDOF 1
ENDMDL
MODEL      107
REMARK 921   NORMALIZED FREE ENERGY PREDICTED BY IDOCK:   -2.97 KCAL/MOL
REMARK 922        TOTAL FREE ENERGY PREDICTED BY IDOCK:   -3.19 KCAL/MOL
REMARK 923 INTER-LIGAND FREE ENERGY PREDICTED BY IDOCK:   -3.17 KCAL/MOL
REMARK 924 INTRA-LIGAND FREE ENERGY PREDICTED BY IDOCK:   -0.02 KCAL/MOL
REMARK 927      BINDING AFFINITY PREDICTED BY RF-SCORE:    0.00 PKD
ROOT
HETATM    1  O   UNL     1     -10.488   5.065  69.982  1.00  0.00    -0.276 OA 
HETATM    2  C   UNL     1      -9.752   6.138  70.560  1.00  0.00    -0.173 C  
HETATM    3  H   UNL     1      -9.930   4.332  69.750  1.00  0.00     0.000 HD 
ENDROOT
BRANCH   2   4
HETATM    4  C   UNL     1     -10.639   7.304  70.928  1.00  0.00    -0.234 A  
HETATM    5  C   UNL     1     -10.165   8.625  70.831  1.00  0.00    -0.209 A  
HETATM    6 CL   UNL     1      -8.562   8.972  70.283  1.00  0.00    -0.167 Cl 
HETATM    7  C   UNL     1     -10.978   9.709  71.177  1.00  0.00    -0.430 A  
HETATM    8  C   UNL     1     -12.276   9.482  71.623  1.00  0.00    -0.398 A  
HETATM    9  C   UNL     1     -12.770   8.186  71.724  1.00  0.00    -0.356 A  
HETATM   10 CL   UNL     1     -13.276  10.814  72.054  1.00  0.00    -0.561 Cl 
HETATM   11  C   UNL     1     -11.955   7.104  71.378  1.00  0.00    -0.364 A  
ENDBRANCH   2   4
TORSDOF 1
ENDMDL
MODEL      108
REMARK 921   NORMALIZED FREE ENERGY PREDICTED BY IDOCK:   -2.95 KCAL/MOL
REMARK 922        TOTAL FREE ENERGY PREDICTED BY IDOCK:   -3.17 KCAL/MOL
REMARK 923 INTER-LIGAND FREE ENERGY PREDICTED BY IDOCK:   -3.12 KCAL/MOL
REMARK 924 INTRA-LIGAND FREE ENERGY PREDICTED BY IDOCK:   -0.05 KCAL/MOL
REMARK 927      BINDING AFFINITY PREDICTED BY RF-SCORE:    0.00 PKD
ROOT
HETATM    1  O   UNL     1     -11.827  11.109  67.777  1.00  0.00    -0.608 OA 
HETATM    2  C   UNL     1     -11.273  11.359  66.489  1.00  0.00    -0.209 C  
HETATM    3  H   UNL     1     -11.945  10.182  67.943  1.00  0.00     0.000 HD 
ENDROOT
BRANCH   2   4
HETATM    4  C   UNL     1     -11.085  12.833  66.225  1.00  0.00    -0.321 A  
HETATM    5  C   UNL     1      -9.908  13.491  66.627  1.00  0.00    -0.279 A  
HETATM    6 CL   UNL     1      -8.630  12.645  67.429  1.00  0.00    -0.180 Cl 
HETATM    7  C   UNL     1      -9.730  14.858  66.393  1.00  0.00    -0.306 A  
HETATM    8  C   UNL     1     -10.729  15.582  65.751  1.00  0.00    -0.353 A  
HETATM    9  C   UNL     1     -11.901  14.956  65.340  1.00  0.00    -0.188 A  
HETATM   10 CL   UNL     1     -10.515  17.266  65.466  1.00  0.00    -0.228 Cl 
HETATM   11  C   UNL     1     -12.076  13.589  65.575  1.00  0.00    -0.454 A  
ENDBRANCH   2   4
TORSDOF 1
ENDMDL
MODEL      109
REMARK 921   NORMALIZED FREE ENERGY PREDICTED BY IDOCK:   -2.93 KCAL/MOL
REMARK 922        TOTAL FREE ENERGY PREDICTED BY IDOCK:   -3.15 KCAL/MOL
REMARK 923 INTER-LIGAND FREE ENERGY PREDICTED BY IDOCK:   -3.11 KCAL/MOL
REMARK 924 INTRA-LIGAND FREE ENERGY PREDICTED BY IDOCK:   -0.04 KCAL/MOL
REMARK 927      BINDING AFFINITY PREDICTED BY RF-SCORE:    0.00 PKD
ROOT
HETATM    1  O   UNL     1      -8.953  15.991  66.934  1.00  0.00    -0.200 OA 
HETATM    2  C   UNL     1     -10.312  15.679  66.645  1.00  0.00    -0.289 C  
HETATM    3  H   UNL     1      -8.642  16.735  66.433  1.00  0.00     0.000 HD 
ENDROOT
BRANCH   2   4
HETATM    4  C   UNL     1     -10.807  14.495  67.442  1.00  0.00    -0.291 A  
HETATM    5  C   UNL     1     -10.889  13.219  66.856  1.00  0.00    -0.276 A  
HETATM    6 CL   UNL     1     -10.425  12.949  65.211  1.00  0.00    -0.303 Cl 
HETATM    7  C   UNL     1     -11.353  12.120  67.584  1.00  0.00    -0.379 A  
HETATM    8  C   UNL     1     -11.738  12.285  68.910  1.00  0.00    -0.328 A  
HETATM    9  C   UNL     1     -11.663  13.536  69.516  1.00  0.00    -0.382 A  
HETATM   10 CL   UNL     1     -12.315  10.935  69.809  1.00  0.00    -0.372 Cl 
HETATM   11  C   UNL     1     -11.198  14.633  68.784  1.00  0.00    -0.285 A  
ENDBRANCH   2   4
TORSDOF 1
ENDMDL
MODEL      110
REMARK 921   NORMALIZED FREE ENERGY PREDICTED BY IDOCK:   -2.92 KCAL/MOL
REMARK 922        TOTAL FREE ENERGY PREDICTED BY IDOCK:   -3.14 KCAL/MOL
REMARK 923 INTER-LIGAND FREE ENERGY PREDICTED BY IDOCK:   -3.11 KCAL/MOL
REMARK 924 INTRA-LIGAND FREE ENERGY PREDICTED BY IDOCK:   -0.03 KCAL/MOL
REMARK 927      BINDING AFFINITY PREDICTED BY RF-SCORE:    0.00 PKD
ROOT
HETATM    1  O   UNL     1     -10.671  19.789  66.402  1.00  0.00    -0.464 OA 
HETATM    2  C   UNL     1      -9.442  19.092  66.230  1.00  0.00    -0.314 C  
HETATM    3  H   UNL     1     -11.346  19.478  65.810  1.00  0.00     0.000 HD 
ENDROOT
BRANCH   2   4
HETATM    4  C   UNL     1      -8.370  19.587  67.170  1.00  0.00    -0.321 A  
HETATM    5  C   UNL     1      -7.184  20.158  66.671  1.00  0.00    -0.260 A  
HETATM    6 CL   UNL     1      -6.908  20.324  64.972  1.00  0.00    -0.325 Cl 
HETATM    7  C   UNL     1      -6.184  20.611  67.536  1.00  0.00    -0.309 A  
HETATM    8  C   UNL     1      -6.359  20.501  68.911  1.00  0.00    -0.261 A  
HETATM    9  C   UNL     1      -7.523  19.944  69.431  1.00  0.00    -0.081 A  
HETATM   10 CL   UNL     1      -5.126  21.054  69.977  1.00  0.00    -0.405 Cl 
HETATM   11  C   UNL     1      -8.522  19.491  68.564  1.00  0.00    -0.374 A  
ENDBRANCH   2   4
TORSDOF 1
ENDMDL
MODEL      111
REMARK 921   NORMALIZED FREE ENERGY PREDICTED BY IDOCK:   -2.92 KCAL/MOL
REMARK 922        TOTAL FREE ENERGY PREDICTED BY IDOCK:   -3.13 KCAL/MOL
REMARK 923 INTER-LIGAND FREE ENERGY PREDICTED BY IDOCK:   -3.09 KCAL/MOL
REMARK 924 INTRA-LIGAND FREE ENERGY PREDICTED BY IDOCK:   -0.05 KCAL/MOL
REMARK 927      BINDING AFFINITY PREDICTED BY RF-SCORE:    0.00 PKD
ROOT
HETATM    1  O   UNL     1     -10.565  11.247  65.113  1.00  0.00    -0.290 OA 
HETATM    2  C   UNL     1      -9.748  11.998  66.005  1.00  0.00    -0.239 C  
HETATM    3  H   UNL     1     -10.062  10.852  64.412  1.00  0.00     0.000 HD 
ENDROOT
BRANCH   2   4
HETATM    4  C   UNL     1     -10.548  12.627  67.120  1.00  0.00    -0.252 A  
HETATM    5  C   UNL     1     -11.070  13.927  66.985  1.00  0.00    -0.301 A  
HETATM    6 CL   UNL     1     -10.825  14.853  65.545  1.00  0.00    -0.340 Cl 
HETATM    7  C   UNL     1     -11.806  14.518  68.016  1.00  0.00    -0.350 A  
HETATM    8  C   UNL     1     -12.031  13.814  69.194  1.00  0.00    -0.361 A  
HETATM    9  C   UNL     1     -11.530  12.525  69.351  1.00  0.00    -0.327 A  
HETATM   10 CL   UNL     1     -12.932  14.541  70.467  1.00  0.00    -0.366 Cl 
HETATM   11  C   UNL     1     -10.794  11.936  68.319  1.00  0.00    -0.261 A  
ENDBRANCH   2   4
TORSDOF 1
ENDMDL
MODEL      112
REMARK 921   NORMALIZED FREE ENERGY PREDICTED BY IDOCK:   -2.91 KCAL/MOL
REMARK 922        TOTAL FREE ENERGY PREDICTED BY IDOCK:   -3.13 KCAL/MOL
REMARK 923 INTER-LIGAND FREE ENERGY PREDICTED BY IDOCK:   -3.11 KCAL/MOL
REMARK 924 INTRA-LIGAND FREE ENERGY PREDICTED BY IDOCK:   -0.02 KCAL/MOL
REMARK 927      BINDING AFFINITY PREDICTED BY RF-SCORE:    0.00 PKD
ROOT
HETATM    1  O   UNL     1     -12.323   8.032  72.917  1.00  0.00    -0.616 OA 
HETATM    2  C   UNL     1     -12.383   7.304  71.694  1.00  0.00    -0.352 C  
HETATM    3  H   UNL     1     -12.917   8.774  72.922  1.00  0.00     0.000 HD 
ENDROOT
BRANCH   2   4
HETATM    4  C   UNL     1     -11.439   6.126  71.686  1.00  0.00    -0.331 A  
HETATM    5  C   UNL     1     -10.800   5.725  70.498  1.00  0.00    -0.278 A  
HETATM    6 CL   UNL     1     -11.061   6.562  69.007  1.00  0.00    -0.368 Cl 
HETATM    7  C   UNL     1      -9.931   4.631  70.481  1.00  0.00    -0.295 A  
HETATM    8  C   UNL     1      -9.688   3.926  71.654  1.00  0.00    -0.170 A  
HETATM    9  C   UNL     1     -10.303   4.303  72.844  1.00  0.00    -0.241 A  
HETATM   10 CL   UNL     1      -8.621   2.575  71.635  1.00  0.00    -0.087 Cl 
HETATM   11  C   UNL     1     -11.172   5.398  72.858  1.00  0.00    -0.372 A  
ENDBRANCH   2   4
TORSDOF 1
ENDMDL
MODEL      113
REMARK 921   NORMALIZED FREE ENERGY PREDICTED BY IDOCK:   -2.91 KCAL/MOL
REMARK 922        TOTAL FREE ENERGY PREDICTED BY IDOCK:   -3.13 KCAL/MOL
REMARK 923 INTER-LIGAND FREE ENERGY PREDICTED BY IDOCK:   -3.09 KCAL/MOL
REMARK 924 INTRA-LIGAND FREE ENERGY PREDICTED BY IDOCK:   -0.04 KCAL/MOL
REMARK 927      BINDING AFFINITY PREDICTED BY RF-SCORE:    0.00 PKD
ROOT
HETATM    1  O   UNL     1     -11.528  14.236  70.894  1.00  0.00    -0.514 OA 
HETATM    2  C   UNL     1     -12.248  14.920  69.874  1.00  0.00    -0.309 C  
HETATM    3  H   UNL     1     -12.090  13.673  71.413  1.00  0.00     0.000 HD 
ENDROOT
BRANCH   2   4
HETATM    4  C   UNL     1     -11.355  15.816  69.049  1.00  0.00    -0.354 A  
HETATM    5  C   UNL     1     -10.964  15.441  67.751  1.00  0.00    -0.311 A  
HETATM    6 CL   UNL     1     -11.491  13.953  67.044  1.00  0.00    -0.346 Cl 
HETATM    7  C   UNL     1     -10.131  16.261  66.984  1.00  0.00    -0.270 A  
HETATM    8  C   UNL     1      -9.682  17.468  67.508  1.00  0.00    -0.278 A  
HETATM    9  C   UNL     1     -10.057  17.865  68.788  1.00  0.00    -0.384 A  
HETATM   10 CL   UNL     1      -8.652  18.478  66.568  1.00  0.00    -0.286 Cl 
HETATM   11  C   UNL     1     -10.890  17.043  69.552  1.00  0.00    -0.041 A  
ENDBRANCH   2   4
TORSDOF 1
ENDMDL
MODEL      114
REMARK 921   NORMALIZED FREE ENERGY PREDICTED BY IDOCK:   -2.91 KCAL/MOL
REMARK 922        TOTAL FREE ENERGY PREDICTED BY IDOCK:   -3.13 KCAL/MOL
REMARK 923 INTER-LIGAND FREE ENERGY PREDICTED BY IDOCK:   -3.09 KCAL/MOL
REMARK 924 INTRA-LIGAND FREE ENERGY PREDICTED BY IDOCK:   -0.04 KCAL/MOL
REMARK 927      BINDING AFFINITY PREDICTED BY RF-SCORE:    0.00 PKD
ROOT
HETATM    1  O   UNL     1     -11.233   6.378  66.571  1.00  0.00    -0.699 OA 
HETATM    2  C   UNL     1     -10.051   7.033  67.019  1.00  0.00    -0.229 C  
HETATM    3  H   UNL     1     -11.120   5.437  66.507  1.00  0.00     0.000 HD 
ENDROOT
BRANCH   2   4
HETATM    4  C   UNL     1     -10.232   8.528  67.121  1.00  0.00    -0.355 A  
HETATM    5  C   UNL     1     -10.529   9.134  68.356  1.00  0.00    -0.199 A  
HETATM    6 CL   UNL     1     -10.693   8.200  69.803  1.00  0.00    -0.245 Cl 
HETATM    7  C   UNL     1     -10.705  10.517  68.456  1.00  0.00    -0.259 A  
HETATM    8  C   UNL     1     -10.583  11.311  67.321  1.00  0.00    -0.233 A  
HETATM    9  C   UNL     1     -10.286  10.738  66.089  1.00  0.00    -0.308 A  
HETATM   10 CL   UNL     1     -10.805  13.014  67.441  1.00  0.00    -0.259 Cl 
HETATM   11  C   UNL     1     -10.110   9.355  65.991  1.00  0.00    -0.302 A  
ENDBRANCH   2   4
TORSDOF 1
ENDMDL
MODEL      115
REMARK 921   NORMALIZED FREE ENERGY PREDICTED BY IDOCK:   -2.91 KCAL/MOL
REMARK 922        TOTAL FREE ENERGY PREDICTED BY IDOCK:   -3.13 KCAL/MOL
REMARK 923 INTER-LIGAND FREE ENERGY PREDICTED BY IDOCK:   -3.11 KCAL/MOL
REMARK 924 INTRA-LIGAND FREE ENERGY PREDICTED BY IDOCK:   -0.02 KCAL/MOL
REMARK 927      BINDING AFFINITY PREDICTED BY RF-SCORE:    0.00 PKD
ROOT
HETATM    1  O   UNL     1      -9.417  10.689  69.627  1.00  0.00    -0.414 OA 
HETATM    2  C   UNL     1     -10.324   9.706  70.116  1.00  0.00    -0.266 C  
HETATM    3  H   UNL     1      -9.322  11.419  70.226  1.00  0.00     0.000 HD 
ENDROOT
BRANCH   2   4
HETATM    4  C   UNL     1     -10.475   8.545  69.162  1.00  0.00    -0.217 A  
HETATM    5  C   UNL     1     -10.883   7.282  69.628  1.00  0.00    -0.222 A  
HETATM    6 CL   UNL     1     -11.234   7.005  71.298  1.00  0.00    -0.284 Cl 
HETATM    7  C   UNL     1     -11.018   6.200  68.752  1.00  0.00    -0.421 A  
HETATM    8  C   UNL     1     -10.748   6.372  67.399  1.00  0.00    -0.336 A  
HETATM    9  C   UNL     1     -10.346   7.612  66.911  1.00  0.00    -0.388 A  
HETATM   10 CL   UNL     1     -10.907   5.041  66.319  1.00  0.00    -0.277 Cl 
HETATM   11  C   UNL     1     -10.212   8.691  67.790  1.00  0.00    -0.282 A  
ENDBRANCH   2   4
TORSDOF 1
ENDMDL
MODEL      116
REMARK 921   NORMALIZED FREE ENERGY PREDICTED BY IDOCK:   -2.89 KCAL/MOL
REMARK 922        TOTAL FREE ENERGY PREDICTED BY IDOCK:   -3.11 KCAL/MOL
REMARK 923 INTER-LIGAND FREE ENERGY PREDICTED BY IDOCK:   -3.09 KCAL/MOL
REMARK 924 INTRA-LIGAND FREE ENERGY PREDICTED BY IDOCK:   -0.02 KCAL/MOL
REMARK 927      BINDING AFFINITY PREDICTED BY RF-SCORE:    0.00 PKD
ROOT
HETATM    1  O   UNL     1     -11.593  11.769  70.408  1.00  0.00    -0.506 OA 
HETATM    2  C   UNL     1     -11.194  10.579  69.735  1.00  0.00    -0.298 C  
HETATM    3  H   UNL     1     -12.124  12.331  69.857  1.00  0.00     0.000 HD 
ENDROOT
BRANCH   2   4
HETATM    4  C   UNL     1     -10.349   9.685  70.611  1.00  0.00    -0.365 A  
HETATM    5  C   UNL     1     -10.930   8.956  71.665  1.00  0.00    -0.345 A  
HETATM    6 CL   UNL     1     -12.625   9.044  71.997  1.00  0.00    -0.436 Cl 
HETATM    7  C   UNL     1     -10.153   8.132  72.485  1.00  0.00    -0.370 A  
HETATM    8  C   UNL     1      -8.785   8.026  72.257  1.00  0.00    -0.164 A  
HETATM    9  C   UNL     1      -8.186   8.733  71.220  1.00  0.00    -0.212 A  
HETATM   10 CL   UNL     1      -7.825   7.017  73.268  1.00  0.00    -0.104 Cl 
HETATM   11  C   UNL     1      -8.966   9.557  70.401  1.00  0.00    -0.291 A  
ENDBRANCH   2   4
TORSDOF 1
ENDMDL
MODEL      117
REMARK 921   NORMALIZED FREE ENERGY PREDICTED BY IDOCK:   -2.88 KCAL/MOL
REMARK 922        TOTAL FREE ENERGY PREDICTED BY IDOCK:   -3.10 KCAL/MOL
REMARK 923 INTER-LIGAND FREE ENERGY PREDICTED BY IDOCK:   -3.06 KCAL/MOL
REMARK 924 INTRA-LIGAND FREE ENERGY PREDICTED BY IDOCK:   -0.04 KCAL/MOL
REMARK 927      BINDING AFFINITY PREDICTED BY RF-SCORE:    0.00 PKD
ROOT
HETATM    1  O   UNL     1     -11.440   5.965  66.547  1.00  0.00    -0.636 OA 
HETATM    2  C   UNL     1     -10.714   6.805  67.440  1.00  0.00    -0.335 C  
HETATM    3  H   UNL     1     -11.425   6.292  65.656  1.00  0.00     0.000 HD 
ENDROOT
BRANCH   2   4
HETATM    4  C   UNL     1     -10.737   6.286  68.857  1.00  0.00    -0.357 A  
HETATM    5  C   UNL     1      -9.892   5.232  69.250  1.00  0.00    -0.186 A  
HETATM    6 CL   UNL     1      -8.790   4.496  68.137  1.00  0.00    -0.116 Cl 
HETATM    7  C   UNL     1      -9.913   4.741  70.558  1.00  0.00    -0.306 A  
HETATM    8  C   UNL     1     -10.780   5.300  71.490  1.00  0.00    -0.151 A  
HETATM    9  C   UNL     1     -11.624   6.345  71.129  1.00  0.00    -0.378 A  
HETATM   10 CL   UNL     1     -10.812   4.693  73.101  1.00  0.00    -0.308 Cl 
HETATM   11  C   UNL     1     -11.601   6.835  69.820  1.00  0.00    -0.284 A  
ENDBRANCH   2   4
TORSDOF 1
ENDMDL
MODEL      118
REMARK 921   NORMALIZED FREE ENERGY PREDICTED BY IDOCK:   -2.88 KCAL/MOL
REMARK 922        TOTAL FREE ENERGY PREDICTED BY IDOCK:   -3.10 KCAL/MOL
REMARK 923 INTER-LIGAND FREE ENERGY PREDICTED BY IDOCK:   -3.07 KCAL/MOL
REMARK 924 INTRA-LIGAND FREE ENERGY PREDICTED BY IDOCK:   -0.02 KCAL/MOL
REMARK 927      BINDING AFFINITY PREDICTED BY RF-SCORE:    0.00 PKD
ROOT
HETATM    1  O   UNL     1     -12.180  10.975  67.997  1.00  0.00    -0.703 OA 
HETATM    2  C   UNL     1     -11.130  11.146  67.049  1.00  0.00    -0.273 C  
HETATM    3  H   UNL     1     -12.475  10.074  68.046  1.00  0.00     0.000 HD 
ENDROOT
BRANCH   2   4
HETATM    4  C   UNL     1     -10.662  12.579  66.970  1.00  0.00    -0.268 A  
HETATM    5  C   UNL     1      -9.289  12.883  66.907  1.00  0.00    -0.240 A  
HETATM    6 CL   UNL     1      -8.087  11.639  66.911  1.00  0.00    -0.163 Cl 
HETATM    7  C   UNL     1      -8.847  14.208  66.841  1.00  0.00    -0.223 A  
HETATM    8  C   UNL     1      -9.775  15.244  66.834  1.00  0.00    -0.233 A  
HETATM    9  C   UNL     1     -11.138  14.970  66.891  1.00  0.00    -0.331 A  
HETATM   10 CL   UNL     1      -9.234  16.876  66.758  1.00  0.00    -0.252 Cl 
HETATM   11  C   UNL     1     -11.577  13.645  66.957  1.00  0.00    -0.389 A  
ENDBRANCH   2   4
TORSDOF 1
ENDMDL
MODEL      119
REMARK 921   NORMALIZED FREE ENERGY PREDICTED BY IDOCK:   -2.86 KCAL/MOL
REMARK 922        TOTAL FREE ENERGY PREDICTED BY IDOCK:   -3.07 KCAL/MOL
REMARK 923 INTER-LIGAND FREE ENERGY PREDICTED BY IDOCK:   -3.05 KCAL/MOL
REMARK 924 INTRA-LIGAND FREE ENERGY PREDICTED BY IDOCK:   -0.02 KCAL/MOL
REMARK 927      BINDING AFFINITY PREDICTED BY RF-SCORE:    0.00 PKD
ROOT
HETATM    1  O   UNL     1     -12.239  10.944  68.416  1.00  0.00    -0.813 OA 
HETATM    2  C   UNL     1     -11.126  10.150  68.018  1.00  0.00    -0.240 C  
HETATM    3  H   UNL     1     -12.490  11.569  67.747  1.00  0.00     0.000 HD 
ENDROOT
BRANCH   2   4
HETATM    4  C   UNL     1     -10.727   9.155  69.082  1.00  0.00    -0.190 A  
HETATM    5  C   UNL     1     -10.527   7.800  68.760  1.00  0.00    -0.181 A  
HETATM    6 CL   UNL     1     -10.720   7.219  67.142  1.00  0.00    -0.411 Cl 
HETATM    7  C   UNL     1     -10.165   6.872  69.740  1.00  0.00    -0.210 A  
HETATM    8  C   UNL     1      -9.996   7.290  71.056  1.00  0.00    -0.187 A  
HETATM    9  C   UNL     1     -10.184   8.625  71.401  1.00  0.00    -0.324 A  
HETATM   10 CL   UNL     1      -9.556   6.149  72.266  1.00  0.00    -0.159 Cl 
HETATM   11  C   UNL     1     -10.546   9.551  70.418  1.00  0.00    -0.333 A  
ENDBRANCH   2   4
TORSDOF 1
ENDMDL
MODEL      120
REMARK 921   NORMALIZED FREE ENERGY PREDICTED BY IDOCK:   -2.85 KCAL/MOL
REMARK 922        TOTAL FREE ENERGY PREDICTED BY IDOCK:   -3.07 KCAL/MOL
REMARK 923 INTER-LIGAND FREE ENERGY PREDICTED BY IDOCK:   -3.02 KCAL/MOL
REMARK 924 INTRA-LIGAND FREE ENERGY PREDICTED BY IDOCK:   -0.04 KCAL/MOL
REMARK 927      BINDING AFFINITY PREDICTED BY RF-SCORE:    0.00 PKD
ROOT
HETATM    1  O   UNL     1      -8.113  13.655  66.707  1.00  0.00    -0.402 OA 
HETATM    2  C   UNL     1      -9.338  14.319  66.410  1.00  0.00    -0.245 C  
HETATM    3  H   UNL     1      -7.617  13.451  65.923  1.00  0.00     0.000 HD 
ENDROOT
BRANCH   2   4
HETATM    4  C   UNL     1     -10.127  14.643  67.655  1.00  0.00    -0.228 A  
HETATM    5  C   UNL     1      -9.787  15.751  68.453  1.00  0.00    -0.206 A  
HETATM    6 CL   UNL     1      -8.465  16.788  68.042  1.00  0.00    -0.201 Cl 
HETATM    7  C   UNL     1     -10.508  16.053  69.612  1.00  0.00    -0.300 A  
HETATM    8  C   UNL     1     -11.581  15.250  69.985  1.00  0.00    -0.305 A  
HETATM    9  C   UNL     1     -11.940  14.150  69.212  1.00  0.00    -0.382 A  
HETATM   10 CL   UNL     1     -12.467  15.616  71.414  1.00  0.00    -0.460 Cl 
HETATM   11  C   UNL     1     -11.217  13.851  68.054  1.00  0.00    -0.295 A  
ENDBRANCH   2   4
TORSDOF 1
ENDMDL
MODEL      121
REMARK 921   NORMALIZED FREE ENERGY PREDICTED BY IDOCK:   -2.85 KCAL/MOL
REMARK 922        TOTAL FREE ENERGY PREDICTED BY IDOCK:   -3.07 KCAL/MOL
REMARK 923 INTER-LIGAND FREE ENERGY PREDICTED BY IDOCK:   -3.05 KCAL/MOL
REMARK 924 INTRA-LIGAND FREE ENERGY PREDICTED BY IDOCK:   -0.02 KCAL/MOL
REMARK 927      BINDING AFFINITY PREDICTED BY RF-SCORE:    0.00 PKD
ROOT
HETATM    1  O   UNL     1      -5.998  17.839  69.921  1.00  0.00    -0.247 OA 
HETATM    2  C   UNL     1      -5.878  17.716  68.507  1.00  0.00    -0.171 C  
HETATM    3  H   UNL     1      -5.232  17.511  70.375  1.00  0.00     0.000 HD 
ENDROOT
BRANCH   2   4
HETATM    4  C   UNL     1      -7.096  18.239  67.784  1.00  0.00    -0.213 A  
HETATM    5  C   UNL     1      -7.338  19.622  67.690  1.00  0.00    -0.254 A  
HETATM    6 CL   UNL     1      -6.254  20.777  68.386  1.00  0.00    -0.367 Cl 
HETATM    7  C   UNL     1      -8.467  20.113  67.029  1.00  0.00    -0.397 A  
HETATM    8  C   UNL     1      -9.368  19.224  66.452  1.00  0.00    -0.360 A  
HETATM    9  C   UNL     1      -9.152  17.852  66.528  1.00  0.00    -0.276 A  
HETATM   10 CL   UNL     1     -10.763  19.825  65.642  1.00  0.00    -0.537 Cl 
HETATM   11  C   UNL     1      -8.021  17.364  67.189  1.00  0.00    -0.226 A  
ENDBRANCH   2   4
TORSDOF 1
ENDMDL
MODEL      122
REMARK 921   NORMALIZED FREE ENERGY PREDICTED BY IDOCK:   -2.85 KCAL/MOL
REMARK 922        TOTAL FREE ENERGY PREDICTED BY IDOCK:   -3.06 KCAL/MOL
REMARK 923 INTER-LIGAND FREE ENERGY PREDICTED BY IDOCK:   -3.02 KCAL/MOL
REMARK 924 INTRA-LIGAND FREE ENERGY PREDICTED BY IDOCK:   -0.04 KCAL/MOL
REMARK 927      BINDING AFFINITY PREDICTED BY RF-SCORE:    0.00 PKD
ROOT
HETATM    1  O   UNL     1     -10.543  18.603  65.574  1.00  0.00    -0.608 OA 
HETATM    2  C   UNL     1      -9.531  17.867  66.253  1.00  0.00    -0.220 C  
HETATM    3  H   UNL     1     -10.182  19.294  65.032  1.00  0.00     0.000 HD 
ENDROOT
BRANCH   2   4
HETATM    4  C   UNL     1     -10.105  16.769  67.115  1.00  0.00    -0.282 A  
HETATM    5  C   UNL     1     -10.194  16.924  68.511  1.00  0.00    -0.310 A  
HETATM    6 CL   UNL     1      -9.658  18.370  69.294  1.00  0.00    -0.063 Cl 
HETATM    7  C   UNL     1     -10.718  15.909  69.317  1.00  0.00    -0.259 A  
HETATM    8  C   UNL     1     -11.162  14.727  68.734  1.00  0.00    -0.270 A  
HETATM    9  C   UNL     1     -11.090  14.550  67.356  1.00  0.00    -0.320 A  
HETATM   10 CL   UNL     1     -11.803  13.474  69.724  1.00  0.00    -0.381 Cl 
HETATM   11  C   UNL     1     -10.566  15.566  66.553  1.00  0.00    -0.307 A  
ENDBRANCH   2   4
TORSDOF 1
ENDMDL
MODEL      123
REMARK 921   NORMALIZED FREE ENERGY PREDICTED BY IDOCK:   -2.85 KCAL/MOL
REMARK 922        TOTAL FREE ENERGY PREDICTED BY IDOCK:   -3.06 KCAL/MOL
REMARK 923 INTER-LIGAND FREE ENERGY PREDICTED BY IDOCK:   -3.02 KCAL/MOL
REMARK 924 INTRA-LIGAND FREE ENERGY PREDICTED BY IDOCK:   -0.04 KCAL/MOL
REMARK 927      BINDING AFFINITY PREDICTED BY RF-SCORE:    0.00 PKD
ROOT
HETATM    1  O   UNL     1     -10.711  10.697  67.398  1.00  0.00    -0.237 OA 
HETATM    2  C   UNL     1      -9.730  11.233  66.516  1.00  0.00    -0.202 C  
HETATM    3  H   UNL     1     -10.566   9.775  67.578  1.00  0.00     0.000 HD 
ENDROOT
BRANCH   2   4
HETATM    4  C   UNL     1      -9.961  12.697  66.230  1.00  0.00    -0.266 A  
HETATM    5  C   UNL     1     -10.620  13.105  65.056  1.00  0.00    -0.332 A  
HETATM    6 CL   UNL     1     -11.199  11.955  63.900  1.00  0.00    -0.458 Cl 
HETATM    7  C   UNL     1     -10.831  14.459  64.781  1.00  0.00    -0.415 A  
HETATM    8  C   UNL     1     -10.385  15.422  65.679  1.00  0.00    -0.372 A  
HETATM    9  C   UNL     1      -9.733  15.046  66.850  1.00  0.00    -0.247 A  
HETATM   10 CL   UNL     1     -10.638  17.091  65.341  1.00  0.00    -0.245 Cl 
HETATM   11  C   UNL     1      -9.524  13.691  67.122  1.00  0.00    -0.244 A  
ENDBRANCH   2   4
TORSDOF 1
ENDMDL
MODEL      124
REMARK 921   NORMALIZED FREE ENERGY PREDICTED BY IDOCK:   -2.81 KCAL/MOL
REMARK 922        TOTAL FREE ENERGY PREDICTED BY IDOCK:   -3.02 KCAL/MOL
REMARK 923 INTER-LIGAND FREE ENERGY PREDICTED BY IDOCK:   -2.98 KCAL/MOL
REMARK 924 INTRA-LIGAND FREE ENERGY PREDICTED BY IDOCK:   -0.04 KCAL/MOL
REMARK 927      BINDING AFFINITY PREDICTED BY RF-SCORE:    0.00 PKD
ROOT
HETATM    1  O   UNL     1     -12.205  15.304  68.833  1.00  0.00    -0.576 OA 
HETATM    2  C   UNL     1     -11.300  15.495  67.751  1.00  0.00    -0.286 C  
HETATM    3  H   UNL     1     -13.053  14.990  68.541  1.00  0.00     0.000 HD 
ENDROOT
BRANCH   2   4
HETATM    4  C   UNL     1      -9.953  15.994  68.216  1.00  0.00    -0.220 A  
HETATM    5  C   UNL     1      -9.603  17.350  68.078  1.00  0.00    -0.276 A  
HETATM    6 CL   UNL     1     -10.693  18.498  67.382  1.00  0.00    -0.457 Cl 
HETATM    7  C   UNL     1      -8.354  17.818  68.499  1.00  0.00    -0.298 A  
HETATM    8  C   UNL     1      -7.443  16.934  69.066  1.00  0.00    -0.220 A  
HETATM    9  C   UNL     1      -7.765  15.589  69.218  1.00  0.00    -0.223 A  
HETATM   10 CL   UNL     1      -5.903  17.506  69.581  1.00  0.00    -0.232 Cl 
HETATM   11  C   UNL     1      -9.014  15.124  68.796  1.00  0.00    -0.197 A  
ENDBRANCH   2   4
TORSDOF 1
ENDMDL
MODEL      125
REMARK 921   NORMALIZED FREE ENERGY PREDICTED BY IDOCK:   -2.81 KCAL/MOL
REMARK 922        TOTAL FREE ENERGY PREDICTED BY IDOCK:   -3.02 KCAL/MOL
REMARK 923 INTER-LIGAND FREE ENERGY PREDICTED BY IDOCK:   -3.02 KCAL/MOL
REMARK 924 INTRA-LIGAND FREE ENERGY PREDICTED BY IDOCK:    0.00 KCAL/MOL
REMARK 927      BINDING AFFINITY PREDICTED BY RF-SCORE:    0.00 PKD
ROOT
HETATM    1  O   UNL     1      -9.907  20.616  66.771  1.00  0.00    -0.607 OA 
HETATM    2  C   UNL     1     -10.228  19.304  66.319  1.00  0.00    -0.464 C  
HETATM    3  H   UNL     1     -10.294  21.288  66.222  1.00  0.00     0.000 HD 
ENDROOT
BRANCH   2   4
HETATM    4  C   UNL     1      -9.613  18.236  67.191  1.00  0.00    -0.281 A  
HETATM    5  C   UNL     1      -8.224  18.008  67.177  1.00  0.00    -0.221 A  
HETATM    6 CL   UNL     1      -7.167  18.939  66.173  1.00  0.00    -0.273 Cl 
HETATM    7  C   UNL     1      -7.649  17.016  67.975  1.00  0.00    -0.183 A  
HETATM    8  C   UNL     1      -8.456  16.241  68.800  1.00  0.00    -0.240 A  
HETATM    9  C   UNL     1      -9.832  16.448  68.836  1.00  0.00    -0.260 A  
HETATM   10 CL   UNL     1      -7.751  15.014  69.781  1.00  0.00    -0.128 Cl 
HETATM   11  C   UNL     1     -10.405  17.441  68.037  1.00  0.00    -0.362 A  
ENDBRANCH   2   4
TORSDOF 1
ENDMDL
MODEL      126
REMARK 921   NORMALIZED FREE ENERGY PREDICTED BY IDOCK:   -2.80 KCAL/MOL
REMARK 922        TOTAL FREE ENERGY PREDICTED BY IDOCK:   -3.01 KCAL/MOL
REMARK 923 INTER-LIGAND FREE ENERGY PREDICTED BY IDOCK:   -2.97 KCAL/MOL
REMARK 924 INTRA-LIGAND FREE ENERGY PREDICTED BY IDOCK:   -0.04 KCAL/MOL
REMARK 927      BINDING AFFINITY PREDICTED BY RF-SCORE:    0.00 PKD
ROOT
HETATM    1  O   UNL     1      -8.975  15.954  66.906  1.00  0.00    -0.202 OA 
HETATM    2  C   UNL     1     -10.352  15.701  66.646  1.00  0.00    -0.289 C  
HETATM    3  H   UNL     1      -8.658  16.721  66.444  1.00  0.00     0.000 HD 
ENDROOT
BRANCH   2   4
HETATM    4  C   UNL     1     -10.856  14.481  67.379  1.00  0.00    -0.291 A  
HETATM    5  C   UNL     1     -11.514  14.607  68.616  1.00  0.00    -0.300 A  
HETATM    6 CL   UNL     1     -11.781  16.154  69.343  1.00  0.00    -0.269 Cl 
HETATM    7  C   UNL     1     -11.976  13.481  69.304  1.00  0.00    -0.378 A  
HETATM    8  C   UNL     1     -11.787  12.216  68.761  1.00  0.00    -0.303 A  
HETATM    9  C   UNL     1     -11.142  12.063  67.537  1.00  0.00    -0.331 A  
HETATM   10 CL   UNL     1     -12.350  10.827  69.608  1.00  0.00    -0.335 Cl 
HETATM   11  C   UNL     1     -10.681  13.190  66.851  1.00  0.00    -0.270 A  
ENDBRANCH   2   4
TORSDOF 1
ENDMDL
MODEL      127
REMARK 921   NORMALIZED FREE ENERGY PREDICTED BY IDOCK:   -2.80 KCAL/MOL
REMARK 922        TOTAL FREE ENERGY PREDICTED BY IDOCK:   -3.01 KCAL/MOL
REMARK 923 INTER-LIGAND FREE ENERGY PREDICTED BY IDOCK:   -2.97 KCAL/MOL
REMARK 924 INTRA-LIGAND FREE ENERGY PREDICTED BY IDOCK:   -0.04 KCAL/MOL
REMARK 927      BINDING AFFINITY PREDICTED BY RF-SCORE:    0.00 PKD
ROOT
HETATM    1  O   UNL     1     -13.392   9.337  71.041  1.00  0.00    -0.545 OA 
HETATM    2  C   UNL     1     -12.095   9.830  71.360  1.00  0.00    -0.400 C  
HETATM    3  H   UNL     1     -13.847   9.003  71.805  1.00  0.00     0.000 HD 
ENDROOT
BRANCH   2   4
HETATM    4  C   UNL     1     -11.372  10.359  70.145  1.00  0.00    -0.397 A  
HETATM    5  C   UNL     1     -10.411   9.574  69.482  1.00  0.00    -0.220 A  
HETATM    6 CL   UNL     1     -10.024   7.976  70.019  1.00  0.00    -0.189 Cl 
HETATM    7  C   UNL     1      -9.732  10.060  68.361  1.00  0.00    -0.157 A  
HETATM    8  C   UNL     1     -10.009  11.339  67.889  1.00  0.00    -0.175 A  
HETATM    9  C   UNL     1     -10.957  12.135  68.524  1.00  0.00    -0.276 A  
HETATM   10 CL   UNL     1      -9.170  11.943  66.512  1.00  0.00    -0.211 Cl 
HETATM   11  C   UNL     1     -11.634  11.646  69.644  1.00  0.00    -0.401 A  
ENDBRANCH   2   4
TORSDOF 1
ENDMDL
MODEL      128
REMARK 921   NORMALIZED FREE ENERGY PREDICTED BY IDOCK:   -2.77 KCAL/MOL
REMARK 922        TOTAL FREE ENERGY PREDICTED BY IDOCK:   -2.98 KCAL/MOL
REMARK 923 INTER-LIGAND FREE ENERGY PREDICTED BY IDOCK:   -2.93 KCAL/MOL
REMARK 924 INTRA-LIGAND FREE ENERGY PREDICTED BY IDOCK:   -0.05 KCAL/MOL
REMARK 927      BINDING AFFINITY PREDICTED BY RF-SCORE:    0.00 PKD
ROOT
HETATM    1  O   UNL     1     -12.601  14.317  68.958  1.00  0.00    -0.527 OA 
HETATM    2  C   UNL     1     -11.847  14.588  67.781  1.00  0.00    -0.357 C  
HETATM    3  H   UNL     1     -13.335  13.739  68.788  1.00  0.00     0.000 HD 
ENDROOT
BRANCH   2   4
HETATM    4  C   UNL     1     -10.679  15.506  68.051  1.00  0.00    -0.283 A  
HETATM    5  C   UNL     1      -9.407  14.983  68.347  1.00  0.00    -0.193 A  
HETATM    6 CL   UNL     1      -9.124  13.277  68.406  1.00  0.00    -0.173 Cl 
HETATM    7  C   UNL     1      -8.323  15.827  68.605  1.00  0.00    -0.183 A  
HETATM    8  C   UNL     1      -8.499  17.206  68.569  1.00  0.00    -0.262 A  
HETATM    9  C   UNL     1      -9.746  17.749  68.275  1.00  0.00    -0.320 A  
HETATM   10 CL   UNL     1      -7.168  18.247  68.892  1.00  0.00    -0.295 Cl 
HETATM   11  C   UNL     1     -10.828  16.903  68.017  1.00  0.00    -0.338 A  
ENDBRANCH   2   4
TORSDOF 1
ENDMDL
MODEL      129
REMARK 921   NORMALIZED FREE ENERGY PREDICTED BY IDOCK:   -2.76 KCAL/MOL
REMARK 922        TOTAL FREE ENERGY PREDICTED BY IDOCK:   -2.97 KCAL/MOL
REMARK 923 INTER-LIGAND FREE ENERGY PREDICTED BY IDOCK:   -2.92 KCAL/MOL
REMARK 924 INTRA-LIGAND FREE ENERGY PREDICTED BY IDOCK:   -0.05 KCAL/MOL
REMARK 927      BINDING AFFINITY PREDICTED BY RF-SCORE:    0.00 PKD
ROOT
HETATM    1  O   UNL     1     -12.402  14.565  68.276  1.00  0.00    -0.597 OA 
HETATM    2  C   UNL     1     -12.167  13.973  67.002  1.00  0.00    -0.352 C  
HETATM    3  H   UNL     1     -13.009  15.294  68.226  1.00  0.00     0.000 HD 
ENDROOT
BRANCH   2   4
HETATM    4  C   UNL     1     -11.201  12.815  67.081  1.00  0.00    -0.336 A  
HETATM    5  C   UNL     1      -9.820  13.018  66.902  1.00  0.00    -0.240 A  
HETATM    6 CL   UNL     1      -9.171  14.591  66.593  1.00  0.00    -0.284 Cl 
HETATM    7  C   UNL     1      -8.921  11.950  66.966  1.00  0.00    -0.190 A  
HETATM    8  C   UNL     1      -9.394  10.665  67.213  1.00  0.00    -0.150 A  
HETATM    9  C   UNL     1     -10.754  10.438  67.397  1.00  0.00    -0.338 A  
HETATM   10 CL   UNL     1      -8.289   9.347  67.287  1.00  0.00    -0.124 Cl 
HETATM   11  C   UNL     1     -11.651  11.508  67.333  1.00  0.00    -0.307 A  
ENDBRANCH   2   4
TORSDOF 1
ENDMDL
MODEL      130
REMARK 921   NORMALIZED FREE ENERGY PREDICTED BY IDOCK:   -2.75 KCAL/MOL
REMARK 922        TOTAL FREE ENERGY PREDICTED BY IDOCK:   -2.96 KCAL/MOL
REMARK 923 INTER-LIGAND FREE ENERGY PREDICTED BY IDOCK:   -2.92 KCAL/MOL
REMARK 924 INTRA-LIGAND FREE ENERGY PREDICTED BY IDOCK:   -0.04 KCAL/MOL
REMARK 927      BINDING AFFINITY PREDICTED BY RF-SCORE:    0.00 PKD
ROOT
HETATM    1  O   UNL     1     -10.656   8.082  73.191  1.00  0.00    -0.334 OA 
HETATM    2  C   UNL     1     -11.705   8.340  72.263  1.00  0.00    -0.388 C  
HETATM    3  H   UNL     1     -10.872   8.378  74.067  1.00  0.00     0.000 HD 
ENDROOT
BRANCH   2   4
HETATM    4  C   UNL     1     -11.362   7.868  70.870  1.00  0.00    -0.290 A  
HETATM    5  C   UNL     1     -10.910   8.777  69.895  1.00  0.00    -0.206 A  
HETATM    6 CL   UNL     1     -10.723  10.460  70.248  1.00  0.00    -0.311 Cl 
HETATM    7  C   UNL     1     -10.598   8.349  68.601  1.00  0.00    -0.149 A  
HETATM    8  C   UNL     1     -10.732   7.005  68.269  1.00  0.00    -0.182 A  
HETATM    9  C   UNL     1     -11.172   6.085  69.215  1.00  0.00    -0.367 A  
HETATM   10 CL   UNL     1     -10.353   6.477  66.676  1.00  0.00    -0.245 Cl 
HETATM   11  C   UNL     1     -11.483   6.516  70.508  1.00  0.00    -0.448 A  
ENDBRANCH   2   4
TORSDOF 1
ENDMDL
MODEL      131
REMARK 921   NORMALIZED FREE ENERGY PREDICTED BY IDOCK:   -2.75 KCAL/MOL
REMARK 922        TOTAL FREE ENERGY PREDICTED BY IDOCK:   -2.96 KCAL/MOL
REMARK 923 INTER-LIGAND FREE ENERGY PREDICTED BY IDOCK:   -2.91 KCAL/MOL
REMARK 924 INTRA-LIGAND FREE ENERGY PREDICTED BY IDOCK:   -0.04 KCAL/MOL
REMARK 927      BINDING AFFINITY PREDICTED BY RF-SCORE:    0.00 PKD
ROOT
HETATM    1  O   UNL     1     -11.253  14.685  68.313  1.00  0.00    -0.262 OA 
HETATM    2  C   UNL     1     -11.234  15.983  68.900  1.00  0.00    -0.353 C  
HETATM    3  H   UNL     1     -11.804  14.082  68.796  1.00  0.00     0.000 HD 
ENDROOT
BRANCH   2   4
HETATM    4  C   UNL     1     -10.357  16.943  68.132  1.00  0.00    -0.336 A  
HETATM    5  C   UNL     1      -8.958  16.916  68.284  1.00  0.00    -0.235 A  
HETATM    6 CL   UNL     1      -8.186  15.785  69.341  1.00  0.00    -0.241 Cl 
HETATM    7  C   UNL     1      -8.140  17.806  67.582  1.00  0.00    -0.223 A  
HETATM    8  C   UNL     1      -8.713  18.734  66.719  1.00  0.00    -0.300 A  
HETATM    9  C   UNL     1     -10.093  18.779  66.548  1.00  0.00    -0.437 A  
HETATM   10 CL   UNL     1      -7.709  19.835  65.858  1.00  0.00    -0.339 Cl 
HETATM   11  C   UNL     1     -10.909  17.887  67.250  1.00  0.00    -0.188 A  
ENDBRANCH   2   4
TORSDOF 1
ENDMDL
MODEL      132
REMARK 921   NORMALIZED FREE ENERGY PREDICTED BY IDOCK:   -2.74 KCAL/MOL
REMARK 922        TOTAL FREE ENERGY PREDICTED BY IDOCK:   -2.95 KCAL/MOL
REMARK 923 INTER-LIGAND FREE ENERGY PREDICTED BY IDOCK:   -2.93 KCAL/MOL
REMARK 924 INTRA-LIGAND FREE ENERGY PREDICTED BY IDOCK:   -0.02 KCAL/MOL
REMARK 927      BINDING AFFINITY PREDICTED BY RF-SCORE:    0.00 PKD
ROOT
HETATM    1  O   UNL     1     -10.166  19.217  70.072  1.00  0.00    -0.203 OA 
HETATM    2  C   UNL     1     -10.237  19.139  68.651  1.00  0.00    -0.330 C  
HETATM    3  H   UNL     1     -10.953  18.887  70.488  1.00  0.00     0.000 HD 
ENDROOT
BRANCH   2   4
HETATM    4  C   UNL     1      -8.986  19.665  67.989  1.00  0.00    -0.381 A  
HETATM    5  C   UNL     1      -8.997  20.049  66.635  1.00  0.00    -0.355 A  
HETATM    6 CL   UNL     1     -10.435  19.945  65.679  1.00  0.00    -0.533 Cl 
HETATM    7  C   UNL     1      -7.841  20.529  66.013  1.00  0.00     0.028 A  
HETATM    8  C   UNL     1      -6.660  20.632  66.740  1.00  0.00    -0.264 A  
HETATM    9  C   UNL     1      -6.622  20.263  68.080  1.00  0.00    -0.336 A  
HETATM   10 CL   UNL     1      -5.233  21.218  65.975  1.00  0.00    -0.247 Cl 
HETATM   11  C   UNL     1      -7.779  19.783  68.700  1.00  0.00    -0.305 A  
ENDBRANCH   2   4
TORSDOF 1
ENDMDL
MODEL      133
REMARK 921   NORMALIZED FREE ENERGY PREDICTED BY IDOCK:   -2.74 KCAL/MOL
REMARK 922        TOTAL FREE ENERGY PREDICTED BY IDOCK:   -2.95 KCAL/MOL
REMARK 923 INTER-LIGAND FREE ENERGY PREDICTED BY IDOCK:   -3.33 KCAL/MOL
REMARK 924 INTRA-LIGAND FREE ENERGY PREDICTED BY IDOCK:    0.38 KCAL/MOL
REMARK 927      BINDING AFFINITY PREDICTED BY RF-SCORE:    0.00 PKD
ROOT
HETATM    1  O   UNL     1     -12.394  11.493  67.980  1.00  0.00    -0.445 OA 
HETATM    2  C   UNL     1     -11.167  11.963  67.430  1.00  0.00    -0.305 C  
HETATM    3  H   UNL     1     -12.480  10.550  67.909  1.00  0.00     0.000 HD 
ENDROOT
BRANCH   2   4
HETATM    4  C   UNL     1     -11.029  13.463  67.543  1.00  0.00    -0.284 A  
HETATM    5  C   UNL     1     -11.375  14.129  68.733  1.00  0.00    -0.278 A  
HETATM    6 CL   UNL     1     -11.961  13.266  70.113  1.00  0.00    -0.405 Cl 
HETATM    7  C   UNL     1     -11.258  15.517  68.842  1.00  0.00    -0.306 A  
HETATM    8  C   UNL     1     -10.790  16.256  67.760  1.00  0.00    -0.315 A  
HETATM    9  C   UNL     1     -10.438  15.622  66.573  1.00  0.00    -0.303 A  
HETATM   10 CL   UNL     1     -10.649  17.967  67.890  1.00  0.00    -0.401 Cl 
HETATM   11  C   UNL     1     -10.556  14.233  66.467  1.00  0.00    -0.286 A  
ENDBRANCH   2   4
TORSDOF 1
ENDMDL
MODEL      134
REMARK 921   NORMALIZED FREE ENERGY PREDICTED BY IDOCK:   -2.73 KCAL/MOL
REMARK 922        TOTAL FREE ENERGY PREDICTED BY IDOCK:   -2.94 KCAL/MOL
REMARK 923 INTER-LIGAND FREE ENERGY PREDICTED BY IDOCK:   -2.92 KCAL/MOL
REMARK 924 INTRA-LIGAND FREE ENERGY PREDICTED BY IDOCK:   -0.02 KCAL/MOL
REMARK 927      BINDING AFFINITY PREDICTED BY RF-SCORE:    0.00 PKD
ROOT
HETATM    1  O   UNL     1     -12.360  13.638  68.396  1.00  0.00    -0.371 OA 
HETATM    2  C   UNL     1     -11.882  13.931  67.087  1.00  0.00    -0.412 C  
HETATM    3  H   UNL     1     -13.150  13.111  68.380  1.00  0.00     0.000 HD 
ENDROOT
BRANCH   2   4
HETATM    4  C   UNL     1     -10.627  14.770  67.114  1.00  0.00    -0.285 A  
HETATM    5  C   UNL     1     -10.271  15.564  66.008  1.00  0.00    -0.330 A  
HETATM    6 CL   UNL     1     -11.250  15.620  64.583  1.00  0.00    -0.427 Cl 
HETATM    7  C   UNL     1      -9.106  16.338  66.022  1.00  0.00    -0.332 A  
HETATM    8  C   UNL     1      -8.286  16.328  67.145  1.00  0.00    -0.191 A  
HETATM    9  C   UNL     1      -8.617  15.555  68.253  1.00  0.00    -0.161 A  
HETATM   10 CL   UNL     1      -6.849  17.275  67.164  1.00  0.00    -0.192 Cl 
HETATM   11  C   UNL     1      -9.782  14.782  68.236  1.00  0.00    -0.218 A  
ENDBRANCH   2   4
TORSDOF 1
ENDMDL
MODEL      135
REMARK 921   NORMALIZED FREE ENERGY PREDICTED BY IDOCK:   -2.73 KCAL/MOL
REMARK 922        TOTAL FREE ENERGY PREDICTED BY IDOCK:   -2.94 KCAL/MOL
REMARK 923 INTER-LIGAND FREE ENERGY PREDICTED BY IDOCK:   -2.90 KCAL/MOL
REMARK 924 INTRA-LIGAND FREE ENERGY PREDICTED BY IDOCK:   -0.03 KCAL/MOL
REMARK 927      BINDING AFFINITY PREDICTED BY RF-SCORE:    0.00 PKD
ROOT
HETATM    1  O   UNL     1     -10.497  17.174  66.649  1.00  0.00    -0.314 OA 
HETATM    2  C   UNL     1      -9.538  16.402  65.932  1.00  0.00    -0.274 C  
HETATM    3  H   UNL     1     -10.379  18.106  66.514  1.00  0.00     0.000 HD 
ENDROOT
BRANCH   2   4
HETATM    4  C   UNL     1      -9.725  14.919  66.147  1.00  0.00    -0.333 A  
HETATM    5  C   UNL     1     -10.764  14.225  65.501  1.00  0.00    -0.331 A  
HETATM    6 CL   UNL     1     -11.861  15.031  64.434  1.00  0.00    -0.398 Cl 
HETATM    7  C   UNL     1     -10.948  12.854  65.701  1.00  0.00    -0.297 A  
HETATM    8  C   UNL     1     -10.092  12.160  66.549  1.00  0.00    -0.209 A  
HETATM    9  C   UNL     1      -9.054  12.822  67.198  1.00  0.00    -0.219 A  
HETATM   10 CL   UNL     1     -10.319  10.473  66.802  1.00  0.00    -0.290 Cl 
HETATM   11  C   UNL     1      -8.872  14.193  66.996  1.00  0.00    -0.237 A  
ENDBRANCH   2   4
TORSDOF 1
ENDMDL
MODEL      136
REMARK 921   NORMALIZED FREE ENERGY PREDICTED BY IDOCK:   -2.72 KCAL/MOL
REMARK 922        TOTAL FREE ENERGY PREDICTED BY IDOCK:   -2.92 KCAL/MOL
REMARK 923 INTER-LIGAND FREE ENERGY PREDICTED BY IDOCK:   -2.87 KCAL/MOL
REMARK 924 INTRA-LIGAND FREE ENERGY PREDICTED BY IDOCK:   -0.05 KCAL/MOL
REMARK 927      BINDING AFFINITY PREDICTED BY RF-SCORE:    0.00 PKD
ROOT
HETATM    1  O   UNL     1      -9.846   6.551  73.490  1.00  0.00    -0.164 OA 
HETATM    2  C   UNL     1     -10.788   5.644  72.925  1.00  0.00    -0.264 C  
HETATM    3  H   UNL     1      -9.879   6.555  74.439  1.00  0.00     0.000 HD 
ENDROOT
BRANCH   2   4
HETATM    4  C   UNL     1     -10.737   5.637  71.416  1.00  0.00    -0.310 A  
HETATM    5  C   UNL     1     -11.539   6.517  70.665  1.00  0.00    -0.381 A  
HETATM    6 CL   UNL     1     -12.606   7.642  71.432  1.00  0.00    -0.360 Cl 
HETATM    7  C   UNL     1     -11.502   6.510  69.268  1.00  0.00    -0.307 A  
HETATM    8  C   UNL     1     -10.660   5.625  68.605  1.00  0.00    -0.198 A  
HETATM    9  C   UNL     1      -9.853   4.747  69.322  1.00  0.00    -0.269 A  
HETATM   10 CL   UNL     1     -10.617   5.611  66.884  1.00  0.00    -0.341 Cl 
HETATM   11  C   UNL     1      -9.892   4.756  70.720  1.00  0.00    -0.280 A  
ENDBRANCH   2   4
TORSDOF 1
ENDMDL
MODEL      137
REMARK 921   NORMALIZED FREE ENERGY PREDICTED BY IDOCK:   -2.70 KCAL/MOL
REMARK 922        TOTAL FREE ENERGY PREDICTED BY IDOCK:   -2.91 KCAL/MOL
REMARK 923 INTER-LIGAND FREE ENERGY PREDICTED BY IDOCK:   -2.88 KCAL/MOL
REMARK 924 INTRA-LIGAND FREE ENERGY PREDICTED BY IDOCK:   -0.02 KCAL/MOL
REMARK 927      BINDING AFFINITY PREDICTED BY RF-SCORE:    0.00 PKD
ROOT
HETATM    1  O   UNL     1     -10.224  20.511  66.318  1.00  0.00    -0.475 OA 
HETATM    2  C   UNL     1     -10.329  19.096  66.204  1.00  0.00    -0.484 C  
HETATM    3  H   UNL     1     -10.968  20.958  65.933  1.00  0.00     0.000 HD 
ENDROOT
BRANCH   2   4
HETATM    4  C   UNL     1      -9.145  18.386  66.816  1.00  0.00    -0.293 A  
HETATM    5  C   UNL     1      -9.328  17.430  67.833  1.00  0.00    -0.267 A  
HETATM    6 CL   UNL     1     -10.905  17.023  68.416  1.00  0.00    -0.361 Cl 
HETATM    7  C   UNL     1      -8.237  16.774  68.410  1.00  0.00    -0.224 A  
HETATM    8  C   UNL     1      -6.949  17.066  67.975  1.00  0.00    -0.165 A  
HETATM    9  C   UNL     1      -6.740  18.004  66.969  1.00  0.00    -0.204 A  
HETATM   10 CL   UNL     1      -5.603  16.263  68.687  1.00  0.00    -0.104 Cl 
HETATM   11  C   UNL     1      -7.833  18.658  66.393  1.00  0.00    -0.305 A  
ENDBRANCH   2   4
TORSDOF 1
ENDMDL
MODEL      138
REMARK 921   NORMALIZED FREE ENERGY PREDICTED BY IDOCK:   -2.70 KCAL/MOL
REMARK 922        TOTAL FREE ENERGY PREDICTED BY IDOCK:   -2.90 KCAL/MOL
REMARK 923 INTER-LIGAND FREE ENERGY PREDICTED BY IDOCK:   -2.86 KCAL/MOL
REMARK 924 INTRA-LIGAND FREE ENERGY PREDICTED BY IDOCK:   -0.05 KCAL/MOL
REMARK 927      BINDING AFFINITY PREDICTED BY RF-SCORE:    0.00 PKD
ROOT
HETATM    1  O   UNL     1     -12.960   8.474  73.069  1.00  0.00    -0.719 OA 
HETATM    2  C   UNL     1     -12.205   8.129  71.912  1.00  0.00    -0.331 C  
HETATM    3  H   UNL     1     -13.852   8.720  72.855  1.00  0.00     0.000 HD 
ENDROOT
BRANCH   2   4
HETATM    4  C   UNL     1     -10.787   7.738  72.252  1.00  0.00    -0.339 A  
HETATM    5  C   UNL     1     -10.492   6.445  72.721  1.00  0.00    -0.214 A  
HETATM    6 CL   UNL     1     -11.728   5.252  72.919  1.00  0.00    -0.311 Cl 
HETATM    7  C   UNL     1      -9.182   6.078  73.045  1.00  0.00    -0.133 A  
HETATM    8  C   UNL     1      -8.152   7.001  72.902  1.00  0.00    -0.106 A  
HETATM    9  C   UNL     1      -8.417   8.285  72.437  1.00  0.00    -0.252 A  
HETATM   10 CL   UNL     1      -6.540   6.554  73.305  1.00  0.00    -0.068 Cl 
HETATM   11  C   UNL     1      -9.727   8.650  72.113  1.00  0.00    -0.383 A  
ENDBRANCH   2   4
TORSDOF 1
ENDMDL
MODEL      139
REMARK 921   NORMALIZED FREE ENERGY PREDICTED BY IDOCK:   -2.68 KCAL/MOL
REMARK 922        TOTAL FREE ENERGY PREDICTED BY IDOCK:   -2.88 KCAL/MOL
REMARK 923 INTER-LIGAND FREE ENERGY PREDICTED BY IDOCK:   -2.85 KCAL/MOL
REMARK 924 INTRA-LIGAND FREE ENERGY PREDICTED BY IDOCK:   -0.03 KCAL/MOL
REMARK 927      BINDING AFFINITY PREDICTED BY RF-SCORE:    0.00 PKD
ROOT
HETATM    1  O   UNL     1     -11.517   4.396  64.870  1.00  0.00    -1.070 OA 
HETATM    2  C   UNL     1     -10.358   4.414  65.697  1.00  0.00    -0.225 C  
HETATM    3  H   UNL     1     -11.713   3.524  64.547  1.00  0.00     0.000 HD 
ENDROOT
BRANCH   2   4
HETATM    4  C   UNL     1     -10.046   5.799  66.210  1.00  0.00    -0.129 A  
HETATM    5  C   UNL     1      -8.829   6.427  65.889  1.00  0.00    -0.131 A  
HETATM    6 CL   UNL     1      -7.647   5.649  64.893  1.00  0.00    -0.078 Cl 
HETATM    7  C   UNL     1      -8.529   7.706  66.366  1.00  0.00    -0.137 A  
HETATM    8  C   UNL     1      -9.447   8.374  67.170  1.00  0.00    -0.163 A  
HETATM    9  C   UNL     1     -10.660   7.777  67.500  1.00  0.00    -0.319 A  
HETATM   10 CL   UNL     1      -9.079   9.947  67.764  1.00  0.00    -0.134 Cl 
HETATM   11  C   UNL     1     -10.957   6.498  67.021  1.00  0.00    -0.466 A  
ENDBRANCH   2   4
TORSDOF 1
ENDMDL
MODEL      140
REMARK 921   NORMALIZED FREE ENERGY PREDICTED BY IDOCK:   -2.66 KCAL/MOL
REMARK 922        TOTAL FREE ENERGY PREDICTED BY IDOCK:   -2.86 KCAL/MOL
REMARK 923 INTER-LIGAND FREE ENERGY PREDICTED BY IDOCK:   -2.84 KCAL/MOL
REMARK 924 INTRA-LIGAND FREE ENERGY PREDICTED BY IDOCK:   -0.02 KCAL/MOL
REMARK 927      BINDING AFFINITY PREDICTED BY RF-SCORE:    0.00 PKD
ROOT
HETATM    1  O   UNL     1      -6.751  15.873  68.646  1.00  0.00    -0.113 OA 
HETATM    2  C   UNL     1      -8.085  16.159  69.054  1.00  0.00    -0.237 C  
HETATM    3  H   UNL     1      -6.108  16.309  69.192  1.00  0.00     0.000 HD 
ENDROOT
BRANCH   2   4
HETATM    4  C   UNL     1      -9.107  15.466  68.185  1.00  0.00    -0.184 A  
HETATM    5  C   UNL     1     -10.472  15.488  68.524  1.00  0.00    -0.238 A  
HETATM    6 CL   UNL     1     -11.038  16.310  69.937  1.00  0.00    -0.351 Cl 
HETATM    7  C   UNL     1     -11.423  14.842  67.729  1.00  0.00    -0.363 A  
HETATM    8  C   UNL     1     -11.019  14.168  66.582  1.00  0.00    -0.303 A  
HETATM    9  C   UNL     1      -9.676  14.134  66.221  1.00  0.00    -0.315 A  
HETATM   10 CL   UNL     1     -12.187  13.367  65.603  1.00  0.00    -0.475 Cl 
HETATM   11  C   UNL     1      -8.727  14.780  67.018  1.00  0.00    -0.258 A  
ENDBRANCH   2   4
TORSDOF 1
ENDMDL
MODEL      141
REMARK 921   NORMALIZED FREE ENERGY PREDICTED BY IDOCK:   -2.58 KCAL/MOL
REMARK 922        TOTAL FREE ENERGY PREDICTED BY IDOCK:   -2.78 KCAL/MOL
REMARK 923 INTER-LIGAND FREE ENERGY PREDICTED BY IDOCK:   -2.79 KCAL/MOL
REMARK 924 INTRA-LIGAND FREE ENERGY PREDICTED BY IDOCK:    0.01 KCAL/MOL
REMARK 927      BINDING AFFINITY PREDICTED BY RF-SCORE:    0.00 PKD
ROOT
HETATM    1  O   UNL     1      -8.933  10.510  69.663  1.00  0.00    -0.379 OA 
HETATM    2  C   UNL     1     -10.148   9.811  69.914  1.00  0.00    -0.251 C  
HETATM    3  H   UNL     1      -8.842  11.279  70.212  1.00  0.00     0.000 HD 
ENDROOT
BRANCH   2   4
HETATM    4  C   UNL     1     -10.292   8.588  69.040  1.00  0.00    -0.229 A  
HETATM    5  C   UNL     1     -10.518   8.716  67.657  1.00  0.00    -0.244 A  
HETATM    6 CL   UNL     1     -10.631  10.267  66.901  1.00  0.00    -0.299 Cl 
HETATM    7  C   UNL     1     -10.660   7.588  66.843  1.00  0.00    -0.367 A  
HETATM    8  C   UNL     1     -10.576   6.318  67.404  1.00  0.00    -0.291 A  
HETATM    9  C   UNL     1     -10.350   6.164  68.768  1.00  0.00    -0.256 A  
HETATM   10 CL   UNL     1     -10.756   4.928  66.405  1.00  0.00    -0.274 Cl 
HETATM   11  C   UNL     1     -10.208   7.293  69.580  1.00  0.00    -0.200 A  
ENDBRANCH   2   4
TORSDOF 1
ENDMDL
MODEL      142
REMARK 921   NORMALIZED FREE ENERGY PREDICTED BY IDOCK:   -2.57 KCAL/MOL
REMARK 922        TOTAL FREE ENERGY PREDICTED BY IDOCK:   -2.77 KCAL/MOL
REMARK 923 INTER-LIGAND FREE ENERGY PREDICTED BY IDOCK:   -2.74 KCAL/MOL
REMARK 924 INTRA-LIGAND FREE ENERGY PREDICTED BY IDOCK:   -0.03 KCAL/MOL
REMARK 927      BINDING AFFINITY PREDICTED BY RF-SCORE:    0.00 PKD
ROOT
HETATM    1  O   UNL     1      -5.655  16.233  70.385  1.00  0.00    -0.179 OA 
HETATM    2  C   UNL     1      -5.404  17.171  69.344  1.00  0.00    -0.165 C  
HETATM    3  H   UNL     1      -4.853  15.887  70.756  1.00  0.00     0.000 HD 
ENDROOT
BRANCH   2   4
HETATM    4  C   UNL     1      -6.680  17.722  68.753  1.00  0.00    -0.235 A  
HETATM    5  C   UNL     1      -7.460  16.945  67.876  1.00  0.00    -0.169 A  
HETATM    6 CL   UNL     1      -6.998  15.335  67.444  1.00  0.00    -0.224 Cl 
HETATM    7  C   UNL     1      -8.638  17.451  67.319  1.00  0.00    -0.223 A  
HETATM    8  C   UNL     1      -9.052  18.740  67.637  1.00  0.00    -0.282 A  
HETATM    9  C   UNL     1      -8.302  19.527  68.505  1.00  0.00    -0.372 A  
HETATM   10 CL   UNL     1     -10.500  19.367  66.949  1.00  0.00    -0.531 Cl 
HETATM   11  C   UNL     1      -7.124  19.019  69.060  1.00  0.00    -0.361 A  
ENDBRANCH   2   4
TORSDOF 1
ENDMDL
MODEL      143
REMARK 921   NORMALIZED FREE ENERGY PREDICTED BY IDOCK:   -2.53 KCAL/MOL
REMARK 922        TOTAL FREE ENERGY PREDICTED BY IDOCK:   -2.73 KCAL/MOL
REMARK 923 INTER-LIGAND FREE ENERGY PREDICTED BY IDOCK:   -2.84 KCAL/MOL
REMARK 924 INTRA-LIGAND FREE ENERGY PREDICTED BY IDOCK:    0.11 KCAL/MOL
REMARK 927      BINDING AFFINITY PREDICTED BY RF-SCORE:    0.00 PKD
ROOT
HETATM    1  O   UNL     1     -10.654  19.002  66.578  1.00  0.00    -0.408 OA 
HETATM    2  C   UNL     1      -9.330  18.656  66.183  1.00  0.00    -0.156 C  
HETATM    3  H   UNL     1     -11.307  18.659  65.981  1.00  0.00     0.000 HD 
ENDROOT
BRANCH   2   4
HETATM    4  C   UNL     1      -8.291  19.202  67.133  1.00  0.00    -0.300 A  
HETATM    5  C   UNL     1      -8.291  18.828  68.489  1.00  0.00    -0.346 A  
HETATM    6 CL   UNL     1      -9.467  17.730  69.123  1.00  0.00    -0.079 Cl 
HETATM    7  C   UNL     1      -7.337  19.335  69.377  1.00  0.00    -0.213 A  
HETATM    8  C   UNL     1      -6.369  20.221  68.915  1.00  0.00    -0.316 A  
HETATM    9  C   UNL     1      -6.344  20.604  67.578  1.00  0.00    -0.322 A  
HETATM   10 CL   UNL     1      -5.196  20.850  70.006  1.00  0.00    -0.396 Cl 
HETATM   11  C   UNL     1      -7.299  20.095  66.693  1.00  0.00    -0.304 A  
ENDBRANCH   2   4
TORSDOF 1
ENDMDL
MODEL      144
REMARK 921   NORMALIZED FREE ENERGY PREDICTED BY IDOCK:   -2.53 KCAL/MOL
REMARK 922        TOTAL FREE ENERGY PREDICTED BY IDOCK:   -2.72 KCAL/MOL
REMARK 923 INTER-LIGAND FREE ENERGY PREDICTED BY IDOCK:   -2.70 KCAL/MOL
REMARK 924 INTRA-LIGAND FREE ENERGY PREDICTED BY IDOCK:   -0.02 KCAL/MOL
REMARK 927      BINDING AFFINITY PREDICTED BY RF-SCORE:    0.00 PKD
ROOT
HETATM    1  O   UNL     1     -10.305  20.093  70.224  1.00  0.00    -0.623 OA 
HETATM    2  C   UNL     1     -10.426  19.487  68.941  1.00  0.00     0.028 C  
HETATM    3  H   UNL     1     -11.089  20.569  70.471  1.00  0.00     0.000 HD 
ENDROOT
BRANCH   2   4
HETATM    4  C   UNL     1      -9.179  18.731  68.548  1.00  0.00    -0.386 A  
HETATM    5  C   UNL     1      -9.268  17.457  67.957  1.00  0.00    -0.266 A  
HETATM    6 CL   UNL     1     -10.798  16.710  67.649  1.00  0.00    -0.300 Cl 
HETATM    7  C   UNL     1      -8.119  16.747  67.598  1.00  0.00    -0.188 A  
HETATM    8  C   UNL     1      -6.866  17.306  67.824  1.00  0.00    -0.160 A  
HETATM    9  C   UNL     1      -6.749  18.566  68.403  1.00  0.00    -0.251 A  
HETATM   10 CL   UNL     1      -5.448  16.433  67.387  1.00  0.00    -0.167 Cl 
HETATM   11  C   UNL     1      -7.901  19.273  68.761  1.00  0.00    -0.388 A  
ENDBRANCH   2   4
TORSDOF 1
ENDMDL
MODEL      145
REMARK 921   NORMALIZED FREE ENERGY PREDICTED BY IDOCK:   -2.51 KCAL/MOL
REMARK 922        TOTAL FREE ENERGY PREDICTED BY IDOCK:   -2.71 KCAL/MOL
REMARK 923 INTER-LIGAND FREE ENERGY PREDICTED BY IDOCK:   -2.68 KCAL/MOL
REMARK 924 INTRA-LIGAND FREE ENERGY PREDICTED BY IDOCK:   -0.02 KCAL/MOL
REMARK 927      BINDING AFFINITY PREDICTED BY RF-SCORE:    0.00 PKD
ROOT
HETATM    1  O   UNL     1      -8.562  10.491  69.744  1.00  0.00    -0.387 OA 
HETATM    2  C   UNL     1      -8.792   9.571  68.682  1.00  0.00    -0.132 C  
HETATM    3  H   UNL     1      -8.265  10.058  70.535  1.00  0.00     0.000 HD 
ENDROOT
BRANCH   2   4
HETATM    4  C   UNL     1      -9.265  10.259  67.424  1.00  0.00    -0.155 A  
HETATM    5  C   UNL     1      -9.566   9.515  66.268  1.00  0.00    -0.226 A  
HETATM    6 CL   UNL     1      -9.415   7.793  66.238  1.00  0.00    -0.230 Cl 
HETATM    7  C   UNL     1      -9.998  10.146  65.097  1.00  0.00    -0.379 A  
HETATM    8  C   UNL     1     -10.136  11.530  65.071  1.00  0.00    -0.270 A  
HETATM    9  C   UNL     1      -9.849  12.288  66.201  1.00  0.00    -0.257 A  
HETATM   10 CL   UNL     1     -10.662  12.310  63.630  1.00  0.00    -0.477 Cl 
HETATM   11  C   UNL     1      -9.418  11.655  67.370  1.00  0.00    -0.171 A  
ENDBRANCH   2   4
TORSDOF 1
ENDMDL
MODEL      146
REMARK 921   NORMALIZED FREE ENERGY PREDICTED BY IDOCK:   -2.51 KCAL/MOL
REMARK 922        TOTAL FREE ENERGY PREDICTED BY IDOCK:   -2.70 KCAL/MOL
REMARK 923 INTER-LIGAND FREE ENERGY PREDICTED BY IDOCK:   -2.68 KCAL/MOL
REMARK 924 INTRA-LIGAND FREE ENERGY PREDICTED BY IDOCK:   -0.02 KCAL/MOL
REMARK 927      BINDING AFFINITY PREDICTED BY RF-SCORE:    0.00 PKD
ROOT
HETATM    1  O   UNL     1      -7.296  12.166  68.650  1.00  0.00    -0.104 OA 
HETATM    2  C   UNL     1      -8.320  11.249  68.277  1.00  0.00    -0.150 C  
HETATM    3  H   UNL     1      -6.564  11.733  69.074  1.00  0.00     0.000 HD 
ENDROOT
BRANCH   2   4
HETATM    4  C   UNL     1      -9.483  11.938  67.604  1.00  0.00    -0.182 A  
HETATM    5  C   UNL     1     -10.373  11.214  66.789  1.00  0.00    -0.241 A  
HETATM    6 CL   UNL     1     -10.179   9.514  66.529  1.00  0.00    -0.323 Cl 
HETATM    7  C   UNL     1     -11.447  11.845  66.156  1.00  0.00    -0.352 A  
HETATM    8  C   UNL     1     -11.646  13.210  66.335  1.00  0.00    -0.349 A  
HETATM    9  C   UNL     1     -10.783  13.949  67.138  1.00  0.00    -0.282 A  
HETATM   10 CL   UNL     1     -12.965  13.992  65.553  1.00  0.00    -0.478 Cl 
HETATM   11  C   UNL     1      -9.710  13.314  67.769  1.00  0.00    -0.217 A  
ENDBRANCH   2   4
TORSDOF 1
ENDMDL
MODEL      147
REMARK 921   NORMALIZED FREE ENERGY PREDICTED BY IDOCK:   -2.50 KCAL/MOL
REMARK 922        TOTAL FREE ENERGY PREDICTED BY IDOCK:   -2.70 KCAL/MOL
REMARK 923 INTER-LIGAND FREE ENERGY PREDICTED BY IDOCK:   -2.65 KCAL/MOL
REMARK 924 INTRA-LIGAND FREE ENERGY PREDICTED BY IDOCK:   -0.04 KCAL/MOL
REMARK 927      BINDING AFFINITY PREDICTED BY RF-SCORE:    0.00 PKD
ROOT
HETATM    1  O   UNL     1     -12.924   8.551  73.024  1.00  0.00    -0.719 OA 
HETATM    2  C   UNL     1     -12.318   7.734  72.027  1.00  0.00    -0.294 C  
HETATM    3  H   UNL     1     -13.733   8.946  72.721  1.00  0.00     0.000 HD 
ENDROOT
BRANCH   2   4
HETATM    4  C   UNL     1     -11.032   7.107  72.509  1.00  0.00    -0.309 A  
HETATM    5  C   UNL     1      -9.792   7.718  72.245  1.00  0.00    -0.192 A  
HETATM    6 CL   UNL     1      -9.687   9.206  71.370  1.00  0.00    -0.364 Cl 
HETATM    7  C   UNL     1      -8.597   7.139  72.681  1.00  0.00    -0.136 A  
HETATM    8  C   UNL     1      -8.628   5.943  73.390  1.00  0.00    -0.120 A  
HETATM    9  C   UNL     1      -9.841   5.320  73.667  1.00  0.00    -0.171 A  
HETATM   10 CL   UNL     1      -7.158   5.225  73.924  1.00  0.00    -0.081 Cl 
HETATM   11  C   UNL     1     -11.035   5.901  73.230  1.00  0.00    -0.267 A  
ENDBRANCH   2   4
TORSDOF 1
ENDMDL
MODEL      148
REMARK 921   NORMALIZED FREE ENERGY PREDICTED BY IDOCK:   -2.50 KCAL/MOL
REMARK 922        TOTAL FREE ENERGY PREDICTED BY IDOCK:   -2.70 KCAL/MOL
REMARK 923 INTER-LIGAND FREE ENERGY PREDICTED BY IDOCK:   -2.75 KCAL/MOL
REMARK 924 INTRA-LIGAND FREE ENERGY PREDICTED BY IDOCK:    0.05 KCAL/MOL
REMARK 927      BINDING AFFINITY PREDICTED BY RF-SCORE:    0.00 PKD
ROOT
HETATM    1  O   UNL     1      -8.376   4.989  68.220  1.00  0.00    -0.095 OA 
HETATM    2  C   UNL     1      -9.452   4.326  68.877  1.00  0.00    -0.168 C  
HETATM    3  H   UNL     1      -7.896   4.406  67.644  1.00  0.00     0.000 HD 
ENDROOT
BRANCH   2   4
HETATM    4  C   UNL     1     -10.216   5.252  69.793  1.00  0.00    -0.364 A  
HETATM    5  C   UNL     1     -10.940   6.341  69.274  1.00  0.00    -0.369 A  
HETATM    6 CL   UNL     1     -10.992   6.662  67.575  1.00  0.00    -0.404 Cl 
HETATM    7  C   UNL     1     -11.643   7.207  70.116  1.00  0.00    -0.211 A  
HETATM    8  C   UNL     1     -11.633   6.991  71.490  1.00  0.00    -0.287 A  
HETATM    9  C   UNL     1     -10.929   5.919  72.030  1.00  0.00    -0.319 A  
HETATM   10 CL   UNL     1     -12.494   8.058  72.530  1.00  0.00    -0.249 Cl 
HETATM   11  C   UNL     1     -10.226   5.055  71.185  1.00  0.00    -0.281 A  
ENDBRANCH   2   4
TORSDOF 1
ENDMDL
MODEL      149
REMARK 921   NORMALIZED FREE ENERGY PREDICTED BY IDOCK:   -2.50 KCAL/MOL
REMARK 922        TOTAL FREE ENERGY PREDICTED BY IDOCK:   -2.69 KCAL/MOL
REMARK 923 INTER-LIGAND FREE ENERGY PREDICTED BY IDOCK:   -2.73 KCAL/MOL
REMARK 924 INTRA-LIGAND FREE ENERGY PREDICTED BY IDOCK:    0.04 KCAL/MOL
REMARK 927      BINDING AFFINITY PREDICTED BY RF-SCORE:    0.00 PKD
ROOT
HETATM    1  O   UNL     1      -8.747  11.087  69.526  1.00  0.00    -0.377 OA 
HETATM    2  C   UNL     1      -9.271  10.652  68.275  1.00  0.00    -0.153 C  
HETATM    3  H   UNL     1      -8.371  10.372  70.024  1.00  0.00     0.000 HD 
ENDROOT
BRANCH   2   4
HETATM    4  C   UNL     1      -9.871  11.788  67.482  1.00  0.00    -0.195 A  
HETATM    5  C   UNL     1      -9.059  12.824  66.984  1.00  0.00    -0.220 A  
HETATM    6 CL   UNL     1      -7.349  12.837  67.248  1.00  0.00    -0.130 Cl 
HETATM    7  C   UNL     1      -9.608  13.883  66.255  1.00  0.00    -0.274 A  
HETATM    8  C   UNL     1     -10.977  13.918  66.015  1.00  0.00    -0.285 A  
HETATM    9  C   UNL     1     -11.802  12.905  66.493  1.00  0.00    -0.473 A  
HETATM   10 CL   UNL     1     -11.657  15.223  65.123  1.00  0.00    -0.250 Cl 
HETATM   11  C   UNL     1     -11.250  11.846  67.221  1.00  0.00    -0.376 A  
ENDBRANCH   2   4
TORSDOF 1
ENDMDL
MODEL      150
REMARK 921   NORMALIZED FREE ENERGY PREDICTED BY IDOCK:   -2.50 KCAL/MOL
REMARK 922        TOTAL FREE ENERGY PREDICTED BY IDOCK:   -2.69 KCAL/MOL
REMARK 923 INTER-LIGAND FREE ENERGY PREDICTED BY IDOCK:   -2.65 KCAL/MOL
REMARK 924 INTRA-LIGAND FREE ENERGY PREDICTED BY IDOCK:   -0.04 KCAL/MOL
REMARK 927      BINDING AFFINITY PREDICTED BY RF-SCORE:    0.00 PKD
ROOT
HETATM    1  O   UNL     1      -9.500  16.640  67.122  1.00  0.00    -0.225 OA 
HETATM    2  C   UNL     1      -8.338  17.318  66.653  1.00  0.00    -0.257 C  
HETATM    3  H   UNL     1      -9.988  16.234  66.416  1.00  0.00     0.000 HD 
ENDROOT
BRANCH   2   4
HETATM    4  C   UNL     1      -7.563  17.964  67.776  1.00  0.00    -0.214 A  
HETATM    5  C   UNL     1      -7.988  19.183  68.335  1.00  0.00    -0.341 A  
HETATM    6 CL   UNL     1      -9.412  19.987  67.769  1.00  0.00    -0.472 Cl 
HETATM    7  C   UNL     1      -7.271  19.791  69.369  1.00  0.00    -0.253 A  
HETATM    8  C   UNL     1      -6.120  19.183  69.859  1.00  0.00    -0.242 A  
HETATM    9  C   UNL     1      -5.680  17.975  69.328  1.00  0.00    -0.213 A  
HETATM   10 CL   UNL     1      -5.232  19.932  71.130  1.00  0.00    -0.263 Cl 
HETATM   11  C   UNL     1      -6.399  17.370  68.293  1.00  0.00    -0.170 A  
ENDBRANCH   2   4
TORSDOF 1
ENDMDL
MODEL      151
REMARK 921   NORMALIZED FREE ENERGY PREDICTED BY IDOCK:   -2.50 KCAL/MOL
REMARK 922        TOTAL FREE ENERGY PREDICTED BY IDOCK:   -2.69 KCAL/MOL
REMARK 923 INTER-LIGAND FREE ENERGY PREDICTED BY IDOCK:   -2.66 KCAL/MOL
REMARK 924 INTRA-LIGAND FREE ENERGY PREDICTED BY IDOCK:   -0.04 KCAL/MOL
REMARK 927      BINDING AFFINITY PREDICTED BY RF-SCORE:    0.00 PKD
ROOT
HETATM    1  O   UNL     1      -6.294  18.834  66.520  1.00  0.00    -0.182 OA 
HETATM    2  C   UNL     1      -6.889  19.023  67.800  1.00  0.00    -0.211 C  
HETATM    3  H   UNL     1      -5.521  19.373  66.401  1.00  0.00     0.000 HD 
ENDROOT
BRANCH   2   4
HETATM    4  C   UNL     1      -8.118  18.166  67.989  1.00  0.00    -0.264 A  
HETATM    5  C   UNL     1      -8.074  17.017  68.799  1.00  0.00    -0.250 A  
HETATM    6 CL   UNL     1      -6.624  16.542  69.615  1.00  0.00    -0.211 Cl 
HETATM    7  C   UNL     1      -9.205  16.214  68.973  1.00  0.00    -0.252 A  
HETATM    8  C   UNL     1     -10.395  16.554  68.339  1.00  0.00    -0.294 A  
HETATM    9  C   UNL     1     -10.467  17.687  67.535  1.00  0.00    -0.365 A  
HETATM   10 CL   UNL     1     -11.788  15.565  68.546  1.00  0.00    -0.339 Cl 
HETATM   11  C   UNL     1      -9.334  18.488  67.363  1.00  0.00    -0.287 A  
ENDBRANCH   2   4
TORSDOF 1
ENDMDL
MODEL      152
REMARK 921   NORMALIZED FREE ENERGY PREDICTED BY IDOCK:   -2.47 KCAL/MOL
REMARK 922        TOTAL FREE ENERGY PREDICTED BY IDOCK:   -2.66 KCAL/MOL
REMARK 923 INTER-LIGAND FREE ENERGY PREDICTED BY IDOCK:   -2.64 KCAL/MOL
REMARK 924 INTRA-LIGAND FREE ENERGY PREDICTED BY IDOCK:   -0.02 KCAL/MOL
REMARK 927      BINDING AFFINITY PREDICTED BY RF-SCORE:    0.00 PKD
ROOT
HETATM    1  O   UNL     1     -13.060   9.240  71.614  1.00  0.00    -0.340 OA 
HETATM    2  C   UNL     1     -12.265   8.102  71.932  1.00  0.00    -0.331 C  
HETATM    3  H   UNL     1     -13.988   9.069  71.720  1.00  0.00     0.000 HD 
ENDROOT
BRANCH   2   4
HETATM    4  C   UNL     1     -10.789   8.373  71.763  1.00  0.00    -0.353 A  
HETATM    5  C   UNL     1      -9.851   7.827  72.659  1.00  0.00    -0.225 A  
HETATM    6 CL   UNL     1     -10.343   6.823  73.979  1.00  0.00    -0.399 Cl 
HETATM    7  C   UNL     1      -8.484   8.079  72.514  1.00  0.00    -0.217 A  
HETATM    8  C   UNL     1      -8.039   8.880  71.468  1.00  0.00    -0.071 A  
HETATM    9  C   UNL     1      -8.944   9.429  70.566  1.00  0.00    -0.303 A  
HETATM   10 CL   UNL     1      -6.357   9.197  71.289  1.00  0.00    -0.075 Cl 
HETATM   11  C   UNL     1     -10.311   9.175  70.713  1.00  0.00    -0.323 A  
ENDBRANCH   2   4
TORSDOF 1
ENDMDL
MODEL      153
REMARK 921   NORMALIZED FREE ENERGY PREDICTED BY IDOCK:   -2.44 KCAL/MOL
REMARK 922        TOTAL FREE ENERGY PREDICTED BY IDOCK:   -2.63 KCAL/MOL
REMARK 923 INTER-LIGAND FREE ENERGY PREDICTED BY IDOCK:   -2.59 KCAL/MOL
REMARK 924 INTRA-LIGAND FREE ENERGY PREDICTED BY IDOCK:   -0.05 KCAL/MOL
REMARK 927      BINDING AFFINITY PREDICTED BY RF-SCORE:    0.00 PKD
ROOT
HETATM    1  O   UNL     1      -9.358  15.902  69.505  1.00  0.00    -0.257 OA 
HETATM    2  C   UNL     1      -8.014  15.847  69.037  1.00  0.00    -0.222 C  
HETATM    3  H   UNL     1      -9.633  15.085  69.903  1.00  0.00     0.000 HD 
ENDROOT
BRANCH   2   4
HETATM    4  C   UNL     1      -7.577  17.146  68.404  1.00  0.00    -0.231 A  
HETATM    5  C   UNL     1      -7.905  17.439  67.067  1.00  0.00    -0.210 A  
HETATM    6 CL   UNL     1      -8.821  16.337  66.099  1.00  0.00    -0.368 Cl 
HETATM    7  C   UNL     1      -7.497  18.637  66.472  1.00  0.00    -0.267 A  
HETATM    8  C   UNL     1      -6.759  19.556  67.209  1.00  0.00    -0.196 A  
HETATM    9  C   UNL     1      -6.425  19.293  68.533  1.00  0.00    -0.278 A  
HETATM   10 CL   UNL     1      -6.251  21.029  66.477  1.00  0.00    -0.317 Cl 
HETATM   11  C   UNL     1      -6.834  18.094  69.126  1.00  0.00    -0.240 A  
ENDBRANCH   2   4
TORSDOF 1
ENDMDL
MODEL      154
REMARK 921   NORMALIZED FREE ENERGY PREDICTED BY IDOCK:   -2.44 KCAL/MOL
REMARK 922        TOTAL FREE ENERGY PREDICTED BY IDOCK:   -2.63 KCAL/MOL
REMARK 923 INTER-LIGAND FREE ENERGY PREDICTED BY IDOCK:   -2.61 KCAL/MOL
REMARK 924 INTRA-LIGAND FREE ENERGY PREDICTED BY IDOCK:   -0.02 KCAL/MOL
REMARK 927      BINDING AFFINITY PREDICTED BY RF-SCORE:    0.00 PKD
ROOT
HETATM    1  O   UNL     1     -11.016  12.373  67.512  1.00  0.00    -0.234 OA 
HETATM    2  C   UNL     1      -9.852  13.043  67.985  1.00  0.00    -0.224 C  
HETATM    3  H   UNL     1     -10.915  11.429  67.522  1.00  0.00     0.000 HD 
ENDROOT
BRANCH   2   4
HETATM    4  C   UNL     1     -10.013  14.544  67.970  1.00  0.00    -0.222 A  
HETATM    5  C   UNL     1      -8.911  15.382  67.716  1.00  0.00    -0.173 A  
HETATM    6 CL   UNL     1      -7.337  14.735  67.406  1.00  0.00    -0.225 Cl 
HETATM    7  C   UNL     1      -9.051  16.773  67.708  1.00  0.00    -0.221 A  
HETATM    8  C   UNL     1     -10.296  17.342  67.951  1.00  0.00    -0.369 A  
HETATM    9  C   UNL     1     -11.403  16.537  68.201  1.00  0.00    -0.150 A  
HETATM   10 CL   UNL     1     -10.470  19.055  67.946  1.00  0.00    -0.473 Cl 
HETATM   11  C   UNL     1     -11.260  15.146  68.208  1.00  0.00    -0.315 A  
ENDBRANCH   2   4
TORSDOF 1
ENDMDL
MODEL      155
REMARK 921   NORMALIZED FREE ENERGY PREDICTED BY IDOCK:   -2.43 KCAL/MOL
REMARK 922        TOTAL FREE ENERGY PREDICTED BY IDOCK:   -2.62 KCAL/MOL
REMARK 923 INTER-LIGAND FREE ENERGY PREDICTED BY IDOCK:   -2.58 KCAL/MOL
REMARK 924 INTRA-LIGAND FREE ENERGY PREDICTED BY IDOCK:   -0.04 KCAL/MOL
REMARK 927      BINDING AFFINITY PREDICTED BY RF-SCORE:    0.00 PKD
ROOT
HETATM    1  O   UNL     1      -7.483   5.083  71.695  1.00  0.00    -0.084 OA 
HETATM    2  C   UNL     1      -7.768   6.424  71.310  1.00  0.00    -0.095 C  
HETATM    3  H   UNL     1      -6.550   4.906  71.711  1.00  0.00     0.000 HD 
ENDROOT
BRANCH   2   4
HETATM    4  C   UNL     1      -9.251   6.707  71.285  1.00  0.00    -0.155 A  
HETATM    5  C   UNL     1      -9.858   7.452  72.312  1.00  0.00    -0.167 A  
HETATM    6 CL   UNL     1      -8.939   8.079  73.637  1.00  0.00    -0.329 Cl 
HETATM    7  C   UNL     1     -11.232   7.711  72.300  1.00  0.00    -0.343 A  
HETATM    8  C   UNL     1     -12.014   7.229  71.256  1.00  0.00    -0.324 A  
HETATM    9  C   UNL     1     -11.439   6.492  70.225  1.00  0.00    -0.474 A  
HETATM   10 CL   UNL     1     -13.707   7.541  71.240  1.00  0.00    -0.387 Cl 
HETATM   11  C   UNL     1     -10.065   6.235  70.241  1.00  0.00    -0.226 A  
ENDBRANCH   2   4
TORSDOF 1
ENDMDL
MODEL      156
REMARK 921   NORMALIZED FREE ENERGY PREDICTED BY IDOCK:   -2.41 KCAL/MOL
REMARK 922        TOTAL FREE ENERGY PREDICTED BY IDOCK:   -2.60 KCAL/MOL
REMARK 923 INTER-LIGAND FREE ENERGY PREDICTED BY IDOCK:   -2.55 KCAL/MOL
REMARK 924 INTRA-LIGAND FREE ENERGY PREDICTED BY IDOCK:   -0.05 KCAL/MOL
REMARK 927      BINDING AFFINITY PREDICTED BY RF-SCORE:    0.00 PKD
ROOT
HETATM    1  O   UNL     1      -9.266   9.842  70.814  1.00  0.00    -0.322 OA 
HETATM    2  C   UNL     1     -10.497   9.145  70.986  1.00  0.00    -0.298 C  
HETATM    3  H   UNL     1      -9.377  10.784  70.871  1.00  0.00     0.000 HD 
ENDROOT
BRANCH   2   4
HETATM    4  C   UNL     1     -10.321   7.648  70.895  1.00  0.00    -0.204 A  
HETATM    5  C   UNL     1     -10.059   6.885  72.047  1.00  0.00    -0.185 A  
HETATM    6 CL   UNL     1      -9.935   7.619  73.608  1.00  0.00    -0.351 Cl 
HETATM    7  C   UNL     1      -9.888   5.499  71.970  1.00  0.00    -0.204 A  
HETATM    8  C   UNL     1      -9.979   4.862  70.737  1.00  0.00    -0.222 A  
HETATM    9  C   UNL     1     -10.241   5.593  69.583  1.00  0.00    -0.321 A  
HETATM   10 CL   UNL     1      -9.763   3.157  70.638  1.00  0.00    -0.206 Cl 
HETATM   11  C   UNL     1     -10.412   6.978  69.663  1.00  0.00    -0.238 A  
ENDBRANCH   2   4
TORSDOF 1
ENDMDL
MODEL      157
REMARK 921   NORMALIZED FREE ENERGY PREDICTED BY IDOCK:   -2.37 KCAL/MOL
REMARK 922        TOTAL FREE ENERGY PREDICTED BY IDOCK:   -2.56 KCAL/MOL
REMARK 923 INTER-LIGAND FREE ENERGY PREDICTED BY IDOCK:   -2.53 KCAL/MOL
REMARK 924 INTRA-LIGAND FREE ENERGY PREDICTED BY IDOCK:   -0.02 KCAL/MOL
REMARK 927      BINDING AFFINITY PREDICTED BY RF-SCORE:    0.00 PKD
ROOT
HETATM    1  O   UNL     1      -9.040   2.134  67.921  1.00  0.00    -0.140 OA 
HETATM    2  C   UNL     1      -8.782   3.506  67.637  1.00  0.00    -0.109 C  
HETATM    3  H   UNL     1      -8.525   1.552  67.375  1.00  0.00     0.000 HD 
ENDROOT
BRANCH   2   4
HETATM    4  C   UNL     1      -9.602   4.431  68.504  1.00  0.00    -0.208 A  
HETATM    5  C   UNL     1     -10.473   5.373  67.927  1.00  0.00    -0.133 A  
HETATM    6 CL   UNL     1     -10.650   5.506  66.211  1.00  0.00    -0.266 Cl 
HETATM    7  C   UNL     1     -11.230   6.238  68.723  1.00  0.00    -0.357 A  
HETATM    8  C   UNL     1     -11.123   6.169  70.108  1.00  0.00    -0.378 A  
HETATM    9  C   UNL     1     -10.272   5.244  70.705  1.00  0.00    -0.327 A  
HETATM   10 CL   UNL     1     -12.049   7.236  71.091  1.00  0.00    -0.362 Cl 
HETATM   11  C   UNL     1      -9.517   4.381  69.906  1.00  0.00    -0.253 A  
ENDBRANCH   2   4
TORSDOF 1
ENDMDL
MODEL      158
REMARK 921   NORMALIZED FREE ENERGY PREDICTED BY IDOCK:   -2.37 KCAL/MOL
REMARK 922        TOTAL FREE ENERGY PREDICTED BY IDOCK:   -2.55 KCAL/MOL
REMARK 923 INTER-LIGAND FREE ENERGY PREDICTED BY IDOCK:   -2.52 KCAL/MOL
REMARK 924 INTRA-LIGAND FREE ENERGY PREDICTED BY IDOCK:   -0.03 KCAL/MOL
REMARK 927      BINDING AFFINITY PREDICTED BY RF-SCORE:    0.00 PKD
ROOT
HETATM    1  O   UNL     1     -11.640  12.769  64.693  1.00  0.00    -0.312 OA 
HETATM    2  C   UNL     1     -10.400  12.439  65.311  1.00  0.00    -0.282 C  
HETATM    3  H   UNL     1     -11.977  12.057  64.163  1.00  0.00     0.000 HD 
ENDROOT
BRANCH   2   4
HETATM    4  C   UNL     1      -9.864  13.572  66.153  1.00  0.00    -0.292 A  
HETATM    5  C   UNL     1      -9.671  13.409  67.537  1.00  0.00    -0.224 A  
HETATM    6 CL   UNL     1     -10.031  11.914  68.329  1.00  0.00    -0.198 Cl 
HETATM    7  C   UNL     1      -9.182  14.456  68.324  1.00  0.00    -0.201 A  
HETATM    8  C   UNL     1      -8.877  15.677  67.734  1.00  0.00    -0.171 A  
HETATM    9  C   UNL     1      -9.054  15.864  66.367  1.00  0.00    -0.355 A  
HETATM   10 CL   UNL     1      -8.280  16.970  68.701  1.00  0.00    -0.255 Cl 
HETATM   11  C   UNL     1      -9.543  14.815  65.582  1.00  0.00    -0.235 A  
ENDBRANCH   2   4
TORSDOF 1
ENDMDL
MODEL      159
REMARK 921   NORMALIZED FREE ENERGY PREDICTED BY IDOCK:   -2.36 KCAL/MOL
REMARK 922        TOTAL FREE ENERGY PREDICTED BY IDOCK:   -2.54 KCAL/MOL
REMARK 923 INTER-LIGAND FREE ENERGY PREDICTED BY IDOCK:   -2.52 KCAL/MOL
REMARK 924 INTRA-LIGAND FREE ENERGY PREDICTED BY IDOCK:   -0.02 KCAL/MOL
REMARK 927      BINDING AFFINITY PREDICTED BY RF-SCORE:    0.00 PKD
ROOT
HETATM    1  O   UNL     1     -10.113   6.187  65.837  1.00  0.00    -0.386 OA 
HETATM    2  C   UNL     1     -10.659   5.541  66.982  1.00  0.00    -0.260 C  
HETATM    3  H   UNL     1     -10.260   5.691  65.041  1.00  0.00     0.000 HD 
ENDROOT
BRANCH   2   4
HETATM    4  C   UNL     1     -10.425   6.330  68.248  1.00  0.00    -0.277 A  
HETATM    5  C   UNL     1     -10.051   5.683  69.439  1.00  0.00    -0.223 A  
HETATM    6 CL   UNL     1      -9.835   3.968  69.506  1.00  0.00    -0.220 Cl 
HETATM    7  C   UNL     1      -9.840   6.406  70.617  1.00  0.00    -0.206 A  
HETATM    8  C   UNL     1      -9.999   7.787  70.615  1.00  0.00    -0.186 A  
HETATM    9  C   UNL     1     -10.366   8.453  69.449  1.00  0.00    -0.217 A  
HETATM   10 CL   UNL     1      -9.746   8.680  72.064  1.00  0.00    -0.374 Cl 
HETATM   11  C   UNL     1     -10.576   7.727  68.273  1.00  0.00    -0.169 A  
ENDBRANCH   2   4
TORSDOF 1
ENDMDL
MODEL      160
REMARK 921   NORMALIZED FREE ENERGY PREDICTED BY IDOCK:   -2.35 KCAL/MOL
REMARK 922        TOTAL FREE ENERGY PREDICTED BY IDOCK:   -2.54 KCAL/MOL
REMARK 923 INTER-LIGAND FREE ENERGY PREDICTED BY IDOCK:   -2.52 KCAL/MOL
REMARK 924 INTRA-LIGAND FREE ENERGY PREDICTED BY IDOCK:   -0.02 KCAL/MOL
REMARK 927      BINDING AFFINITY PREDICTED BY RF-SCORE:    0.00 PKD
ROOT
HETATM    1  O   UNL     1      -8.372   7.996  64.396  1.00  0.00    -0.314 OA 
HETATM    2  C   UNL     1      -8.851   9.246  63.909  1.00  0.00    -0.126 C  
HETATM    3  H   UNL     1      -8.022   7.451  63.701  1.00  0.00     0.000 HD 
ENDROOT
BRANCH   2   4
HETATM    4  C   UNL     1      -9.409  10.111  65.013  1.00  0.00    -0.299 A  
HETATM    5  C   UNL     1     -10.340  11.127  64.729  1.00  0.00    -0.325 A  
HETATM    6 CL   UNL     1     -10.889  11.423  63.116  1.00  0.00    -0.283 Cl 
HETATM    7  C   UNL     1     -10.855  11.938  65.745  1.00  0.00    -0.341 A  
HETATM    8  C   UNL     1     -10.445  11.739  67.059  1.00  0.00    -0.220 A  
HETATM    9  C   UNL     1      -9.528  10.739  67.368  1.00  0.00    -0.171 A  
HETATM   10 CL   UNL     1     -11.073  12.739  68.312  1.00  0.00    -0.269 Cl 
HETATM   11  C   UNL     1      -9.015   9.930  66.350  1.00  0.00    -0.169 A  
ENDBRANCH   2   4
TORSDOF 1
ENDMDL
MODEL      161
REMARK 921   NORMALIZED FREE ENERGY PREDICTED BY IDOCK:   -2.35 KCAL/MOL
REMARK 922        TOTAL FREE ENERGY PREDICTED BY IDOCK:   -2.53 KCAL/MOL
REMARK 923 INTER-LIGAND FREE ENERGY PREDICTED BY IDOCK:   -2.51 KCAL/MOL
REMARK 924 INTRA-LIGAND FREE ENERGY PREDICTED BY IDOCK:   -0.02 KCAL/MOL
REMARK 927      BINDING AFFINITY PREDICTED BY RF-SCORE:    0.00 PKD
ROOT
HETATM    1  O   UNL     1     -10.301   8.799  68.937  1.00  0.00    -0.207 OA 
HETATM    2  C   UNL     1     -10.927   8.952  70.207  1.00  0.00    -0.241 C  
HETATM    3  H   UNL     1     -10.333   9.597  68.424  1.00  0.00     0.000 HD 
ENDROOT
BRANCH   2   4
HETATM    4  C   UNL     1     -10.876   7.683  71.024  1.00  0.00    -0.255 A  
HETATM    5  C   UNL     1     -12.038   7.172  71.630  1.00  0.00    -0.336 A  
HETATM    6 CL   UNL     1     -13.567   7.963  71.461  1.00  0.00    -0.375 Cl 
HETATM    7  C   UNL     1     -11.998   6.002  72.394  1.00  0.00    -0.232 A  
HETATM    8  C   UNL     1     -10.793   5.328  72.559  1.00  0.00    -0.245 A  
HETATM    9  C   UNL     1      -9.629   5.810  71.968  1.00  0.00    -0.170 A  
HETATM   10 CL   UNL     1     -10.738   3.890  73.503  1.00  0.00    -0.278 Cl 
HETATM   11  C   UNL     1      -9.673   6.980  71.204  1.00  0.00    -0.173 A  
ENDBRANCH   2   4
TORSDOF 1
ENDMDL
MODEL      162
REMARK 921   NORMALIZED FREE ENERGY PREDICTED BY IDOCK:   -2.35 KCAL/MOL
REMARK 922        TOTAL FREE ENERGY PREDICTED BY IDOCK:   -2.53 KCAL/MOL
REMARK 923 INTER-LIGAND FREE ENERGY PREDICTED BY IDOCK:   -2.55 KCAL/MOL
REMARK 924 INTRA-LIGAND FREE ENERGY PREDICTED BY IDOCK:    0.02 KCAL/MOL
REMARK 927      BINDING AFFINITY PREDICTED BY RF-SCORE:    0.00 PKD
ROOT
HETATM    1  O   UNL     1      -9.908  13.938  64.732  1.00  0.00    -0.603 OA 
HETATM    2  C   UNL     1     -10.864  12.957  65.121  1.00  0.00    -0.296 C  
HETATM    3  H   UNL     1     -10.316  14.700  64.338  1.00  0.00     0.000 HD 
ENDROOT
BRANCH   2   4
HETATM    4  C   UNL     1     -10.215  11.745  65.746  1.00  0.00    -0.276 A  
HETATM    5  C   UNL     1      -9.431  10.870  64.973  1.00  0.00    -0.233 A  
HETATM    6 CL   UNL     1      -9.171  11.145  63.285  1.00  0.00    -0.261 Cl 
HETATM    7  C   UNL     1      -8.833   9.743  65.543  1.00  0.00    -0.192 A  
HETATM    8  C   UNL     1      -9.012   9.479  66.897  1.00  0.00    -0.131 A  
HETATM    9  C   UNL     1      -9.779  10.330  67.686  1.00  0.00    -0.189 A  
HETATM   10 CL   UNL     1      -8.282   8.088  67.601  1.00  0.00    -0.123 Cl 
HETATM   11  C   UNL     1     -10.375  11.457  67.112  1.00  0.00    -0.247 A  
ENDBRANCH   2   4
TORSDOF 1
ENDMDL
MODEL      163
REMARK 921   NORMALIZED FREE ENERGY PREDICTED BY IDOCK:   -2.33 KCAL/MOL
REMARK 922        TOTAL FREE ENERGY PREDICTED BY IDOCK:   -2.52 KCAL/MOL
REMARK 923 INTER-LIGAND FREE ENERGY PREDICTED BY IDOCK:   -2.49 KCAL/MOL
REMARK 924 INTRA-LIGAND FREE ENERGY PREDICTED BY IDOCK:   -0.02 KCAL/MOL
REMARK 927      BINDING AFFINITY PREDICTED BY RF-SCORE:    0.00 PKD
ROOT
HETATM    1  O   UNL     1     -10.661  13.348  68.052  1.00  0.00    -0.232 OA 
HETATM    2  C   UNL     1     -10.063  12.243  67.381  1.00  0.00    -0.200 C  
HETATM    3  H   UNL     1     -10.531  14.164  67.584  1.00  0.00     0.000 HD 
ENDROOT
BRANCH   2   4
HETATM    4  C   UNL     1     -10.269  10.946  68.125  1.00  0.00    -0.197 A  
HETATM    5  C   UNL     1     -10.194   9.712  67.453  1.00  0.00    -0.227 A  
HETATM    6 CL   UNL     1      -9.858   9.627  65.758  1.00  0.00    -0.367 Cl 
HETATM    7  C   UNL     1     -10.391   8.507  68.134  1.00  0.00    -0.258 A  
HETATM    8  C   UNL     1     -10.664   8.523  69.497  1.00  0.00    -0.174 A  
HETATM    9  C   UNL     1     -10.740   9.728  70.187  1.00  0.00    -0.339 A  
HETATM   10 CL   UNL     1     -10.912   7.041  70.337  1.00  0.00    -0.283 Cl 
HETATM   11  C   UNL     1     -10.542  10.932  69.504  1.00  0.00    -0.217 A  
ENDBRANCH   2   4
TORSDOF 1
ENDMDL
MODEL      164
REMARK 921   NORMALIZED FREE ENERGY PREDICTED BY IDOCK:   -2.32 KCAL/MOL
REMARK 922        TOTAL FREE ENERGY PREDICTED BY IDOCK:   -2.50 KCAL/MOL
REMARK 923 INTER-LIGAND FREE ENERGY PREDICTED BY IDOCK:   -2.45 KCAL/MOL
REMARK 924 INTRA-LIGAND FREE ENERGY PREDICTED BY IDOCK:   -0.05 KCAL/MOL
REMARK 927      BINDING AFFINITY PREDICTED BY RF-SCORE:    0.00 PKD
ROOT
HETATM    1  O   UNL     1      -9.588  16.983  67.018  1.00  0.00    -0.241 OA 
HETATM    2  C   UNL     1      -8.384  17.622  66.606  1.00  0.00    -0.260 C  
HETATM    3  H   UNL     1     -10.090  16.656  66.282  1.00  0.00     0.000 HD 
ENDROOT
BRANCH   2   4
HETATM    4  C   UNL     1      -7.586  18.143  67.777  1.00  0.00    -0.222 A  
HETATM    5  C   UNL     1      -6.663  17.315  68.442  1.00  0.00    -0.181 A  
HETATM    6 CL   UNL     1      -6.398  15.679  67.948  1.00  0.00    -0.148 Cl 
HETATM    7  C   UNL     1      -5.925  17.788  69.532  1.00  0.00    -0.245 A  
HETATM    8  C   UNL     1      -6.102  19.097  69.967  1.00  0.00    -0.213 A  
HETATM    9  C   UNL     1      -7.005  19.938  69.325  1.00  0.00    -0.304 A  
HETATM   10 CL   UNL     1      -5.199  19.680  71.312  1.00  0.00    -0.284 Cl 
HETATM   11  C   UNL     1      -7.741  19.462  68.235  1.00  0.00    -0.356 A  
ENDBRANCH   2   4
TORSDOF 1
ENDMDL
MODEL      165
REMARK 921   NORMALIZED FREE ENERGY PREDICTED BY IDOCK:   -2.30 KCAL/MOL
REMARK 922        TOTAL FREE ENERGY PREDICTED BY IDOCK:   -2.48 KCAL/MOL
REMARK 923 INTER-LIGAND FREE ENERGY PREDICTED BY IDOCK:   -2.45 KCAL/MOL
REMARK 924 INTRA-LIGAND FREE ENERGY PREDICTED BY IDOCK:   -0.03 KCAL/MOL
REMARK 927      BINDING AFFINITY PREDICTED BY RF-SCORE:    0.00 PKD
ROOT
HETATM    1  O   UNL     1     -12.535  14.094  69.095  1.00  0.00    -0.519 OA 
HETATM    2  C   UNL     1     -11.891  13.900  67.840  1.00  0.00    -0.378 C  
HETATM    3  H   UNL     1     -13.395  14.485  68.999  1.00  0.00     0.000 HD 
ENDROOT
BRANCH   2   4
HETATM    4  C   UNL     1     -10.523  13.279  67.992  1.00  0.00    -0.248 A  
HETATM    5  C   UNL     1     -10.383  11.910  68.283  1.00  0.00    -0.201 A  
HETATM    6 CL   UNL     1     -11.762  10.882  68.471  1.00  0.00    -0.356 Cl 
HETATM    7  C   UNL     1      -9.120  11.329  68.433  1.00  0.00    -0.170 A  
HETATM    8  C   UNL     1      -7.981  12.114  68.290  1.00  0.00    -0.163 A  
HETATM    9  C   UNL     1      -8.090  13.469  67.999  1.00  0.00    -0.156 A  
HETATM   10 CL   UNL     1      -6.424  11.403  68.479  1.00  0.00    -0.054 Cl 
HETATM   11  C   UNL     1      -9.354  14.047  67.849  1.00  0.00    -0.206 A  
ENDBRANCH   2   4
TORSDOF 1
ENDMDL
MODEL      166
REMARK 921   NORMALIZED FREE ENERGY PREDICTED BY IDOCK:   -2.29 KCAL/MOL
REMARK 922        TOTAL FREE ENERGY PREDICTED BY IDOCK:   -2.47 KCAL/MOL
REMARK 923 INTER-LIGAND FREE ENERGY PREDICTED BY IDOCK:   -2.45 KCAL/MOL
REMARK 924 INTRA-LIGAND FREE ENERGY PREDICTED BY IDOCK:   -0.02 KCAL/MOL
REMARK 927      BINDING AFFINITY PREDICTED BY RF-SCORE:    0.00 PKD
ROOT
HETATM    1  O   UNL     1      -8.684   9.304  69.958  1.00  0.00    -0.158 OA 
HETATM    2  C   UNL     1      -9.853   9.509  70.745  1.00  0.00    -0.239 C  
HETATM    3  H   UNL     1      -8.399  10.100  69.526  1.00  0.00     0.000 HD 
ENDROOT
BRANCH   2   4
HETATM    4  C   UNL     1     -10.307   8.243  71.432  1.00  0.00    -0.270 A  
HETATM    5  C   UNL     1      -9.591   7.723  72.526  1.00  0.00    -0.192 A  
HETATM    6 CL   UNL     1      -8.175   8.508  73.134  1.00  0.00    -0.163 Cl 
HETATM    7  C   UNL     1     -10.001   6.547  73.161  1.00  0.00    -0.193 A  
HETATM    8  C   UNL     1     -11.134   5.879  72.710  1.00  0.00    -0.281 A  
HETATM    9  C   UNL     1     -11.862   6.373  71.633  1.00  0.00    -0.361 A  
HETATM   10 CL   UNL     1     -11.638   4.428  73.488  1.00  0.00    -0.297 Cl 
HETATM   11  C   UNL     1     -11.450   7.549  70.999  1.00  0.00    -0.299 A  
ENDBRANCH   2   4
TORSDOF 1
ENDMDL
MODEL      167
REMARK 921   NORMALIZED FREE ENERGY PREDICTED BY IDOCK:   -2.28 KCAL/MOL
REMARK 922        TOTAL FREE ENERGY PREDICTED BY IDOCK:   -2.46 KCAL/MOL
REMARK 923 INTER-LIGAND FREE ENERGY PREDICTED BY IDOCK:   -2.80 KCAL/MOL
REMARK 924 INTRA-LIGAND FREE ENERGY PREDICTED BY IDOCK:    0.35 KCAL/MOL
REMARK 927      BINDING AFFINITY PREDICTED BY RF-SCORE:    0.00 PKD
ROOT
HETATM    1  O   UNL     1     -10.632  18.681  65.638  1.00  0.00    -0.610 OA 
HETATM    2  C   UNL     1      -9.481  18.087  66.229  1.00  0.00    -0.220 C  
HETATM    3  H   UNL     1     -10.422  19.477  65.164  1.00  0.00     0.000 HD 
ENDROOT
BRANCH   2   4
HETATM    4  C   UNL     1      -9.816  16.822  66.982  1.00  0.00    -0.262 A  
HETATM    5  C   UNL     1     -10.659  15.849  66.413  1.00  0.00    -0.297 A  
HETATM    6 CL   UNL     1     -11.337  16.054  64.835  1.00  0.00    -0.282 Cl 
HETATM    7  C   UNL     1     -10.979  14.679  67.107  1.00  0.00    -0.316 A  
HETATM    8  C   UNL     1     -10.458  14.467  68.379  1.00  0.00    -0.246 A  
HETATM    9  C   UNL     1      -9.619  15.411  68.963  1.00  0.00    -0.236 A  
HETATM   10 CL   UNL     1     -10.855  13.029  69.238  1.00  0.00    -0.118 Cl 
HETATM   11  C   UNL     1      -9.300  16.580  68.267  1.00  0.00    -0.217 A  
ENDBRANCH   2   4
TORSDOF 1
ENDMDL
MODEL      168
REMARK 921   NORMALIZED FREE ENERGY PREDICTED BY IDOCK:   -2.27 KCAL/MOL
REMARK 922        TOTAL FREE ENERGY PREDICTED BY IDOCK:   -2.46 KCAL/MOL
REMARK 923 INTER-LIGAND FREE ENERGY PREDICTED BY IDOCK:   -2.41 KCAL/MOL
REMARK 924 INTRA-LIGAND FREE ENERGY PREDICTED BY IDOCK:   -0.04 KCAL/MOL
REMARK 927      BINDING AFFINITY PREDICTED BY RF-SCORE:    0.00 PKD
ROOT
HETATM    1  O   UNL     1     -10.564  13.341  68.137  1.00  0.00    -0.235 OA 
HETATM    2  C   UNL     1     -10.388  12.011  67.659  1.00  0.00    -0.198 C  
HETATM    3  H   UNL     1     -10.850  13.933  67.452  1.00  0.00     0.000 HD 
ENDROOT
BRANCH   2   4
HETATM    4  C   UNL     1      -9.933  11.069  68.748  1.00  0.00    -0.215 A  
HETATM    5  C   UNL     1     -10.849  10.559  69.686  1.00  0.00    -0.274 A  
HETATM    6 CL   UNL     1     -12.527  10.978  69.629  1.00  0.00    -0.298 Cl 
HETATM    7  C   UNL     1     -10.434   9.692  70.701  1.00  0.00    -0.379 A  
HETATM    8  C   UNL     1      -9.096   9.325  70.788  1.00  0.00    -0.244 A  
HETATM    9  C   UNL     1      -8.169   9.812  69.872  1.00  0.00    -0.196 A  
HETATM   10 CL   UNL     1      -8.580   8.263  72.041  1.00  0.00    -0.215 Cl 
HETATM   11  C   UNL     1      -8.588  10.678  68.857  1.00  0.00    -0.158 A  
ENDBRANCH   2   4
TORSDOF 1
ENDMDL
MODEL      169
REMARK 921   NORMALIZED FREE ENERGY PREDICTED BY IDOCK:   -2.24 KCAL/MOL
REMARK 922        TOTAL FREE ENERGY PREDICTED BY IDOCK:   -2.42 KCAL/MOL
REMARK 923 INTER-LIGAND FREE ENERGY PREDICTED BY IDOCK:   -2.39 KCAL/MOL
REMARK 924 INTRA-LIGAND FREE ENERGY PREDICTED BY IDOCK:   -0.04 KCAL/MOL
REMARK 927      BINDING AFFINITY PREDICTED BY RF-SCORE:    0.00 PKD
ROOT
HETATM    1  O   UNL     1     -11.168   5.658  66.223  1.00  0.00    -0.759 OA 
HETATM    2  C   UNL     1     -10.922   6.804  67.032  1.00  0.00    -0.368 C  
HETATM    3  H   UNL     1     -11.913   5.779  65.646  1.00  0.00     0.000 HD 
ENDROOT
BRANCH   2   4
HETATM    4  C   UNL     1      -9.738   6.611  67.949  1.00  0.00    -0.130 A  
HETATM    5  C   UNL     1      -9.925   6.384  69.324  1.00  0.00    -0.153 A  
HETATM    6 CL   UNL     1     -11.506   6.308  70.021  1.00  0.00    -0.494 Cl 
HETATM    7  C   UNL     1      -8.833   6.212  70.181  1.00  0.00    -0.144 A  
HETATM    8  C   UNL     1      -7.541   6.264  69.669  1.00  0.00    -0.094 A  
HETATM    9  C   UNL     1      -7.329   6.483  68.312  1.00  0.00    -0.087 A  
HETATM   10 CL   UNL     1      -6.195   6.058  70.722  1.00  0.00    -0.037 Cl 
HETATM   11  C   UNL     1      -8.422   6.655  67.458  1.00  0.00    -0.121 A  
ENDBRANCH   2   4
TORSDOF 1
ENDMDL
MODEL      170
REMARK 921   NORMALIZED FREE ENERGY PREDICTED BY IDOCK:   -2.23 KCAL/MOL
REMARK 922        TOTAL FREE ENERGY PREDICTED BY IDOCK:   -2.41 KCAL/MOL
REMARK 923 INTER-LIGAND FREE ENERGY PREDICTED BY IDOCK:   -2.37 KCAL/MOL
REMARK 924 INTRA-LIGAND FREE ENERGY PREDICTED BY IDOCK:   -0.04 KCAL/MOL
REMARK 927      BINDING AFFINITY PREDICTED BY RF-SCORE:    0.00 PKD
ROOT
HETATM    1  O   UNL     1      -9.467   7.737  66.335  1.00  0.00    -0.214 OA 
HETATM    2  C   UNL     1      -8.911   8.644  67.281  1.00  0.00    -0.133 C  
HETATM    3  H   UNL     1      -9.042   7.799  65.487  1.00  0.00     0.000 HD 
ENDROOT
BRANCH   2   4
HETATM    4  C   UNL     1      -9.586   8.546  68.628  1.00  0.00    -0.153 A  
HETATM    5  C   UNL     1     -10.639   9.415  68.969  1.00  0.00    -0.213 A  
HETATM    6 CL   UNL     1     -11.208  10.620  67.866  1.00  0.00    -0.369 Cl 
HETATM    7  C   UNL     1     -11.264   9.336  70.217  1.00  0.00    -0.267 A  
HETATM    8  C   UNL     1     -10.843   8.383  71.139  1.00  0.00    -0.237 A  
HETATM    9  C   UNL     1      -9.807   7.509  70.826  1.00  0.00    -0.178 A  
HETATM   10 CL   UNL     1     -11.607   8.286  72.678  1.00  0.00    -0.458 Cl 
HETATM   11  C   UNL     1      -9.184   7.591  69.577  1.00  0.00    -0.146 A  
ENDBRANCH   2   4
TORSDOF 1
ENDMDL
MODEL      171
REMARK 921   NORMALIZED FREE ENERGY PREDICTED BY IDOCK:   -2.22 KCAL/MOL
REMARK 922        TOTAL FREE ENERGY PREDICTED BY IDOCK:   -2.40 KCAL/MOL
REMARK 923 INTER-LIGAND FREE ENERGY PREDICTED BY IDOCK:   -2.37 KCAL/MOL
REMARK 924 INTRA-LIGAND FREE ENERGY PREDICTED BY IDOCK:   -0.02 KCAL/MOL
REMARK 927      BINDING AFFINITY PREDICTED BY RF-SCORE:    0.00 PKD
ROOT
HETATM    1  O   UNL     1     -12.928   9.562  71.010  1.00  0.00    -0.472 OA 
HETATM    2  C   UNL     1     -11.999  10.457  70.406  1.00  0.00    -0.320 C  
HETATM    3  H   UNL     1     -13.686  10.014  71.359  1.00  0.00     0.000 HD 
ENDROOT
BRANCH   2   4
HETATM    4  C   UNL     1     -10.793   9.738  69.851  1.00  0.00    -0.306 A  
HETATM    5  C   UNL     1     -10.327  10.014  68.553  1.00  0.00    -0.193 A  
HETATM    6 CL   UNL     1     -11.104  11.185  67.544  1.00  0.00    -0.328 Cl 
HETATM    7  C   UNL     1      -9.215   9.347  68.030  1.00  0.00    -0.137 A  
HETATM    8  C   UNL     1      -8.555   8.397  68.802  1.00  0.00    -0.135 A  
HETATM    9  C   UNL     1      -8.993   8.108  70.090  1.00  0.00    -0.146 A  
HETATM   10 CL   UNL     1      -7.190   7.570  68.158  1.00  0.00    -0.088 Cl 
HETATM   11  C   UNL     1     -10.105   8.777  70.611  1.00  0.00    -0.248 A  
ENDBRANCH   2   4
TORSDOF 1
ENDMDL
MODEL      172
REMARK 921   NORMALIZED FREE ENERGY PREDICTED BY IDOCK:   -2.20 KCAL/MOL
REMARK 922        TOTAL FREE ENERGY PREDICTED BY IDOCK:   -2.38 KCAL/MOL
REMARK 923 INTER-LIGAND FREE ENERGY PREDICTED BY IDOCK:   -2.42 KCAL/MOL
REMARK 924 INTRA-LIGAND FREE ENERGY PREDICTED BY IDOCK:    0.04 KCAL/MOL
REMARK 927      BINDING AFFINITY PREDICTED BY RF-SCORE:    0.00 PKD
ROOT
HETATM    1  O   UNL     1      -8.999   2.106  67.875  1.00  0.00    -0.120 OA 
HETATM    2  C   UNL     1      -8.543   3.454  67.822  1.00  0.00    -0.101 C  
HETATM    3  H   UNL     1      -8.426   1.515  67.402  1.00  0.00     0.000 HD 
ENDROOT
BRANCH   2   4
HETATM    4  C   UNL     1      -9.454   4.395  68.574  1.00  0.00    -0.217 A  
HETATM    5  C   UNL     1      -9.589   4.301  69.971  1.00  0.00    -0.204 A  
HETATM    6 CL   UNL     1      -8.718   3.118  70.884  1.00  0.00    -0.116 Cl 
HETATM    7  C   UNL     1     -10.436   5.163  70.673  1.00  0.00    -0.269 A  
HETATM    8  C   UNL     1     -11.158   6.131  69.984  1.00  0.00    -0.392 A  
HETATM    9  C   UNL     1     -11.040   6.248  68.603  1.00  0.00    -0.409 A  
HETATM   10 CL   UNL     1     -12.206   7.191  70.844  1.00  0.00    -0.375 Cl 
HETATM   11  C   UNL     1     -10.192   5.385  67.903  1.00  0.00    -0.219 A  
ENDBRANCH   2   4
TORSDOF 1
ENDMDL
MODEL      173
REMARK 921   NORMALIZED FREE ENERGY PREDICTED BY IDOCK:   -2.18 KCAL/MOL
REMARK 922        TOTAL FREE ENERGY PREDICTED BY IDOCK:   -2.36 KCAL/MOL
REMARK 923 INTER-LIGAND FREE ENERGY PREDICTED BY IDOCK:   -2.33 KCAL/MOL
REMARK 924 INTRA-LIGAND FREE ENERGY PREDICTED BY IDOCK:   -0.03 KCAL/MOL
REMARK 927      BINDING AFFINITY PREDICTED BY RF-SCORE:    0.00 PKD
ROOT
HETATM    1  O   UNL     1      -9.237   8.008  66.377  1.00  0.00    -0.174 OA 
HETATM    2  C   UNL     1      -8.658   7.749  67.652  1.00  0.00    -0.123 C  
HETATM    3  H   UNL     1      -8.579   8.168  65.710  1.00  0.00     0.000 HD 
ENDROOT
BRANCH   2   4
HETATM    4  C   UNL     1      -9.703   7.496  68.712  1.00  0.00    -0.151 A  
HETATM    5  C   UNL     1     -10.384   6.266  68.770  1.00  0.00    -0.205 A  
HETATM    6 CL   UNL     1     -10.051   4.996  67.643  1.00  0.00    -0.206 Cl 
HETATM    7  C   UNL     1     -11.358   6.027  69.743  1.00  0.00    -0.344 A  
HETATM    8  C   UNL     1     -11.661   7.016  70.672  1.00  0.00    -0.338 A  
HETATM    9  C   UNL     1     -11.000   8.240  70.640  1.00  0.00    -0.257 A  
HETATM   10 CL   UNL     1     -12.864   6.727  71.869  1.00  0.00    -0.336 Cl 
HETATM   11  C   UNL     1     -10.026   8.476  69.665  1.00  0.00    -0.192 A  
ENDBRANCH   2   4
TORSDOF 1
ENDMDL
MODEL      174
REMARK 921   NORMALIZED FREE ENERGY PREDICTED BY IDOCK:   -2.14 KCAL/MOL
REMARK 922        TOTAL FREE ENERGY PREDICTED BY IDOCK:   -2.31 KCAL/MOL
REMARK 923 INTER-LIGAND FREE ENERGY PREDICTED BY IDOCK:   -2.29 KCAL/MOL
REMARK 924 INTRA-LIGAND FREE ENERGY PREDICTED BY IDOCK:   -0.02 KCAL/MOL
REMARK 927      BINDING AFFINITY PREDICTED BY RF-SCORE:    0.00 PKD
ROOT
HETATM    1  O   UNL     1      -9.309   6.177  65.701  1.00  0.00    -0.367 OA 
HETATM    2  C   UNL     1      -8.577   5.755  66.848  1.00  0.00    -0.111 C  
HETATM    3  H   UNL     1      -8.806   6.083  64.901  1.00  0.00     0.000 HD 
ENDROOT
BRANCH   2   4
HETATM    4  C   UNL     1      -9.376   5.905  68.120  1.00  0.00    -0.117 A  
HETATM    5  C   UNL     1      -8.761   5.756  69.377  1.00  0.00    -0.111 A  
HETATM    6 CL   UNL     1      -7.073   5.404  69.519  1.00  0.00    -0.062 Cl 
HETATM    7  C   UNL     1      -9.495   5.886  70.559  1.00  0.00    -0.196 A  
HETATM    8  C   UNL     1     -10.855   6.170  70.497  1.00  0.00    -0.300 A  
HETATM    9  C   UNL     1     -11.488   6.326  69.268  1.00  0.00    -0.288 A  
HETATM   10 CL   UNL     1     -11.763   6.326  71.951  1.00  0.00    -0.371 Cl 
HETATM   11  C   UNL     1     -10.751   6.195  68.088  1.00  0.00    -0.367 A  
ENDBRANCH   2   4
TORSDOF 1
ENDMDL
MODEL      175
REMARK 921   NORMALIZED FREE ENERGY PREDICTED BY IDOCK:   -2.12 KCAL/MOL
REMARK 922        TOTAL FREE ENERGY PREDICTED BY IDOCK:   -2.30 KCAL/MOL
REMARK 923 INTER-LIGAND FREE ENERGY PREDICTED BY IDOCK:   -2.25 KCAL/MOL
REMARK 924 INTRA-LIGAND FREE ENERGY PREDICTED BY IDOCK:   -0.04 KCAL/MOL
REMARK 927      BINDING AFFINITY PREDICTED BY RF-SCORE:    0.00 PKD
ROOT
HETATM    1  O   UNL     1      -6.408   9.755  71.644  1.00  0.00    -0.305 OA 
HETATM    2  C   UNL     1      -7.116   8.907  70.745  1.00  0.00    -0.078 C  
HETATM    3  H   UNL     1      -5.661   9.318  72.036  1.00  0.00     0.000 HD 
ENDROOT
BRANCH   2   4
HETATM    4  C   UNL     1      -8.303   9.601  70.123  1.00  0.00    -0.221 A  
HETATM    5  C   UNL     1      -8.130  10.501  69.055  1.00  0.00    -0.143 A  
HETATM    6 CL   UNL     1      -6.563  10.845  68.409  1.00  0.00    -0.057 Cl 
HETATM    7  C   UNL     1      -9.224  11.154  68.479  1.00  0.00    -0.183 A  
HETATM    8  C   UNL     1     -10.505  10.911  68.963  1.00  0.00    -0.219 A  
HETATM    9  C   UNL     1     -10.704  10.022  70.015  1.00  0.00    -0.348 A  
HETATM   10 CL   UNL     1     -11.853  11.716  68.258  1.00  0.00    -0.367 Cl 
HETATM   11  C   UNL     1      -9.608   9.371  70.589  1.00  0.00    -0.331 A  
ENDBRANCH   2   4
TORSDOF 1
ENDMDL
MODEL      176
REMARK 921   NORMALIZED FREE ENERGY PREDICTED BY IDOCK:   -2.12 KCAL/MOL
REMARK 922        TOTAL FREE ENERGY PREDICTED BY IDOCK:   -2.29 KCAL/MOL
REMARK 923 INTER-LIGAND FREE ENERGY PREDICTED BY IDOCK:   -2.30 KCAL/MOL
REMARK 924 INTRA-LIGAND FREE ENERGY PREDICTED BY IDOCK:    0.00 KCAL/MOL
REMARK 927      BINDING AFFINITY PREDICTED BY RF-SCORE:    0.00 PKD
ROOT
HETATM    1  O   UNL     1     -11.468   4.636  64.876  1.00  0.00    -0.987 OA 
HETATM    2  C   UNL     1     -10.181   4.234  65.335  1.00  0.00    -0.220 C  
HETATM    3  H   UNL     1     -12.022   3.894  64.665  1.00  0.00     0.000 HD 
ENDROOT
BRANCH   2   4
HETATM    4  C   UNL     1      -9.301   5.415  65.669  1.00  0.00    -0.098 A  
HETATM    5  C   UNL     1      -9.572   6.217  66.793  1.00  0.00    -0.148 A  
HETATM    6 CL   UNL     1     -10.910   5.885  67.838  1.00  0.00    -0.342 Cl 
HETATM    7  C   UNL     1      -8.766   7.316  67.105  1.00  0.00    -0.121 A  
HETATM    8  C   UNL     1      -7.678   7.624  66.296  1.00  0.00    -0.089 A  
HETATM    9  C   UNL     1      -7.386   6.845  65.181  1.00  0.00    -0.081 A  
HETATM   10 CL   UNL     1      -6.687   8.980  66.674  1.00  0.00    -0.074 Cl 
HETATM   11  C   UNL     1      -8.193   5.747  64.871  1.00  0.00    -0.137 A  
ENDBRANCH   2   4
TORSDOF 1
ENDMDL
MODEL      177
REMARK 921   NORMALIZED FREE ENERGY PREDICTED BY IDOCK:   -2.12 KCAL/MOL
REMARK 922        TOTAL FREE ENERGY PREDICTED BY IDOCK:   -2.29 KCAL/MOL
REMARK 923 INTER-LIGAND FREE ENERGY PREDICTED BY IDOCK:   -2.25 KCAL/MOL
REMARK 924 INTRA-LIGAND FREE ENERGY PREDICTED BY IDOCK:   -0.04 KCAL/MOL
REMARK 927      BINDING AFFINITY PREDICTED BY RF-SCORE:    0.00 PKD
ROOT
HETATM    1  O   UNL     1     -10.564  13.341  68.137  1.00  0.00    -0.235 OA 
HETATM    2  C   UNL     1     -10.380  12.013  67.656  1.00  0.00    -0.198 C  
HETATM    3  H   UNL     1     -10.851  13.933  67.453  1.00  0.00     0.000 HD 
ENDROOT
BRANCH   2   4
HETATM    4  C   UNL     1      -9.924  11.071  68.744  1.00  0.00    -0.215 A  
HETATM    5  C   UNL     1      -8.561  10.753  68.894  1.00  0.00    -0.153 A  
HETATM    6 CL   UNL     1      -7.356  11.428  67.853  1.00  0.00    -0.089 Cl 
HETATM    7  C   UNL     1      -8.132   9.876  69.895  1.00  0.00    -0.200 A  
HETATM    8  C   UNL     1      -9.063   9.307  70.758  1.00  0.00    -0.244 A  
HETATM    9  C   UNL     1     -10.415   9.607  70.633  1.00  0.00    -0.379 A  
HETATM   10 CL   UNL     1      -8.538   8.222  71.987  1.00  0.00    -0.215 Cl 
HETATM   11  C   UNL     1     -10.841  10.485  69.632  1.00  0.00    -0.320 A  
ENDBRANCH   2   4
TORSDOF 1
ENDMDL
MODEL      178
REMARK 921   NORMALIZED FREE ENERGY PREDICTED BY IDOCK:   -2.10 KCAL/MOL
REMARK 922        TOTAL FREE ENERGY PREDICTED BY IDOCK:   -2.27 KCAL/MOL
REMARK 923 INTER-LIGAND FREE ENERGY PREDICTED BY IDOCK:   -2.23 KCAL/MOL
REMARK 924 INTRA-LIGAND FREE ENERGY PREDICTED BY IDOCK:   -0.05 KCAL/MOL
REMARK 927      BINDING AFFINITY PREDICTED BY RF-SCORE:    0.00 PKD
ROOT
HETATM    1  O   UNL     1      -7.191   9.394  71.821  1.00  0.00    -0.318 OA 
HETATM    2  C   UNL     1      -7.567   8.022  71.754  1.00  0.00    -0.086 C  
HETATM    3  H   UNL     1      -6.639   9.578  72.571  1.00  0.00     0.000 HD 
ENDROOT
BRANCH   2   4
HETATM    4  C   UNL     1      -8.445   7.729  70.561  1.00  0.00    -0.127 A  
HETATM    5  C   UNL     1      -9.819   8.031  70.589  1.00  0.00    -0.184 A  
HETATM    6 CL   UNL     1     -10.557   8.752  71.977  1.00  0.00    -0.415 Cl 
HETATM    7  C   UNL     1     -10.640   7.755  69.491  1.00  0.00    -0.221 A  
HETATM    8  C   UNL     1     -10.093   7.176  68.351  1.00  0.00    -0.168 A  
HETATM    9  C   UNL     1      -8.737   6.872  68.296  1.00  0.00    -0.123 A  
HETATM   10 CL   UNL     1     -11.102   6.831  66.999  1.00  0.00    -0.460 Cl 
HETATM   11  C   UNL     1      -7.919   7.148  69.395  1.00  0.00    -0.125 A  
ENDBRANCH   2   4
TORSDOF 1
ENDMDL
MODEL      179
REMARK 921   NORMALIZED FREE ENERGY PREDICTED BY IDOCK:   -2.10 KCAL/MOL
REMARK 922        TOTAL FREE ENERGY PREDICTED BY IDOCK:   -2.27 KCAL/MOL
REMARK 923 INTER-LIGAND FREE ENERGY PREDICTED BY IDOCK:   -2.22 KCAL/MOL
REMARK 924 INTRA-LIGAND FREE ENERGY PREDICTED BY IDOCK:   -0.05 KCAL/MOL
REMARK 927      BINDING AFFINITY PREDICTED BY RF-SCORE:    0.00 PKD
ROOT
HETATM    1  O   UNL     1     -10.347   8.167  67.541  1.00  0.00    -0.224 OA 
HETATM    2  C   UNL     1      -9.295   7.526  68.257  1.00  0.00    -0.141 C  
HETATM    3  H   UNL     1     -10.030   8.623  66.771  1.00  0.00     0.000 HD 
ENDROOT
BRANCH   2   4
HETATM    4  C   UNL     1      -9.799   6.802  69.482  1.00  0.00    -0.164 A  
HETATM    5  C   UNL     1     -10.029   7.496  70.684  1.00  0.00    -0.183 A  
HETATM    6 CL   UNL     1      -9.752   9.199  70.810  1.00  0.00    -0.309 Cl 
HETATM    7  C   UNL     1     -10.488   6.830  71.825  1.00  0.00    -0.228 A  
HETATM    8  C   UNL     1     -10.726   5.461  71.774  1.00  0.00    -0.204 A  
HETATM    9  C   UNL     1     -10.511   4.751  70.597  1.00  0.00    -0.087 A  
HETATM   10 CL   UNL     1     -11.286   4.638  73.178  1.00  0.00    -0.370 Cl 
HETATM   11  C   UNL     1     -10.052   5.419  69.458  1.00  0.00    -0.310 A  
ENDBRANCH   2   4
TORSDOF 1
ENDMDL
MODEL      180
REMARK 921   NORMALIZED FREE ENERGY PREDICTED BY IDOCK:   -2.09 KCAL/MOL
REMARK 922        TOTAL FREE ENERGY PREDICTED BY IDOCK:   -2.26 KCAL/MOL
REMARK 923 INTER-LIGAND FREE ENERGY PREDICTED BY IDOCK:   -2.24 KCAL/MOL
REMARK 924 INTRA-LIGAND FREE ENERGY PREDICTED BY IDOCK:   -0.02 KCAL/MOL
REMARK 927      BINDING AFFINITY PREDICTED BY RF-SCORE:    0.00 PKD
ROOT
HETATM    1  O   UNL     1      -6.837  11.936  69.721  1.00  0.00    -0.331 OA 
HETATM    2  C   UNL     1      -7.649  10.789  69.493  1.00  0.00    -0.088 C  
HETATM    3  H   UNL     1      -6.298  11.845  70.497  1.00  0.00     0.000 HD 
ENDROOT
BRANCH   2   4
HETATM    4  C   UNL     1      -8.507  10.935  68.258  1.00  0.00    -0.134 A  
HETATM    5  C   UNL     1      -9.907  10.823  68.339  1.00  0.00    -0.169 A  
HETATM    6 CL   UNL     1     -10.703  10.523  69.845  1.00  0.00    -0.314 Cl 
HETATM    7  C   UNL     1     -10.707  10.949  67.200  1.00  0.00    -0.320 A  
HETATM    8  C   UNL     1     -10.114  11.191  65.965  1.00  0.00    -0.244 A  
HETATM    9  C   UNL     1      -8.732  11.311  65.858  1.00  0.00    -0.146 A  
HETATM   10 CL   UNL     1     -11.096  11.342  64.560  1.00  0.00    -0.346 Cl 
HETATM   11  C   UNL     1      -7.935  11.184  66.999  1.00  0.00    -0.145 A  
ENDBRANCH   2   4
TORSDOF 1
ENDMDL
MODEL      181
REMARK 921   NORMALIZED FREE ENERGY PREDICTED BY IDOCK:   -2.08 KCAL/MOL
REMARK 922        TOTAL FREE ENERGY PREDICTED BY IDOCK:   -2.25 KCAL/MOL
REMARK 923 INTER-LIGAND FREE ENERGY PREDICTED BY IDOCK:   -2.23 KCAL/MOL
REMARK 924 INTRA-LIGAND FREE ENERGY PREDICTED BY IDOCK:   -0.02 KCAL/MOL
REMARK 927      BINDING AFFINITY PREDICTED BY RF-SCORE:    0.00 PKD
ROOT
HETATM    1  O   UNL     1      -8.957   4.104  66.088  1.00  0.00    -0.118 OA 
HETATM    2  C   UNL     1      -9.113   4.889  67.266  1.00  0.00    -0.116 C  
HETATM    3  H   UNL     1      -8.821   3.185  66.285  1.00  0.00     0.000 HD 
ENDROOT
BRANCH   2   4
HETATM    4  C   UNL     1      -9.329   6.350  66.952  1.00  0.00    -0.150 A  
HETATM    5  C   UNL     1     -10.265   7.110  67.678  1.00  0.00    -0.198 A  
HETATM    6 CL   UNL     1     -11.197   6.412  68.957  1.00  0.00    -0.416 Cl 
HETATM    7  C   UNL     1     -10.475   8.461  67.388  1.00  0.00    -0.354 A  
HETATM    8  C   UNL     1      -9.749   9.069  66.369  1.00  0.00    -0.268 A  
HETATM    9  C   UNL     1      -8.815   8.341  65.639  1.00  0.00    -0.172 A  
HETATM   10 CL   UNL     1     -10.010  10.731  66.007  1.00  0.00    -0.282 Cl 
HETATM   11  C   UNL     1      -8.607   6.990  65.931  1.00  0.00    -0.152 A  
ENDBRANCH   2   4
TORSDOF 1
ENDMDL
MODEL      182
REMARK 921   NORMALIZED FREE ENERGY PREDICTED BY IDOCK:   -2.07 KCAL/MOL
REMARK 922        TOTAL FREE ENERGY PREDICTED BY IDOCK:   -2.24 KCAL/MOL
REMARK 923 INTER-LIGAND FREE ENERGY PREDICTED BY IDOCK:   -2.21 KCAL/MOL
REMARK 924 INTRA-LIGAND FREE ENERGY PREDICTED BY IDOCK:   -0.02 KCAL/MOL
REMARK 927      BINDING AFFINITY PREDICTED BY RF-SCORE:    0.00 PKD
ROOT
HETATM    1  O   UNL     1     -12.537   7.680  72.541  1.00  0.00    -0.524 OA 
HETATM    2  C   UNL     1     -11.953   7.030  71.417  1.00  0.00    -0.340 C  
HETATM    3  H   UNL     1     -13.479   7.762  72.457  1.00  0.00     0.000 HD 
ENDROOT
BRANCH   2   4
HETATM    4  C   UNL     1     -10.454   6.899  71.549  1.00  0.00    -0.231 A  
HETATM    5  C   UNL     1      -9.729   6.049  70.694  1.00  0.00    -0.174 A  
HETATM    6 CL   UNL     1     -10.514   5.130  69.457  1.00  0.00    -0.301 Cl 
HETATM    7  C   UNL     1      -8.343   5.917  70.816  1.00  0.00    -0.125 A  
HETATM    8  C   UNL     1      -7.665   6.636  71.795  1.00  0.00    -0.097 A  
HETATM    9  C   UNL     1      -8.358   7.486  72.651  1.00  0.00    -0.146 A  
HETATM   10 CL   UNL     1      -5.959   6.471  71.951  1.00  0.00    -0.037 Cl 
HETATM   11  C   UNL     1      -9.744   7.616  72.527  1.00  0.00    -0.238 A  
ENDBRANCH   2   4
TORSDOF 1
ENDMDL
MODEL      183
REMARK 921   NORMALIZED FREE ENERGY PREDICTED BY IDOCK:   -2.06 KCAL/MOL
REMARK 922        TOTAL FREE ENERGY PREDICTED BY IDOCK:   -2.23 KCAL/MOL
REMARK 923 INTER-LIGAND FREE ENERGY PREDICTED BY IDOCK:   -2.18 KCAL/MOL
REMARK 924 INTRA-LIGAND FREE ENERGY PREDICTED BY IDOCK:   -0.05 KCAL/MOL
REMARK 927      BINDING AFFINITY PREDICTED BY RF-SCORE:    0.00 PKD
ROOT
HETATM    1  O   UNL     1      -8.585   6.476  67.000  1.00  0.00    -0.112 OA 
HETATM    2  C   UNL     1      -8.062   7.779  67.235  1.00  0.00    -0.119 C  
HETATM    3  H   UNL     1      -8.029   5.796  67.360  1.00  0.00     0.000 HD 
ENDROOT
BRANCH   2   4
HETATM    4  C   UNL     1      -8.947   8.860  66.662  1.00  0.00    -0.165 A  
HETATM    5  C   UNL     1      -9.941   9.468  67.450  1.00  0.00    -0.189 A  
HETATM    6 CL   UNL     1     -10.187   9.014  69.101  1.00  0.00    -0.204 Cl 
HETATM    7  C   UNL     1     -10.769  10.464  66.924  1.00  0.00    -0.272 A  
HETATM    8  C   UNL     1     -10.610  10.865  65.602  1.00  0.00    -0.164 A  
HETATM    9  C   UNL     1      -9.632  10.283  64.801  1.00  0.00    -0.369 A  
HETATM   10 CL   UNL     1     -11.631  12.087  64.950  1.00  0.00    -0.361 Cl 
HETATM   11  C   UNL     1      -8.806   9.287  65.330  1.00  0.00    -0.230 A  
ENDBRANCH   2   4
TORSDOF 1
ENDMDL
MODEL      184
REMARK 921   NORMALIZED FREE ENERGY PREDICTED BY IDOCK:   -2.04 KCAL/MOL
REMARK 922        TOTAL FREE ENERGY PREDICTED BY IDOCK:   -2.20 KCAL/MOL
REMARK 923 INTER-LIGAND FREE ENERGY PREDICTED BY IDOCK:   -2.18 KCAL/MOL
REMARK 924 INTRA-LIGAND FREE ENERGY PREDICTED BY IDOCK:   -0.02 KCAL/MOL
REMARK 927      BINDING AFFINITY PREDICTED BY RF-SCORE:    0.00 PKD
ROOT
HETATM    1  O   UNL     1      -8.469   5.707  68.608  1.00  0.00    -0.105 OA 
HETATM    2  C   UNL     1      -8.309   6.525  69.763  1.00  0.00    -0.127 C  
HETATM    3  H   UNL     1      -7.877   4.965  68.610  1.00  0.00     0.000 HD 
ENDROOT
BRANCH   2   4
HETATM    4  C   UNL     1      -9.251   7.705  69.760  1.00  0.00    -0.147 A  
HETATM    5  C   UNL     1      -9.836   8.160  70.956  1.00  0.00    -0.179 A  
HETATM    6 CL   UNL     1      -9.500   7.399  72.472  1.00  0.00    -0.180 Cl 
HETATM    7  C   UNL     1     -10.715   9.248  70.960  1.00  0.00    -0.387 A  
HETATM    8  C   UNL     1     -11.016   9.894  69.766  1.00  0.00    -0.268 A  
HETATM    9  C   UNL     1     -10.448   9.467  68.570  1.00  0.00    -0.247 A  
HETATM   10 CL   UNL     1     -12.102  11.230  69.767  1.00  0.00    -0.385 Cl 
HETATM   11  C   UNL     1      -9.570   8.380  68.569  1.00  0.00    -0.155 A  
ENDBRANCH   2   4
TORSDOF 1
ENDMDL
MODEL      185
REMARK 921   NORMALIZED FREE ENERGY PREDICTED BY IDOCK:   -2.02 KCAL/MOL
REMARK 922        TOTAL FREE ENERGY PREDICTED BY IDOCK:   -2.19 KCAL/MOL
REMARK 923 INTER-LIGAND FREE ENERGY PREDICTED BY IDOCK:   -2.29 KCAL/MOL
REMARK 924 INTRA-LIGAND FREE ENERGY PREDICTED BY IDOCK:    0.11 KCAL/MOL
REMARK 927      BINDING AFFINITY PREDICTED BY RF-SCORE:    0.00 PKD
ROOT
HETATM    1  O   UNL     1     -12.227  10.540  68.966  1.00  0.00    -0.716 OA 
HETATM    2  C   UNL     1     -11.132  10.029  68.212  1.00  0.00    -0.190 C  
HETATM    3  H   UNL     1     -12.996  10.685  68.427  1.00  0.00     0.000 HD 
ENDROOT
BRANCH   2   4
HETATM    4  C   UNL     1      -9.909   9.799  69.067  1.00  0.00    -0.183 A  
HETATM    5  C   UNL     1      -9.948   8.899  70.148  1.00  0.00    -0.185 A  
HETATM    6 CL   UNL     1     -11.384   8.017  70.537  1.00  0.00    -0.257 Cl 
HETATM    7  C   UNL     1      -8.822   8.686  70.949  1.00  0.00    -0.221 A  
HETATM    8  C   UNL     1      -7.643   9.371  70.676  1.00  0.00    -0.144 A  
HETATM    9  C   UNL     1      -7.577  10.263  69.611  1.00  0.00    -0.167 A  
HETATM   10 CL   UNL     1      -6.257   9.115  71.664  1.00  0.00    -0.077 Cl 
HETATM   11  C   UNL     1      -8.704  10.474  68.812  1.00  0.00    -0.154 A  
ENDBRANCH   2   4
TORSDOF 1
ENDMDL
MODEL      186
REMARK 921   NORMALIZED FREE ENERGY PREDICTED BY IDOCK:   -2.00 KCAL/MOL
REMARK 922        TOTAL FREE ENERGY PREDICTED BY IDOCK:   -2.17 KCAL/MOL
REMARK 923 INTER-LIGAND FREE ENERGY PREDICTED BY IDOCK:   -2.12 KCAL/MOL
REMARK 924 INTRA-LIGAND FREE ENERGY PREDICTED BY IDOCK:   -0.04 KCAL/MOL
REMARK 927      BINDING AFFINITY PREDICTED BY RF-SCORE:    0.00 PKD
ROOT
HETATM    1  O   UNL     1     -12.396  13.021  70.770  1.00  0.00    -0.363 OA 
HETATM    2  C   UNL     1     -12.285  13.529  69.444  1.00  0.00    -0.228 C  
HETATM    3  H   UNL     1     -13.271  13.131  71.124  1.00  0.00     0.000 HD 
ENDROOT
BRANCH   2   4
HETATM    4  C   UNL     1     -10.894  13.354  68.882  1.00  0.00    -0.253 A  
HETATM    5  C   UNL     1      -9.961  14.406  68.935  1.00  0.00    -0.182 A  
HETATM    6 CL   UNL     1     -10.359  15.931  69.647  1.00  0.00    -0.281 Cl 
HETATM    7  C   UNL     1      -8.674  14.254  68.410  1.00  0.00    -0.181 A  
HETATM    8  C   UNL     1      -8.306  13.046  67.828  1.00  0.00    -0.175 A  
HETATM    9  C   UNL     1      -9.208  11.989  67.766  1.00  0.00    -0.190 A  
HETATM   10 CL   UNL     1      -6.724  12.858  67.176  1.00  0.00    -0.045 Cl 
HETATM   11  C   UNL     1     -10.494  12.144  68.292  1.00  0.00    -0.225 A  
ENDBRANCH   2   4
TORSDOF 1
ENDMDL
MODEL      187
REMARK 921   NORMALIZED FREE ENERGY PREDICTED BY IDOCK:   -2.00 KCAL/MOL
REMARK 922        TOTAL FREE ENERGY PREDICTED BY IDOCK:   -2.17 KCAL/MOL
REMARK 923 INTER-LIGAND FREE ENERGY PREDICTED BY IDOCK:   -2.14 KCAL/MOL
REMARK 924 INTRA-LIGAND FREE ENERGY PREDICTED BY IDOCK:   -0.02 KCAL/MOL
REMARK 927      BINDING AFFINITY PREDICTED BY RF-SCORE:    0.00 PKD
ROOT
HETATM    1  O   UNL     1      -9.081   7.856  68.594  1.00  0.00    -0.137 OA 
HETATM    2  C   UNL     1      -8.775   9.246  68.630  1.00  0.00    -0.132 C  
HETATM    3  H   UNL     1      -8.853   7.417  69.405  1.00  0.00     0.000 HD 
ENDROOT
BRANCH   2   4
HETATM    4  C   UNL     1      -9.137   9.943  67.341  1.00  0.00    -0.147 A  
HETATM    5  C   UNL     1      -8.862  11.311  67.161  1.00  0.00    -0.153 A  
HETATM    6 CL   UNL     1      -8.095  12.247  68.397  1.00  0.00    -0.161 Cl 
HETATM    7  C   UNL     1      -9.201  11.964  65.973  1.00  0.00    -0.176 A  
HETATM    8  C   UNL     1      -9.819  11.255  64.949  1.00  0.00    -0.264 A  
HETATM    9  C   UNL     1     -10.099   9.900  65.098  1.00  0.00    -0.177 A  
HETATM   10 CL   UNL     1     -10.243  12.058  63.486  1.00  0.00    -0.456 Cl 
HETATM   11  C   UNL     1      -9.758   9.249  66.288  1.00  0.00    -0.340 A  
ENDBRANCH   2   4
TORSDOF 1
ENDMDL
MODEL      188
REMARK 921   NORMALIZED FREE ENERGY PREDICTED BY IDOCK:   -2.00 KCAL/MOL
REMARK 922        TOTAL FREE ENERGY PREDICTED BY IDOCK:   -2.16 KCAL/MOL
REMARK 923 INTER-LIGAND FREE ENERGY PREDICTED BY IDOCK:   -2.14 KCAL/MOL
REMARK 924 INTRA-LIGAND FREE ENERGY PREDICTED BY IDOCK:   -0.02 KCAL/MOL
REMARK 927      BINDING AFFINITY PREDICTED BY RF-SCORE:    0.00 PKD
ROOT
HETATM    1  O   UNL     1     -10.201  17.280  66.983  1.00  0.00    -0.303 OA 
HETATM    2  C   UNL     1      -8.918  16.711  66.744  1.00  0.00    -0.237 C  
HETATM    3  H   UNL     1     -10.211  18.218  66.833  1.00  0.00     0.000 HD 
ENDROOT
BRANCH   2   4
HETATM    4  C   UNL     1      -8.903  15.220  66.983  1.00  0.00    -0.261 A  
HETATM    5  C   UNL     1      -7.712  14.562  67.341  1.00  0.00    -0.192 A  
HETATM    6 CL   UNL     1      -6.225  15.425  67.529  1.00  0.00    -0.158 Cl 
HETATM    7  C   UNL     1      -7.688  13.181  67.557  1.00  0.00    -0.168 A  
HETATM    8  C   UNL     1      -8.859  12.442  67.419  1.00  0.00    -0.188 A  
HETATM    9  C   UNL     1     -10.051  13.068  67.070  1.00  0.00    -0.243 A  
HETATM   10 CL   UNL     1      -8.832  10.741  67.679  1.00  0.00    -0.132 Cl 
HETATM   11  C   UNL     1     -10.071  14.449  66.854  1.00  0.00    -0.259 A  
ENDBRANCH   2   4
TORSDOF 1
ENDMDL
MODEL      189
REMARK 921   NORMALIZED FREE ENERGY PREDICTED BY IDOCK:   -1.99 KCAL/MOL
REMARK 922        TOTAL FREE ENERGY PREDICTED BY IDOCK:   -2.16 KCAL/MOL
REMARK 923 INTER-LIGAND FREE ENERGY PREDICTED BY IDOCK:   -2.15 KCAL/MOL
REMARK 924 INTRA-LIGAND FREE ENERGY PREDICTED BY IDOCK:   -0.01 KCAL/MOL
REMARK 927      BINDING AFFINITY PREDICTED BY RF-SCORE:    0.00 PKD
ROOT
HETATM    1  O   UNL     1     -10.448  18.672  68.242  1.00  0.00    -0.353 OA 
HETATM    2  C   UNL     1     -10.214  17.701  69.258  1.00  0.00    -0.147 C  
HETATM    3  H   UNL     1     -10.752  19.498  68.599  1.00  0.00     0.000 HD 
ENDROOT
BRANCH   2   4
HETATM    4  C   UNL     1      -9.730  16.389  68.691  1.00  0.00    -0.239 A  
HETATM    5  C   UNL     1      -8.432  16.270  68.160  1.00  0.00    -0.174 A  
HETATM    6 CL   UNL     1      -7.339  17.610  68.141  1.00  0.00    -0.220 Cl 
HETATM    7  C   UNL     1      -7.979  15.060  67.626  1.00  0.00    -0.178 A  
HETATM    8  C   UNL     1      -8.821  13.952  67.620  1.00  0.00    -0.191 A  
HETATM    9  C   UNL     1     -10.107  14.041  68.142  1.00  0.00    -0.244 A  
HETATM   10 CL   UNL     1      -8.268  12.462  66.958  1.00  0.00    -0.168 Cl 
HETATM   11  C   UNL     1     -10.557  15.253  68.675  1.00  0.00    -0.236 A  
ENDBRANCH   2   4
TORSDOF 1
ENDMDL
MODEL      190
REMARK 921   NORMALIZED FREE ENERGY PREDICTED BY IDOCK:   -1.99 KCAL/MOL
REMARK 922        TOTAL FREE ENERGY PREDICTED BY IDOCK:   -2.15 KCAL/MOL
REMARK 923 INTER-LIGAND FREE ENERGY PREDICTED BY IDOCK:   -2.13 KCAL/MOL
REMARK 924 INTRA-LIGAND FREE ENERGY PREDICTED BY IDOCK:   -0.02 KCAL/MOL
REMARK 927      BINDING AFFINITY PREDICTED BY RF-SCORE:    0.00 PKD
ROOT
HETATM    1  O   UNL     1      -9.824  10.082  64.833  1.00  0.00    -0.317 OA 
HETATM    2  C   UNL     1      -8.992  10.405  65.943  1.00  0.00    -0.162 C  
HETATM    3  H   UNL     1      -9.475   9.362  64.322  1.00  0.00     0.000 HD 
ENDROOT
BRANCH   2   4
HETATM    4  C   UNL     1      -9.547  11.550  66.757  1.00  0.00    -0.203 A  
HETATM    5  C   UNL     1      -9.667  11.446  68.154  1.00  0.00    -0.192 A  
HETATM    6 CL   UNL     1      -9.182  10.016  68.998  1.00  0.00    -0.167 Cl 
HETATM    7  C   UNL     1     -10.187  12.498  68.914  1.00  0.00    -0.012 A  
HETATM    8  C   UNL     1     -10.591  13.669  68.282  1.00  0.00    -0.253 A  
HETATM    9  C   UNL     1     -10.480  13.800  66.901  1.00  0.00    -0.272 A  
HETATM   10 CL   UNL     1     -11.237  14.965  69.213  1.00  0.00    -0.279 Cl 
HETATM   11  C   UNL     1      -9.960  12.746  66.145  1.00  0.00    -0.272 A  
ENDBRANCH   2   4
TORSDOF 1
ENDMDL
MODEL      191
REMARK 921   NORMALIZED FREE ENERGY PREDICTED BY IDOCK:   -1.97 KCAL/MOL
REMARK 922        TOTAL FREE ENERGY PREDICTED BY IDOCK:   -2.13 KCAL/MOL
REMARK 923 INTER-LIGAND FREE ENERGY PREDICTED BY IDOCK:   -2.11 KCAL/MOL
REMARK 924 INTRA-LIGAND FREE ENERGY PREDICTED BY IDOCK:   -0.02 KCAL/MOL
REMARK 927      BINDING AFFINITY PREDICTED BY RF-SCORE:    0.00 PKD
ROOT
HETATM    1  O   UNL     1     -11.251   5.116  65.608  1.00  0.00    -0.802 OA 
HETATM    2  C   UNL     1     -10.907   5.586  66.908  1.00  0.00    -0.137 C  
HETATM    3  H   UNL     1     -11.924   5.649  65.201  1.00  0.00     0.000 HD 
ENDROOT
BRANCH   2   4
HETATM    4  C   UNL     1      -9.838   4.739  67.555  1.00  0.00    -0.206 A  
HETATM    5  C   UNL     1      -9.731   4.663  68.956  1.00  0.00    -0.172 A  
HETATM    6 CL   UNL     1     -10.816   5.525  69.992  1.00  0.00    -0.364 Cl 
HETATM    7  C   UNL     1      -8.739   3.887  69.562  1.00  0.00    -0.127 A  
HETATM    8  C   UNL     1      -7.843   3.175  68.773  1.00  0.00    -0.053 A  
HETATM    9  C   UNL     1      -7.928   3.229  67.385  1.00  0.00    -0.077 A  
HETATM   10 CL   UNL     1      -6.617   2.223  69.516  1.00  0.00    -0.029 Cl 
HETATM   11  C   UNL     1      -8.921   4.006  66.782  1.00  0.00    -0.137 A  
ENDBRANCH   2   4
TORSDOF 1
ENDMDL
MODEL      192
REMARK 921   NORMALIZED FREE ENERGY PREDICTED BY IDOCK:   -1.97 KCAL/MOL
REMARK 922        TOTAL FREE ENERGY PREDICTED BY IDOCK:   -2.13 KCAL/MOL
REMARK 923 INTER-LIGAND FREE ENERGY PREDICTED BY IDOCK:   -2.28 KCAL/MOL
REMARK 924 INTRA-LIGAND FREE ENERGY PREDICTED BY IDOCK:    0.15 KCAL/MOL
REMARK 927      BINDING AFFINITY PREDICTED BY RF-SCORE:    0.00 PKD
ROOT
HETATM    1  O   UNL     1     -10.206   9.295  65.927  1.00  0.00    -0.330 OA 
HETATM    2  C   UNL     1      -8.991  10.020  65.760  1.00  0.00    -0.157 C  
HETATM    3  H   UNL     1     -10.172   8.440  65.516  1.00  0.00     0.000 HD 
ENDROOT
BRANCH   2   4
HETATM    4  C   UNL     1      -9.044  11.380  66.413  1.00  0.00    -0.201 A  
HETATM    5  C   UNL     1     -10.033  12.313  66.051  1.00  0.00    -0.252 A  
HETATM    6 CL   UNL     1     -11.228  11.943  64.857  1.00  0.00    -0.362 Cl 
HETATM    7  C   UNL     1     -10.084  13.577  66.647  1.00  0.00    -0.277 A  
HETATM    8  C   UNL     1      -9.146  13.921  67.613  1.00  0.00    -0.197 A  
HETATM    9  C   UNL     1      -8.159  13.016  67.992  1.00  0.00    -0.157 A  
HETATM   10 CL   UNL     1      -9.202  15.478  68.344  1.00  0.00    -0.187 Cl 
HETATM   11  C   UNL     1      -8.111  11.753  67.396  1.00  0.00    -0.161 A  
ENDBRANCH   2   4
TORSDOF 1
ENDMDL
MODEL      193
REMARK 921   NORMALIZED FREE ENERGY PREDICTED BY IDOCK:   -1.91 KCAL/MOL
REMARK 922        TOTAL FREE ENERGY PREDICTED BY IDOCK:   -2.07 KCAL/MOL
REMARK 923 INTER-LIGAND FREE ENERGY PREDICTED BY IDOCK:   -2.05 KCAL/MOL
REMARK 924 INTRA-LIGAND FREE ENERGY PREDICTED BY IDOCK:   -0.02 KCAL/MOL
REMARK 927      BINDING AFFINITY PREDICTED BY RF-SCORE:    0.00 PKD
ROOT
HETATM    1  O   UNL     1      -8.668   7.243  67.563  1.00  0.00    -0.121 OA 
HETATM    2  C   UNL     1      -8.329   8.370  68.364  1.00  0.00    -0.131 C  
HETATM    3  H   UNL     1      -8.118   6.491  67.751  1.00  0.00     0.000 HD 
ENDROOT
BRANCH   2   4
HETATM    4  C   UNL     1      -9.202   9.565  68.065  1.00  0.00    -0.136 A  
HETATM    5  C   UNL     1      -8.763  10.868  68.361  1.00  0.00    -0.147 A  
HETATM    6 CL   UNL     1      -7.211  11.159  69.069  1.00  0.00    -0.109 Cl 
HETATM    7  C   UNL     1      -9.569  11.979  68.094  1.00  0.00    -0.200 A  
HETATM    8  C   UNL     1     -10.824  11.797  67.524  1.00  0.00    -0.239 A  
HETATM    9  C   UNL     1     -11.282  10.520  67.218  1.00  0.00    -0.202 A  
HETATM   10 CL   UNL     1     -11.821  13.162  67.199  1.00  0.00    -0.423 Cl 
HETATM   11  C   UNL     1     -10.473   9.411  67.486  1.00  0.00    -0.343 A  
ENDBRANCH   2   4
TORSDOF 1
ENDMDL
MODEL      194
REMARK 921   NORMALIZED FREE ENERGY PREDICTED BY IDOCK:   -1.91 KCAL/MOL
REMARK 922        TOTAL FREE ENERGY PREDICTED BY IDOCK:   -2.07 KCAL/MOL
REMARK 923 INTER-LIGAND FREE ENERGY PREDICTED BY IDOCK:   -2.03 KCAL/MOL
REMARK 924 INTRA-LIGAND FREE ENERGY PREDICTED BY IDOCK:   -0.04 KCAL/MOL
REMARK 927      BINDING AFFINITY PREDICTED BY RF-SCORE:    0.00 PKD
ROOT
HETATM    1  O   UNL     1      -9.704   8.207  70.029  1.00  0.00    -0.172 OA 
HETATM    2  C   UNL     1     -10.285   8.463  68.755  1.00  0.00    -0.207 C  
HETATM    3  H   UNL     1      -9.900   8.892  70.657  1.00  0.00     0.000 HD 
ENDROOT
BRANCH   2   4
HETATM    4  C   UNL     1      -9.972   7.373  67.757  1.00  0.00    -0.208 A  
HETATM    5  C   UNL     1      -8.717   7.318  67.123  1.00  0.00    -0.121 A  
HETATM    6 CL   UNL     1      -7.483   8.481  67.462  1.00  0.00    -0.092 Cl 
HETATM    7  C   UNL     1      -8.424   6.317  66.193  1.00  0.00    -0.138 A  
HETATM    8  C   UNL     1      -9.383   5.357  65.888  1.00  0.00    -0.143 A  
HETATM    9  C   UNL     1     -10.630   5.387  66.503  1.00  0.00    -0.353 A  
HETATM   10 CL   UNL     1      -9.026   4.126  64.739  1.00  0.00    -0.133 Cl 
HETATM   11  C   UNL     1     -10.921   6.389  67.433  1.00  0.00    -0.463 A  
ENDBRANCH   2   4
TORSDOF 1
ENDMDL
MODEL      195
REMARK 921   NORMALIZED FREE ENERGY PREDICTED BY IDOCK:   -1.87 KCAL/MOL
REMARK 922        TOTAL FREE ENERGY PREDICTED BY IDOCK:   -2.03 KCAL/MOL
REMARK 923 INTER-LIGAND FREE ENERGY PREDICTED BY IDOCK:   -2.01 KCAL/MOL
REMARK 924 INTRA-LIGAND FREE ENERGY PREDICTED BY IDOCK:   -0.02 KCAL/MOL
REMARK 927      BINDING AFFINITY PREDICTED BY RF-SCORE:    0.00 PKD
ROOT
HETATM    1  O   UNL     1      -9.865   6.182  65.635  1.00  0.00    -0.339 OA 
HETATM    2  C   UNL     1     -10.585   6.586  66.796  1.00  0.00    -0.253 C  
HETATM    3  H   UNL     1     -10.399   5.664  65.045  1.00  0.00     0.000 HD 
ENDROOT
BRANCH   2   4
HETATM    4  C   UNL     1      -9.736   7.409  67.734  1.00  0.00    -0.171 A  
HETATM    5  C   UNL     1      -9.977   7.396  69.120  1.00  0.00    -0.173 A  
HETATM    6 CL   UNL     1     -11.241   6.436  69.807  1.00  0.00    -0.451 Cl 
HETATM    7  C   UNL     1      -9.200   8.162  69.994  1.00  0.00    -0.155 A  
HETATM    8  C   UNL     1      -8.170   8.949  69.491  1.00  0.00    -0.107 A  
HETATM    9  C   UNL     1      -7.908   8.978  68.125  1.00  0.00    -0.100 A  
HETATM   10 CL   UNL     1      -7.215   9.897  70.564  1.00  0.00    -0.135 Cl 
HETATM   11  C   UNL     1      -8.686   8.211  67.253  1.00  0.00    -0.125 A  
ENDBRANCH   2   4
TORSDOF 1
ENDMDL
MODEL      196
REMARK 921   NORMALIZED FREE ENERGY PREDICTED BY IDOCK:   -1.87 KCAL/MOL
REMARK 922        TOTAL FREE ENERGY PREDICTED BY IDOCK:   -2.02 KCAL/MOL
REMARK 923 INTER-LIGAND FREE ENERGY PREDICTED BY IDOCK:   -1.97 KCAL/MOL
REMARK 924 INTRA-LIGAND FREE ENERGY PREDICTED BY IDOCK:   -0.05 KCAL/MOL
REMARK 927      BINDING AFFINITY PREDICTED BY RF-SCORE:    0.00 PKD
ROOT
HETATM    1  O   UNL     1      -6.802  11.309  70.783  1.00  0.00    -0.306 OA 
HETATM    2  C   UNL     1      -6.593  11.128  69.386  1.00  0.00    -0.109 C  
HETATM    3  H   UNL     1      -6.016  11.142  71.288  1.00  0.00     0.000 HD 
ENDROOT
BRANCH   2   4
HETATM    4  C   UNL     1      -7.844  11.393  68.583  1.00  0.00    -0.139 A  
HETATM    5  C   UNL     1      -8.167  12.698  68.166  1.00  0.00    -0.170 A  
HETATM    6 CL   UNL     1      -7.149  14.044  68.544  1.00  0.00    -0.094 Cl 
HETATM    7  C   UNL     1      -9.327  12.952  67.429  1.00  0.00    -0.194 A  
HETATM    8  C   UNL     1     -10.178  11.903  67.099  1.00  0.00    -0.208 A  
HETATM    9  C   UNL     1      -9.880  10.603  67.496  1.00  0.00    -0.194 A  
HETATM   10 CL   UNL     1     -11.610  12.214  66.196  1.00  0.00    -0.431 Cl 
HETATM   11  C   UNL     1      -8.719  10.351  68.232  1.00  0.00    -0.128 A  
ENDBRANCH   2   4
TORSDOF 1
ENDMDL
MODEL      197
REMARK 921   NORMALIZED FREE ENERGY PREDICTED BY IDOCK:   -1.79 KCAL/MOL
REMARK 922        TOTAL FREE ENERGY PREDICTED BY IDOCK:   -1.94 KCAL/MOL
REMARK 923 INTER-LIGAND FREE ENERGY PREDICTED BY IDOCK:   -1.96 KCAL/MOL
REMARK 924 INTRA-LIGAND FREE ENERGY PREDICTED BY IDOCK:    0.02 KCAL/MOL
REMARK 927      BINDING AFFINITY PREDICTED BY RF-SCORE:    0.00 PKD
ROOT
HETATM    1  O   UNL     1      -9.447  11.778  67.787  1.00  0.00    -0.172 OA 
HETATM    2  C   UNL     1      -8.466  12.628  68.374  1.00  0.00    -0.121 C  
HETATM    3  H   UNL     1      -9.280  10.861  67.967  1.00  0.00     0.000 HD 
ENDROOT
BRANCH   2   4
HETATM    4  C   UNL     1      -8.730  14.086  68.087  1.00  0.00    -0.180 A  
HETATM    5  C   UNL     1      -9.836  14.742  68.660  1.00  0.00    -0.225 A  
HETATM    6 CL   UNL     1     -10.929  13.914  69.715  1.00  0.00    -0.064 Cl 
HETATM    7  C   UNL     1     -10.092  16.090  68.393  1.00  0.00    -0.229 A  
HETATM    8  C   UNL     1      -9.242  16.799  67.552  1.00  0.00    -0.215 A  
HETATM    9  C   UNL     1      -8.139  16.176  66.976  1.00  0.00    -0.245 A  
HETATM   10 CL   UNL     1      -9.557  18.458  67.218  1.00  0.00    -0.283 Cl 
HETATM   11  C   UNL     1      -7.886  14.828  67.244  1.00  0.00    -0.223 A  
ENDBRANCH   2   4
TORSDOF 1
ENDMDL
MODEL      198
REMARK 921   NORMALIZED FREE ENERGY PREDICTED BY IDOCK:   -1.74 KCAL/MOL
REMARK 922        TOTAL FREE ENERGY PREDICTED BY IDOCK:   -1.89 KCAL/MOL
REMARK 923 INTER-LIGAND FREE ENERGY PREDICTED BY IDOCK:   -1.86 KCAL/MOL
REMARK 924 INTRA-LIGAND FREE ENERGY PREDICTED BY IDOCK:   -0.03 KCAL/MOL
REMARK 927      BINDING AFFINITY PREDICTED BY RF-SCORE:    0.00 PKD
ROOT
HETATM    1  O   UNL     1      -7.203   9.368  71.808  1.00  0.00    -0.318 OA 
HETATM    2  C   UNL     1      -7.593   7.998  71.819  1.00  0.00    -0.086 C  
HETATM    3  H   UNL     1      -6.644   9.587  72.543  1.00  0.00     0.000 HD 
ENDROOT
BRANCH   2   4
HETATM    4  C   UNL     1      -8.482   7.649  70.650  1.00  0.00    -0.127 A  
HETATM    5  C   UNL     1      -8.022   6.802  69.625  1.00  0.00    -0.124 A  
HETATM    6 CL   UNL     1      -6.432   6.121  69.663  1.00  0.00    -0.038 Cl 
HETATM    7  C   UNL     1      -8.836   6.480  68.535  1.00  0.00    -0.121 A  
HETATM    8  C   UNL     1     -10.123   7.002  68.459  1.00  0.00    -0.165 A  
HETATM    9  C   UNL     1     -10.604   7.840  69.460  1.00  0.00    -0.221 A  
HETATM   10 CL   UNL     1     -11.126   6.613  67.116  1.00  0.00    -0.470 Cl 
HETATM   11  C   UNL     1      -9.788   8.159  70.549  1.00  0.00    -0.194 A  
ENDBRANCH   2   4
TORSDOF 1
ENDMDL
MODEL      199
REMARK 921   NORMALIZED FREE ENERGY PREDICTED BY IDOCK:   -1.74 KCAL/MOL
REMARK 922        TOTAL FREE ENERGY PREDICTED BY IDOCK:   -1.89 KCAL/MOL
REMARK 923 INTER-LIGAND FREE ENERGY PREDICTED BY IDOCK:   -1.87 KCAL/MOL
REMARK 924 INTRA-LIGAND FREE ENERGY PREDICTED BY IDOCK:   -0.02 KCAL/MOL
REMARK 927      BINDING AFFINITY PREDICTED BY RF-SCORE:    0.00 PKD
ROOT
HETATM    1  O   UNL     1     -11.512   4.490  65.317  1.00  0.00    -1.068 OA 
HETATM    2  C   UNL     1     -10.578   5.323  65.997  1.00  0.00    -0.119 C  
HETATM    3  H   UNL     1     -12.211   4.991  64.914  1.00  0.00     0.000 HD 
ENDROOT
BRANCH   2   4
HETATM    4  C   UNL     1      -9.467   4.527  66.639  1.00  0.00    -0.183 A  
HETATM    5  C   UNL     1      -8.120   4.868  66.421  1.00  0.00    -0.107 A  
HETATM    6 CL   UNL     1      -7.679   6.210  65.422  1.00  0.00    -0.087 Cl 
HETATM    7  C   UNL     1      -7.085   4.132  67.005  1.00  0.00    -0.067 A  
HETATM    8  C   UNL     1      -7.388   3.044  67.818  1.00  0.00    -0.054 A  
HETATM    9  C   UNL     1      -8.712   2.687  68.053  1.00  0.00    -0.134 A  
HETATM   10 CL   UNL     1      -6.117   2.132  68.535  1.00  0.00    -0.024 Cl 
HETATM   11  C   UNL     1      -9.744   3.426  67.467  1.00  0.00    -0.026 A  
ENDBRANCH   2   4
TORSDOF 1
ENDMDL
MODEL      200
REMARK 921   NORMALIZED FREE ENERGY PREDICTED BY IDOCK:   -1.72 KCAL/MOL
REMARK 922        TOTAL FREE ENERGY PREDICTED BY IDOCK:   -1.87 KCAL/MOL
REMARK 923 INTER-LIGAND FREE ENERGY PREDICTED BY IDOCK:   -1.82 KCAL/MOL
REMARK 924 INTRA-LIGAND FREE ENERGY PREDICTED BY IDOCK:   -0.05 KCAL/MOL
REMARK 927      BINDING AFFINITY PREDICTED BY RF-SCORE:    0.00 PKD
ROOT
HETATM    1  O   UNL     1      -6.828   2.947  65.392  1.00  0.00    -0.045 OA 
HETATM    2  C   UNL     1      -7.964   2.375  66.032  1.00  0.00    -0.082 C  
HETATM    3  H   UNL     1      -6.305   2.295  64.941  1.00  0.00     0.000 HD 
ENDROOT
BRANCH   2   4
HETATM    4  C   UNL     1      -8.796   3.411  66.750  1.00  0.00    -0.146 A  
HETATM    5  C   UNL     1      -9.740   4.184  66.050  1.00  0.00    -0.205 A  
HETATM    6 CL   UNL     1      -9.993   3.980  64.351  1.00  0.00    -0.193 Cl 
HETATM    7  C   UNL     1     -10.508   5.151  66.706  1.00  0.00    -0.306 A  
HETATM    8  C   UNL     1     -10.342   5.352  68.072  1.00  0.00    -0.152 A  
HETATM    9  C   UNL     1      -9.418   4.598  68.789  1.00  0.00    -0.214 A  
HETATM   10 CL   UNL     1     -11.283   6.545  68.881  1.00  0.00    -0.359 Cl 
HETATM   11  C   UNL     1      -8.651   3.632  68.130  1.00  0.00    -0.117 A  
ENDBRANCH   2   4
TORSDOF 1
ENDMDL
MODEL      201
REMARK 921   NORMALIZED FREE ENERGY PREDICTED BY IDOCK:   -1.71 KCAL/MOL
REMARK 922        TOTAL FREE ENERGY PREDICTED BY IDOCK:   -1.86 KCAL/MOL
REMARK 923 INTER-LIGAND FREE ENERGY PREDICTED BY IDOCK:   -1.86 KCAL/MOL
REMARK 924 INTRA-LIGAND FREE ENERGY PREDICTED BY IDOCK:    0.00 KCAL/MOL
REMARK 927      BINDING AFFINITY PREDICTED BY RF-SCORE:    0.00 PKD
ROOT
HETATM    1  O   UNL     1      -8.111   2.957  65.876  1.00  0.00    -0.084 OA 
HETATM    2  C   UNL     1      -8.963   3.225  66.986  1.00  0.00    -0.159 C  
HETATM    3  H   UNL     1      -7.906   2.034  65.796  1.00  0.00     0.000 HD 
ENDROOT
BRANCH   2   4
HETATM    4  C   UNL     1      -9.289   4.694  67.112  1.00  0.00    -0.156 A  
HETATM    5  C   UNL     1      -8.307   5.615  67.520  1.00  0.00    -0.100 A  
HETATM    6 CL   UNL     1      -6.693   5.112  67.885  1.00  0.00    -0.053 Cl 
HETATM    7  C   UNL     1      -8.603   6.975  67.648  1.00  0.00    -0.122 A  
HETATM    8  C   UNL     1      -9.887   7.430  67.365  1.00  0.00    -0.169 A  
HETATM    9  C   UNL     1     -10.875   6.541  66.956  1.00  0.00    -0.465 A  
HETATM   10 CL   UNL     1     -10.256   9.103  67.525  1.00  0.00    -0.284 Cl 
HETATM   11  C   UNL     1     -10.576   5.181  66.829  1.00  0.00    -0.266 A  
ENDBRANCH   2   4
TORSDOF 1
ENDMDL
MODEL      202
REMARK 921   NORMALIZED FREE ENERGY PREDICTED BY IDOCK:   -1.60 KCAL/MOL
REMARK 922        TOTAL FREE ENERGY PREDICTED BY IDOCK:   -1.74 KCAL/MOL
REMARK 923 INTER-LIGAND FREE ENERGY PREDICTED BY IDOCK:   -1.69 KCAL/MOL
REMARK 924 INTRA-LIGAND FREE ENERGY PREDICTED BY IDOCK:   -0.05 KCAL/MOL
REMARK 927      BINDING AFFINITY PREDICTED BY RF-SCORE:    0.00 PKD
ROOT
HETATM    1  O   UNL     1      -7.258   5.790  68.098  1.00  0.00    -0.072 OA 
HETATM    2  C   UNL     1      -7.952   4.848  68.909  1.00  0.00    -0.076 C  
HETATM    3  H   UNL     1      -6.950   5.406  67.286  1.00  0.00     0.000 HD 
ENDROOT
BRANCH   2   4
HETATM    4  C   UNL     1      -8.442   5.458  70.200  1.00  0.00    -0.119 A  
HETATM    5  C   UNL     1      -9.743   5.984  70.297  1.00  0.00    -0.165 A  
HETATM    6 CL   UNL     1     -10.834   5.948  68.956  1.00  0.00    -0.386 Cl 
HETATM    7  C   UNL     1     -10.201   6.558  71.487  1.00  0.00    -0.215 A  
HETATM    8  C   UNL     1      -9.362   6.610  72.595  1.00  0.00    -0.139 A  
HETATM    9  C   UNL     1      -8.072   6.094  72.527  1.00  0.00    -0.104 A  
HETATM   10 CL   UNL     1      -9.922   7.321  74.059  1.00  0.00    -0.312 Cl 
HETATM   11  C   UNL     1      -7.617   5.521  71.336  1.00  0.00    -0.103 A  
ENDBRANCH   2   4
TORSDOF 1
ENDMDL
MODEL      203
REMARK 921   NORMALIZED FREE ENERGY PREDICTED BY IDOCK:   -1.57 KCAL/MOL
REMARK 922        TOTAL FREE ENERGY PREDICTED BY IDOCK:   -1.70 KCAL/MOL
REMARK 923 INTER-LIGAND FREE ENERGY PREDICTED BY IDOCK:   -1.66 KCAL/MOL
REMARK 924 INTRA-LIGAND FREE ENERGY PREDICTED BY IDOCK:   -0.04 KCAL/MOL
REMARK 927      BINDING AFFINITY PREDICTED BY RF-SCORE:    0.00 PKD
ROOT
HETATM    1  O   UNL     1      -8.735   5.995  64.905  1.00  0.00    -0.332 OA 
HETATM    2  C   UNL     1      -9.456   5.308  65.923  1.00  0.00    -0.142 C  
HETATM    3  H   UNL     1      -8.977   5.702  64.035  1.00  0.00     0.000 HD 
ENDROOT
BRANCH   2   4
HETATM    4  C   UNL     1      -9.071   5.773  67.307  1.00  0.00    -0.110 A  
HETATM    5  C   UNL     1      -9.576   6.980  67.825  1.00  0.00    -0.123 A  
HETATM    6 CL   UNL     1     -10.657   7.973  66.911  1.00  0.00    -0.394 Cl 
HETATM    7  C   UNL     1      -9.218   7.421  69.103  1.00  0.00    -0.147 A  
HETATM    8  C   UNL     1      -8.352   6.657  69.877  1.00  0.00    -0.132 A  
HETATM    9  C   UNL     1      -7.841   5.458  69.391  1.00  0.00    -0.089 A  
HETATM   10 CL   UNL     1      -7.905   7.200  71.448  1.00  0.00    -0.096 Cl 
HETATM   11  C   UNL     1      -8.201   5.019  68.113  1.00  0.00    -0.096 A  
ENDBRANCH   2   4
TORSDOF 1
ENDMDL
MODEL      204
REMARK 921   NORMALIZED FREE ENERGY PREDICTED BY IDOCK:   -1.56 KCAL/MOL
REMARK 922        TOTAL FREE ENERGY PREDICTED BY IDOCK:   -1.70 KCAL/MOL
REMARK 923 INTER-LIGAND FREE ENERGY PREDICTED BY IDOCK:   -1.66 KCAL/MOL
REMARK 924 INTRA-LIGAND FREE ENERGY PREDICTED BY IDOCK:   -0.03 KCAL/MOL
REMARK 927      BINDING AFFINITY PREDICTED BY RF-SCORE:    0.00 PKD
ROOT
HETATM    1  O   UNL     1     -11.380   5.904  67.324  1.00  0.00    -0.405 OA 
HETATM    2  C   UNL     1      -9.985   5.946  67.039  1.00  0.00    -0.166 C  
HETATM    3  H   UNL     1     -11.838   5.277  66.778  1.00  0.00     0.000 HD 
ENDROOT
BRANCH   2   4
HETATM    4  C   UNL     1      -9.256   6.943  67.907  1.00  0.00    -0.124 A  
HETATM    5  C   UNL     1      -8.805   8.165  67.375  1.00  0.00    -0.127 A  
HETATM    6 CL   UNL     1      -9.071   8.580  65.717  1.00  0.00    -0.238 Cl 
HETATM    7  C   UNL     1      -8.122   9.089  68.171  1.00  0.00    -0.105 A  
HETATM    8  C   UNL     1      -7.884   8.802  69.510  1.00  0.00    -0.091 A  
HETATM    9  C   UNL     1      -8.322   7.603  70.063  1.00  0.00    -0.134 A  
HETATM   10 CL   UNL     1      -7.040   9.936  70.492  1.00  0.00    -0.137 Cl 
HETATM   11  C   UNL     1      -9.005   6.680  69.264  1.00  0.00    -0.135 A  
ENDBRANCH   2   4
TORSDOF 1
ENDMDL
MODEL      205
REMARK 921   NORMALIZED FREE ENERGY PREDICTED BY IDOCK:   -1.55 KCAL/MOL
REMARK 922        TOTAL FREE ENERGY PREDICTED BY IDOCK:   -1.68 KCAL/MOL
REMARK 923 INTER-LIGAND FREE ENERGY PREDICTED BY IDOCK:   -1.66 KCAL/MOL
REMARK 924 INTRA-LIGAND FREE ENERGY PREDICTED BY IDOCK:   -0.02 KCAL/MOL
REMARK 927      BINDING AFFINITY PREDICTED BY RF-SCORE:    0.00 PKD
ROOT
HETATM    1  O   UNL     1      -6.525   6.850  65.930  1.00  0.00    -0.048 OA 
HETATM    2  C   UNL     1      -7.654   6.376  66.657  1.00  0.00    -0.094 C  
HETATM    3  H   UNL     1      -6.031   6.142  65.534  1.00  0.00     0.000 HD 
ENDROOT
BRANCH   2   4
HETATM    4  C   UNL     1      -8.439   7.502  67.287  1.00  0.00    -0.118 A  
HETATM    5  C   UNL     1      -9.843   7.442  67.366  1.00  0.00    -0.169 A  
HETATM    6 CL   UNL     1     -10.725   6.084  66.758  1.00  0.00    -0.378 Cl 
HETATM    7  C   UNL     1     -10.577   8.484  67.941  1.00  0.00    -0.219 A  
HETATM    8  C   UNL     1      -9.914   9.597  68.446  1.00  0.00    -0.158 A  
HETATM    9  C   UNL     1      -8.527   9.680  68.383  1.00  0.00    -0.118 A  
HETATM   10 CL   UNL     1     -10.815  10.884  69.149  1.00  0.00    -0.255 Cl 
HETATM   11  C   UNL     1      -7.795   8.637  67.808  1.00  0.00    -0.103 A  
ENDBRANCH   2   4
TORSDOF 1
ENDMDL
MODEL      206
REMARK 921   NORMALIZED FREE ENERGY PREDICTED BY IDOCK:   -1.52 KCAL/MOL
REMARK 922        TOTAL FREE ENERGY PREDICTED BY IDOCK:   -1.65 KCAL/MOL
REMARK 923 INTER-LIGAND FREE ENERGY PREDICTED BY IDOCK:   -1.63 KCAL/MOL
REMARK 924 INTRA-LIGAND FREE ENERGY PREDICTED BY IDOCK:   -0.02 KCAL/MOL
REMARK 927      BINDING AFFINITY PREDICTED BY RF-SCORE:    0.00 PKD
ROOT
HETATM    1  O   UNL     1      -5.940  10.302  71.467  1.00  0.00    -0.308 OA 
HETATM    2  C   UNL     1      -6.775   9.829  70.415  1.00  0.00    -0.123 C  
HETATM    3  H   UNL     1      -5.592   9.593  71.994  1.00  0.00     0.000 HD 
ENDROOT
BRANCH   2   4
HETATM    4  C   UNL     1      -7.328  10.956  69.576  1.00  0.00    -0.095 A  
HETATM    5  C   UNL     1      -8.576  10.832  68.939  1.00  0.00    -0.153 A  
HETATM    6 CL   UNL     1      -9.530   9.397  69.093  1.00  0.00    -0.158 Cl 
HETATM    7  C   UNL     1      -9.091  11.868  68.154  1.00  0.00    -0.190 A  
HETATM    8  C   UNL     1      -8.363  13.042  68.000  1.00  0.00    -0.169 A  
HETATM    9  C   UNL     1      -7.127  13.192  68.622  1.00  0.00    -0.103 A  
HETATM   10 CL   UNL     1      -8.992  14.318  67.030  1.00  0.00    -0.239 Cl 
HETATM   11  C   UNL     1      -6.615  12.155  69.406  1.00  0.00    -0.090 A  
ENDBRANCH   2   4
TORSDOF 1
ENDMDL
MODEL      207
REMARK 921   NORMALIZED FREE ENERGY PREDICTED BY IDOCK:   -1.49 KCAL/MOL
REMARK 922        TOTAL FREE ENERGY PREDICTED BY IDOCK:   -1.63 KCAL/MOL
REMARK 923 INTER-LIGAND FREE ENERGY PREDICTED BY IDOCK:   -1.60 KCAL/MOL
REMARK 924 INTRA-LIGAND FREE ENERGY PREDICTED BY IDOCK:   -0.02 KCAL/MOL
REMARK 927      BINDING AFFINITY PREDICTED BY RF-SCORE:    0.00 PKD
ROOT
HETATM    1  O   UNL     1      -7.124   7.446  68.274  1.00  0.00    -0.079 OA 
HETATM    2  C   UNL     1      -7.552   6.108  68.510  1.00  0.00    -0.092 C  
HETATM    3  H   UNL     1      -6.425   7.490  67.632  1.00  0.00     0.000 HD 
ENDROOT
BRANCH   2   4
HETATM    4  C   UNL     1      -8.662   6.038  69.532  1.00  0.00    -0.125 A  
HETATM    5  C   UNL     1      -9.148   4.796  69.980  1.00  0.00    -0.103 A  
HETATM    6 CL   UNL     1      -8.496   3.306  69.391  1.00  0.00    -0.088 Cl 
HETATM    7  C   UNL     1     -10.180   4.722  70.920  1.00  0.00    -0.247 A  
HETATM    8  C   UNL     1     -10.737   5.892  71.424  1.00  0.00    -0.260 A  
HETATM    9  C   UNL     1     -10.273   7.134  71.001  1.00  0.00    -0.205 A  
HETATM   10 CL   UNL     1     -12.012   5.805  72.578  1.00  0.00    -0.259 Cl 
HETATM   11  C   UNL     1      -9.240   7.204  70.061  1.00  0.00    -0.144 A  
ENDBRANCH   2   4
TORSDOF 1
ENDMDL
MODEL      208
REMARK 921   NORMALIZED FREE ENERGY PREDICTED BY IDOCK:   -1.47 KCAL/MOL
REMARK 922        TOTAL FREE ENERGY PREDICTED BY IDOCK:   -1.60 KCAL/MOL
REMARK 923 INTER-LIGAND FREE ENERGY PREDICTED BY IDOCK:   -1.58 KCAL/MOL
REMARK 924 INTRA-LIGAND FREE ENERGY PREDICTED BY IDOCK:   -0.02 KCAL/MOL
REMARK 927      BINDING AFFINITY PREDICTED BY RF-SCORE:    0.00 PKD
ROOT
HETATM    1  O   UNL     1      -7.843   2.590  68.579  1.00  0.00    -0.054 OA 
HETATM    2  C   UNL     1      -7.521   3.948  68.295  1.00  0.00    -0.059 C  
HETATM    3  H   UNL     1      -7.280   1.983  68.113  1.00  0.00     0.000 HD 
ENDROOT
BRANCH   2   4
HETATM    4  C   UNL     1      -8.415   4.913  69.036  1.00  0.00    -0.086 A  
HETATM    5  C   UNL     1      -8.096   6.281  69.103  1.00  0.00    -0.110 A  
HETATM    6 CL   UNL     1      -6.679   6.916  68.340  1.00  0.00    -0.065 Cl 
HETATM    7  C   UNL     1      -8.914   7.179  69.794  1.00  0.00    -0.142 A  
HETATM    8  C   UNL     1     -10.065   6.718  70.424  1.00  0.00    -0.183 A  
HETATM    9  C   UNL     1     -10.406   5.370  70.370  1.00  0.00    -0.353 A  
HETATM   10 CL   UNL     1     -11.073   7.820  71.280  1.00  0.00    -0.258 Cl 
HETATM   11  C   UNL     1      -9.586   4.475  69.678  1.00  0.00    -0.270 A  
ENDBRANCH   2   4
TORSDOF 1
ENDMDL
MODEL      209
REMARK 921   NORMALIZED FREE ENERGY PREDICTED BY IDOCK:   -1.43 KCAL/MOL
REMARK 922        TOTAL FREE ENERGY PREDICTED BY IDOCK:   -1.56 KCAL/MOL
REMARK 923 INTER-LIGAND FREE ENERGY PREDICTED BY IDOCK:   -1.53 KCAL/MOL
REMARK 924 INTRA-LIGAND FREE ENERGY PREDICTED BY IDOCK:   -0.02 KCAL/MOL
REMARK 927      BINDING AFFINITY PREDICTED BY RF-SCORE:    0.00 PKD
ROOT
HETATM    1  O   UNL     1     -11.088   5.863  68.477  1.00  0.00    -0.274 OA 
HETATM    2  C   UNL     1      -9.694   6.150  68.499  1.00  0.00    -0.127 C  
HETATM    3  H   UNL     1     -11.384   5.585  67.618  1.00  0.00     0.000 HD 
ENDROOT
BRANCH   2   4
HETATM    4  C   UNL     1      -9.224   6.592  69.864  1.00  0.00    -0.149 A  
HETATM    5  C   UNL     1      -8.470   7.770  70.018  1.00  0.00    -0.135 A  
HETATM    6 CL   UNL     1      -8.056   8.760  68.662  1.00  0.00    -0.114 Cl 
HETATM    7  C   UNL     1      -8.025   8.181  71.278  1.00  0.00    -0.107 A  
HETATM    8  C   UNL     1      -8.333   7.419  72.400  1.00  0.00    -0.105 A  
HETATM    9  C   UNL     1      -9.081   6.252  72.276  1.00  0.00    -0.140 A  
HETATM   10 CL   UNL     1      -7.783   7.920  73.952  1.00  0.00    -0.193 Cl 
HETATM   11  C   UNL     1      -9.524   5.843  71.015  1.00  0.00    -0.189 A  
ENDBRANCH   2   4
TORSDOF 1
ENDMDL
MODEL      210
REMARK 921   NORMALIZED FREE ENERGY PREDICTED BY IDOCK:   -1.26 KCAL/MOL
REMARK 922        TOTAL FREE ENERGY PREDICTED BY IDOCK:   -1.38 KCAL/MOL
REMARK 923 INTER-LIGAND FREE ENERGY PREDICTED BY IDOCK:   -1.35 KCAL/MOL
REMARK 924 INTRA-LIGAND FREE ENERGY PREDICTED BY IDOCK:   -0.03 KCAL/MOL
REMARK 927      BINDING AFFINITY PREDICTED BY RF-SCORE:    0.00 PKD
ROOT
HETATM    1  O   UNL     1      -9.723   2.383  67.796  1.00  0.00    -0.370 OA 
HETATM    2  C   UNL     1      -9.035   1.917  66.640  1.00  0.00    -0.098 C  
HETATM    3  H   UNL     1      -9.878   1.689  68.425  1.00  0.00     0.000 HD 
ENDROOT
BRANCH   2   4
HETATM    4  C   UNL     1      -8.789   3.020  65.639  1.00  0.00    -0.138 A  
HETATM    5  C   UNL     1      -7.774   3.971  65.853  1.00  0.00    -0.090 A  
HETATM    6 CL   UNL     1      -6.767   3.916  67.258  1.00  0.00    -0.046 Cl 
HETATM    7  C   UNL     1      -7.546   5.000  64.934  1.00  0.00    -0.078 A  
HETATM    8  C   UNL     1      -8.329   5.087  63.789  1.00  0.00    -0.132 A  
HETATM    9  C   UNL     1      -9.336   4.157  63.550  1.00  0.00    -0.140 A  
HETATM   10 CL   UNL     1      -8.053   6.355  62.658  1.00  0.00    -0.105 Cl 
HETATM   11  C   UNL     1      -9.562   3.129  64.471  1.00  0.00    -0.151 A  
ENDBRANCH   2   4
TORSDOF 1
ENDMDL
MODEL      211
REMARK 921   NORMALIZED FREE ENERGY PREDICTED BY IDOCK:   -1.26 KCAL/MOL
REMARK 922        TOTAL FREE ENERGY PREDICTED BY IDOCK:   -1.38 KCAL/MOL
REMARK 923 INTER-LIGAND FREE ENERGY PREDICTED BY IDOCK:   -1.36 KCAL/MOL
REMARK 924 INTRA-LIGAND FREE ENERGY PREDICTED BY IDOCK:   -0.02 KCAL/MOL
REMARK 927      BINDING AFFINITY PREDICTED BY RF-SCORE:    0.00 PKD
ROOT
HETATM    1  O   UNL     1     -10.633   5.160  66.995  1.00  0.00    -0.223 OA 
HETATM    2  C   UNL     1      -9.362   5.508  66.456  1.00  0.00    -0.147 C  
HETATM    3  H   UNL     1     -10.856   4.252  66.829  1.00  0.00     0.000 HD 
ENDROOT
BRANCH   2   4
HETATM    4  C   UNL     1      -9.007   6.952  66.720  1.00  0.00    -0.141 A  
HETATM    5  C   UNL     1      -8.414   7.741  65.718  1.00  0.00    -0.144 A  
HETATM    6 CL   UNL     1      -8.074   7.100  64.148  1.00  0.00    -0.077 Cl 
HETATM    7  C   UNL     1      -8.075   9.076  65.957  1.00  0.00    -0.111 A  
HETATM    8  C   UNL     1      -8.330   9.638  67.204  1.00  0.00    -0.121 A  
HETATM    9  C   UNL     1      -8.919   8.881  68.211  1.00  0.00    -0.137 A  
HETATM   10 CL   UNL     1      -7.909  11.280  67.504  1.00  0.00    -0.118 Cl 
HETATM   11  C   UNL     1      -9.256   7.546  67.969  1.00  0.00    -0.137 A  
ENDBRANCH   2   4
TORSDOF 1
ENDMDL
MODEL      212
REMARK 921   NORMALIZED FREE ENERGY PREDICTED BY IDOCK:   -1.24 KCAL/MOL
REMARK 922        TOTAL FREE ENERGY PREDICTED BY IDOCK:   -1.36 KCAL/MOL
REMARK 923 INTER-LIGAND FREE ENERGY PREDICTED BY IDOCK:   -1.36 KCAL/MOL
REMARK 924 INTRA-LIGAND FREE ENERGY PREDICTED BY IDOCK:    0.01 KCAL/MOL
REMARK 927      BINDING AFFINITY PREDICTED BY RF-SCORE:    0.00 PKD
ROOT
HETATM    1  O   UNL     1      -7.933   4.820  67.969  1.00  0.00    -0.085 OA 
HETATM    2  C   UNL     1      -7.284   4.454  69.182  1.00  0.00    -0.052 C  
HETATM    3  H   UNL     1      -7.327   5.183  67.334  1.00  0.00     0.000 HD 
ENDROOT
BRANCH   2   4
HETATM    4  C   UNL     1      -8.248   3.879  70.192  1.00  0.00    -0.071 A  
HETATM    5  C   UNL     1      -9.207   4.697  70.818  1.00  0.00    -0.140 A  
HETATM    6 CL   UNL     1      -9.328   6.383  70.456  1.00  0.00    -0.165 Cl 
HETATM    7  C   UNL     1     -10.097   4.172  71.760  1.00  0.00    -0.212 A  
HETATM    8  C   UNL     1     -10.039   2.821  72.084  1.00  0.00    -0.140 A  
HETATM    9  C   UNL     1      -9.104   1.989  71.478  1.00  0.00    -0.152 A  
HETATM   10 CL   UNL     1     -11.131   2.174  73.247  1.00  0.00    -0.280 Cl 
HETATM   11  C   UNL     1      -8.215   2.517  70.536  1.00  0.00    -0.067 A  
ENDBRANCH   2   4
TORSDOF 1
ENDMDL
MODEL      213
REMARK 921   NORMALIZED FREE ENERGY PREDICTED BY IDOCK:   -1.16 KCAL/MOL
REMARK 922        TOTAL FREE ENERGY PREDICTED BY IDOCK:   -1.27 KCAL/MOL
REMARK 923 INTER-LIGAND FREE ENERGY PREDICTED BY IDOCK:   -1.23 KCAL/MOL
REMARK 924 INTRA-LIGAND FREE ENERGY PREDICTED BY IDOCK:   -0.04 KCAL/MOL
REMARK 927      BINDING AFFINITY PREDICTED BY RF-SCORE:    0.00 PKD
ROOT
HETATM    1  O   UNL     1     -10.266   4.143  66.744  1.00  0.00    -0.308 OA 
HETATM    2  C   UNL     1      -9.369   3.492  65.850  1.00  0.00    -0.157 C  
HETATM    3  H   UNL     1     -10.743   3.525  67.285  1.00  0.00     0.000 HD 
ENDROOT
BRANCH   2   4
HETATM    4  C   UNL     1      -8.611   4.474  64.989  1.00  0.00    -0.133 A  
HETATM    5  C   UNL     1      -8.959   4.665  63.639  1.00  0.00    -0.105 A  
HETATM    6 CL   UNL     1     -10.267   3.797  62.913  1.00  0.00    -0.176 Cl 
HETATM    7  C   UNL     1      -8.257   5.567  62.834  1.00  0.00    -0.107 A  
HETATM    8  C   UNL     1      -7.198   6.290  63.372  1.00  0.00    -0.058 A  
HETATM    9  C   UNL     1      -6.835   6.123  64.705  1.00  0.00    -0.047 A  
HETATM   10 CL   UNL     1      -6.328   7.397  62.383  1.00  0.00    -0.061 Cl 
HETATM   11  C   UNL     1      -7.539   5.221  65.507  1.00  0.00    -0.082 A  
ENDBRANCH   2   4
TORSDOF 1
ENDMDL
MODEL      214
REMARK 921   NORMALIZED FREE ENERGY PREDICTED BY IDOCK:   -1.13 KCAL/MOL
REMARK 922        TOTAL FREE ENERGY PREDICTED BY IDOCK:   -1.24 KCAL/MOL
REMARK 923 INTER-LIGAND FREE ENERGY PREDICTED BY IDOCK:   -1.22 KCAL/MOL
REMARK 924 INTRA-LIGAND FREE ENERGY PREDICTED BY IDOCK:   -0.02 KCAL/MOL
REMARK 927      BINDING AFFINITY PREDICTED BY RF-SCORE:    0.00 PKD
ROOT
HETATM    1  O   UNL     1     -10.349   4.246  66.651  1.00  0.00    -0.317 OA 
HETATM    2  C   UNL     1      -9.161   3.876  65.958  1.00  0.00    -0.158 C  
HETATM    3  H   UNL     1     -10.791   3.496  67.030  1.00  0.00     0.000 HD 
ENDROOT
BRANCH   2   4
HETATM    4  C   UNL     1      -8.458   5.068  65.355  1.00  0.00    -0.138 A  
HETATM    5  C   UNL     1      -7.756   5.976  66.169  1.00  0.00    -0.102 A  
HETATM    6 CL   UNL     1      -7.660   5.763  67.883  1.00  0.00    -0.084 Cl 
HETATM    7  C   UNL     1      -7.109   7.086  65.619  1.00  0.00    -0.068 A  
HETATM    8  C   UNL     1      -7.156   7.300  64.245  1.00  0.00    -0.063 A  
HETATM    9  C   UNL     1      -7.840   6.416  63.417  1.00  0.00    -0.107 A  
HETATM   10 CL   UNL     1      -6.365   8.669  63.565  1.00  0.00    -0.084 Cl 
HETATM   11  C   UNL     1      -8.486   5.307  63.970  1.00  0.00    -0.102 A  
ENDBRANCH   2   4
TORSDOF 1
ENDMDL
MODEL      215
REMARK 921   NORMALIZED FREE ENERGY PREDICTED BY IDOCK:   -1.07 KCAL/MOL
REMARK 922        TOTAL FREE ENERGY PREDICTED BY IDOCK:   -1.18 KCAL/MOL
REMARK 923 INTER-LIGAND FREE ENERGY PREDICTED BY IDOCK:   -1.13 KCAL/MOL
REMARK 924 INTRA-LIGAND FREE ENERGY PREDICTED BY IDOCK:   -0.05 KCAL/MOL
REMARK 927      BINDING AFFINITY PREDICTED BY RF-SCORE:    0.00 PKD
ROOT
HETATM    1  O   UNL     1      -5.501   4.845  65.848  1.00  0.00    -0.012 OA 
HETATM    2  C   UNL     1      -5.482   4.548  67.241  1.00  0.00    -0.013 C  
HETATM    3  H   UNL     1      -4.669   4.657  65.430  1.00  0.00     0.000 HD 
ENDROOT
BRANCH   2   4
HETATM    4  C   UNL     1      -6.803   4.849  67.906  1.00  0.00    -0.060 A  
HETATM    5  C   UNL     1      -7.832   3.889  67.925  1.00  0.00    -0.074 A  
HETATM    6 CL   UNL     1      -7.628   2.332  67.201  1.00  0.00    -0.061 Cl 
HETATM    7  C   UNL     1      -9.061   4.163  68.532  1.00  0.00    -0.182 A  
HETATM    8  C   UNL     1      -9.274   5.401  69.130  1.00  0.00    -0.116 A  
HETATM    9  C   UNL     1      -8.272   6.366  69.128  1.00  0.00    -0.111 A  
HETATM   10 CL   UNL     1     -10.788   5.743  69.873  1.00  0.00    -0.417 Cl 
HETATM   11  C   UNL     1      -7.044   6.089  68.520  1.00  0.00    -0.082 A  
ENDBRANCH   2   4
TORSDOF 1
ENDMDL
MODEL      216
REMARK 921   NORMALIZED FREE ENERGY PREDICTED BY IDOCK:   -0.84 KCAL/MOL
REMARK 922        TOTAL FREE ENERGY PREDICTED BY IDOCK:   -0.93 KCAL/MOL
REMARK 923 INTER-LIGAND FREE ENERGY PREDICTED BY IDOCK:   -1.88 KCAL/MOL
REMARK 924 INTRA-LIGAND FREE ENERGY PREDICTED BY IDOCK:    0.94 KCAL/MOL
REMARK 927      BINDING AFFINITY PREDICTED BY RF-SCORE:    0.00 PKD
ROOT
HETATM    1  O   UNL     1     -11.017   7.647  67.946  1.00  0.00    -0.470 OA 
HETATM    2  C   UNL     1      -9.648   7.259  67.885  1.00  0.00    -0.139 C  
HETATM    3  H   UNL     1     -11.265   8.200  67.216  1.00  0.00     0.000 HD 
ENDROOT
BRANCH   2   4
HETATM    4  C   UNL     1      -9.252   6.379  69.046  1.00  0.00    -0.129 A  
HETATM    5  C   UNL     1     -10.217   5.925  69.964  1.00  0.00    -0.224 A  
HETATM    6 CL   UNL     1     -11.887   6.344  69.801  1.00  0.00    -0.293 Cl 
HETATM    7  C   UNL     1      -9.857   5.116  71.047  1.00  0.00    -0.261 A  
HETATM    8  C   UNL     1      -8.526   4.751  71.221  1.00  0.00    -0.107 A  
HETATM    9  C   UNL     1      -7.553   5.184  70.326  1.00  0.00    -0.071 A  
HETATM   10 CL   UNL     1      -8.079   3.760  72.555  1.00  0.00    -0.080 Cl 
HETATM   11  C   UNL     1      -7.916   5.992  69.244  1.00  0.00    -0.103 A  
ENDBRANCH   2   4
TORSDOF 1
ENDMDL
MODEL      217
REMARK 921   NORMALIZED FREE ENERGY PREDICTED BY IDOCK:   -0.77 KCAL/MOL
REMARK 922        TOTAL FREE ENERGY PREDICTED BY IDOCK:   -0.86 KCAL/MOL
REMARK 923 INTER-LIGAND FREE ENERGY PREDICTED BY IDOCK:   -1.27 KCAL/MOL
REMARK 924 INTRA-LIGAND FREE ENERGY PREDICTED BY IDOCK:    0.41 KCAL/MOL
REMARK 927      BINDING AFFINITY PREDICTED BY RF-SCORE:    0.00 PKD
ROOT
HETATM    1  O   UNL     1      -9.557   6.440  66.190  1.00  0.00    -0.335 OA 
HETATM    2  C   UNL     1      -8.160   6.479  65.916  1.00  0.00    -0.125 C  
HETATM    3  H   UNL     1      -9.986   5.712  65.758  1.00  0.00     0.000 HD 
ENDROOT
BRANCH   2   4
HETATM    4  C   UNL     1      -7.477   7.638  66.603  1.00  0.00    -0.093 A  
HETATM    5  C   UNL     1      -8.074   8.911  66.627  1.00  0.00    -0.107 A  
HETATM    6 CL   UNL     1      -9.609   9.203  65.885  1.00  0.00    -0.338 Cl 
HETATM    7  C   UNL     1      -7.444   9.991  67.254  1.00  0.00    -0.091 A  
HETATM    8  C   UNL     1      -6.209   9.807  67.866  1.00  0.00    -0.052 A  
HETATM    9  C   UNL     1      -5.598   8.557  67.859  1.00  0.00    -0.035 A  
HETATM   10 CL   UNL     1      -5.429  11.135  68.634  1.00  0.00    -0.043 Cl 
HETATM   11  C   UNL     1      -6.230   7.480  67.232  1.00  0.00    -0.052 A  
ENDBRANCH   2   4
TORSDOF 1
ENDMDL
MODEL      218
REMARK 921   NORMALIZED FREE ENERGY PREDICTED BY IDOCK:   -0.71 KCAL/MOL
REMARK 922        TOTAL FREE ENERGY PREDICTED BY IDOCK:   -0.80 KCAL/MOL
REMARK 923 INTER-LIGAND FREE ENERGY PREDICTED BY IDOCK:   -0.76 KCAL/MOL
REMARK 924 INTRA-LIGAND FREE ENERGY PREDICTED BY IDOCK:   -0.05 KCAL/MOL
REMARK 927      BINDING AFFINITY PREDICTED BY RF-SCORE:    0.00 PKD
ROOT
HETATM    1  O   UNL     1      -9.866   4.304  68.583  1.00  0.00    -0.137 OA 
HETATM    2  C   UNL     1      -8.877   4.485  67.575  1.00  0.00    -0.107 C  
HETATM    3  H   UNL     1     -10.429   3.561  68.403  1.00  0.00     0.000 HD 
ENDROOT
BRANCH   2   4
HETATM    4  C   UNL     1      -7.981   5.667  67.861  1.00  0.00    -0.097 A  
HETATM    5  C   UNL     1      -6.791   5.506  68.594  1.00  0.00    -0.059 A  
HETATM    6 CL   UNL     1      -6.300   3.959  69.190  1.00  0.00    -0.028 Cl 
HETATM    7  C   UNL     1      -5.961   6.597  68.869  1.00  0.00    -0.022 A  
HETATM    8  C   UNL     1      -6.312   7.863  68.411  1.00  0.00    -0.049 A  
HETATM    9  C   UNL     1      -7.482   8.049  67.680  1.00  0.00    -0.097 A  
HETATM   10 CL   UNL     1      -5.295   9.208  68.752  1.00  0.00    -0.037 Cl 
HETATM   11  C   UNL     1      -8.309   6.956  67.407  1.00  0.00    -0.122 A  
ENDBRANCH   2   4
TORSDOF 1
ENDMDL
MODEL      219
REMARK 921   NORMALIZED FREE ENERGY PREDICTED BY IDOCK:   -0.56 KCAL/MOL
REMARK 922        TOTAL FREE ENERGY PREDICTED BY IDOCK:   -0.64 KCAL/MOL
REMARK 923 INTER-LIGAND FREE ENERGY PREDICTED BY IDOCK:   -0.59 KCAL/MOL
REMARK 924 INTRA-LIGAND FREE ENERGY PREDICTED BY IDOCK:   -0.05 KCAL/MOL
REMARK 927      BINDING AFFINITY PREDICTED BY RF-SCORE:    0.00 PKD
ROOT
HETATM    1  O   UNL     1      -8.237   3.835  66.086  1.00  0.00    -0.100 OA 
HETATM    2  C   UNL     1      -7.018   4.225  66.711  1.00  0.00    -0.059 C  
HETATM    3  H   UNL     1      -8.221   3.981  65.148  1.00  0.00     0.000 HD 
ENDROOT
BRANCH   2   4
HETATM    4  C   UNL     1      -7.043   3.992  68.203  1.00  0.00    -0.059 A  
HETATM    5  C   UNL     1      -7.587   4.956  69.071  1.00  0.00    -0.068 A  
HETATM    6 CL   UNL     1      -8.255   6.436  68.473  1.00  0.00    -0.113 Cl 
HETATM    7  C   UNL     1      -7.607   4.752  70.454  1.00  0.00    -0.054 A  
HETATM    8  C   UNL     1      -7.083   3.577  70.984  1.00  0.00    -0.033 A  
HETATM    9  C   UNL     1      -6.542   2.606  70.148  1.00  0.00    -0.033 A  
HETATM   10 CL   UNL     1      -7.100   3.325  72.686  1.00  0.00    -0.042 Cl 
HETATM   11  C   UNL     1      -6.524   2.814  68.765  1.00  0.00    -0.029 A  
ENDBRANCH   2   4
TORSDOF 1
ENDMDL
MODEL      220
REMARK 921   NORMALIZED FREE ENERGY PREDICTED BY IDOCK:   -0.52 KCAL/MOL
REMARK 922        TOTAL FREE ENERGY PREDICTED BY IDOCK:   -0.60 KCAL/MOL
REMARK 923 INTER-LIGAND FREE ENERGY PREDICTED BY IDOCK:   -0.58 KCAL/MOL
REMARK 924 INTRA-LIGAND FREE ENERGY PREDICTED BY IDOCK:   -0.02 KCAL/MOL
REMARK 927      BINDING AFFINITY PREDICTED BY RF-SCORE:    0.00 PKD
ROOT
HETATM    1  O   UNL     1      -9.462   4.256  67.672  1.00  0.00    -0.154 OA 
HETATM    2  C   UNL     1      -8.064   4.464  67.497  1.00  0.00    -0.099 C  
HETATM    3  H   UNL     1      -9.889   3.994  66.865  1.00  0.00     0.000 HD 
ENDROOT
BRANCH   2   4
HETATM    4  C   UNL     1      -7.384   4.880  68.780  1.00  0.00    -0.061 A  
HETATM    5  C   UNL     1      -6.546   6.009  68.815  1.00  0.00    -0.055 A  
HETATM    6 CL   UNL     1      -6.264   6.968  67.403  1.00  0.00    -0.039 Cl 
HETATM    7  C   UNL     1      -5.907   6.396  69.997  1.00  0.00    -0.018 A  
HETATM    8  C   UNL     1      -6.103   5.657  71.159  1.00  0.00    -0.033 A  
HETATM    9  C   UNL     1      -6.930   4.539  71.153  1.00  0.00    -0.036 A  
HETATM   10 CL   UNL     1      -5.314   6.128  72.615  1.00  0.00    -0.030 Cl 
HETATM   11  C   UNL     1      -7.567   4.154  69.969  1.00  0.00    -0.052 A  
ENDBRANCH   2   4
TORSDOF 1
ENDMDL
MODEL      221
REMARK 921   NORMALIZED FREE ENERGY PREDICTED BY IDOCK:   -0.49 KCAL/MOL
REMARK 922        TOTAL FREE ENERGY PREDICTED BY IDOCK:   -0.56 KCAL/MOL
REMARK 923 INTER-LIGAND FREE ENERGY PREDICTED BY IDOCK:   -1.18 KCAL/MOL
REMARK 924 INTRA-LIGAND FREE ENERGY PREDICTED BY IDOCK:    0.62 KCAL/MOL
REMARK 927      BINDING AFFINITY PREDICTED BY RF-SCORE:    0.00 PKD
ROOT
HETATM    1  O   UNL     1     -10.572   5.571  68.147  1.00  0.00    -0.195 OA 
HETATM    2  C   UNL     1      -9.891   5.593  66.897  1.00  0.00    -0.159 C  
HETATM    3  H   UNL     1     -11.131   4.809  68.237  1.00  0.00     0.000 HD 
ENDROOT
BRANCH   2   4
HETATM    4  C   UNL     1      -9.002   6.805  66.754  1.00  0.00    -0.141 A  
HETATM    5  C   UNL     1      -8.389   7.383  67.880  1.00  0.00    -0.119 A  
HETATM    6 CL   UNL     1      -8.617   6.732  69.466  1.00  0.00    -0.132 Cl 
HETATM    7  C   UNL     1      -7.571   8.510  67.757  1.00  0.00    -0.098 A  
HETATM    8  C   UNL     1      -7.355   9.071  66.502  1.00  0.00    -0.085 A  
HETATM    9  C   UNL     1      -7.946   8.517  65.371  1.00  0.00    -0.113 A  
HETATM   10 CL   UNL     1      -6.353  10.461  66.347  1.00  0.00    -0.084 Cl 
HETATM   11  C   UNL     1      -8.764   7.390  65.498  1.00  0.00    -0.051 A  
ENDBRANCH   2   4
TORSDOF 1
ENDMDL
MODEL      222
REMARK 921   NORMALIZED FREE ENERGY PREDICTED BY IDOCK:    5.75 KCAL/MOL
REMARK 922        TOTAL FREE ENERGY PREDICTED BY IDOCK:    6.04 KCAL/MOL
REMARK 923 INTER-LIGAND FREE ENERGY PREDICTED BY IDOCK:    6.07 KCAL/MOL
REMARK 924 INTRA-LIGAND FREE ENERGY PREDICTED BY IDOCK:   -0.02 KCAL/MOL
REMARK 927      BINDING AFFINITY PREDICTED BY RF-SCORE:    0.00 PKD
ROOT
HETATM    1  O   UNL     1      -8.676  15.477  64.605  1.00  0.00     2.333 OA 
HETATM    2  C   UNL     1      -7.875  15.447  65.782  1.00  0.00     2.711 C  
HETATM    3  H   UNL     1      -8.328  16.070  63.950  1.00  0.00     0.000 HD 
ENDROOT
BRANCH   2   4
HETATM    4  C   UNL     1      -8.428  14.504  66.823  1.00  0.00    -0.108 A  
HETATM    5  C   UNL     1      -8.749  14.966  68.113  1.00  0.00    -0.164 A  
HETATM    6 CL   UNL     1      -8.533  16.624  68.557  1.00  0.00    -0.223 Cl 
HETATM    7  C   UNL     1      -9.254  14.097  69.085  1.00  0.00     0.202 A  
HETATM    8  C   UNL     1      -9.447  12.755  68.776  1.00  0.00     0.124 A  
HETATM    9  C   UNL     1      -9.141  12.273  67.507  1.00  0.00    -0.182 A  
HETATM   10 CL   UNL     1     -10.064  11.682  69.972  1.00  0.00     1.221 Cl 
HETATM   11  C   UNL     1      -8.636  13.144  66.538  1.00  0.00     0.153 A  
ENDBRANCH   2   4
TORSDOF 1
ENDMDL
