MODEL        1
REMARK 921   NORMALIZED FREE ENERGY PREDICTED BY IDOCK:   -6.20 KCAL/MOL
REMARK 922        TOTAL FREE ENERGY PREDICTED BY IDOCK:   -6.89 KCAL/MOL
REMARK 923 INTER-LIGAND FREE ENERGY PREDICTED BY IDOCK:   -6.92 KCAL/MOL
REMARK 924 INTRA-LIGAND FREE ENERGY PREDICTED BY IDOCK:    0.03 KCAL/MOL
REMARK 927      BINDING AFFINITY PREDICTED BY RF-SCORE:    0.00 PKD
ROOT
HETATM    1  N   UNL     1     -12.424  14.615  63.601  1.00  0.00    -1.064 N  
HETATM    2  S   UNL     1     -11.917  13.374  64.606  1.00  0.00    -0.422 S  
HETATM    3  H1  UNL     1     -11.619  15.226  63.461  1.00  0.00     0.000 HD 
HETATM    4  H2  UNL     1     -13.356  14.738  63.206  1.00  0.00     0.000 HD 
HETATM    5  O   UNL     1     -10.664  12.903  64.066  1.00  0.00    -0.393 OA 
HETATM    6  O   UNL     1     -13.056  12.512  64.804  1.00  0.00    -0.853 OA 
ENDROOT
BRANCH   2   7
HETATM    7  C   UNL     1     -11.594  14.251  66.109  1.00  0.00    -0.369 A  
HETATM    8  C   UNL     1     -10.862  15.438  66.090  1.00  0.00    -0.313 A  
HETATM    9  C   UNL     1     -10.624  16.123  67.296  1.00  0.00    -0.305 A  
HETATM   10 CL   UNL     1     -12.529  13.734  69.938  1.00  0.00    -0.316 Cl 
HETATM   11  C   UNL     1     -11.118  15.629  68.513  1.00  0.00    -0.322 A  
HETATM   12  C   UNL     1     -12.107  13.753  67.305  1.00  0.00    -0.393 A  
HETATM   13 CL   UNL     1     -10.854  16.446  70.020  1.00  0.00    -0.338 Cl 
HETATM   14  C   UNL     1     -11.865  14.435  68.501  1.00  0.00    -0.334 A  
BRANCH   9  15
HETATM   15  S   UNL     1      -9.659  17.602  67.221  1.00  0.00    -0.279 S  
HETATM   16  O   UNL     1      -8.710  17.606  68.306  1.00  0.00    -0.260 OA 
HETATM   17  H2  UNL     1     -11.783  18.713  67.698  1.00  0.00     0.000 HD 
HETATM   18  H1  UNL     1     -10.227  19.662  67.476  1.00  0.00     0.000 HD 
HETATM   19  O   UNL     1      -9.245  17.813  65.850  1.00  0.00    -0.519 OA 
HETATM   20  N   UNL     1     -10.784  18.808  67.518  1.00  0.00    -0.440 N  
ENDBRANCH   9  15
ENDBRANCH   2   7
TORSDOF 2
ENDMDL
MODEL        2
REMARK 921   NORMALIZED FREE ENERGY PREDICTED BY IDOCK:   -6.20 KCAL/MOL
REMARK 922        TOTAL FREE ENERGY PREDICTED BY IDOCK:   -6.89 KCAL/MOL
REMARK 923 INTER-LIGAND FREE ENERGY PREDICTED BY IDOCK:   -6.70 KCAL/MOL
REMARK 924 INTRA-LIGAND FREE ENERGY PREDICTED BY IDOCK:   -0.19 KCAL/MOL
REMARK 927      BINDING AFFINITY PREDICTED BY RF-SCORE:    0.00 PKD
ROOT
HETATM    1  N   UNL     1     -13.861  15.486  70.545  1.00  0.00    -0.687 N  
HETATM    2  S   UNL     1     -12.214  15.230  70.713  1.00  0.00    -0.397 S  
HETATM    3  H1  UNL     1     -14.257  14.617  70.187  1.00  0.00     0.000 HD 
HETATM    4  H2  UNL     1     -14.370  16.343  70.759  1.00  0.00     0.000 HD 
HETATM    5  O   UNL     1     -12.068  13.966  71.395  1.00  0.00    -0.284 OA 
HETATM    6  O   UNL     1     -11.654  16.460  71.219  1.00  0.00    -0.414 OA 
ENDROOT
BRANCH   2   7
HETATM    7  C   UNL     1     -11.718  15.026  69.026  1.00  0.00    -0.325 A  
HETATM    8  C   UNL     1     -11.207  16.105  68.305  1.00  0.00    -0.343 A  
HETATM    9  C   UNL     1     -10.812  15.919  66.968  1.00  0.00    -0.252 A  
HETATM   10 CL   UNL     1     -11.605  11.991  66.461  1.00  0.00    -0.414 Cl 
HETATM   11  C   UNL     1     -10.922  14.661  66.355  1.00  0.00    -0.325 A  
HETATM   12  C   UNL     1     -11.821  13.767  68.439  1.00  0.00    -0.411 A  
HETATM   13 CL   UNL     1     -10.439  14.388  64.712  1.00  0.00    -0.442 Cl 
HETATM   14  C   UNL     1     -11.429  13.587  67.109  1.00  0.00    -0.338 A  
BRANCH   9  15
HETATM   15  S   UNL     1     -10.206  17.327  66.089  1.00  0.00    -0.286 S  
HETATM   16  O   UNL     1      -8.775  17.219  65.948  1.00  0.00    -0.528 OA 
HETATM   17  H2  UNL     1     -10.961  18.567  68.056  1.00  0.00     0.000 HD 
HETATM   18  H1  UNL     1     -10.173  19.410  66.628  1.00  0.00     0.000 HD 
HETATM   19  O   UNL     1     -11.065  17.565  64.949  1.00  0.00    -0.860 OA 
HETATM   20  N   UNL     1     -10.523  18.598  67.134  1.00  0.00    -0.399 N  
ENDBRANCH   9  15
ENDBRANCH   2   7
TORSDOF 2
ENDMDL
MODEL        3
REMARK 921   NORMALIZED FREE ENERGY PREDICTED BY IDOCK:   -6.16 KCAL/MOL
REMARK 922        TOTAL FREE ENERGY PREDICTED BY IDOCK:   -6.85 KCAL/MOL
REMARK 923 INTER-LIGAND FREE ENERGY PREDICTED BY IDOCK:   -6.93 KCAL/MOL
REMARK 924 INTRA-LIGAND FREE ENERGY PREDICTED BY IDOCK:    0.08 KCAL/MOL
REMARK 927      BINDING AFFINITY PREDICTED BY RF-SCORE:    0.00 PKD
ROOT
HETATM    1  N   UNL     1     -12.440  14.575  63.618  1.00  0.00    -1.078 N  
HETATM    2  S   UNL     1     -11.915  13.343  64.623  1.00  0.00    -0.422 S  
HETATM    3  H1  UNL     1     -11.640  15.188  63.463  1.00  0.00     0.000 HD 
HETATM    4  H2  UNL     1     -13.378  14.692  63.235  1.00  0.00     0.000 HD 
HETATM    5  O   UNL     1     -10.668  12.873  64.070  1.00  0.00    -0.393 OA 
HETATM    6  O   UNL     1     -13.048  12.477  64.842  1.00  0.00    -0.833 OA 
ENDROOT
BRANCH   2   7
HETATM    7  C   UNL     1     -11.576  14.230  66.116  1.00  0.00    -0.369 A  
HETATM    8  C   UNL     1     -10.884  15.440  66.076  1.00  0.00    -0.315 A  
HETATM    9  C   UNL     1     -10.632  16.133  67.275  1.00  0.00    -0.305 A  
HETATM   10 CL   UNL     1     -12.376  13.684  69.972  1.00  0.00    -0.370 Cl 
HETATM   11  C   UNL     1     -11.073  15.623  68.506  1.00  0.00    -0.322 A  
HETATM   12  C   UNL     1     -12.035  13.716  67.327  1.00  0.00    -0.420 A  
HETATM   13 CL   UNL     1     -10.790  16.450  70.004  1.00  0.00    -0.338 Cl 
HETATM   14  C   UNL     1     -11.780  14.406  68.516  1.00  0.00    -0.335 A  
BRANCH   9  15
HETATM   15  S   UNL     1      -9.719  17.643  67.171  1.00  0.00    -0.302 S  
HETATM   16  O   UNL     1      -9.222  17.807  65.829  1.00  0.00    -0.505 OA 
HETATM   17  H2  UNL     1      -8.187  16.531  68.716  1.00  0.00     0.000 HD 
HETATM   18  H1  UNL     1      -7.880  18.239  68.116  1.00  0.00     0.000 HD 
HETATM   19  O   UNL     1     -10.477  18.686  67.832  1.00  0.00    -0.388 OA 
HETATM   20  N   UNL     1      -8.407  17.368  68.176  1.00  0.00    -0.232 N  
ENDBRANCH   9  15
ENDBRANCH   2   7
TORSDOF 2
ENDMDL
MODEL        4
REMARK 921   NORMALIZED FREE ENERGY PREDICTED BY IDOCK:   -5.98 KCAL/MOL
REMARK 922        TOTAL FREE ENERGY PREDICTED BY IDOCK:   -6.65 KCAL/MOL
REMARK 923 INTER-LIGAND FREE ENERGY PREDICTED BY IDOCK:   -6.43 KCAL/MOL
REMARK 924 INTRA-LIGAND FREE ENERGY PREDICTED BY IDOCK:   -0.22 KCAL/MOL
REMARK 927      BINDING AFFINITY PREDICTED BY RF-SCORE:    0.00 PKD
ROOT
HETATM    1  N   UNL     1     -14.271  15.437  70.898  1.00  0.00    -0.857 N  
HETATM    2  S   UNL     1     -12.715  15.080  71.405  1.00  0.00    -0.379 S  
HETATM    3  H1  UNL     1     -14.855  14.644  71.164  1.00  0.00     0.000 HD 
HETATM    4  H2  UNL     1     -14.577  16.283  70.417  1.00  0.00     0.000 HD 
HETATM    5  O   UNL     1     -12.829  14.617  72.767  1.00  0.00    -0.391 OA 
HETATM    6  O   UNL     1     -11.890  16.202  71.028  1.00  0.00    -0.408 OA 
ENDROOT
BRANCH   2   7
HETATM    7  C   UNL     1     -12.317  13.702  70.368  1.00  0.00    -0.345 A  
HETATM    8  C   UNL     1     -12.011  13.898  69.021  1.00  0.00    -0.402 A  
HETATM    9  C   UNL     1     -11.690  12.789  68.217  1.00  0.00    -0.344 A  
HETATM   10 CL   UNL     1     -11.971   9.777  70.894  1.00  0.00    -0.387 Cl 
HETATM   11  C   UNL     1     -11.670  11.493  68.755  1.00  0.00    -0.334 A  
HETATM   12  C   UNL     1     -12.287  12.425  70.923  1.00  0.00    -0.358 A  
HETATM   13 CL   UNL     1     -11.271  10.100  67.800  1.00  0.00    -0.302 Cl 
HETATM   14  C   UNL     1     -11.970  11.326  70.120  1.00  0.00    -0.369 A  
BRANCH   9  15
HETATM   15  S   UNL     1     -11.347  13.088  66.509  1.00  0.00    -0.336 S  
HETATM   16  O   UNL     1      -9.972  12.750  66.235  1.00  0.00    -0.254 OA 
HETATM   17  H2  UNL     1     -11.741  15.427  67.097  1.00  0.00     0.000 HD 
HETATM   18  H1  UNL     1     -11.305  14.922  65.386  1.00  0.00     0.000 HD 
HETATM   19  O   UNL     1     -12.433  12.547  65.719  1.00  0.00    -0.626 OA 
HETATM   20  N   UNL     1     -11.504  14.750  66.371  1.00  0.00    -0.343 N  
ENDBRANCH   9  15
ENDBRANCH   2   7
TORSDOF 2
ENDMDL
MODEL        5
REMARK 921   NORMALIZED FREE ENERGY PREDICTED BY IDOCK:   -5.96 KCAL/MOL
REMARK 922        TOTAL FREE ENERGY PREDICTED BY IDOCK:   -6.63 KCAL/MOL
REMARK 923 INTER-LIGAND FREE ENERGY PREDICTED BY IDOCK:   -6.66 KCAL/MOL
REMARK 924 INTRA-LIGAND FREE ENERGY PREDICTED BY IDOCK:    0.03 KCAL/MOL
REMARK 927      BINDING AFFINITY PREDICTED BY RF-SCORE:    0.00 PKD
ROOT
HETATM    1  N   UNL     1     -12.411  13.961  63.036  1.00  0.00    -1.023 N  
HETATM    2  S   UNL     1     -11.959  12.822  64.178  1.00  0.00    -0.467 S  
HETATM    3  H1  UNL     1     -11.573  14.184  62.497  1.00  0.00     0.000 HD 
HETATM    4  H2  UNL     1     -13.342  14.356  62.904  1.00  0.00     0.000 HD 
HETATM    5  O   UNL     1     -11.196  11.821  63.471  1.00  0.00    -0.408 OA 
HETATM    6  O   UNL     1     -13.143  12.508  64.939  1.00  0.00    -0.833 OA 
ENDROOT
BRANCH   2   7
HETATM    7  C   UNL     1     -10.857  13.764  65.194  1.00  0.00    -0.345 A  
HETATM    8  C   UNL     1     -10.887  15.158  65.164  1.00  0.00    -0.437 A  
HETATM    9  C   UNL     1     -10.008  15.886  65.985  1.00  0.00    -0.334 A  
HETATM   10 CL   UNL     1      -8.044  12.900  67.866  1.00  0.00    -0.147 Cl 
HETATM   11  C   UNL     1      -9.107  15.227  66.836  1.00  0.00    -0.240 A  
HETATM   12  C   UNL     1      -9.980  13.092  66.042  1.00  0.00    -0.277 A  
HETATM   13 CL   UNL     1      -8.012  16.088  67.870  1.00  0.00    -0.141 Cl 
HETATM   14  C   UNL     1      -9.106  13.820  66.855  1.00  0.00    -0.242 A  
BRANCH   9  15
HETATM   15  S   UNL     1     -10.062  17.650  65.882  1.00  0.00    -0.106 S  
HETATM   16  O   UNL     1      -8.716  18.167  65.868  1.00  0.00    -0.505 OA 
HETATM   17  H2  UNL     1     -11.090  17.497  68.094  1.00  0.00     0.000 HD 
HETATM   18  H1  UNL     1     -10.799  19.115  67.275  1.00  0.00     0.000 HD 
HETATM   19  O   UNL     1     -11.029  18.023  64.871  1.00  0.00    -0.776 OA 
HETATM   20  N   UNL     1     -10.768  18.097  67.334  1.00  0.00    -0.384 N  
ENDBRANCH   9  15
ENDBRANCH   2   7
TORSDOF 2
ENDMDL
MODEL        6
REMARK 921   NORMALIZED FREE ENERGY PREDICTED BY IDOCK:   -5.86 KCAL/MOL
REMARK 922        TOTAL FREE ENERGY PREDICTED BY IDOCK:   -6.52 KCAL/MOL
REMARK 923 INTER-LIGAND FREE ENERGY PREDICTED BY IDOCK:   -6.59 KCAL/MOL
REMARK 924 INTRA-LIGAND FREE ENERGY PREDICTED BY IDOCK:    0.08 KCAL/MOL
REMARK 927      BINDING AFFINITY PREDICTED BY RF-SCORE:    0.00 PKD
ROOT
HETATM    1  N   UNL     1     -10.818  12.971  63.820  1.00  0.00    -0.533 N  
HETATM    2  S   UNL     1     -12.235  13.605  64.449  1.00  0.00    -0.366 S  
HETATM    3  H1  UNL     1     -10.545  12.201  64.431  1.00  0.00     0.000 HD 
HETATM    4  H2  UNL     1     -10.322  13.293  62.989  1.00  0.00     0.000 HD 
HETATM    5  O   UNL     1     -13.098  12.480  64.718  1.00  0.00    -0.853 OA 
HETATM    6  O   UNL     1     -12.620  14.695  63.586  1.00  0.00    -0.773 OA 
ENDROOT
BRANCH   2   7
HETATM    7  C   UNL     1     -11.669  14.267  65.990  1.00  0.00    -0.379 A  
HETATM    8  C   UNL     1     -10.935  15.453  66.021  1.00  0.00    -0.286 A  
HETATM    9  C   UNL     1     -10.501  15.965  67.258  1.00  0.00    -0.310 A  
HETATM   10 CL   UNL     1     -11.990  13.209  69.808  1.00  0.00    -0.387 Cl 
HETATM   11  C   UNL     1     -10.803  15.300  68.457  1.00  0.00    -0.253 A  
HETATM   12  C   UNL     1     -11.990  13.601  67.170  1.00  0.00    -0.434 A  
HETATM   13 CL   UNL     1     -10.294  15.902  70.002  1.00  0.00    -0.279 Cl 
HETATM   14  C   UNL     1     -11.555  14.112  68.397  1.00  0.00    -0.318 A  
BRANCH   9  15
HETATM   15  S   UNL     1      -9.545  17.451  67.239  1.00  0.00    -0.265 S  
HETATM   16  O   UNL     1      -8.500  17.356  68.227  1.00  0.00    -0.233 OA 
HETATM   17  H2  UNL     1     -11.613  18.496  68.016  1.00  0.00     0.000 HD 
HETATM   18  H1  UNL     1     -10.082  19.472  67.744  1.00  0.00     0.000 HD 
HETATM   19  O   UNL     1      -9.258  17.797  65.862  1.00  0.00    -0.519 OA 
HETATM   20  N   UNL     1     -10.634  18.615  67.754  1.00  0.00    -0.406 N  
ENDBRANCH   9  15
ENDBRANCH   2   7
TORSDOF 2
ENDMDL
MODEL        7
REMARK 921   NORMALIZED FREE ENERGY PREDICTED BY IDOCK:   -5.80 KCAL/MOL
REMARK 922        TOTAL FREE ENERGY PREDICTED BY IDOCK:   -6.45 KCAL/MOL
REMARK 923 INTER-LIGAND FREE ENERGY PREDICTED BY IDOCK:   -6.50 KCAL/MOL
REMARK 924 INTRA-LIGAND FREE ENERGY PREDICTED BY IDOCK:    0.05 KCAL/MOL
REMARK 927      BINDING AFFINITY PREDICTED BY RF-SCORE:    0.00 PKD
ROOT
HETATM    1  N   UNL     1     -14.087  15.429  70.852  1.00  0.00    -0.864 N  
HETATM    2  S   UNL     1     -12.489  14.975  71.071  1.00  0.00    -0.374 S  
HETATM    3  H1  UNL     1     -14.526  14.695  70.296  1.00  0.00     0.000 HD 
HETATM    4  H2  UNL     1     -14.535  16.274  71.205  1.00  0.00     0.000 HD 
HETATM    5  O   UNL     1     -12.514  13.593  71.484  1.00  0.00    -0.322 OA 
HETATM    6  O   UNL     1     -11.869  16.014  71.857  1.00  0.00    -0.456 OA 
ENDROOT
BRANCH   2   7
HETATM    7  C   UNL     1     -11.871  15.063  69.415  1.00  0.00    -0.329 A  
HETATM    8  C   UNL     1     -11.897  13.938  68.592  1.00  0.00    -0.407 A  
HETATM    9  C   UNL     1     -11.407  14.032  67.276  1.00  0.00    -0.330 A  
HETATM   10 CL   UNL     1     -10.301  17.914  67.133  1.00  0.00    -0.359 Cl 
HETATM   11  C   UNL     1     -10.899  15.244  66.783  1.00  0.00    -0.312 A  
HETATM   12  C   UNL     1     -11.385  16.279  68.939  1.00  0.00    -0.317 A  
HETATM   13 CL   UNL     1     -10.295  15.405  65.166  1.00  0.00    -0.415 Cl 
HETATM   14  C   UNL     1     -10.897  16.367  67.632  1.00  0.00    -0.280 A  
BRANCH   9  15
HETATM   15  S   UNL     1     -11.429  12.567  66.287  1.00  0.00    -0.389 S  
HETATM   16  O   UNL     1     -10.197  12.476  65.545  1.00  0.00    -0.269 OA 
HETATM   17  H2  UNL     1     -13.262  13.685  65.119  1.00  0.00     0.000 HD 
HETATM   18  H1  UNL     1     -12.678  12.016  64.624  1.00  0.00     0.000 HD 
HETATM   19  O   UNL     1     -11.909  11.469  67.100  1.00  0.00    -0.595 OA 
HETATM   20  N   UNL     1     -12.666  12.861  65.195  1.00  0.00    -0.480 N  
ENDBRANCH   9  15
ENDBRANCH   2   7
TORSDOF 2
ENDMDL
MODEL        8
REMARK 921   NORMALIZED FREE ENERGY PREDICTED BY IDOCK:   -5.76 KCAL/MOL
REMARK 922        TOTAL FREE ENERGY PREDICTED BY IDOCK:   -6.40 KCAL/MOL
REMARK 923 INTER-LIGAND FREE ENERGY PREDICTED BY IDOCK:   -6.29 KCAL/MOL
REMARK 924 INTRA-LIGAND FREE ENERGY PREDICTED BY IDOCK:   -0.11 KCAL/MOL
REMARK 927      BINDING AFFINITY PREDICTED BY RF-SCORE:    0.00 PKD
ROOT
HETATM    1  N   UNL     1     -10.339  13.215  64.193  1.00  0.00    -0.592 N  
HETATM    2  S   UNL     1     -11.841  13.583  64.836  1.00  0.00    -0.396 S  
HETATM    3  H1  UNL     1      -9.813  12.742  64.929  1.00  0.00     0.000 HD 
HETATM    4  H2  UNL     1     -10.012  13.422  63.249  1.00  0.00     0.000 HD 
HETATM    5  O   UNL     1     -12.311  12.381  65.482  1.00  0.00    -0.621 OA 
HETATM    6  O   UNL     1     -12.584  14.251  63.795  1.00  0.00    -0.821 OA 
ENDROOT
BRANCH   2   7
HETATM    7  C   UNL     1     -11.408  14.765  66.081  1.00  0.00    -0.330 A  
HETATM    8  C   UNL     1     -11.739  14.536  67.416  1.00  0.00    -0.425 A  
HETATM    9  C   UNL     1     -11.378  15.485  68.390  1.00  0.00    -0.354 A  
HETATM   10 CL   UNL     1      -9.498  18.250  66.125  1.00  0.00    -0.227 Cl 
HETATM   11  C   UNL     1     -10.686  16.653  68.034  1.00  0.00    -0.350 A  
HETATM   12  C   UNL     1     -10.708  15.911  65.710  1.00  0.00    -0.325 A  
HETATM   13 CL   UNL     1     -10.215  17.844  69.204  1.00  0.00    -0.297 Cl 
HETATM   14  C   UNL     1     -10.354  16.852  66.681  1.00  0.00    -0.299 A  
BRANCH   9  15
HETATM   15  S   UNL     1     -11.854  15.165  70.062  1.00  0.00    -0.351 S  
HETATM   16  O   UNL     1     -10.696  15.271  70.914  1.00  0.00    -0.266 OA 
HETATM   17  H2  UNL     1     -12.327  12.915  69.232  1.00  0.00     0.000 HD 
HETATM   18  H1  UNL     1     -12.593  13.371  70.991  1.00  0.00     0.000 HD 
HETATM   19  O   UNL     1     -13.072  15.895  70.343  1.00  0.00    -0.349 OA 
HETATM   20  N   UNL     1     -12.319  13.556  70.026  1.00  0.00    -0.287 N  
ENDBRANCH   9  15
ENDBRANCH   2   7
TORSDOF 2
ENDMDL
MODEL        9
REMARK 921   NORMALIZED FREE ENERGY PREDICTED BY IDOCK:   -5.75 KCAL/MOL
REMARK 922        TOTAL FREE ENERGY PREDICTED BY IDOCK:   -6.39 KCAL/MOL
REMARK 923 INTER-LIGAND FREE ENERGY PREDICTED BY IDOCK:   -6.40 KCAL/MOL
REMARK 924 INTRA-LIGAND FREE ENERGY PREDICTED BY IDOCK:    0.00 KCAL/MOL
REMARK 927      BINDING AFFINITY PREDICTED BY RF-SCORE:    0.00 PKD
ROOT
HETATM    1  N   UNL     1     -11.513  11.587  63.161  1.00  0.00    -0.867 N  
HETATM    2  S   UNL     1     -12.267  12.905  63.870  1.00  0.00    -0.448 S  
HETATM    3  H1  UNL     1     -11.386  10.892  63.897  1.00  0.00     0.000 HD 
HETATM    4  H2  UNL     1     -11.234  11.498  62.185  1.00  0.00     0.000 HD 
HETATM    5  O   UNL     1     -13.366  12.375  64.642  1.00  0.00    -0.778 OA 
HETATM    6  O   UNL     1     -12.446  13.888  62.830  1.00  0.00    -0.572 OA 
ENDROOT
BRANCH   2   7
HETATM    7  C   UNL     1     -11.011  13.469  64.983  1.00  0.00    -0.335 A  
HETATM    8  C   UNL     1     -10.774  14.833  65.146  1.00  0.00    -0.433 A  
HETATM    9  C   UNL     1      -9.776  15.260  66.041  1.00  0.00    -0.335 A  
HETATM   10 CL   UNL     1      -8.432  11.722  67.452  1.00  0.00    -0.151 Cl 
HETATM   11  C   UNL     1      -9.023  14.330  66.774  1.00  0.00    -0.227 A  
HETATM   12  C   UNL     1     -10.284  12.531  65.713  1.00  0.00    -0.289 A  
HETATM   13 CL   UNL     1      -7.790  14.814  67.894  1.00  0.00    -0.129 Cl 
HETATM   14  C   UNL     1      -9.292  12.959  66.600  1.00  0.00    -0.240 A  
BRANCH   9  15
HETATM   15  S   UNL     1      -9.492  16.998  66.183  1.00  0.00    -0.181 S  
HETATM   16  O   UNL     1      -8.078  17.258  66.078  1.00  0.00    -0.477 OA 
HETATM   17  H2  UNL     1     -10.323  16.695  68.461  1.00  0.00     0.000 HD 
HETATM   18  H1  UNL     1      -9.796  18.340  67.837  1.00  0.00     0.000 HD 
HETATM   19  O   UNL     1     -10.454  17.693  65.353  1.00  0.00    -0.648 OA 
HETATM   20  N   UNL     1      -9.961  17.337  67.755  1.00  0.00    -0.290 N  
ENDBRANCH   9  15
ENDBRANCH   2   7
TORSDOF 2
ENDMDL
MODEL       10
REMARK 921   NORMALIZED FREE ENERGY PREDICTED BY IDOCK:   -5.73 KCAL/MOL
REMARK 922        TOTAL FREE ENERGY PREDICTED BY IDOCK:   -6.37 KCAL/MOL
REMARK 923 INTER-LIGAND FREE ENERGY PREDICTED BY IDOCK:   -6.41 KCAL/MOL
REMARK 924 INTRA-LIGAND FREE ENERGY PREDICTED BY IDOCK:    0.05 KCAL/MOL
REMARK 927      BINDING AFFINITY PREDICTED BY RF-SCORE:    0.00 PKD
ROOT
HETATM    1  N   UNL     1     -14.069  15.386  70.847  1.00  0.00    -0.864 N  
HETATM    2  S   UNL     1     -12.464  14.936  71.016  1.00  0.00    -0.364 S  
HETATM    3  H1  UNL     1     -14.524  14.650  70.306  1.00  0.00     0.000 HD 
HETATM    4  H2  UNL     1     -14.507  16.230  71.214  1.00  0.00     0.000 HD 
HETATM    5  O   UNL     1     -12.472  13.553  71.430  1.00  0.00    -0.332 OA 
HETATM    6  O   UNL     1     -11.821  15.976  71.781  1.00  0.00    -0.446 OA 
ENDROOT
BRANCH   2   7
HETATM    7  C   UNL     1     -11.899  15.024  69.340  1.00  0.00    -0.329 A  
HETATM    8  C   UNL     1     -11.232  16.158  68.879  1.00  0.00    -0.351 A  
HETATM    9  C   UNL     1     -10.785  16.204  67.546  1.00  0.00    -0.304 A  
HETATM   10 CL   UNL     1     -11.977  12.587  66.201  1.00  0.00    -0.465 Cl 
HETATM   11  C   UNL     1     -10.998  15.121  66.679  1.00  0.00    -0.318 A  
HETATM   12  C   UNL     1     -12.107  13.933  68.499  1.00  0.00    -0.331 A  
HETATM   13 CL   UNL     1     -10.455  15.133  65.032  1.00  0.00    -0.433 Cl 
HETATM   14  C   UNL     1     -11.663  13.983  67.175  1.00  0.00    -0.393 A  
BRANCH   9  15
HETATM   15  S   UNL     1      -9.978  17.679  67.003  1.00  0.00    -0.335 S  
HETATM   16  O   UNL     1     -10.440  18.014  65.679  1.00  0.00    -0.619 OA 
HETATM   17  H2  UNL     1      -7.959  16.303  67.078  1.00  0.00     0.000 HD 
HETATM   18  H1  UNL     1      -7.906  18.067  66.570  1.00  0.00     0.000 HD 
HETATM   19  O   UNL     1     -10.004  18.644  68.083  1.00  0.00    -0.322 OA 
HETATM   20  N   UNL     1      -8.372  17.216  66.884  1.00  0.00    -0.210 N  
ENDBRANCH   9  15
ENDBRANCH   2   7
TORSDOF 2
ENDMDL
MODEL       11
REMARK 921   NORMALIZED FREE ENERGY PREDICTED BY IDOCK:   -5.66 KCAL/MOL
REMARK 922        TOTAL FREE ENERGY PREDICTED BY IDOCK:   -6.29 KCAL/MOL
REMARK 923 INTER-LIGAND FREE ENERGY PREDICTED BY IDOCK:   -6.07 KCAL/MOL
REMARK 924 INTRA-LIGAND FREE ENERGY PREDICTED BY IDOCK:   -0.23 KCAL/MOL
REMARK 927      BINDING AFFINITY PREDICTED BY RF-SCORE:    0.00 PKD
ROOT
HETATM    1  N   UNL     1     -14.018   8.736  73.079  1.00  0.00    -0.854 N  
HETATM    2  S   UNL     1     -12.782   8.504  71.973  1.00  0.00    -0.393 S  
HETATM    3  H1  UNL     1     -14.857   8.951  72.539  1.00  0.00     0.000 HD 
HETATM    4  H2  UNL     1     -13.947   8.675  74.094  1.00  0.00     0.000 HD 
HETATM    5  O   UNL     1     -13.305   7.620  70.960  1.00  0.00    -0.164 OA 
HETATM    6  O   UNL     1     -11.596   8.201  72.736  1.00  0.00    -0.411 OA 
ENDROOT
BRANCH   2   7
HETATM    7  C   UNL     1     -12.621  10.126  71.284  1.00  0.00    -0.404 A  
HETATM    8  C   UNL     1     -12.028  10.307  70.034  1.00  0.00    -0.273 A  
HETATM    9  C   UNL     1     -11.917  11.604  69.502  1.00  0.00    -0.317 A  
HETATM   10 CL   UNL     1     -13.643  13.795  72.423  1.00  0.00    -0.640 Cl 
HETATM   11  C   UNL     1     -12.401  12.715  70.210  1.00  0.00    -0.195 A  
HETATM   12  C   UNL     1     -13.121  11.215  71.995  1.00  0.00    -0.433 A  
HETATM   13 CL   UNL     1     -12.292  14.330  69.586  1.00  0.00    -0.356 Cl 
HETATM   14  C   UNL     1     -13.006  12.503  71.463  1.00  0.00    -0.280 A  
BRANCH   9  15
HETATM   15  S   UNL     1     -11.125  11.781  67.932  1.00  0.00    -0.267 S  
HETATM   16  O   UNL     1     -12.094  12.215  66.957  1.00  0.00    -0.591 OA 
HETATM   17  H2  UNL     1     -10.829   9.360  68.090  1.00  0.00     0.000 HD 
HETATM   18  H1  UNL     1     -10.223  10.313  66.642  1.00  0.00     0.000 HD 
HETATM   19  O   UNL     1      -9.873  12.483  68.124  1.00  0.00    -0.211 OA 
HETATM   20  N   UNL     1     -10.679  10.212  67.548  1.00  0.00    -0.277 N  
ENDBRANCH   9  15
ENDBRANCH   2   7
TORSDOF 2
ENDMDL
MODEL       12
REMARK 921   NORMALIZED FREE ENERGY PREDICTED BY IDOCK:   -5.62 KCAL/MOL
REMARK 922        TOTAL FREE ENERGY PREDICTED BY IDOCK:   -6.24 KCAL/MOL
REMARK 923 INTER-LIGAND FREE ENERGY PREDICTED BY IDOCK:   -6.02 KCAL/MOL
REMARK 924 INTRA-LIGAND FREE ENERGY PREDICTED BY IDOCK:   -0.22 KCAL/MOL
REMARK 927      BINDING AFFINITY PREDICTED BY RF-SCORE:    0.00 PKD
ROOT
HETATM    1  N   UNL     1     -12.254   7.467  70.485  1.00  0.00    -0.525 N  
HETATM    2  S   UNL     1     -12.715   8.372  71.818  1.00  0.00    -0.355 S  
HETATM    3  H1  UNL     1     -11.265   7.661  70.327  1.00  0.00     0.000 HD 
HETATM    4  H2  UNL     1     -12.847   6.845  69.937  1.00  0.00     0.000 HD 
HETATM    5  O   UNL     1     -11.705   8.150  72.826  1.00  0.00    -0.403 OA 
HETATM    6  O   UNL     1     -14.113   8.098  72.040  1.00  0.00    -0.375 OA 
ENDROOT
BRANCH   2   7
HETATM    7  C   UNL     1     -12.545  10.020  71.197  1.00  0.00    -0.381 A  
HETATM    8  C   UNL     1     -11.950  10.250  69.957  1.00  0.00    -0.273 A  
HETATM    9  C   UNL     1     -11.832  11.568  69.479  1.00  0.00    -0.351 A  
HETATM   10 CL   UNL     1     -13.548  13.643  72.490  1.00  0.00    -0.672 Cl 
HETATM   11  C   UNL     1     -12.310  12.651  70.234  1.00  0.00    -0.195 A  
HETATM   12  C   UNL     1     -13.039  11.081  71.953  1.00  0.00    -0.525 A  
HETATM   13 CL   UNL     1     -12.192  14.290  69.677  1.00  0.00    -0.380 Cl 
HETATM   14  C   UNL     1     -12.917  12.390  71.476  1.00  0.00    -0.285 A  
BRANCH   9  15
HETATM   15  S   UNL     1     -11.038  11.806  67.919  1.00  0.00    -0.267 S  
HETATM   16  O   UNL     1     -12.014  12.241  66.950  1.00  0.00    -0.578 OA 
HETATM   17  H2  UNL     1     -10.680   9.390  68.015  1.00  0.00     0.000 HD 
HETATM   18  H1  UNL     1     -10.092  10.397  66.596  1.00  0.00     0.000 HD 
HETATM   19  O   UNL     1      -9.806  12.535  68.135  1.00  0.00    -0.211 OA 
HETATM   20  N   UNL     1     -10.550  10.260  67.496  1.00  0.00    -0.248 N  
ENDBRANCH   9  15
ENDBRANCH   2   7
TORSDOF 2
ENDMDL
MODEL       13
REMARK 921   NORMALIZED FREE ENERGY PREDICTED BY IDOCK:   -5.56 KCAL/MOL
REMARK 922        TOTAL FREE ENERGY PREDICTED BY IDOCK:   -6.18 KCAL/MOL
REMARK 923 INTER-LIGAND FREE ENERGY PREDICTED BY IDOCK:   -5.96 KCAL/MOL
REMARK 924 INTRA-LIGAND FREE ENERGY PREDICTED BY IDOCK:   -0.21 KCAL/MOL
REMARK 927      BINDING AFFINITY PREDICTED BY RF-SCORE:    0.00 PKD
ROOT
HETATM    1  N   UNL     1     -12.468  14.748  73.459  1.00  0.00    -0.434 N  
HETATM    2  S   UNL     1     -13.655  14.483  72.306  1.00  0.00    -0.487 S  
HETATM    3  H1  UNL     1     -12.039  15.646  73.236  1.00  0.00     0.000 HD 
HETATM    4  H2  UNL     1     -12.223  14.132  74.233  1.00  0.00     0.000 HD 
HETATM    5  O   UNL     1     -14.411  15.709  72.215  1.00  0.00    -0.539 OA 
HETATM    6  O   UNL     1     -14.262  13.213  72.622  1.00  0.00    -0.677 OA 
ENDROOT
BRANCH   2   7
HETATM    7  C   UNL     1     -12.682  14.305  70.839  1.00  0.00    -0.357 A  
HETATM    8  C   UNL     1     -12.327  13.037  70.377  1.00  0.00    -0.351 A  
HETATM    9  C   UNL     1     -11.560  12.918  69.204  1.00  0.00    -0.322 A  
HETATM   10 CL   UNL     1     -11.098  16.798  68.178  1.00  0.00    -0.326 Cl 
HETATM   11  C   UNL     1     -11.154  14.058  68.492  1.00  0.00    -0.257 A  
HETATM   12  C   UNL     1     -12.301  15.447  70.138  1.00  0.00    -0.395 A  
HETATM   13 CL   UNL     1     -10.215  13.955  67.037  1.00  0.00    -0.252 Cl 
HETATM   14  C   UNL     1     -11.536  15.324  68.974  1.00  0.00    -0.343 A  
BRANCH   9  15
HETATM   15  S   UNL     1     -11.108  11.292  68.682  1.00  0.00    -0.258 S  
HETATM   16  O   UNL     1     -11.836  10.956  67.484  1.00  0.00    -0.524 OA 
HETATM   17  H2  UNL     1     -12.171  10.597  70.770  1.00  0.00     0.000 HD 
HETATM   18  H1  UNL     1     -11.419   9.380  69.619  1.00  0.00     0.000 HD 
HETATM   19  O   UNL     1      -9.667  11.169  68.753  1.00  0.00    -0.197 OA 
HETATM   20  N   UNL     1     -11.680  10.319  69.920  1.00  0.00    -0.245 N  
ENDBRANCH   9  15
ENDBRANCH   2   7
TORSDOF 2
ENDMDL
MODEL       14
REMARK 921   NORMALIZED FREE ENERGY PREDICTED BY IDOCK:   -5.54 KCAL/MOL
REMARK 922        TOTAL FREE ENERGY PREDICTED BY IDOCK:   -6.16 KCAL/MOL
REMARK 923 INTER-LIGAND FREE ENERGY PREDICTED BY IDOCK:   -6.18 KCAL/MOL
REMARK 924 INTRA-LIGAND FREE ENERGY PREDICTED BY IDOCK:    0.02 KCAL/MOL
REMARK 927      BINDING AFFINITY PREDICTED BY RF-SCORE:    0.00 PKD
ROOT
HETATM    1  N   UNL     1     -13.350   7.841  70.804  1.00  0.00    -0.372 N  
HETATM    2  S   UNL     1     -13.072   8.896  72.074  1.00  0.00    -0.434 S  
HETATM    3  H1  UNL     1     -12.462   7.735  70.312  1.00  0.00     0.000 HD 
HETATM    4  H2  UNL     1     -14.234   7.391  70.567  1.00  0.00     0.000 HD 
HETATM    5  O   UNL     1     -11.868   8.438  72.726  1.00  0.00    -0.371 OA 
HETATM    6  O   UNL     1     -14.327   9.046  72.769  1.00  0.00    -0.596 OA 
ENDROOT
BRANCH   2   7
HETATM    7  C   UNL     1     -12.713  10.398  71.209  1.00  0.00    -0.432 A  
HETATM    8  C   UNL     1     -12.956  11.633  71.808  1.00  0.00    -0.483 A  
HETATM    9  C   UNL     1     -12.656  12.815  71.105  1.00  0.00    -0.271 A  
HETATM   10 CL   UNL     1     -11.188  11.315  67.654  1.00  0.00    -0.336 Cl 
HETATM   11  C   UNL     1     -12.110  12.763  69.813  1.00  0.00    -0.237 A  
HETATM   12  C   UNL     1     -12.157  10.326  69.933  1.00  0.00    -0.178 A  
HETATM   13 CL   UNL     1     -11.718  14.194  68.916  1.00  0.00    -0.348 Cl 
HETATM   14  C   UNL     1     -11.863  11.502  69.237  1.00  0.00    -0.348 A  
BRANCH   9  15
HETATM   15  S   UNL     1     -13.019  14.353  71.896  1.00  0.00    -0.371 S  
HETATM   16  O   UNL     1     -13.902  15.122  71.056  1.00  0.00    -0.422 OA 
HETATM   17  H2  UNL     1     -10.637  14.794  71.571  1.00  0.00     0.000 HD 
HETATM   18  H1  UNL     1     -11.743  16.016  72.380  1.00  0.00     0.000 HD 
HETATM   19  O   UNL     1     -13.327  14.095  73.287  1.00  0.00    -0.567 OA 
HETATM   20  N   UNL     1     -11.534  15.128  71.925  1.00  0.00    -0.417 N  
ENDBRANCH   9  15
ENDBRANCH   2   7
TORSDOF 2
ENDMDL
MODEL       15
REMARK 921   NORMALIZED FREE ENERGY PREDICTED BY IDOCK:   -5.53 KCAL/MOL
REMARK 922        TOTAL FREE ENERGY PREDICTED BY IDOCK:   -6.14 KCAL/MOL
REMARK 923 INTER-LIGAND FREE ENERGY PREDICTED BY IDOCK:   -5.99 KCAL/MOL
REMARK 924 INTRA-LIGAND FREE ENERGY PREDICTED BY IDOCK:   -0.16 KCAL/MOL
REMARK 927      BINDING AFFINITY PREDICTED BY RF-SCORE:    0.00 PKD
ROOT
HETATM    1  N   UNL     1     -11.026   9.444  67.525  1.00  0.00    -0.445 N  
HETATM    2  S   UNL     1     -10.599  11.063  67.482  1.00  0.00    -0.244 S  
HETATM    3  H1  UNL     1     -12.037   9.404  67.390  1.00  0.00     0.000 HD 
HETATM    4  H2  UNL     1     -10.399   8.652  67.661  1.00  0.00     0.000 HD 
HETATM    5  O   UNL     1     -11.255  11.624  66.324  1.00  0.00    -0.310 OA 
HETATM    6  O   UNL     1      -9.170  11.120  67.673  1.00  0.00    -0.148 OA 
ENDROOT
BRANCH   2   7
HETATM    7  C   UNL     1     -11.397  11.674  68.938  1.00  0.00    -0.267 A  
HETATM    8  C   UNL     1     -11.499  13.047  69.164  1.00  0.00    -0.353 A  
HETATM    9  C   UNL     1     -12.145  13.511  70.325  1.00  0.00    -0.355 A  
HETATM   10 CL   UNL     1     -13.223  10.027  72.062  1.00  0.00    -0.551 Cl 
HETATM   11  C   UNL     1     -12.690  12.610  71.253  1.00  0.00    -0.257 A  
HETATM   12  C   UNL     1     -11.946  10.765  69.840  1.00  0.00    -0.418 A  
HETATM   13 CL   UNL     1     -13.501  13.140  72.692  1.00  0.00    -0.566 Cl 
HETATM   14  C   UNL     1     -12.584  11.230  70.994  1.00  0.00    -0.394 A  
BRANCH   9  15
HETATM   15  S   UNL     1     -12.214  15.258  70.581  1.00  0.00    -0.399 S  
HETATM   16  O   UNL     1     -13.588  15.659  70.751  1.00  0.00    -0.524 OA 
HETATM   17  H2  UNL     1     -11.376  15.375  68.289  1.00  0.00     0.000 HD 
HETATM   18  H1  UNL     1     -11.714  16.889  69.271  1.00  0.00     0.000 HD 
HETATM   19  O   UNL     1     -11.193  15.624  71.540  1.00  0.00    -0.374 OA 
HETATM   20  N   UNL     1     -11.673  15.881  69.123  1.00  0.00    -0.380 N  
ENDBRANCH   9  15
ENDBRANCH   2   7
TORSDOF 2
ENDMDL
MODEL       16
REMARK 921   NORMALIZED FREE ENERGY PREDICTED BY IDOCK:   -5.51 KCAL/MOL
REMARK 922        TOTAL FREE ENERGY PREDICTED BY IDOCK:   -6.13 KCAL/MOL
REMARK 923 INTER-LIGAND FREE ENERGY PREDICTED BY IDOCK:   -6.00 KCAL/MOL
REMARK 924 INTRA-LIGAND FREE ENERGY PREDICTED BY IDOCK:   -0.13 KCAL/MOL
REMARK 927      BINDING AFFINITY PREDICTED BY RF-SCORE:    0.00 PKD
ROOT
HETATM    1  N   UNL     1     -10.667  18.694  67.229  1.00  0.00    -0.424 N  
HETATM    2  S   UNL     1     -10.197  17.628  66.025  1.00  0.00    -0.227 S  
HETATM    3  H1  UNL     1     -10.081  18.496  68.040  1.00  0.00     0.000 HD 
HETATM    4  H2  UNL     1     -11.397  19.402  67.165  1.00  0.00     0.000 HD 
HETATM    5  O   UNL     1      -8.755  17.681  65.978  1.00  0.00    -0.499 OA 
HETATM    6  O   UNL     1     -11.026  17.908  64.879  1.00  0.00    -0.827 OA 
ENDROOT
BRANCH   2   7
HETATM    7  C   UNL     1     -10.686  16.076  66.721  1.00  0.00    -0.259 A  
HETATM    8  C   UNL     1     -10.758  14.936  65.922  1.00  0.00    -0.329 A  
HETATM    9  C   UNL     1     -11.141  13.711  66.498  1.00  0.00    -0.305 A  
HETATM   10 CL   UNL     1     -11.700  14.800  70.347  1.00  0.00    -0.328 Cl 
HETATM   11  C   UNL     1     -11.446  13.624  67.866  1.00  0.00    -0.314 A  
HETATM   12  C   UNL     1     -10.970  16.007  68.084  1.00  0.00    -0.339 A  
HETATM   13 CL   UNL     1     -11.915  12.132  68.616  1.00  0.00    -0.348 Cl 
HETATM   14  C   UNL     1     -11.354  14.788  68.651  1.00  0.00    -0.285 A  
BRANCH   9  15
HETATM   15  S   UNL     1     -11.251  12.304  65.434  1.00  0.00    -0.338 S  
HETATM   16  O   UNL     1     -10.467  11.228  65.987  1.00  0.00    -0.245 OA 
HETATM   17  H2  UNL     1     -10.072  13.732  63.839  1.00  0.00     0.000 HD 
HETATM   18  H1  UNL     1     -10.557  12.011  63.419  1.00  0.00     0.000 HD 
HETATM   19  O   UNL     1     -12.637  12.118  65.058  1.00  0.00    -0.514 OA 
HETATM   20  N   UNL     1     -10.494  12.823  64.032  1.00  0.00    -0.420 N  
ENDBRANCH   9  15
ENDBRANCH   2   7
TORSDOF 2
ENDMDL
MODEL       17
REMARK 921   NORMALIZED FREE ENERGY PREDICTED BY IDOCK:   -5.46 KCAL/MOL
REMARK 922        TOTAL FREE ENERGY PREDICTED BY IDOCK:   -6.07 KCAL/MOL
REMARK 923 INTER-LIGAND FREE ENERGY PREDICTED BY IDOCK:   -5.94 KCAL/MOL
REMARK 924 INTRA-LIGAND FREE ENERGY PREDICTED BY IDOCK:   -0.13 KCAL/MOL
REMARK 927      BINDING AFFINITY PREDICTED BY RF-SCORE:    0.00 PKD
ROOT
HETATM    1  N   UNL     1     -11.506   8.446  69.845  1.00  0.00    -0.444 N  
HETATM    2  S   UNL     1     -12.117   9.384  71.091  1.00  0.00    -0.334 S  
HETATM    3  H1  UNL     1     -10.533   8.723  69.720  1.00  0.00     0.000 HD 
HETATM    4  H2  UNL     1     -12.010   7.736  69.314  1.00  0.00     0.000 HD 
HETATM    5  O   UNL     1     -11.146   9.324  72.157  1.00  0.00    -0.247 OA 
HETATM    6  O   UNL     1     -13.494   8.993  71.267  1.00  0.00    -0.301 OA 
ENDROOT
BRANCH   2   7
HETATM    7  C   UNL     1     -12.068  10.999  70.369  1.00  0.00    -0.373 A  
HETATM    8  C   UNL     1     -12.312  12.129  71.149  1.00  0.00    -0.265 A  
HETATM    9  C   UNL     1     -12.260  13.404  70.556  1.00  0.00    -0.352 A  
HETATM   10 CL   UNL     1     -11.321  12.452  66.745  1.00  0.00    -0.367 Cl 
HETATM   11  C   UNL     1     -11.960  13.550  69.192  1.00  0.00    -0.333 A  
HETATM   12  C   UNL     1     -11.754  11.126  69.017  1.00  0.00    -0.408 A  
HETATM   13 CL   UNL     1     -11.878  15.104  68.425  1.00  0.00    -0.330 Cl 
HETATM   14  C   UNL     1     -11.706  12.394  68.431  1.00  0.00    -0.336 A  
BRANCH   9  15
HETATM   15  S   UNL     1     -12.613  14.799  71.581  1.00  0.00    -0.349 S  
HETATM   16  O   UNL     1     -11.375  15.415  71.989  1.00  0.00    -0.432 OA 
HETATM   17  H2  UNL     1     -13.497  13.125  73.126  1.00  0.00     0.000 HD 
HETATM   18  H1  UNL     1     -13.519  14.916  73.529  1.00  0.00     0.000 HD 
HETATM   19  O   UNL     1     -13.675  15.567  70.965  1.00  0.00    -0.546 OA 
HETATM   20  N   UNL     1     -13.316  14.111  72.937  1.00  0.00    -0.520 N  
ENDBRANCH   9  15
ENDBRANCH   2   7
TORSDOF 2
ENDMDL
MODEL       18
REMARK 921   NORMALIZED FREE ENERGY PREDICTED BY IDOCK:   -5.46 KCAL/MOL
REMARK 922        TOTAL FREE ENERGY PREDICTED BY IDOCK:   -6.07 KCAL/MOL
REMARK 923 INTER-LIGAND FREE ENERGY PREDICTED BY IDOCK:   -6.07 KCAL/MOL
REMARK 924 INTRA-LIGAND FREE ENERGY PREDICTED BY IDOCK:    0.01 KCAL/MOL
REMARK 927      BINDING AFFINITY PREDICTED BY RF-SCORE:    0.00 PKD
ROOT
HETATM    1  N   UNL     1      -9.790  18.480  67.831  1.00  0.00    -0.311 N  
HETATM    2  S   UNL     1      -9.537  18.068  66.227  1.00  0.00    -0.187 S  
HETATM    3  H1  UNL     1      -8.987  18.127  68.354  1.00  0.00     0.000 HD 
HETATM    4  H2  UNL     1     -10.590  18.984  68.213  1.00  0.00     0.000 HD 
HETATM    5  O   UNL     1      -8.179  18.448  65.921  1.00  0.00    -0.505 OA 
HETATM    6  O   UNL     1     -10.673  18.566  65.489  1.00  0.00    -0.586 OA 
ENDROOT
BRANCH   2   7
HETATM    7  C   UNL     1      -9.631  16.302  66.301  1.00  0.00    -0.308 A  
HETATM    8  C   UNL     1     -10.545  15.610  65.507  1.00  0.00    -0.422 A  
HETATM    9  C   UNL     1     -10.597  14.206  65.575  1.00  0.00    -0.326 A  
HETATM   10 CL   UNL     1      -7.705  13.451  68.293  1.00  0.00    -0.132 Cl 
HETATM   11  C   UNL     1      -9.738  13.496  66.429  1.00  0.00    -0.289 A  
HETATM   12  C   UNL     1      -8.760  15.614  67.143  1.00  0.00    -0.233 A  
HETATM   13 CL   UNL     1      -9.764  11.765  66.537  1.00  0.00    -0.216 Cl 
HETATM   14  C   UNL     1      -8.817  14.219  67.210  1.00  0.00    -0.214 A  
BRANCH   9  15
HETATM   15  S   UNL     1     -11.798  13.381  64.575  1.00  0.00    -0.420 S  
HETATM   16  O   UNL     1     -12.564  12.479  65.399  1.00  0.00    -0.656 OA 
HETATM   17  H2  UNL     1      -9.846  12.388  63.491  1.00  0.00     0.000 HD 
HETATM   18  H1  UNL     1     -11.556  11.981  62.960  1.00  0.00     0.000 HD 
HETATM   19  O   UNL     1     -12.439  14.360  63.723  1.00  0.00    -0.814 OA 
HETATM   20  N   UNL     1     -10.863  12.457  63.536  1.00  0.00    -0.454 N  
ENDBRANCH   9  15
ENDBRANCH   2   7
TORSDOF 2
ENDMDL
MODEL       19
REMARK 921   NORMALIZED FREE ENERGY PREDICTED BY IDOCK:   -5.44 KCAL/MOL
REMARK 922        TOTAL FREE ENERGY PREDICTED BY IDOCK:   -6.05 KCAL/MOL
REMARK 923 INTER-LIGAND FREE ENERGY PREDICTED BY IDOCK:   -6.51 KCAL/MOL
REMARK 924 INTRA-LIGAND FREE ENERGY PREDICTED BY IDOCK:    0.46 KCAL/MOL
REMARK 927      BINDING AFFINITY PREDICTED BY RF-SCORE:    0.00 PKD
ROOT
HETATM    1  N   UNL     1     -10.750  18.814  66.854  1.00  0.00    -0.390 N  
HETATM    2  S   UNL     1     -10.299  17.451  65.991  1.00  0.00    -0.226 S  
HETATM    3  H1  UNL     1     -10.157  18.845  67.683  1.00  0.00     0.000 HD 
HETATM    4  H2  UNL     1     -11.477  19.483  66.600  1.00  0.00     0.000 HD 
HETATM    5  O   UNL     1      -8.858  17.476  65.919  1.00  0.00    -0.525 OA 
HETATM    6  O   UNL     1     -11.138  17.406  64.819  1.00  0.00    -0.973 OA 
ENDROOT
BRANCH   2   7
HETATM    7  C   UNL     1     -10.790  16.159  67.097  1.00  0.00    -0.216 A  
HETATM    8  C   UNL     1     -10.926  14.849  66.637  1.00  0.00    -0.325 A  
HETATM    9  C   UNL     1     -11.310  13.837  67.535  1.00  0.00    -0.309 A  
HETATM   10 CL   UNL     1     -11.662  15.934  70.969  1.00  0.00    -0.436 Cl 
HETATM   11  C   UNL     1     -11.552  14.129  68.886  1.00  0.00    -0.310 A  
HETATM   12  C   UNL     1     -11.012  16.466  68.438  1.00  0.00    -0.353 A  
HETATM   13 CL   UNL     1     -12.019  12.909  70.028  1.00  0.00    -0.410 Cl 
HETATM   14  C   UNL     1     -11.396  15.457  69.326  1.00  0.00    -0.315 A  
BRANCH   9  15
HETATM   15  S   UNL     1     -11.502  12.202  66.893  1.00  0.00    -0.338 S  
HETATM   16  O   UNL     1     -12.010  11.340  67.930  1.00  0.00    -0.630 OA 
HETATM   17  H2  UNL     1      -9.067  12.262  66.697  1.00  0.00     0.000 HD 
HETATM   18  H1  UNL     1     -10.039  10.788  66.191  1.00  0.00     0.000 HD 
HETATM   19  O   UNL     1     -12.142  12.288  65.597  1.00  0.00    -0.557 OA 
HETATM   20  N   UNL     1      -9.928  11.732  66.561  1.00  0.00    -0.200 N  
ENDBRANCH   9  15
ENDBRANCH   2   7
TORSDOF 2
ENDMDL
MODEL       20
REMARK 921   NORMALIZED FREE ENERGY PREDICTED BY IDOCK:   -5.42 KCAL/MOL
REMARK 922        TOTAL FREE ENERGY PREDICTED BY IDOCK:   -6.02 KCAL/MOL
REMARK 923 INTER-LIGAND FREE ENERGY PREDICTED BY IDOCK:   -6.13 KCAL/MOL
REMARK 924 INTRA-LIGAND FREE ENERGY PREDICTED BY IDOCK:    0.11 KCAL/MOL
REMARK 927      BINDING AFFINITY PREDICTED BY RF-SCORE:    0.00 PKD
ROOT
HETATM    1  N   UNL     1     -10.150  11.432  69.525  1.00  0.00    -0.393 N  
HETATM    2  S   UNL     1     -11.749  11.842  69.240  1.00  0.00    -0.347 S  
HETATM    3  H1  UNL     1      -9.694  12.267  69.893  1.00  0.00     0.000 HD 
HETATM    4  H2  UNL     1      -9.715  10.524  69.361  1.00  0.00     0.000 HD 
HETATM    5  O   UNL     1     -12.209  12.524  70.425  1.00  0.00    -0.348 OA 
HETATM    6  O   UNL     1     -12.392  10.661  68.719  1.00  0.00    -0.349 OA 
ENDROOT
BRANCH   2   7
HETATM    7  C   UNL     1     -11.579  13.025  67.934  1.00  0.00    -0.342 A  
HETATM    8  C   UNL     1     -11.748  12.639  66.605  1.00  0.00    -0.464 A  
HETATM    9  C   UNL     1     -11.616  13.597  65.584  1.00  0.00    -0.328 A  
HETATM   10 CL   UNL     1     -10.809  16.920  67.734  1.00  0.00    -0.323 Cl 
HETATM   11  C   UNL     1     -11.321  14.936  65.888  1.00  0.00    -0.306 A  
HETATM   12  C   UNL     1     -11.301  14.352  68.257  1.00  0.00    -0.311 A  
HETATM   13 CL   UNL     1     -11.158  16.149  64.660  1.00  0.00    -0.421 Cl 
HETATM   14  C   UNL     1     -11.168  15.300  67.239  1.00  0.00    -0.306 A  
BRANCH   9  15
HETATM   15  S   UNL     1     -11.805  13.047  63.915  1.00  0.00    -0.504 S  
HETATM   16  O   UNL     1     -12.481  14.067  63.152  1.00  0.00    -0.733 OA 
HETATM   17  H2  UNL     1     -13.263  11.353  64.902  1.00  0.00     0.000 HD 
HETATM   18  H1  UNL     1     -12.951  11.422  63.093  1.00  0.00     0.000 HD 
HETATM   19  O   UNL     1     -10.549  12.477  63.473  1.00  0.00    -0.432 OA 
HETATM   20  N   UNL     1     -12.842  11.739  64.057  1.00  0.00    -0.222 N  
ENDBRANCH   9  15
ENDBRANCH   2   7
TORSDOF 2
ENDMDL
MODEL       21
REMARK 921   NORMALIZED FREE ENERGY PREDICTED BY IDOCK:   -5.39 KCAL/MOL
REMARK 922        TOTAL FREE ENERGY PREDICTED BY IDOCK:   -5.99 KCAL/MOL
REMARK 923 INTER-LIGAND FREE ENERGY PREDICTED BY IDOCK:   -5.80 KCAL/MOL
REMARK 924 INTRA-LIGAND FREE ENERGY PREDICTED BY IDOCK:   -0.19 KCAL/MOL
REMARK 927      BINDING AFFINITY PREDICTED BY RF-SCORE:    0.00 PKD
ROOT
HETATM    1  N   UNL     1     -13.264  10.028  70.210  1.00  0.00    -0.509 N  
HETATM    2  S   UNL     1     -11.827  10.888  70.265  1.00  0.00    -0.387 S  
HETATM    3  H1  UNL     1     -13.022   9.070  69.956  1.00  0.00     0.000 HD 
HETATM    4  H2  UNL     1     -14.198  10.391  70.395  1.00  0.00     0.000 HD 
HETATM    5  O   UNL     1     -10.904  10.086  71.032  1.00  0.00    -0.298 OA 
HETATM    6  O   UNL     1     -12.169  12.243  70.625  1.00  0.00    -0.371 OA 
ENDROOT
BRANCH   2   7
HETATM    7  C   UNL     1     -11.334  10.853  68.565  1.00  0.00    -0.299 A  
HETATM    8  C   UNL     1     -11.659  11.910  67.715  1.00  0.00    -0.393 A  
HETATM    9  C   UNL     1     -11.251  11.865  66.369  1.00  0.00    -0.331 A  
HETATM   10 CL   UNL     1      -9.288   8.336  66.268  1.00  0.00    -0.260 Cl 
HETATM   11  C   UNL     1     -10.517  10.774  65.877  1.00  0.00    -0.204 A  
HETATM   12  C   UNL     1     -10.594   9.769  68.099  1.00  0.00    -0.276 A  
HETATM   13 CL   UNL     1      -9.987  10.684  64.228  1.00  0.00    -0.394 Cl 
HETATM   14  C   UNL     1     -10.192   9.728  66.760  1.00  0.00    -0.233 A  
BRANCH   9  15
HETATM   15  S   UNL     1     -11.720  13.211  65.325  1.00  0.00    -0.366 S  
HETATM   16  O   UNL     1     -10.535  13.844  64.804  1.00  0.00    -0.408 OA 
HETATM   17  H2  UNL     1     -12.589  14.184  67.392  1.00  0.00     0.000 HD 
HETATM   18  H1  UNL     1     -12.720  15.061  65.784  1.00  0.00     0.000 HD 
HETATM   19  O   UNL     1     -12.790  12.769  64.455  1.00  0.00    -0.701 OA 
HETATM   20  N   UNL     1     -12.449  14.284  66.387  1.00  0.00    -0.374 N  
ENDBRANCH   9  15
ENDBRANCH   2   7
TORSDOF 2
ENDMDL
MODEL       22
REMARK 921   NORMALIZED FREE ENERGY PREDICTED BY IDOCK:   -5.38 KCAL/MOL
REMARK 922        TOTAL FREE ENERGY PREDICTED BY IDOCK:   -5.97 KCAL/MOL
REMARK 923 INTER-LIGAND FREE ENERGY PREDICTED BY IDOCK:   -5.75 KCAL/MOL
REMARK 924 INTRA-LIGAND FREE ENERGY PREDICTED BY IDOCK:   -0.22 KCAL/MOL
REMARK 927      BINDING AFFINITY PREDICTED BY RF-SCORE:    0.00 PKD
ROOT
HETATM    1  N   UNL     1     -12.297  14.218  63.402  1.00  0.00    -1.126 N  
HETATM    2  S   UNL     1     -11.962  12.651  63.892  1.00  0.00    -0.525 S  
HETATM    3  H1  UNL     1     -11.456  14.767  63.582  1.00  0.00     0.000 HD 
HETATM    4  H2  UNL     1     -13.171  14.557  63.002  1.00  0.00     0.000 HD 
HETATM    5  O   UNL     1     -10.676  12.317  63.329  1.00  0.00    -0.427 OA 
HETATM    6  O   UNL     1     -13.151  11.875  63.637  1.00  0.00    -0.696 OA 
ENDROOT
BRANCH   2   7
HETATM    7  C   UNL     1     -11.780  12.864  65.640  1.00  0.00    -0.387 A  
HETATM    8  C   UNL     1     -11.458  11.777  66.453  1.00  0.00    -0.309 A  
HETATM    9  C   UNL     1     -11.310  11.970  67.839  1.00  0.00    -0.305 A  
HETATM   10 CL   UNL     1     -12.012  15.935  68.152  1.00  0.00    -0.001 Cl 
HETATM   11  C   UNL     1     -11.477  13.242  68.409  1.00  0.00    -0.314 A  
HETATM   12  C   UNL     1     -11.934  14.136  66.185  1.00  0.00    -0.437 A  
HETATM   13 CL   UNL     1     -11.295  13.524  70.111  1.00  0.00    -0.059 Cl 
HETATM   14  C   UNL     1     -11.789  14.323  67.563  1.00  0.00    -0.395 A  
BRANCH   9  15
HETATM   15  S   UNL     1     -10.939  10.553  68.828  1.00  0.00    -0.269 S  
HETATM   16  O   UNL     1      -9.637  10.719  69.425  1.00  0.00    -0.151 OA 
HETATM   17  H2  UNL     1     -10.956   9.368  66.691  1.00  0.00     0.000 HD 
HETATM   18  H1  UNL     1     -10.619   8.499  68.274  1.00  0.00     0.000 HD 
HETATM   19  O   UNL     1     -12.104  10.229  69.625  1.00  0.00    -0.147 OA 
HETATM   20  N   UNL     1     -10.834   9.316  67.703  1.00  0.00    -0.202 N  
ENDBRANCH   9  15
ENDBRANCH   2   7
TORSDOF 2
ENDMDL
MODEL       23
REMARK 921   NORMALIZED FREE ENERGY PREDICTED BY IDOCK:   -5.37 KCAL/MOL
REMARK 922        TOTAL FREE ENERGY PREDICTED BY IDOCK:   -5.97 KCAL/MOL
REMARK 923 INTER-LIGAND FREE ENERGY PREDICTED BY IDOCK:   -5.89 KCAL/MOL
REMARK 924 INTRA-LIGAND FREE ENERGY PREDICTED BY IDOCK:   -0.08 KCAL/MOL
REMARK 927      BINDING AFFINITY PREDICTED BY RF-SCORE:    0.00 PKD
ROOT
HETATM    1  N   UNL     1     -12.562  13.850  63.090  1.00  0.00    -0.976 N  
HETATM    2  S   UNL     1     -12.153  14.020  64.705  1.00  0.00    -0.450 S  
HETATM    3  H1  UNL     1     -13.226  13.077  63.035  1.00  0.00     0.000 HD 
HETATM    4  H2  UNL     1     -12.215  14.410  62.311  1.00  0.00     0.000 HD 
HETATM    5  O   UNL     1     -13.394  14.004  65.441  1.00  0.00    -0.721 OA 
HETATM    6  O   UNL     1     -11.214  15.112  64.782  1.00  0.00    -0.394 OA 
ENDROOT
BRANCH   2   7
HETATM    7  C   UNL     1     -11.293  12.503  65.009  1.00  0.00    -0.313 A  
HETATM    8  C   UNL     1     -11.232  11.972  66.297  1.00  0.00    -0.394 A  
HETATM    9  C   UNL     1     -10.550  10.761  66.515  1.00  0.00    -0.218 A  
HETATM   10 CL   UNL     1      -9.313   9.881  62.772  1.00  0.00    -0.294 Cl 
HETATM   11  C   UNL     1      -9.936  10.080  65.451  1.00  0.00    -0.294 A  
HETATM   12  C   UNL     1     -10.704  11.834  63.938  1.00  0.00    -0.457 A  
HETATM   13 CL   UNL     1      -9.093   8.581  65.675  1.00  0.00    -0.219 Cl 
HETATM   14  C   UNL     1     -10.024  10.632  64.159  1.00  0.00    -0.342 A  
BRANCH   9  15
HETATM   15  S   UNL     1     -10.471  10.151  68.171  1.00  0.00    -0.222 S  
HETATM   16  O   UNL     1     -10.855   8.762  68.185  1.00  0.00    -0.120 OA 
HETATM   17  H2  UNL     1     -12.290  11.733  68.574  1.00  0.00     0.000 HD 
HETATM   18  H1  UNL     1     -11.621  10.670  69.914  1.00  0.00     0.000 HD 
HETATM   19  O   UNL     1      -9.232  10.602  68.770  1.00  0.00    -0.164 OA 
HETATM   20  N   UNL     1     -11.667  11.022  68.958  1.00  0.00    -0.312 N  
ENDBRANCH   9  15
ENDBRANCH   2   7
TORSDOF 2
ENDMDL
MODEL       24
REMARK 921   NORMALIZED FREE ENERGY PREDICTED BY IDOCK:   -5.30 KCAL/MOL
REMARK 922        TOTAL FREE ENERGY PREDICTED BY IDOCK:   -5.89 KCAL/MOL
REMARK 923 INTER-LIGAND FREE ENERGY PREDICTED BY IDOCK:   -5.75 KCAL/MOL
REMARK 924 INTRA-LIGAND FREE ENERGY PREDICTED BY IDOCK:   -0.14 KCAL/MOL
REMARK 927      BINDING AFFINITY PREDICTED BY RF-SCORE:    0.00 PKD
ROOT
HETATM    1  N   UNL     1     -10.443  18.175  69.143  1.00  0.00    -0.386 N  
HETATM    2  S   UNL     1     -10.085  16.712  68.409  1.00  0.00    -0.285 S  
HETATM    3  H1  UNL     1     -10.013  18.151  70.068  1.00  0.00     0.000 HD 
HETATM    4  H2  UNL     1     -10.985  18.941  68.744  1.00  0.00     0.000 HD 
HETATM    5  O   UNL     1      -8.673  16.494  68.607  1.00  0.00    -0.222 OA 
HETATM    6  O   UNL     1     -10.694  16.746  67.101  1.00  0.00    -0.287 OA 
ENDROOT
BRANCH   2   7
HETATM    7  C   UNL     1     -10.984  15.580  69.430  1.00  0.00    -0.276 A  
HETATM    8  C   UNL     1     -11.502  15.994  70.657  1.00  0.00    -0.427 A  
HETATM    9  C   UNL     1     -12.219  15.080  71.450  1.00  0.00    -0.328 A  
HETATM   10 CL   UNL     1     -12.094  11.774  69.131  1.00  0.00    -0.329 Cl 
HETATM   11  C   UNL     1     -12.424  13.760  71.017  1.00  0.00    -0.380 A  
HETATM   12  C   UNL     1     -11.189  14.278  68.978  1.00  0.00    -0.294 A  
HETATM   13 CL   UNL     1     -13.309  12.604  71.960  1.00  0.00    -0.602 Cl 
HETATM   14  C   UNL     1     -11.901  13.372  69.770  1.00  0.00    -0.326 A  
BRANCH   9  15
HETATM   15  S   UNL     1     -12.823  15.646  73.011  1.00  0.00    -0.549 S  
HETATM   16  O   UNL     1     -14.224  15.964  72.892  1.00  0.00    -0.497 OA 
HETATM   17  H2  UNL     1     -11.300  17.521  72.637  1.00  0.00     0.000 HD 
HETATM   18  H1  UNL     1     -12.338  17.407  74.148  1.00  0.00     0.000 HD 
HETATM   19  O   UNL     1     -12.331  14.759  74.045  1.00  0.00    -0.499 OA 
HETATM   20  N   UNL     1     -11.989  17.080  73.247  1.00  0.00    -0.062 N  
ENDBRANCH   9  15
ENDBRANCH   2   7
TORSDOF 2
ENDMDL
MODEL       25
REMARK 921   NORMALIZED FREE ENERGY PREDICTED BY IDOCK:   -5.21 KCAL/MOL
REMARK 922        TOTAL FREE ENERGY PREDICTED BY IDOCK:   -5.79 KCAL/MOL
REMARK 923 INTER-LIGAND FREE ENERGY PREDICTED BY IDOCK:   -5.62 KCAL/MOL
REMARK 924 INTRA-LIGAND FREE ENERGY PREDICTED BY IDOCK:   -0.17 KCAL/MOL
REMARK 927      BINDING AFFINITY PREDICTED BY RF-SCORE:    0.00 PKD
ROOT
HETATM    1  N   UNL     1      -9.215   8.147  65.450  1.00  0.00    -0.399 N  
HETATM    2  S   UNL     1      -9.916   8.219  66.970  1.00  0.00    -0.283 S  
HETATM    3  H1  UNL     1      -8.425   8.792  65.461  1.00  0.00     0.000 HD 
HETATM    4  H2  UNL     1      -9.519   7.570  64.665  1.00  0.00     0.000 HD 
HETATM    5  O   UNL     1      -8.834   8.113  67.920  1.00  0.00    -0.130 OA 
HETATM    6  O   UNL     1     -11.033   7.306  66.954  1.00  0.00    -0.343 OA 
ENDROOT
BRANCH   2   7
HETATM    7  C   UNL     1     -10.531   9.878  66.992  1.00  0.00    -0.230 A  
HETATM    8  C   UNL     1     -10.635  10.609  65.809  1.00  0.00    -0.168 A  
HETATM    9  C   UNL     1     -11.135  11.923  65.848  1.00  0.00    -0.316 A  
HETATM   10 CL   UNL     1     -11.893  12.349  69.793  1.00  0.00    -0.401 Cl 
HETATM   11  C   UNL     1     -11.533  12.504  67.063  1.00  0.00    -0.356 A  
HETATM   12  C   UNL     1     -10.935  10.433  68.205  1.00  0.00    -0.334 A  
HETATM   13 CL   UNL     1     -12.161  14.119  67.154  1.00  0.00    -0.464 Cl 
HETATM   14  C   UNL     1     -11.428  11.740  68.240  1.00  0.00    -0.307 A  
BRANCH   9  15
HETATM   15  S   UNL     1     -11.212  12.817  64.326  1.00  0.00    -0.393 S  
HETATM   16  O   UNL     1     -12.576  12.846  63.860  1.00  0.00    -0.647 OA 
HETATM   17  H2  UNL     1      -9.862  10.971  63.464  1.00  0.00     0.000 HD 
HETATM   18  H1  UNL     1     -10.375  12.373  62.394  1.00  0.00     0.000 HD 
HETATM   19  O   UNL     1     -10.431  14.029  64.462  1.00  0.00    -0.424 OA 
HETATM   20  N   UNL     1     -10.330  11.857  63.272  1.00  0.00    -0.426 N  
ENDBRANCH   9  15
ENDBRANCH   2   7
TORSDOF 2
ENDMDL
MODEL       26
REMARK 921   NORMALIZED FREE ENERGY PREDICTED BY IDOCK:   -5.19 KCAL/MOL
REMARK 922        TOTAL FREE ENERGY PREDICTED BY IDOCK:   -5.77 KCAL/MOL
REMARK 923 INTER-LIGAND FREE ENERGY PREDICTED BY IDOCK:   -5.94 KCAL/MOL
REMARK 924 INTRA-LIGAND FREE ENERGY PREDICTED BY IDOCK:    0.17 KCAL/MOL
REMARK 927      BINDING AFFINITY PREDICTED BY RF-SCORE:    0.00 PKD
ROOT
HETATM    1  N   UNL     1     -10.160  10.670  66.768  1.00  0.00    -0.216 N  
HETATM    2  S   UNL     1     -10.939  12.145  66.614  1.00  0.00    -0.297 S  
HETATM    3  H1  UNL     1     -10.885   9.973  66.942  1.00  0.00     0.000 HD 
HETATM    4  H2  UNL     1      -9.157  10.501  66.701  1.00  0.00     0.000 HD 
HETATM    5  O   UNL     1     -12.045  11.927  65.712  1.00  0.00    -0.451 OA 
HETATM    6  O   UNL     1      -9.914  13.130  66.368  1.00  0.00    -0.269 OA 
ENDROOT
BRANCH   2   7
HETATM    7  C   UNL     1     -11.576  12.376  68.249  1.00  0.00    -0.333 A  
HETATM    8  C   UNL     1     -11.676  13.656  68.793  1.00  0.00    -0.383 A  
HETATM    9  C   UNL     1     -12.192  13.817  70.092  1.00  0.00    -0.356 A  
HETATM   10 CL   UNL     1     -13.003   9.988  71.089  1.00  0.00    -0.457 Cl 
HETATM   11  C   UNL     1     -12.612  12.707  70.842  1.00  0.00    -0.249 A  
HETATM   12  C   UNL     1     -12.002  11.263  68.972  1.00  0.00    -0.393 A  
HETATM   13 CL   UNL     1     -13.262  12.863  72.442  1.00  0.00    -0.531 Cl 
HETATM   14  C   UNL     1     -12.512  11.428  70.263  1.00  0.00    -0.232 A  
BRANCH   9  15
HETATM   15  S   UNL     1     -12.263  15.457  70.748  1.00  0.00    -0.417 S  
HETATM   16  O   UNL     1     -11.407  16.317  69.971  1.00  0.00    -0.334 OA 
HETATM   17  H2  UNL     1     -11.213  14.448  72.710  1.00  0.00     0.000 HD 
HETATM   18  H1  UNL     1     -11.621  16.237  72.647  1.00  0.00     0.000 HD 
HETATM   19  O   UNL     1     -13.649  15.793  71.000  1.00  0.00    -0.568 OA 
HETATM   20  N   UNL     1     -11.581  15.291  72.269  1.00  0.00    -0.449 N  
ENDBRANCH   9  15
ENDBRANCH   2   7
TORSDOF 2
ENDMDL
MODEL       27
REMARK 921   NORMALIZED FREE ENERGY PREDICTED BY IDOCK:   -5.19 KCAL/MOL
REMARK 922        TOTAL FREE ENERGY PREDICTED BY IDOCK:   -5.77 KCAL/MOL
REMARK 923 INTER-LIGAND FREE ENERGY PREDICTED BY IDOCK:   -5.94 KCAL/MOL
REMARK 924 INTRA-LIGAND FREE ENERGY PREDICTED BY IDOCK:    0.17 KCAL/MOL
REMARK 927      BINDING AFFINITY PREDICTED BY RF-SCORE:    0.00 PKD
ROOT
HETATM    1  N   UNL     1     -11.290  12.636  69.847  1.00  0.00    -0.505 N  
HETATM    2  S   UNL     1     -11.497  11.051  69.346  1.00  0.00    -0.324 S  
HETATM    3  H1  UNL     1     -12.023  13.184  69.396  1.00  0.00     0.000 HD 
HETATM    4  H2  UNL     1     -10.570  12.986  70.479  1.00  0.00     0.000 HD 
HETATM    5  O   UNL     1     -12.901  10.756  69.505  1.00  0.00    -0.198 OA 
HETATM    6  O   UNL     1     -10.460  10.277  69.983  1.00  0.00    -0.268 OA 
ENDROOT
BRANCH   2   7
HETATM    7  C   UNL     1     -11.137  11.181  67.618  1.00  0.00    -0.287 A  
HETATM    8  C   UNL     1     -11.689  12.211  66.857  1.00  0.00    -0.374 A  
HETATM    9  C   UNL     1     -11.383  12.300  65.487  1.00  0.00    -0.349 A  
HETATM   10 CL   UNL     1      -8.899   9.147  65.038  1.00  0.00    -0.232 Cl 
HETATM   11  C   UNL     1     -10.526  11.369  64.880  1.00  0.00    -0.305 A  
HETATM   12  C   UNL     1     -10.271  10.256  67.037  1.00  0.00    -0.282 A  
HETATM   13 CL   UNL     1     -10.116  11.448  63.196  1.00  0.00    -0.387 Cl 
HETATM   14  C   UNL     1      -9.972  10.347  65.674  1.00  0.00    -0.272 A  
BRANCH   9  15
HETATM   15  S   UNL     1     -12.139  13.602  64.561  1.00  0.00    -0.419 S  
HETATM   16  O   UNL     1     -12.365  13.155  63.209  1.00  0.00    -0.712 OA 
HETATM   17  H2  UNL     1     -10.017  14.757  64.930  1.00  0.00     0.000 HD 
HETATM   18  H1  UNL     1     -11.387  15.534  63.985  1.00  0.00     0.000 HD 
HETATM   19  O   UNL     1     -13.203  14.176  65.358  1.00  0.00    -0.741 OA 
HETATM   20  N   UNL     1     -10.951  14.783  64.520  1.00  0.00    -0.284 N  
ENDBRANCH   9  15
ENDBRANCH   2   7
TORSDOF 2
ENDMDL
MODEL       28
REMARK 921   NORMALIZED FREE ENERGY PREDICTED BY IDOCK:   -5.12 KCAL/MOL
REMARK 922        TOTAL FREE ENERGY PREDICTED BY IDOCK:   -5.69 KCAL/MOL
REMARK 923 INTER-LIGAND FREE ENERGY PREDICTED BY IDOCK:   -5.47 KCAL/MOL
REMARK 924 INTRA-LIGAND FREE ENERGY PREDICTED BY IDOCK:   -0.22 KCAL/MOL
REMARK 927      BINDING AFFINITY PREDICTED BY RF-SCORE:    0.00 PKD
ROOT
HETATM    1  N   UNL     1      -8.429  18.626  66.456  1.00  0.00    -0.286 N  
HETATM    2  S   UNL     1      -9.585  18.998  67.610  1.00  0.00    -0.319 S  
HETATM    3  H1  UNL     1      -8.932  18.277  65.640  1.00  0.00     0.000 HD 
HETATM    4  H2  UNL     1      -7.418  18.727  66.550  1.00  0.00     0.000 HD 
HETATM    5  O   UNL     1     -10.600  19.767  66.932  1.00  0.00    -0.458 OA 
HETATM    6  O   UNL     1      -8.873  19.490  68.764  1.00  0.00    -0.364 OA 
ENDROOT
BRANCH   2   7
HETATM    7  C   UNL     1     -10.238  17.395  67.980  1.00  0.00    -0.345 A  
HETATM    8  C   UNL     1     -10.448  16.466  66.961  1.00  0.00    -0.291 A  
HETATM    9  C   UNL     1     -10.961  15.195  67.278  1.00  0.00    -0.327 A  
HETATM   10 CL   UNL     1     -11.345  15.489  71.288  1.00  0.00    -0.421 Cl 
HETATM   11  C   UNL     1     -11.257  14.851  68.606  1.00  0.00    -0.275 A  
HETATM   12  C   UNL     1     -10.511  17.066  69.306  1.00  0.00    -0.293 A  
HETATM   13 CL   UNL     1     -11.882  13.293  69.041  1.00  0.00    -0.354 Cl 
HETATM   14  C   UNL     1     -11.023  15.803  69.616  1.00  0.00    -0.306 A  
BRANCH   9  15
HETATM   15  S   UNL     1     -11.243  14.070  65.945  1.00  0.00    -0.314 S  
HETATM   16  O   UNL     1     -10.326  12.963  66.056  1.00  0.00    -0.271 OA 
HETATM   17  H2  UNL     1     -10.469  15.920  64.549  1.00  0.00     0.000 HD 
HETATM   18  H1  UNL     1     -10.974  14.310  63.824  1.00  0.00     0.000 HD 
HETATM   19  O   UNL     1     -12.670  13.862  65.811  1.00  0.00    -0.504 OA 
HETATM   20  N   UNL     1     -10.812  14.960  64.593  1.00  0.00    -0.339 N  
ENDBRANCH   9  15
ENDBRANCH   2   7
TORSDOF 2
ENDMDL
MODEL       29
REMARK 921   NORMALIZED FREE ENERGY PREDICTED BY IDOCK:   -5.09 KCAL/MOL
REMARK 922        TOTAL FREE ENERGY PREDICTED BY IDOCK:   -5.65 KCAL/MOL
REMARK 923 INTER-LIGAND FREE ENERGY PREDICTED BY IDOCK:   -5.44 KCAL/MOL
REMARK 924 INTRA-LIGAND FREE ENERGY PREDICTED BY IDOCK:   -0.22 KCAL/MOL
REMARK 927      BINDING AFFINITY PREDICTED BY RF-SCORE:    0.00 PKD
ROOT
HETATM    1  N   UNL     1     -10.661  14.847  70.560  1.00  0.00    -0.512 N  
HETATM    2  S   UNL     1     -12.079  14.735  69.675  1.00  0.00    -0.284 S  
HETATM    3  H1  UNL     1      -9.944  15.191  69.921  1.00  0.00     0.000 HD 
HETATM    4  H2  UNL     1     -10.537  14.616  71.545  1.00  0.00     0.000 HD 
HETATM    5  O   UNL     1     -12.208  15.979  68.956  1.00  0.00    -0.205 OA 
HETATM    6  O   UNL     1     -13.093  14.247  70.579  1.00  0.00    -0.297 OA 
ENDROOT
BRANCH   2   7
HETATM    7  C   UNL     1     -11.673  13.453  68.525  1.00  0.00    -0.357 A  
HETATM    8  C   UNL     1     -11.851  13.651  67.156  1.00  0.00    -0.435 A  
HETATM    9  C   UNL     1     -11.514  12.621  66.258  1.00  0.00    -0.364 A  
HETATM   10 CL   UNL     1     -10.183   9.778  68.799  1.00  0.00    -0.199 Cl 
HETATM   11  C   UNL     1     -10.998  11.402  66.724  1.00  0.00    -0.291 A  
HETATM   12  C   UNL     1     -11.147  12.255  69.005  1.00  0.00    -0.289 A  
HETATM   13 CL   UNL     1     -10.562  10.111  65.651  1.00  0.00    -0.099 Cl 
HETATM   14  C   UNL     1     -10.817  11.234  68.110  1.00  0.00    -0.217 A  
BRANCH   9  15
HETATM   15  S   UNL     1     -11.793  12.910  64.537  1.00  0.00    -0.403 S  
HETATM   16  O   UNL     1     -10.531  12.892  63.841  1.00  0.00    -0.413 OA 
HETATM   17  H2  UNL     1     -12.532  15.117  65.284  1.00  0.00     0.000 HD 
HETATM   18  H1  UNL     1     -12.537  14.648  63.509  1.00  0.00     0.000 HD 
HETATM   19  O   UNL     1     -12.909  12.093  64.107  1.00  0.00    -0.616 OA 
HETATM   20  N   UNL     1     -12.376  14.481  64.502  1.00  0.00    -0.459 N  
ENDBRANCH   9  15
ENDBRANCH   2   7
TORSDOF 2
ENDMDL
MODEL       30
REMARK 921   NORMALIZED FREE ENERGY PREDICTED BY IDOCK:   -5.04 KCAL/MOL
REMARK 922        TOTAL FREE ENERGY PREDICTED BY IDOCK:   -5.60 KCAL/MOL
REMARK 923 INTER-LIGAND FREE ENERGY PREDICTED BY IDOCK:   -5.40 KCAL/MOL
REMARK 924 INTRA-LIGAND FREE ENERGY PREDICTED BY IDOCK:   -0.20 KCAL/MOL
REMARK 927      BINDING AFFINITY PREDICTED BY RF-SCORE:    0.00 PKD
ROOT
HETATM    1  N   UNL     1     -10.331  13.300  64.156  1.00  0.00    -0.625 N  
HETATM    2  S   UNL     1     -11.713  13.640  65.038  1.00  0.00    -0.357 S  
HETATM    3  H1  UNL     1     -10.390  12.318  63.885  1.00  0.00     0.000 HD 
HETATM    4  H2  UNL     1      -9.575  13.947  63.932  1.00  0.00     0.000 HD 
HETATM    5  O   UNL     1     -12.819  13.105  64.280  1.00  0.00    -0.658 OA 
HETATM    6  O   UNL     1     -11.628  15.029  65.421  1.00  0.00    -0.318 OA 
ENDROOT
BRANCH   2   7
HETATM    7  C   UNL     1     -11.468  12.634  66.473  1.00  0.00    -0.353 A  
HETATM    8  C   UNL     1     -10.843  11.392  66.366  1.00  0.00    -0.323 A  
HETATM    9  C   UNL     1     -10.652  10.612  67.521  1.00  0.00    -0.252 A  
HETATM   10 CL   UNL     1     -12.256  13.005  70.352  1.00  0.00    -0.419 Cl 
HETATM   11  C   UNL     1     -11.078  11.071  68.777  1.00  0.00    -0.239 A  
HETATM   12  C   UNL     1     -11.885  13.113  67.713  1.00  0.00    -0.392 A  
HETATM   13 CL   UNL     1     -10.854  10.144  70.226  1.00  0.00    -0.355 Cl 
HETATM   14  C   UNL     1     -11.695  12.333  68.858  1.00  0.00    -0.328 A  
BRANCH   9  15
HETATM   15  S   UNL     1      -9.887   9.031  67.324  1.00  0.00    -0.214 S  
HETATM   16  O   UNL     1      -8.656   9.002  68.074  1.00  0.00    -0.128 OA 
HETATM   17  H2  UNL     1      -9.661   9.710  64.988  1.00  0.00     0.000 HD 
HETATM   18  H1  UNL     1      -9.055   8.081  65.582  1.00  0.00     0.000 HD 
HETATM   19  O   UNL     1     -10.897   8.006  67.486  1.00  0.00    -0.202 OA 
HETATM   20  N   UNL     1      -9.497   8.993  65.695  1.00  0.00    -0.234 N  
ENDBRANCH   9  15
ENDBRANCH   2   7
TORSDOF 2
ENDMDL
MODEL       31
REMARK 921   NORMALIZED FREE ENERGY PREDICTED BY IDOCK:   -5.02 KCAL/MOL
REMARK 922        TOTAL FREE ENERGY PREDICTED BY IDOCK:   -5.58 KCAL/MOL
REMARK 923 INTER-LIGAND FREE ENERGY PREDICTED BY IDOCK:   -5.94 KCAL/MOL
REMARK 924 INTRA-LIGAND FREE ENERGY PREDICTED BY IDOCK:    0.36 KCAL/MOL
REMARK 927      BINDING AFFINITY PREDICTED BY RF-SCORE:    0.00 PKD
ROOT
HETATM    1  N   UNL     1     -11.328   9.620  67.988  1.00  0.00    -0.485 N  
HETATM    2  S   UNL     1     -11.110  10.921  69.020  1.00  0.00    -0.269 S  
HETATM    3  H1  UNL     1     -10.483   9.551  67.421  1.00  0.00     0.000 HD 
HETATM    4  H2  UNL     1     -12.147   9.014  67.935  1.00  0.00     0.000 HD 
HETATM    5  O   UNL     1      -9.796  10.765  69.595  1.00  0.00    -0.105 OA 
HETATM    6  O   UNL     1     -12.307  11.019  69.820  1.00  0.00    -0.321 OA 
ENDROOT
BRANCH   2   7
HETATM    7  C   UNL     1     -11.074  12.272  67.877  1.00  0.00    -0.243 A  
HETATM    8  C   UNL     1     -11.649  12.142  66.613  1.00  0.00    -0.416 A  
HETATM    9  C   UNL     1     -11.615  13.231  65.723  1.00  0.00    -0.337 A  
HETATM   10 CL   UNL     1      -9.692  15.998  67.950  1.00  0.00    -0.220 Cl 
HETATM   11  C   UNL     1     -11.015  14.445  66.094  1.00  0.00    -0.320 A  
HETATM   12  C   UNL     1     -10.487  13.473  68.269  1.00  0.00    -0.258 A  
HETATM   13 CL   UNL     1     -10.960  15.814  65.030  1.00  0.00    -0.435 Cl 
HETATM   14  C   UNL     1     -10.453  14.552  67.380  1.00  0.00    -0.264 A  
BRANCH   9  15
HETATM   15  S   UNL     1     -12.326  13.003  64.121  1.00  0.00    -0.338 S  
HETATM   16  O   UNL     1     -13.338  11.979  64.192  1.00  0.00    -0.725 OA 
HETATM   17  H2  UNL     1     -10.093  12.212  63.518  1.00  0.00     0.000 HD 
HETATM   18  H1  UNL     1     -11.460  12.269  62.293  1.00  0.00     0.000 HD 
HETATM   19  O   UNL     1     -12.602  14.304  63.549  1.00  0.00    -0.814 OA 
HETATM   20  N   UNL     1     -11.050  12.401  63.217  1.00  0.00    -0.390 N  
ENDBRANCH   9  15
ENDBRANCH   2   7
TORSDOF 2
ENDMDL
MODEL       32
REMARK 921   NORMALIZED FREE ENERGY PREDICTED BY IDOCK:   -5.01 KCAL/MOL
REMARK 922        TOTAL FREE ENERGY PREDICTED BY IDOCK:   -5.56 KCAL/MOL
REMARK 923 INTER-LIGAND FREE ENERGY PREDICTED BY IDOCK:   -5.34 KCAL/MOL
REMARK 924 INTRA-LIGAND FREE ENERGY PREDICTED BY IDOCK:   -0.22 KCAL/MOL
REMARK 927      BINDING AFFINITY PREDICTED BY RF-SCORE:    0.00 PKD
ROOT
HETATM    1  N   UNL     1     -10.027  11.298  69.359  1.00  0.00    -0.419 N  
HETATM    2  S   UNL     1     -11.306  11.034  68.310  1.00  0.00    -0.306 S  
HETATM    3  H1  UNL     1     -10.276  12.109  69.926  1.00  0.00     0.000 HD 
HETATM    4  H2  UNL     1      -9.166  10.755  69.419  1.00  0.00     0.000 HD 
HETATM    5  O   UNL     1     -12.505  11.087  69.112  1.00  0.00    -0.432 OA 
HETATM    6  O   UNL     1     -10.953   9.888  67.508  1.00  0.00    -0.282 OA 
ENDROOT
BRANCH   2   7
HETATM    7  C   UNL     1     -11.234  12.485  67.299  1.00  0.00    -0.295 A  
HETATM    8  C   UNL     1     -10.726  13.678  67.813  1.00  0.00    -0.255 A  
HETATM    9  C   UNL     1     -10.672  14.818  66.989  1.00  0.00    -0.300 A  
HETATM   10 CL   UNL     1     -12.183  13.360  63.539  1.00  0.00    -0.542 Cl 
HETATM   11  C   UNL     1     -11.116  14.765  65.659  1.00  0.00    -0.342 A  
HETATM   12  C   UNL     1     -11.666  12.410  65.977  1.00  0.00    -0.469 A  
HETATM   13 CL   UNL     1     -11.058  16.144  64.608  1.00  0.00    -0.421 Cl 
HETATM   14  C   UNL     1     -11.612  13.545  65.163  1.00  0.00    -0.316 A  
BRANCH   9  15
HETATM   15  S   UNL     1     -10.053  16.313  67.700  1.00  0.00    -0.267 S  
HETATM   16  O   UNL     1      -8.805  16.660  67.068  1.00  0.00    -0.187 OA 
HETATM   17  H2  UNL     1      -9.848  14.969  69.730  1.00  0.00     0.000 HD 
HETATM   18  H1  UNL     1      -9.366  16.740  69.694  1.00  0.00     0.000 HD 
HETATM   19  O   UNL     1     -11.143  17.262  67.798  1.00  0.00    -0.257 OA 
HETATM   20  N   UNL     1      -9.723  15.877  69.284  1.00  0.00    -0.249 N  
ENDBRANCH   9  15
ENDBRANCH   2   7
TORSDOF 2
ENDMDL
MODEL       33
REMARK 921   NORMALIZED FREE ENERGY PREDICTED BY IDOCK:   -5.00 KCAL/MOL
REMARK 922        TOTAL FREE ENERGY PREDICTED BY IDOCK:   -5.55 KCAL/MOL
REMARK 923 INTER-LIGAND FREE ENERGY PREDICTED BY IDOCK:   -5.34 KCAL/MOL
REMARK 924 INTRA-LIGAND FREE ENERGY PREDICTED BY IDOCK:   -0.22 KCAL/MOL
REMARK 927      BINDING AFFINITY PREDICTED BY RF-SCORE:    0.00 PKD
ROOT
HETATM    1  N   UNL     1     -11.571  12.802  63.024  1.00  0.00    -0.770 N  
HETATM    2  S   UNL     1     -12.309  13.409  64.399  1.00  0.00    -0.310 S  
HETATM    3  H1  UNL     1     -11.383  11.816  63.203  1.00  0.00     0.000 HD 
HETATM    4  H2  UNL     1     -11.351  13.318  62.172  1.00  0.00     0.000 HD 
HETATM    5  O   UNL     1     -13.346  12.469  64.751  1.00  0.00    -0.773 OA 
HETATM    6  O   UNL     1     -12.575  14.804  64.145  1.00  0.00    -0.784 OA 
ENDROOT
BRANCH   2   7
HETATM    7  C   UNL     1     -11.000  13.281  65.584  1.00  0.00    -0.277 A  
HETATM    8  C   UNL     1     -10.786  12.088  66.272  1.00  0.00    -0.302 A  
HETATM    9  C   UNL     1      -9.735  12.005  67.204  1.00  0.00    -0.197 A  
HETATM   10 CL   UNL     1      -8.163  15.717  66.933  1.00  0.00    -0.267 Cl 
HETATM   11  C   UNL     1      -8.899  13.108  67.443  1.00  0.00    -0.204 A  
HETATM   12  C   UNL     1     -10.172  14.381  65.797  1.00  0.00    -0.355 A  
HETATM   13 CL   UNL     1      -7.587  13.046  68.577  1.00  0.00    -0.129 Cl 
HETATM   14  C   UNL     1      -9.131  14.296  66.726  1.00  0.00    -0.249 A  
BRANCH   9  15
HETATM   15  S   UNL     1      -9.529  10.482  68.074  1.00  0.00    -0.151 S  
HETATM   16  O   UNL     1      -8.265   9.892  67.708  1.00  0.00    -0.113 OA 
HETATM   17  H2  UNL     1     -11.440   9.749  66.738  1.00  0.00     0.000 HD 
HETATM   18  H1  UNL     1     -10.627   8.636  67.952  1.00  0.00     0.000 HD 
HETATM   19  O   UNL     1      -9.896  10.689  69.460  1.00  0.00    -0.187 OA 
HETATM   20  N   UNL     1     -10.747   9.515  67.450  1.00  0.00    -0.270 N  
ENDBRANCH   9  15
ENDBRANCH   2   7
TORSDOF 2
ENDMDL
MODEL       34
REMARK 921   NORMALIZED FREE ENERGY PREDICTED BY IDOCK:   -4.97 KCAL/MOL
REMARK 922        TOTAL FREE ENERGY PREDICTED BY IDOCK:   -5.53 KCAL/MOL
REMARK 923 INTER-LIGAND FREE ENERGY PREDICTED BY IDOCK:   -5.36 KCAL/MOL
REMARK 924 INTRA-LIGAND FREE ENERGY PREDICTED BY IDOCK:   -0.17 KCAL/MOL
REMARK 927      BINDING AFFINITY PREDICTED BY RF-SCORE:    0.00 PKD
ROOT
HETATM    1  N   UNL     1     -10.256  17.599  67.509  1.00  0.00    -0.334 N  
HETATM    2  S   UNL     1      -9.821  17.147  65.955  1.00  0.00    -0.168 S  
HETATM    3  H1  UNL     1      -9.537  17.233  68.132  1.00  0.00     0.000 HD 
HETATM    4  H2  UNL     1     -11.080  18.136  67.779  1.00  0.00     0.000 HD 
HETATM    5  O   UNL     1      -8.424  17.478  65.814  1.00  0.00    -0.530 OA 
HETATM    6  O   UNL     1     -10.839  17.665  65.074  1.00  0.00    -0.758 OA 
ENDROOT
BRANCH   2   7
HETATM    7  C   UNL     1      -9.983  15.387  66.046  1.00  0.00    -0.324 A  
HETATM    8  C   UNL     1     -10.779  14.703  65.128  1.00  0.00    -0.430 A  
HETATM    9  C   UNL     1     -10.887  13.303  65.213  1.00  0.00    -0.301 A  
HETATM   10 CL   UNL     1      -8.495  12.530  68.375  1.00  0.00    -0.156 Cl 
HETATM   11  C   UNL     1     -10.199  12.588  66.207  1.00  0.00    -0.248 A  
HETATM   12  C   UNL     1      -9.280  14.694  67.030  1.00  0.00    -0.252 A  
HETATM   13 CL   UNL     1     -10.298  10.862  66.342  1.00  0.00    -0.296 Cl 
HETATM   14  C   UNL     1      -9.392  13.303  67.113  1.00  0.00    -0.240 A  
BRANCH   9  15
HETATM   15  S   UNL     1     -11.937  12.489  64.048  1.00  0.00    -0.499 S  
HETATM   16  O   UNL     1     -11.170  11.509  63.320  1.00  0.00    -0.329 OA 
HETATM   17  H2  UNL     1     -12.063  14.693  63.001  1.00  0.00     0.000 HD 
HETATM   18  H1  UNL     1     -12.955  13.245  62.310  1.00  0.00     0.000 HD 
HETATM   19  O   UNL     1     -13.178  12.143  64.709  1.00  0.00    -0.567 OA 
HETATM   20  N   UNL     1     -12.349  13.714  62.982  1.00  0.00     0.075 N  
ENDBRANCH   9  15
ENDBRANCH   2   7
TORSDOF 2
ENDMDL
MODEL       35
REMARK 921   NORMALIZED FREE ENERGY PREDICTED BY IDOCK:   -4.96 KCAL/MOL
REMARK 922        TOTAL FREE ENERGY PREDICTED BY IDOCK:   -5.51 KCAL/MOL
REMARK 923 INTER-LIGAND FREE ENERGY PREDICTED BY IDOCK:   -5.29 KCAL/MOL
REMARK 924 INTRA-LIGAND FREE ENERGY PREDICTED BY IDOCK:   -0.22 KCAL/MOL
REMARK 927      BINDING AFFINITY PREDICTED BY RF-SCORE:    0.00 PKD
ROOT
HETATM    1  N   UNL     1     -10.633  17.401  67.392  1.00  0.00    -0.337 N  
HETATM    2  S   UNL     1     -10.072  17.177  65.830  1.00  0.00    -0.183 S  
HETATM    3  H1  UNL     1      -9.968  16.937  68.012  1.00  0.00     0.000 HD 
HETATM    4  H2  UNL     1     -11.476  17.903  67.671  1.00  0.00     0.000 HD 
HETATM    5  O   UNL     1      -8.667  17.506  65.854  1.00  0.00    -0.525 OA 
HETATM    6  O   UNL     1     -11.013  17.832  64.955  1.00  0.00    -0.866 OA 
ENDROOT
BRANCH   2   7
HETATM    7  C   UNL     1     -10.242  15.425  65.646  1.00  0.00    -0.376 A  
HETATM    8  C   UNL     1      -9.584  14.556  66.516  1.00  0.00    -0.311 A  
HETATM    9  C   UNL     1      -9.739  13.167  66.356  1.00  0.00    -0.269 A  
HETATM   10 CL   UNL     1     -12.245  13.024  63.191  1.00  0.00    -0.503 Cl 
HETATM   11  C   UNL     1     -10.552  12.648  65.336  1.00  0.00    -0.282 A  
HETATM   12  C   UNL     1     -11.065  14.929  64.636  1.00  0.00    -0.335 A  
HETATM   13 CL   UNL     1     -10.777  10.943  65.109  1.00  0.00    -0.267 Cl 
HETATM   14  C   UNL     1     -11.214  13.547  64.479  1.00  0.00    -0.375 A  
BRANCH   9  15
HETATM   15  S   UNL     1      -8.855  12.111  67.463  1.00  0.00    -0.185 S  
HETATM   16  O   UNL     1      -9.793  11.428  68.319  1.00  0.00    -0.186 OA 
HETATM   17  H2  UNL     1      -7.971  14.206  68.357  1.00  0.00     0.000 HD 
HETATM   18  H1  UNL     1      -7.476  12.578  69.047  1.00  0.00     0.000 HD 
HETATM   19  O   UNL     1      -7.852  11.389  66.708  1.00  0.00    -0.152 OA 
HETATM   20  N   UNL     1      -7.986  13.187  68.408  1.00  0.00    -0.139 N  
ENDBRANCH   9  15
ENDBRANCH   2   7
TORSDOF 2
ENDMDL
MODEL       36
REMARK 921   NORMALIZED FREE ENERGY PREDICTED BY IDOCK:   -4.96 KCAL/MOL
REMARK 922        TOTAL FREE ENERGY PREDICTED BY IDOCK:   -5.51 KCAL/MOL
REMARK 923 INTER-LIGAND FREE ENERGY PREDICTED BY IDOCK:   -5.50 KCAL/MOL
REMARK 924 INTRA-LIGAND FREE ENERGY PREDICTED BY IDOCK:   -0.00 KCAL/MOL
REMARK 927      BINDING AFFINITY PREDICTED BY RF-SCORE:    0.00 PKD
ROOT
HETATM    1  N   UNL     1     -13.777  15.536  70.799  1.00  0.00    -0.859 N  
HETATM    2  S   UNL     1     -13.049  14.545  71.937  1.00  0.00    -0.377 S  
HETATM    3  H1  UNL     1     -14.566  15.013  70.418  1.00  0.00     0.000 HD 
HETATM    4  H2  UNL     1     -13.489  16.479  70.538  1.00  0.00     0.000 HD 
HETATM    5  O   UNL     1     -14.114  14.025  72.761  1.00  0.00    -0.636 OA 
HETATM    6  O   UNL     1     -11.934  15.285  72.476  1.00  0.00    -0.373 OA 
ENDROOT
BRANCH   2   7
HETATM    7  C   UNL     1     -12.431  13.238  70.917  1.00  0.00    -0.342 A  
HETATM    8  C   UNL     1     -12.311  11.944  71.423  1.00  0.00    -0.120 A  
HETATM    9  C   UNL     1     -11.824  10.918  70.592  1.00  0.00    -0.352 A  
HETATM   10 CL   UNL     1     -11.199  12.935  67.149  1.00  0.00    -0.309 Cl 
HETATM   11  C   UNL     1     -11.463  11.182  69.261  1.00  0.00    -0.294 A  
HETATM   12  C   UNL     1     -12.092  13.516  69.594  1.00  0.00    -0.365 A  
HETATM   13 CL   UNL     1     -10.867   9.944  68.202  1.00  0.00    -0.290 Cl 
HETATM   14  C   UNL     1     -11.606  12.494  68.773  1.00  0.00    -0.322 A  
BRANCH   9  15
HETATM   15  S   UNL     1     -11.658   9.305  71.294  1.00  0.00    -0.378 S  
HETATM   16  O   UNL     1     -12.161   8.327  70.362  1.00  0.00     0.038 OA 
HETATM   17  H2  UNL     1     -13.289  10.118  72.922  1.00  0.00     0.000 HD 
HETATM   18  H1  UNL     1     -12.605   8.416  73.010  1.00  0.00     0.000 HD 
HETATM   19  O   UNL     1     -10.337   9.189  71.876  1.00  0.00    -0.335 OA 
HETATM   20  N   UNL     1     -12.701   9.347  72.605  1.00  0.00    -0.189 N  
ENDBRANCH   9  15
ENDBRANCH   2   7
TORSDOF 2
ENDMDL
MODEL       37
REMARK 921   NORMALIZED FREE ENERGY PREDICTED BY IDOCK:   -4.94 KCAL/MOL
REMARK 922        TOTAL FREE ENERGY PREDICTED BY IDOCK:   -5.49 KCAL/MOL
REMARK 923 INTER-LIGAND FREE ENERGY PREDICTED BY IDOCK:   -5.50 KCAL/MOL
REMARK 924 INTRA-LIGAND FREE ENERGY PREDICTED BY IDOCK:    0.01 KCAL/MOL
REMARK 927      BINDING AFFINITY PREDICTED BY RF-SCORE:    0.00 PKD
ROOT
HETATM    1  N   UNL     1     -11.361  11.277  63.284  1.00  0.00    -0.818 N  
HETATM    2  S   UNL     1     -12.380  12.492  63.823  1.00  0.00    -0.502 S  
HETATM    3  H1  UNL     1     -11.402  10.531  63.978  1.00  0.00     0.000 HD 
HETATM    4  H2  UNL     1     -10.806  11.281  62.428  1.00  0.00     0.000 HD 
HETATM    5  O   UNL     1     -13.614  11.846  64.202  1.00  0.00    -0.481 OA 
HETATM    6  O   UNL     1     -12.321  13.547  62.841  1.00  0.00    -0.542 OA 
ENDROOT
BRANCH   2   7
HETATM    7  C   UNL     1     -11.544  13.025  65.289  1.00  0.00    -0.328 A  
HETATM    8  C   UNL     1     -11.825  12.430  66.518  1.00  0.00    -0.407 A  
HETATM    9  C   UNL     1     -11.143  12.864  67.669  1.00  0.00    -0.264 A  
HETATM   10 CL   UNL     1      -8.740  15.717  66.120  1.00  0.00    -0.354 Cl 
HETATM   11  C   UNL     1     -10.181  13.884  67.593  1.00  0.00    -0.242 A  
HETATM   12  C   UNL     1     -10.582  14.028  65.190  1.00  0.00    -0.400 A  
HETATM   13 CL   UNL     1      -9.312  14.442  68.986  1.00  0.00    -0.093 Cl 
HETATM   14  C   UNL     1      -9.908  14.458  66.337  1.00  0.00    -0.295 A  
BRANCH   9  15
HETATM   15  S   UNL     1     -11.564  12.102  69.207  1.00  0.00    -0.329 S  
HETATM   16  O   UNL     1     -11.906  13.123  70.165  1.00  0.00    -0.313 OA 
HETATM   17  H2  UNL     1      -9.219  11.414  69.221  1.00  0.00     0.000 HD 
HETATM   18  H1  UNL     1     -10.364  10.964  70.583  1.00  0.00     0.000 HD 
HETATM   19  O   UNL     1     -12.444  10.984  68.942  1.00  0.00    -0.460 OA 
HETATM   20  N   UNL     1     -10.121  11.403  69.696  1.00  0.00     0.325 N  
ENDBRANCH   9  15
ENDBRANCH   2   7
TORSDOF 2
ENDMDL
MODEL       38
REMARK 921   NORMALIZED FREE ENERGY PREDICTED BY IDOCK:   -4.93 KCAL/MOL
REMARK 922        TOTAL FREE ENERGY PREDICTED BY IDOCK:   -5.48 KCAL/MOL
REMARK 923 INTER-LIGAND FREE ENERGY PREDICTED BY IDOCK:   -5.26 KCAL/MOL
REMARK 924 INTRA-LIGAND FREE ENERGY PREDICTED BY IDOCK:   -0.22 KCAL/MOL
REMARK 927      BINDING AFFINITY PREDICTED BY RF-SCORE:    0.00 PKD
ROOT
HETATM    1  N   UNL     1     -11.200  12.071  63.192  1.00  0.00    -0.700 N  
HETATM    2  S   UNL     1     -12.226  13.080  64.048  1.00  0.00    -0.411 S  
HETATM    3  H1  UNL     1     -11.037  11.252  63.778  1.00  0.00     0.000 HD 
HETATM    4  H2  UNL     1     -10.812  12.241  62.264  1.00  0.00     0.000 HD 
HETATM    5  O   UNL     1     -13.297  12.247  64.538  1.00  0.00    -0.769 OA 
HETATM    6  O   UNL     1     -12.455  14.238  63.219  1.00  0.00    -0.705 OA 
ENDROOT
BRANCH   2   7
HETATM    7  C   UNL     1     -11.199  13.546  65.413  1.00  0.00    -0.289 A  
HETATM    8  C   UNL     1     -10.061  12.804  65.725  1.00  0.00    -0.296 A  
HETATM    9  C   UNL     1      -9.255  13.196  66.809  1.00  0.00    -0.230 A  
HETATM   10 CL   UNL     1     -11.224  16.480  68.095  1.00  0.00    -0.307 Cl 
HETATM   11  C   UNL     1      -9.580  14.328  67.574  1.00  0.00    -0.216 A  
HETATM   12  C   UNL     1     -11.530  14.681  66.150  1.00  0.00    -0.339 A  
HETATM   13 CL   UNL     1      -8.609  14.851  68.912  1.00  0.00    -0.176 Cl 
HETATM   14  C   UNL     1     -10.728  15.066  67.228  1.00  0.00    -0.298 A  
BRANCH   9  15
HETATM   15  S   UNL     1      -7.844  12.200  67.184  1.00  0.00    -0.133 S  
HETATM   16  O   UNL     1      -6.647  12.981  66.998  1.00  0.00    -0.133 OA 
HETATM   17  H2  UNL     1      -8.551  10.907  65.235  1.00  0.00     0.000 HD 
HETATM   18  H1  UNL     1      -7.064  10.447  66.210  1.00  0.00     0.000 HD 
HETATM   19  O   UNL     1      -8.100  11.485  68.417  1.00  0.00    -0.136 OA 
HETATM   20  N   UNL     1      -7.879  11.022  65.993  1.00  0.00    -0.122 N  
ENDBRANCH   9  15
ENDBRANCH   2   7
TORSDOF 2
ENDMDL
MODEL       39
REMARK 921   NORMALIZED FREE ENERGY PREDICTED BY IDOCK:   -4.89 KCAL/MOL
REMARK 922        TOTAL FREE ENERGY PREDICTED BY IDOCK:   -5.43 KCAL/MOL
REMARK 923 INTER-LIGAND FREE ENERGY PREDICTED BY IDOCK:   -5.52 KCAL/MOL
REMARK 924 INTRA-LIGAND FREE ENERGY PREDICTED BY IDOCK:    0.08 KCAL/MOL
REMARK 927      BINDING AFFINITY PREDICTED BY RF-SCORE:    0.00 PKD
ROOT
HETATM    1  N   UNL     1     -10.360  20.222  66.036  1.00  0.00    -0.455 N  
HETATM    2  S   UNL     1      -9.538  19.788  67.430  1.00  0.00    -0.380 S  
HETATM    3  H1  UNL     1     -11.319  19.893  66.147  1.00  0.00     0.000 HD 
HETATM    4  H2  UNL     1      -9.976  20.718  65.232  1.00  0.00     0.000 HD 
HETATM    5  O   UNL     1     -10.377  20.187  68.535  1.00  0.00    -0.403 OA 
HETATM    6  O   UNL     1      -8.182  20.253  67.272  1.00  0.00    -0.323 OA 
ENDROOT
BRANCH   2   7
HETATM    7  C   UNL     1      -9.557  18.022  67.311  1.00  0.00    -0.269 A  
HETATM    8  C   UNL     1     -10.230  17.393  66.265  1.00  0.00    -0.344 A  
HETATM    9  C   UNL     1     -10.226  15.988  66.185  1.00  0.00    -0.324 A  
HETATM   10 CL   UNL     1      -7.994  15.032  69.413  1.00  0.00    -0.192 Cl 
HETATM   11  C   UNL     1      -9.548  15.216  67.142  1.00  0.00    -0.218 A  
HETATM   12  C   UNL     1      -8.867  17.274  68.262  1.00  0.00    -0.258 A  
HETATM   13 CL   UNL     1      -9.511  13.483  67.076  1.00  0.00    -0.243 Cl 
HETATM   14  C   UNL     1      -8.867  15.878  68.181  1.00  0.00    -0.176 A  
BRANCH   9  15
HETATM   15  S   UNL     1     -11.124  15.239  64.860  1.00  0.00    -0.399 S  
HETATM   16  O   UNL     1     -11.645  16.270  63.997  1.00  0.00    -0.953 OA 
HETATM   17  H2  UNL     1     -12.638  14.508  66.633  1.00  0.00     0.000 HD 
HETATM   18  H1  UNL     1     -12.939  14.084  64.871  1.00  0.00     0.000 HD 
HETATM   19  O   UNL     1     -10.343  14.137  64.339  1.00  0.00    -0.290 OA 
HETATM   20  N   UNL     1     -12.420  14.515  65.636  1.00  0.00    -0.288 N  
ENDBRANCH   9  15
ENDBRANCH   2   7
TORSDOF 2
ENDMDL
MODEL       40
REMARK 921   NORMALIZED FREE ENERGY PREDICTED BY IDOCK:   -4.86 KCAL/MOL
REMARK 922        TOTAL FREE ENERGY PREDICTED BY IDOCK:   -5.40 KCAL/MOL
REMARK 923 INTER-LIGAND FREE ENERGY PREDICTED BY IDOCK:   -5.47 KCAL/MOL
REMARK 924 INTRA-LIGAND FREE ENERGY PREDICTED BY IDOCK:    0.08 KCAL/MOL
REMARK 927      BINDING AFFINITY PREDICTED BY RF-SCORE:    0.00 PKD
ROOT
HETATM    1  N   UNL     1     -12.036  10.114  69.510  1.00  0.00    -0.498 N  
HETATM    2  S   UNL     1     -10.528   9.633  68.964  1.00  0.00    -0.218 S  
HETATM    3  H1  UNL     1     -12.724   9.634  68.930  1.00  0.00     0.000 HD 
HETATM    4  H2  UNL     1     -12.230  10.761  70.274  1.00  0.00     0.000 HD 
HETATM    5  O   UNL     1     -10.580   8.195  68.844  1.00  0.00    -0.212 OA 
HETATM    6  O   UNL     1      -9.555  10.312  69.784  1.00  0.00    -0.198 OA 
ENDROOT
BRANCH   2   7
HETATM    7  C   UNL     1     -10.502  10.338  67.341  1.00  0.00    -0.251 A  
HETATM    8  C   UNL     1     -11.147  11.549  67.087  1.00  0.00    -0.355 A  
HETATM    9  C   UNL     1     -11.107  12.095  65.792  1.00  0.00    -0.319 A  
HETATM   10 CL   UNL     1      -8.894   9.331  63.847  1.00  0.00    -0.202 Cl 
HETATM   11  C   UNL     1     -10.424  11.439  64.755  1.00  0.00    -0.308 A  
HETATM   12  C   UNL     1      -9.806   9.680  66.329  1.00  0.00    -0.323 A  
HETATM   13 CL   UNL     1     -10.344  12.083  63.147  1.00  0.00    -0.379 Cl 
HETATM   14  C   UNL     1      -9.772  10.226  65.042  1.00  0.00    -0.305 A  
BRANCH   9  15
HETATM   15  S   UNL     1     -11.971  13.612  65.516  1.00  0.00    -0.411 S  
HETATM   16  O   UNL     1     -13.011  13.397  64.542  1.00  0.00    -0.650 OA 
HETATM   17  H2  UNL     1      -9.835  14.370  64.600  1.00  0.00     0.000 HD 
HETATM   18  H1  UNL     1     -11.306  15.469  64.655  1.00  0.00     0.000 HD 
HETATM   19  O   UNL     1     -12.247  14.225  66.798  1.00  0.00    -0.441 OA 
HETATM   20  N   UNL     1     -10.807  14.594  64.815  1.00  0.00    -0.401 N  
ENDBRANCH   9  15
ENDBRANCH   2   7
TORSDOF 2
ENDMDL
MODEL       41
REMARK 921   NORMALIZED FREE ENERGY PREDICTED BY IDOCK:   -4.86 KCAL/MOL
REMARK 922        TOTAL FREE ENERGY PREDICTED BY IDOCK:   -5.39 KCAL/MOL
REMARK 923 INTER-LIGAND FREE ENERGY PREDICTED BY IDOCK:   -5.67 KCAL/MOL
REMARK 924 INTRA-LIGAND FREE ENERGY PREDICTED BY IDOCK:    0.28 KCAL/MOL
REMARK 927      BINDING AFFINITY PREDICTED BY RF-SCORE:    0.00 PKD
ROOT
HETATM    1  N   UNL     1      -8.556  14.742  68.012  1.00  0.00    -0.160 N  
HETATM    2  S   UNL     1     -10.146  15.025  67.567  1.00  0.00    -0.228 S  
HETATM    3  H1  UNL     1      -8.396  13.740  67.906  1.00  0.00     0.000 HD 
HETATM    4  H2  UNL     1      -7.879  15.436  68.329  1.00  0.00     0.000 HD 
HETATM    5  O   UNL     1     -10.346  14.331  66.317  1.00  0.00    -0.280 OA 
HETATM    6  O   UNL     1     -10.371  16.442  67.717  1.00  0.00    -0.270 OA 
ENDROOT
BRANCH   2   7
HETATM    7  C   UNL     1     -11.024  14.166  68.841  1.00  0.00    -0.259 A  
HETATM    8  C   UNL     1     -11.668  14.875  69.855  1.00  0.00    -0.347 A  
HETATM    9  C   UNL     1     -12.367  14.172  70.853  1.00  0.00    -0.368 A  
HETATM   10 CL   UNL     1     -11.789  10.354  69.669  1.00  0.00    -0.282 Cl 
HETATM   11  C   UNL     1     -12.427  12.770  70.837  1.00  0.00    -0.283 A  
HETATM   12  C   UNL     1     -11.085  12.775  68.799  1.00  0.00    -0.303 A  
HETATM   13 CL   UNL     1     -13.285  11.866  72.044  1.00  0.00    -0.561 Cl 
HETATM   14  C   UNL     1     -11.778  12.081  69.795  1.00  0.00    -0.319 A  
BRANCH   9  15
HETATM   15  S   UNL     1     -13.135  15.117  72.135  1.00  0.00    -0.402 S  
HETATM   16  O   UNL     1     -14.299  15.780  71.604  1.00  0.00    -0.446 OA 
HETATM   17  H2  UNL     1     -11.072  16.426  72.061  1.00  0.00     0.000 HD 
HETATM   18  H1  UNL     1     -12.434  16.835  73.224  1.00  0.00     0.000 HD 
HETATM   19  O   UNL     1     -13.205  14.301  73.329  1.00  0.00    -0.614 OA 
HETATM   20  N   UNL     1     -11.991  16.290  72.485  1.00  0.00    -0.550 N  
ENDBRANCH   9  15
ENDBRANCH   2   7
TORSDOF 2
ENDMDL
MODEL       42
REMARK 921   NORMALIZED FREE ENERGY PREDICTED BY IDOCK:   -4.83 KCAL/MOL
REMARK 922        TOTAL FREE ENERGY PREDICTED BY IDOCK:   -5.37 KCAL/MOL
REMARK 923 INTER-LIGAND FREE ENERGY PREDICTED BY IDOCK:   -5.57 KCAL/MOL
REMARK 924 INTRA-LIGAND FREE ENERGY PREDICTED BY IDOCK:    0.20 KCAL/MOL
REMARK 927      BINDING AFFINITY PREDICTED BY RF-SCORE:    0.00 PKD
ROOT
HETATM    1  N   UNL     1     -10.742  19.656  66.713  1.00  0.00    -0.476 N  
HETATM    2  S   UNL     1      -9.742  18.917  67.836  1.00  0.00    -0.344 S  
HETATM    3  H1  UNL     1     -11.672  19.695  67.130  1.00  0.00     0.000 HD 
HETATM    4  H2  UNL     1     -10.474  19.999  65.790  1.00  0.00     0.000 HD 
HETATM    5  O   UNL     1     -10.004  19.565  69.099  1.00  0.00    -0.442 OA 
HETATM    6  O   UNL     1      -8.427  18.861  67.245  1.00  0.00    -0.271 OA 
ENDROOT
BRANCH   2   7
HETATM    7  C   UNL     1     -10.419  17.282  67.884  1.00  0.00    -0.382 A  
HETATM    8  C   UNL     1     -11.054  16.816  69.034  1.00  0.00    -0.171 A  
HETATM    9  C   UNL     1     -11.592  15.515  69.049  1.00  0.00    -0.365 A  
HETATM   10 CL   UNL     1     -10.697  14.262  65.315  1.00  0.00    -0.349 Cl 
HETATM   11  C   UNL     1     -11.500  14.688  67.919  1.00  0.00    -0.329 A  
HETATM   12  C   UNL     1     -10.331  16.481  66.748  1.00  0.00    -0.296 A  
HETATM   13 CL   UNL     1     -12.157  13.082  67.892  1.00  0.00    -0.317 Cl 
HETATM   14  C   UNL     1     -10.865  15.189  66.767  1.00  0.00    -0.322 A  
BRANCH   9  15
HETATM   15  S   UNL     1     -12.354  14.960  70.543  1.00  0.00    -0.368 S  
HETATM   16  O   UNL     1     -13.672  15.535  70.646  1.00  0.00    -0.397 OA 
HETATM   17  H2  UNL     1     -10.579  16.241  71.630  1.00  0.00     0.000 HD 
HETATM   18  H1  UNL     1     -11.841  15.326  72.600  1.00  0.00     0.000 HD 
HETATM   19  O   UNL     1     -12.136  13.535  70.670  1.00  0.00    -0.344 OA 
HETATM   20  N   UNL     1     -11.401  15.646  71.738  1.00  0.00    -0.392 N  
ENDBRANCH   9  15
ENDBRANCH   2   7
TORSDOF 2
ENDMDL
MODEL       43
REMARK 921   NORMALIZED FREE ENERGY PREDICTED BY IDOCK:   -4.78 KCAL/MOL
REMARK 922        TOTAL FREE ENERGY PREDICTED BY IDOCK:   -5.31 KCAL/MOL
REMARK 923 INTER-LIGAND FREE ENERGY PREDICTED BY IDOCK:   -5.43 KCAL/MOL
REMARK 924 INTRA-LIGAND FREE ENERGY PREDICTED BY IDOCK:    0.12 KCAL/MOL
REMARK 927      BINDING AFFINITY PREDICTED BY RF-SCORE:    0.00 PKD
ROOT
HETATM    1  N   UNL     1     -12.383  14.465  63.387  1.00  0.00    -1.088 N  
HETATM    2  S   UNL     1     -11.626  13.404  64.440  1.00  0.00    -0.400 S  
HETATM    3  H1  UNL     1     -11.647  14.897  62.828  1.00  0.00     0.000 HD 
HETATM    4  H2  UNL     1     -13.385  14.644  63.318  1.00  0.00     0.000 HD 
HETATM    5  O   UNL     1     -10.698  12.637  63.644  1.00  0.00    -0.425 OA 
HETATM    6  O   UNL     1     -12.667  12.793  65.230  1.00  0.00    -0.625 OA 
ENDROOT
BRANCH   2   7
HETATM    7  C   UNL     1     -10.710  14.521  65.462  1.00  0.00    -0.341 A  
HETATM    8  C   UNL     1      -9.774  14.035  66.375  1.00  0.00    -0.309 A  
HETATM    9  C   UNL     1      -9.051  14.941  67.172  1.00  0.00    -0.222 A  
HETATM   10 CL   UNL     1     -10.534  18.470  65.882  1.00  0.00    -0.457 Cl 
HETATM   11  C   UNL     1      -9.257  16.325  67.055  1.00  0.00    -0.214 A  
HETATM   12  C   UNL     1     -10.918  15.891  65.321  1.00  0.00    -0.334 A  
HETATM   13 CL   UNL     1      -8.381  17.476  68.013  1.00  0.00    -0.234 Cl 
HETATM   14  C   UNL     1     -10.199  16.788  66.117  1.00  0.00    -0.351 A  
BRANCH   9  15
HETATM   15  S   UNL     1      -7.904  14.272  68.338  1.00  0.00    -0.148 S  
HETATM   16  O   UNL     1      -8.135  12.856  68.473  1.00  0.00    -0.142 OA 
HETATM   17  H2  UNL     1      -9.099  15.676  69.942  1.00  0.00     0.000 HD 
HETATM   18  H1  UNL     1      -7.686  14.618  70.450  1.00  0.00     0.000 HD 
HETATM   19  O   UNL     1      -6.588  14.801  68.046  1.00  0.00    -0.117 OA 
HETATM   20  N   UNL     1      -8.348  15.005  69.778  1.00  0.00    -0.024 N  
ENDBRANCH   9  15
ENDBRANCH   2   7
TORSDOF 2
ENDMDL
MODEL       44
REMARK 921   NORMALIZED FREE ENERGY PREDICTED BY IDOCK:   -4.78 KCAL/MOL
REMARK 922        TOTAL FREE ENERGY PREDICTED BY IDOCK:   -5.31 KCAL/MOL
REMARK 923 INTER-LIGAND FREE ENERGY PREDICTED BY IDOCK:   -5.08 KCAL/MOL
REMARK 924 INTRA-LIGAND FREE ENERGY PREDICTED BY IDOCK:   -0.22 KCAL/MOL
REMARK 927      BINDING AFFINITY PREDICTED BY RF-SCORE:    0.00 PKD
ROOT
HETATM    1  N   UNL     1     -12.187  13.792  68.427  1.00  0.00    -0.443 N  
HETATM    2  S   UNL     1     -11.300  12.584  67.679  1.00  0.00    -0.327 S  
HETATM    3  H1  UNL     1     -11.582  14.200  69.140  1.00  0.00     0.000 HD 
HETATM    4  H2  UNL     1     -13.146  14.066  68.213  1.00  0.00     0.000 HD 
HETATM    5  O   UNL     1     -10.012  13.157  67.374  1.00  0.00    -0.224 OA 
HETATM    6  O   UNL     1     -12.156  12.006  66.671  1.00  0.00    -0.615 OA 
ENDROOT
BRANCH   2   7
HETATM    7  C   UNL     1     -11.107  11.423  69.001  1.00  0.00    -0.243 A  
HETATM    8  C   UNL     1      -9.915  10.714  69.149  1.00  0.00    -0.228 A  
HETATM    9  C   UNL     1      -9.780   9.801  70.211  1.00  0.00    -0.223 A  
HETATM   10 CL   UNL     1     -13.370  10.180  72.023  1.00  0.00    -0.533 Cl 
HETATM   11  C   UNL     1     -10.828   9.601  71.124  1.00  0.00    -0.334 A  
HETATM   12  C   UNL     1     -12.152  11.249  69.905  1.00  0.00    -0.414 A  
HETATM   13 CL   UNL     1     -10.699   8.493  72.452  1.00  0.00    -0.412 Cl 
HETATM   14  C   UNL     1     -12.015  10.339  70.958  1.00  0.00    -0.385 A  
BRANCH   9  15
HETATM   15  S   UNL     1      -8.263   8.903  70.331  1.00  0.00    -0.157 S  
HETATM   16  O   UNL     1      -7.573   9.296  71.534  1.00  0.00    -0.340 OA 
HETATM   17  H2  UNL     1      -7.650  10.160  68.327  1.00  0.00     0.000 HD 
HETATM   18  H1  UNL     1      -6.503   8.948  69.094  1.00  0.00     0.000 HD 
HETATM   19  O   UNL     1      -8.526   7.512  70.027  1.00  0.00    -0.134 OA 
HETATM   20  N   UNL     1      -7.379   9.466  69.024  1.00  0.00    -0.071 N  
ENDBRANCH   9  15
ENDBRANCH   2   7
TORSDOF 2
ENDMDL
MODEL       45
REMARK 921   NORMALIZED FREE ENERGY PREDICTED BY IDOCK:   -4.77 KCAL/MOL
REMARK 922        TOTAL FREE ENERGY PREDICTED BY IDOCK:   -5.30 KCAL/MOL
REMARK 923 INTER-LIGAND FREE ENERGY PREDICTED BY IDOCK:   -5.09 KCAL/MOL
REMARK 924 INTRA-LIGAND FREE ENERGY PREDICTED BY IDOCK:   -0.21 KCAL/MOL
REMARK 927      BINDING AFFINITY PREDICTED BY RF-SCORE:    0.00 PKD
ROOT
HETATM    1  N   UNL     1     -12.409   9.894  70.021  1.00  0.00    -0.481 N  
HETATM    2  S   UNL     1     -11.125  10.383  69.063  1.00  0.00    -0.246 S  
HETATM    3  H1  UNL     1     -13.254  10.268  69.590  1.00  0.00     0.000 HD 
HETATM    4  H2  UNL     1     -12.356   9.334  70.871  1.00  0.00     0.000 HD 
HETATM    5  O   UNL     1     -11.501  10.088  67.701  1.00  0.00    -0.192 OA 
HETATM    6  O   UNL     1      -9.929   9.856  69.673  1.00  0.00    -0.204 OA 
ENDROOT
BRANCH   2   7
HETATM    7  C   UNL     1     -11.162  12.137  69.296  1.00  0.00    -0.226 A  
HETATM    8  C   UNL     1     -11.947  12.699  70.302  1.00  0.00    -0.363 A  
HETATM    9  C   UNL     1     -11.956  14.095  70.475  1.00  0.00    -0.323 A  
HETATM   10 CL   UNL     1      -9.388  15.253  67.580  1.00  0.00    -0.202 Cl 
HETATM   11  C   UNL     1     -11.181  14.926  69.650  1.00  0.00    -0.275 A  
HETATM   12  C   UNL     1     -10.374  12.944  68.478  1.00  0.00    -0.239 A  
HETATM   13 CL   UNL     1     -11.157  16.650  69.835  1.00  0.00    -0.240 Cl 
HETATM   14  C   UNL     1     -10.388  14.331  68.651  1.00  0.00    -0.246 A  
BRANCH   9  15
HETATM   15  S   UNL     1     -12.996  14.757  71.740  1.00  0.00    -0.359 S  
HETATM   16  O   UNL     1     -12.179  15.215  72.836  1.00  0.00    -0.358 OA 
HETATM   17  H2  UNL     1     -13.798  12.457  71.937  1.00  0.00     0.000 HD 
HETATM   18  H1  UNL     1     -14.458  13.803  72.998  1.00  0.00     0.000 HD 
HETATM   19  O   UNL     1     -13.986  15.615  71.122  1.00  0.00    -0.564 OA 
HETATM   20  N   UNL     1     -13.859  13.421  72.267  1.00  0.00    -0.577 N  
ENDBRANCH   9  15
ENDBRANCH   2   7
TORSDOF 2
ENDMDL
MODEL       46
REMARK 921   NORMALIZED FREE ENERGY PREDICTED BY IDOCK:   -4.77 KCAL/MOL
REMARK 922        TOTAL FREE ENERGY PREDICTED BY IDOCK:   -5.29 KCAL/MOL
REMARK 923 INTER-LIGAND FREE ENERGY PREDICTED BY IDOCK:   -5.39 KCAL/MOL
REMARK 924 INTRA-LIGAND FREE ENERGY PREDICTED BY IDOCK:    0.10 KCAL/MOL
REMARK 927      BINDING AFFINITY PREDICTED BY RF-SCORE:    0.00 PKD
ROOT
HETATM    1  N   UNL     1      -9.116  14.805  66.123  1.00  0.00    -0.496 N  
HETATM    2  S   UNL     1     -10.591  15.571  66.332  1.00  0.00    -0.311 S  
HETATM    3  H1  UNL     1      -9.321  13.832  65.894  1.00  0.00     0.000 HD 
HETATM    4  H2  UNL     1      -8.192  15.227  66.210  1.00  0.00     0.000 HD 
HETATM    5  O   UNL     1     -11.407  15.191  65.204  1.00  0.00    -0.368 OA 
HETATM    6  O   UNL     1     -10.301  16.946  66.657  1.00  0.00    -0.306 OA 
ENDROOT
BRANCH   2   7
HETATM    7  C   UNL     1     -11.206  14.757  67.778  1.00  0.00    -0.313 A  
HETATM    8  C   UNL     1     -11.258  13.365  67.836  1.00  0.00    -0.303 A  
HETATM    9  C   UNL     1     -11.744  12.739  68.999  1.00  0.00    -0.323 A  
HETATM   10 CL   UNL     1     -12.587  15.940  71.313  1.00  0.00    -0.479 Cl 
HETATM   11  C   UNL     1     -12.170  13.499  70.100  1.00  0.00    -0.330 A  
HETATM   12  C   UNL     1     -11.611  15.528  68.866  1.00  0.00    -0.384 A  
HETATM   13 CL   UNL     1     -12.767  12.766  71.554  1.00  0.00    -0.385 Cl 
HETATM   14  C   UNL     1     -12.095  14.902  70.019  1.00  0.00    -0.338 A  
BRANCH   9  15
HETATM   15  S   UNL     1     -11.823  10.973  69.007  1.00  0.00    -0.288 S  
HETATM   16  O   UNL     1     -13.009  10.554  69.710  1.00  0.00    -0.106 OA 
HETATM   17  H2  UNL     1      -9.809  11.139  70.381  1.00  0.00     0.000 HD 
HETATM   18  H1  UNL     1     -10.542   9.515  69.936  1.00  0.00     0.000 HD 
HETATM   19  O   UNL     1     -11.520  10.492  67.675  1.00  0.00    -0.444 OA 
HETATM   20  N   UNL     1     -10.496  10.534  69.931  1.00  0.00    -0.215 N  
ENDBRANCH   9  15
ENDBRANCH   2   7
TORSDOF 2
ENDMDL
MODEL       47
REMARK 921   NORMALIZED FREE ENERGY PREDICTED BY IDOCK:   -4.77 KCAL/MOL
REMARK 922        TOTAL FREE ENERGY PREDICTED BY IDOCK:   -5.29 KCAL/MOL
REMARK 923 INTER-LIGAND FREE ENERGY PREDICTED BY IDOCK:   -5.70 KCAL/MOL
REMARK 924 INTRA-LIGAND FREE ENERGY PREDICTED BY IDOCK:    0.41 KCAL/MOL
REMARK 927      BINDING AFFINITY PREDICTED BY RF-SCORE:    0.00 PKD
ROOT
HETATM    1  N   UNL     1     -10.481  18.864  67.590  1.00  0.00    -0.427 N  
HETATM    2  S   UNL     1     -10.030  18.181  66.129  1.00  0.00    -0.248 S  
HETATM    3  H1  UNL     1      -9.878  18.454  68.303  1.00  0.00     0.000 HD 
HETATM    4  H2  UNL     1     -11.216  19.555  67.739  1.00  0.00     0.000 HD 
HETATM    5  O   UNL     1      -8.590  18.259  66.072  1.00  0.00    -0.494 OA 
HETATM    6  O   UNL     1     -10.884  18.760  65.120  1.00  0.00    -0.523 OA 
ENDROOT
BRANCH   2   7
HETATM    7  C   UNL     1     -10.498  16.491  66.374  1.00  0.00    -0.274 A  
HETATM    8  C   UNL     1     -10.910  15.709  65.295  1.00  0.00    -0.420 A  
HETATM    9  C   UNL     1     -11.270  14.367  65.511  1.00  0.00    -0.330 A  
HETATM   10 CL   UNL     1     -10.670  14.032  69.492  1.00  0.00    -0.085 Cl 
HETATM   11  C   UNL     1     -11.214  13.806  66.797  1.00  0.00    -0.316 A  
HETATM   12  C   UNL     1     -10.422  15.949  67.655  1.00  0.00    -0.289 A  
HETATM   13 CL   UNL     1     -11.641  12.153  67.105  1.00  0.00    -0.412 Cl 
HETATM   14  C   UNL     1     -10.784  14.615  67.866  1.00  0.00    -0.250 A  
BRANCH   9  15
HETATM   15  S   UNL     1     -11.818  13.431  64.116  1.00  0.00    -0.448 S  
HETATM   16  O   UNL     1     -12.433  14.317  63.161  1.00  0.00    -0.612 OA 
HETATM   17  H2  UNL     1     -13.354  12.411  65.721  1.00  0.00     0.000 HD 
HETATM   18  H1  UNL     1     -13.337  11.915  63.953  1.00  0.00     0.000 HD 
HETATM   19  O   UNL     1     -10.765  12.514  63.733  1.00  0.00    -0.405 OA 
HETATM   20  N   UNL     1     -13.020  12.455  64.758  1.00  0.00    -0.166 N  
ENDBRANCH   9  15
ENDBRANCH   2   7
TORSDOF 2
ENDMDL
MODEL       48
REMARK 921   NORMALIZED FREE ENERGY PREDICTED BY IDOCK:   -4.76 KCAL/MOL
REMARK 922        TOTAL FREE ENERGY PREDICTED BY IDOCK:   -5.29 KCAL/MOL
REMARK 923 INTER-LIGAND FREE ENERGY PREDICTED BY IDOCK:   -5.06 KCAL/MOL
REMARK 924 INTRA-LIGAND FREE ENERGY PREDICTED BY IDOCK:   -0.22 KCAL/MOL
REMARK 927      BINDING AFFINITY PREDICTED BY RF-SCORE:    0.00 PKD
ROOT
HETATM    1  N   UNL     1     -10.934   8.413  68.159  1.00  0.00    -0.449 N  
HETATM    2  S   UNL     1     -10.552   9.571  69.307  1.00  0.00    -0.217 S  
HETATM    3  H1  UNL     1     -10.311   8.570  67.366  1.00  0.00     0.000 HD 
HETATM    4  H2  UNL     1     -11.649   7.690  68.236  1.00  0.00     0.000 HD 
HETATM    5  O   UNL     1      -9.114   9.561  69.430  1.00  0.00    -0.148 OA 
HETATM    6  O   UNL     1     -11.433   9.348  70.428  1.00  0.00    -0.256 OA 
ENDROOT
BRANCH   2   7
HETATM    7  C   UNL     1     -11.042  11.057  68.481  1.00  0.00    -0.243 A  
HETATM    8  C   UNL     1     -11.037  11.124  67.088  1.00  0.00    -0.352 A  
HETATM    9  C   UNL     1     -11.437  12.313  66.451  1.00  0.00    -0.378 A  
HETATM   10 CL   UNL     1     -12.339  14.634  69.631  1.00  0.00    -0.308 Cl 
HETATM   11  C   UNL     1     -11.845  13.428  67.200  1.00  0.00    -0.382 A  
HETATM   12  C   UNL     1     -11.457  12.148  69.241  1.00  0.00    -0.363 A  
HETATM   13 CL   UNL     1     -12.354  14.909  66.455  1.00  0.00     0.074 Cl 
HETATM   14  C   UNL     1     -11.852  13.328  68.604  1.00  0.00    -0.345 A  
BRANCH   9  15
HETATM   15  S   UNL     1     -11.379  12.357  64.685  1.00  0.00    -0.330 S  
HETATM   16  O   UNL     1     -12.722  12.406  64.166  1.00  0.00    -0.654 OA 
HETATM   17  H2  UNL     1     -10.437  10.113  64.911  1.00  0.00     0.000 HD 
HETATM   18  H1  UNL     1     -10.695  10.890  63.267  1.00  0.00     0.000 HD 
HETATM   19  O   UNL     1     -10.373  13.317  64.281  1.00  0.00    -0.427 OA 
HETATM   20  N   UNL     1     -10.729  10.865  64.286  1.00  0.00    -0.289 N  
ENDBRANCH   9  15
ENDBRANCH   2   7
TORSDOF 2
ENDMDL
MODEL       49
REMARK 921   NORMALIZED FREE ENERGY PREDICTED BY IDOCK:   -4.75 KCAL/MOL
REMARK 922        TOTAL FREE ENERGY PREDICTED BY IDOCK:   -5.27 KCAL/MOL
REMARK 923 INTER-LIGAND FREE ENERGY PREDICTED BY IDOCK:   -5.28 KCAL/MOL
REMARK 924 INTRA-LIGAND FREE ENERGY PREDICTED BY IDOCK:    0.01 KCAL/MOL
REMARK 927      BINDING AFFINITY PREDICTED BY RF-SCORE:    0.00 PKD
ROOT
HETATM    1  N   UNL     1     -11.101  14.862  64.384  1.00  0.00    -0.645 N  
HETATM    2  S   UNL     1     -12.248  13.643  64.463  1.00  0.00    -0.385 S  
HETATM    3  H1  UNL     1     -10.356  14.524  63.775  1.00  0.00     0.000 HD 
HETATM    4  H2  UNL     1     -11.140  15.766  64.854  1.00  0.00     0.000 HD 
HETATM    5  O   UNL     1     -12.482  13.220  63.103  1.00  0.00    -0.696 OA 
HETATM    6  O   UNL     1     -13.301  14.121  65.324  1.00  0.00    -0.715 OA 
ENDROOT
BRANCH   2   7
HETATM    7  C   UNL     1     -11.350  12.372  65.306  1.00  0.00    -0.332 A  
HETATM    8  C   UNL     1     -10.292  11.718  64.675  1.00  0.00    -0.336 A  
HETATM    9  C   UNL     1      -9.586  10.716  65.367  1.00  0.00    -0.230 A  
HETATM   10 CL   UNL     1     -11.509  10.722  68.919  1.00  0.00    -0.341 Cl 
HETATM   11  C   UNL     1      -9.932  10.372  66.683  1.00  0.00    -0.210 A  
HETATM   12  C   UNL     1     -11.698  12.055  66.617  1.00  0.00    -0.331 A  
HETATM   13 CL   UNL     1      -9.084   9.150  67.574  1.00  0.00    -0.134 Cl 
HETATM   14  C   UNL     1     -10.996  11.057  67.300  1.00  0.00    -0.297 A  
BRANCH   9  15
HETATM   15  S   UNL     1      -8.278   9.895  64.509  1.00  0.00    -0.173 S  
HETATM   16  O   UNL     1      -8.438   8.469  64.652  1.00  0.00    -0.166 OA 
HETATM   17  H2  UNL     1      -6.851  10.951  66.189  1.00  0.00     0.000 HD 
HETATM   18  H1  UNL     1      -6.158   9.872  64.874  1.00  0.00     0.000 HD 
HETATM   19  O   UNL     1      -8.118  10.514  63.210  1.00  0.00    -0.151 OA 
HETATM   20  N   UNL     1      -6.912  10.347  65.368  1.00  0.00    -0.137 N  
ENDBRANCH   9  15
ENDBRANCH   2   7
TORSDOF 2
ENDMDL
MODEL       50
REMARK 921   NORMALIZED FREE ENERGY PREDICTED BY IDOCK:   -4.75 KCAL/MOL
REMARK 922        TOTAL FREE ENERGY PREDICTED BY IDOCK:   -5.27 KCAL/MOL
REMARK 923 INTER-LIGAND FREE ENERGY PREDICTED BY IDOCK:   -5.37 KCAL/MOL
REMARK 924 INTRA-LIGAND FREE ENERGY PREDICTED BY IDOCK:    0.10 KCAL/MOL
REMARK 927      BINDING AFFINITY PREDICTED BY RF-SCORE:    0.00 PKD
ROOT
HETATM    1  N   UNL     1     -11.591  12.338  63.221  1.00  0.00    -0.711 N  
HETATM    2  S   UNL     1     -11.605  13.143  64.690  1.00  0.00    -0.366 S  
HETATM    3  H1  UNL     1     -12.345  11.652  63.256  1.00  0.00     0.000 HD 
HETATM    4  H2  UNL     1     -10.952  12.501  62.443  1.00  0.00     0.000 HD 
HETATM    5  O   UNL     1     -12.979  13.507  64.939  1.00  0.00    -0.708 OA 
HETATM    6  O   UNL     1     -10.538  14.113  64.640  1.00  0.00    -0.420 OA 
ENDROOT
BRANCH   2   7
HETATM    7  C   UNL     1     -11.150  11.846  65.804  1.00  0.00    -0.317 A  
HETATM    8  C   UNL     1     -11.600  11.858  67.124  1.00  0.00    -0.363 A  
HETATM    9  C   UNL     1     -11.232  10.813  67.990  1.00  0.00    -0.307 A  
HETATM   10 CL   UNL     1      -8.999   8.514  65.532  1.00  0.00    -0.211 Cl 
HETATM   11  C   UNL     1     -10.424   9.757  67.540  1.00  0.00    -0.251 A  
HETATM   12  C   UNL     1     -10.359  10.799  65.335  1.00  0.00    -0.315 A  
HETATM   13 CL   UNL     1      -9.955   8.445  68.573  1.00  0.00    -0.194 Cl 
HETATM   14  C   UNL     1      -9.994   9.763  66.200  1.00  0.00    -0.268 A  
BRANCH   9  15
HETATM   15  S   UNL     1     -11.800  10.896  69.662  1.00  0.00    -0.359 S  
HETATM   16  O   UNL     1     -13.135  10.357  69.738  1.00  0.00    -0.015 OA 
HETATM   17  H2  UNL     1     -11.676  13.313  69.319  1.00  0.00     0.000 HD 
HETATM   18  H1  UNL     1     -12.222  12.591  70.918  1.00  0.00     0.000 HD 
HETATM   19  O   UNL     1     -10.742  10.427  70.532  1.00  0.00    -0.236 OA 
HETATM   20  N   UNL     1     -11.894  12.543  69.953  1.00  0.00    -0.329 N  
ENDBRANCH   9  15
ENDBRANCH   2   7
TORSDOF 2
ENDMDL
MODEL       51
REMARK 921   NORMALIZED FREE ENERGY PREDICTED BY IDOCK:   -4.73 KCAL/MOL
REMARK 922        TOTAL FREE ENERGY PREDICTED BY IDOCK:   -5.26 KCAL/MOL
REMARK 923 INTER-LIGAND FREE ENERGY PREDICTED BY IDOCK:   -5.35 KCAL/MOL
REMARK 924 INTRA-LIGAND FREE ENERGY PREDICTED BY IDOCK:    0.09 KCAL/MOL
REMARK 927      BINDING AFFINITY PREDICTED BY RF-SCORE:    0.00 PKD
ROOT
HETATM    1  N   UNL     1     -10.125  10.642  69.733  1.00  0.00    -0.442 N  
HETATM    2  S   UNL     1     -11.580  11.049  69.011  1.00  0.00    -0.344 S  
HETATM    3  H1  UNL     1     -10.100  11.122  70.633  1.00  0.00     0.000 HD 
HETATM    4  H2  UNL     1      -9.403  10.032  69.349  1.00  0.00     0.000 HD 
HETATM    5  O   UNL     1     -12.597  10.870  70.019  1.00  0.00    -0.295 OA 
HETATM    6  O   UNL     1     -11.614  10.370  67.738  1.00  0.00    -0.405 OA 
ENDROOT
BRANCH   2   7
HETATM    7  C   UNL     1     -11.357  12.782  68.730  1.00  0.00    -0.288 A  
HETATM    8  C   UNL     1     -10.859  13.241  67.511  1.00  0.00    -0.276 A  
HETATM    9  C   UNL     1     -10.697  14.624  67.306  1.00  0.00    -0.290 A  
HETATM   10 CL   UNL     1     -12.005  16.092  70.835  1.00  0.00    -0.416 Cl 
HETATM   11  C   UNL     1     -11.036  15.544  68.311  1.00  0.00    -0.305 A  
HETATM   12  C   UNL     1     -11.713  13.681  69.734  1.00  0.00    -0.364 A  
HETATM   13 CL   UNL     1     -10.860  17.256  68.096  1.00  0.00    -0.353 Cl 
HETATM   14  C   UNL     1     -11.548  15.053  69.527  1.00  0.00    -0.311 A  
BRANCH   9  15
HETATM   15  S   UNL     1     -10.028  15.150  65.758  1.00  0.00    -0.358 S  
HETATM   16  O   UNL     1      -8.772  15.821  65.986  1.00  0.00    -0.313 OA 
HETATM   17  H2  UNL     1     -11.986  16.610  65.692  1.00  0.00     0.000 HD 
HETATM   18  H1  UNL     1     -10.746  16.598  64.337  1.00  0.00     0.000 HD 
HETATM   19  O   UNL     1     -10.144  14.061  64.811  1.00  0.00    -0.375 OA 
HETATM   20  N   UNL     1     -11.133  16.294  65.231  1.00  0.00    -0.212 N  
ENDBRANCH   9  15
ENDBRANCH   2   7
TORSDOF 2
ENDMDL
MODEL       52
REMARK 921   NORMALIZED FREE ENERGY PREDICTED BY IDOCK:   -4.72 KCAL/MOL
REMARK 922        TOTAL FREE ENERGY PREDICTED BY IDOCK:   -5.25 KCAL/MOL
REMARK 923 INTER-LIGAND FREE ENERGY PREDICTED BY IDOCK:   -5.40 KCAL/MOL
REMARK 924 INTRA-LIGAND FREE ENERGY PREDICTED BY IDOCK:    0.15 KCAL/MOL
REMARK 927      BINDING AFFINITY PREDICTED BY RF-SCORE:    0.00 PKD
ROOT
HETATM    1  N   UNL     1     -13.334  13.435  72.162  1.00  0.00    -0.493 N  
HETATM    2  S   UNL     1     -13.007  15.006  71.684  1.00  0.00    -0.389 S  
HETATM    3  H1  UNL     1     -12.437  13.005  72.390  1.00  0.00     0.000 HD 
HETATM    4  H2  UNL     1     -14.251  12.992  72.214  1.00  0.00     0.000 HD 
HETATM    5  O   UNL     1     -12.110  15.552  72.675  1.00  0.00    -0.361 OA 
HETATM    6  O   UNL     1     -14.275  15.613  71.361  1.00  0.00    -0.535 OA 
ENDROOT
BRANCH   2   7
HETATM    7  C   UNL     1     -12.103  14.736  70.187  1.00  0.00    -0.327 A  
HETATM    8  C   UNL     1     -11.331  15.757  69.634  1.00  0.00    -0.334 A  
HETATM    9  C   UNL     1     -10.614  15.518  68.448  1.00  0.00    -0.252 A  
HETATM   10 CL   UNL     1     -11.574  11.662  67.722  1.00  0.00    -0.373 Cl 
HETATM   11  C   UNL     1     -10.664  14.264  67.818  1.00  0.00    -0.251 A  
HETATM   12  C   UNL     1     -12.153  13.480  69.585  1.00  0.00    -0.365 A  
HETATM   13 CL   UNL     1      -9.789  13.925  66.359  1.00  0.00    -0.293 Cl 
HETATM   14  C   UNL     1     -11.441  13.247  68.404  1.00  0.00    -0.314 A  
BRANCH   9  15
HETATM   15  S   UNL     1      -9.680  16.856  67.770  1.00  0.00    -0.255 S  
HETATM   16  O   UNL     1      -8.426  16.964  68.472  1.00  0.00    -0.238 OA 
HETATM   17  H2  UNL     1     -11.488  18.239  68.661  1.00  0.00     0.000 HD 
HETATM   18  H1  UNL     1     -10.062  18.974  67.766  1.00  0.00     0.000 HD 
HETATM   19  O   UNL     1      -9.736  16.773  66.326  1.00  0.00    -0.270 OA 
HETATM   20  N   UNL     1     -10.601  18.201  68.157  1.00  0.00    -0.347 N  
ENDBRANCH   9  15
ENDBRANCH   2   7
TORSDOF 2
ENDMDL
MODEL       53
REMARK 921   NORMALIZED FREE ENERGY PREDICTED BY IDOCK:   -4.72 KCAL/MOL
REMARK 922        TOTAL FREE ENERGY PREDICTED BY IDOCK:   -5.24 KCAL/MOL
REMARK 923 INTER-LIGAND FREE ENERGY PREDICTED BY IDOCK:   -5.03 KCAL/MOL
REMARK 924 INTRA-LIGAND FREE ENERGY PREDICTED BY IDOCK:   -0.21 KCAL/MOL
REMARK 927      BINDING AFFINITY PREDICTED BY RF-SCORE:    0.00 PKD
ROOT
HETATM    1  N   UNL     1     -10.325  10.431  66.113  1.00  0.00    -0.228 N  
HETATM    2  S   UNL     1     -10.836  11.661  67.130  1.00  0.00    -0.276 S  
HETATM    3  H1  UNL     1     -11.132   9.826  65.957  1.00  0.00     0.000 HD 
HETATM    4  H2  UNL     1      -9.390  10.310  65.726  1.00  0.00     0.000 HD 
HETATM    5  O   UNL     1     -12.082  12.146  66.584  1.00  0.00    -0.622 OA 
HETATM    6  O   UNL     1      -9.695  12.516  67.350  1.00  0.00    -0.190 OA 
ENDROOT
BRANCH   2   7
HETATM    7  C   UNL     1     -11.178  10.765  68.618  1.00  0.00    -0.274 A  
HETATM    8  C   UNL     1     -10.666   9.481  68.801  1.00  0.00    -0.218 A  
HETATM    9  C   UNL     1     -10.944   8.790  69.995  1.00  0.00    -0.209 A  
HETATM   10 CL   UNL     1     -13.183  11.512  71.968  1.00  0.00    -0.568 Cl 
HETATM   11  C   UNL     1     -11.723   9.380  71.002  1.00  0.00    -0.323 A  
HETATM   12  C   UNL     1     -11.941  11.373  69.612  1.00  0.00    -0.416 A  
HETATM   13 CL   UNL     1     -12.082   8.566  72.491  1.00  0.00    -0.441 Cl 
HETATM   14  C   UNL     1     -12.216  10.682  70.796  1.00  0.00    -0.375 A  
BRANCH   9  15
HETATM   15  S   UNL     1     -10.303   7.152  70.161  1.00  0.00    -0.211 S  
HETATM   16  O   UNL     1      -9.389   7.110  71.275  1.00  0.00    -0.156 OA 
HETATM   17  H2  UNL     1      -9.271   7.604  67.992  1.00  0.00     0.000 HD 
HETATM   18  H1  UNL     1      -9.040   5.999  68.854  1.00  0.00     0.000 HD 
HETATM   19  O   UNL     1     -11.399   6.213  70.044  1.00  0.00    -0.392 OA 
HETATM   20  N   UNL     1      -9.411   6.944  68.758  1.00  0.00    -0.131 N  
ENDBRANCH   9  15
ENDBRANCH   2   7
TORSDOF 2
ENDMDL
MODEL       54
REMARK 921   NORMALIZED FREE ENERGY PREDICTED BY IDOCK:   -4.72 KCAL/MOL
REMARK 922        TOTAL FREE ENERGY PREDICTED BY IDOCK:   -5.24 KCAL/MOL
REMARK 923 INTER-LIGAND FREE ENERGY PREDICTED BY IDOCK:   -5.02 KCAL/MOL
REMARK 924 INTRA-LIGAND FREE ENERGY PREDICTED BY IDOCK:   -0.22 KCAL/MOL
REMARK 927      BINDING AFFINITY PREDICTED BY RF-SCORE:    0.00 PKD
ROOT
HETATM    1  N   UNL     1     -12.186  10.773  69.180  1.00  0.00    -0.517 N  
HETATM    2  S   UNL     1     -10.780  10.658  68.276  1.00  0.00    -0.240 S  
HETATM    3  H1  UNL     1     -12.962  10.713  68.521  1.00  0.00     0.000 HD 
HETATM    4  H2  UNL     1     -12.253  10.883  70.191  1.00  0.00     0.000 HD 
HETATM    5  O   UNL     1     -10.962   9.538  67.385  1.00  0.00    -0.232 OA 
HETATM    6  O   UNL     1      -9.681  10.744  69.208  1.00  0.00    -0.198 OA 
ENDROOT
BRANCH   2   7
HETATM    7  C   UNL     1     -10.848  12.153  67.332  1.00  0.00    -0.245 A  
HETATM    8  C   UNL     1     -10.356  13.346  67.861  1.00  0.00    -0.238 A  
HETATM    9  C   UNL     1     -10.414  14.521  67.090  1.00  0.00    -0.267 A  
HETATM   10 CL   UNL     1     -12.115  13.143  63.696  1.00  0.00    -0.582 Cl 
HETATM   11  C   UNL     1     -10.955  14.505  65.795  1.00  0.00    -0.319 A  
HETATM   12  C   UNL     1     -11.375  12.114  66.042  1.00  0.00    -0.410 A  
HETATM   13 CL   UNL     1     -11.036  15.929  64.808  1.00  0.00    -0.454 Cl 
HETATM   14  C   UNL     1     -11.433  13.285  65.280  1.00  0.00    -0.295 A  
BRANCH   9  15
HETATM   15  S   UNL     1      -9.810  16.012  67.822  1.00  0.00    -0.233 S  
HETATM   16  O   UNL     1      -8.652  16.464  67.093  1.00  0.00    -0.169 OA 
HETATM   17  H2  UNL     1      -9.330  14.579  69.743  1.00  0.00     0.000 HD 
HETATM   18  H1  UNL     1      -8.951  16.376  69.761  1.00  0.00     0.000 HD 
HETATM   19  O   UNL     1     -10.934  16.888  68.079  1.00  0.00    -0.354 OA 
HETATM   20  N   UNL     1      -9.300  15.515  69.339  1.00  0.00    -0.270 N  
ENDBRANCH   9  15
ENDBRANCH   2   7
TORSDOF 2
ENDMDL
MODEL       55
REMARK 921   NORMALIZED FREE ENERGY PREDICTED BY IDOCK:   -4.71 KCAL/MOL
REMARK 922        TOTAL FREE ENERGY PREDICTED BY IDOCK:   -5.23 KCAL/MOL
REMARK 923 INTER-LIGAND FREE ENERGY PREDICTED BY IDOCK:   -5.00 KCAL/MOL
REMARK 924 INTRA-LIGAND FREE ENERGY PREDICTED BY IDOCK:   -0.23 KCAL/MOL
REMARK 927      BINDING AFFINITY PREDICTED BY RF-SCORE:    0.00 PKD
ROOT
HETATM    1  N   UNL     1      -8.606  18.418  67.132  1.00  0.00    -0.257 N  
HETATM    2  S   UNL     1     -10.100  17.782  66.722  1.00  0.00    -0.364 S  
HETATM    3  H1  UNL     1      -7.969  18.187  66.369  1.00  0.00     0.000 HD 
HETATM    4  H2  UNL     1      -8.376  18.936  67.980  1.00  0.00     0.000 HD 
HETATM    5  O   UNL     1     -10.345  18.175  65.355  1.00  0.00    -0.537 OA 
HETATM    6  O   UNL     1     -10.999  18.109  67.801  1.00  0.00    -0.315 OA 
ENDROOT
BRANCH   2   7
HETATM    7  C   UNL     1      -9.764  16.045  66.762  1.00  0.00    -0.239 A  
HETATM    8  C   UNL     1     -10.690  15.135  66.254  1.00  0.00    -0.320 A  
HETATM    9  C   UNL     1     -10.399  13.759  66.290  1.00  0.00    -0.294 A  
HETATM   10 CL   UNL     1      -6.737  13.781  67.995  1.00  0.00    -0.121 Cl 
HETATM   11  C   UNL     1      -9.187  13.294  66.824  1.00  0.00    -0.233 A  
HETATM   12  C   UNL     1      -8.549  15.604  67.283  1.00  0.00    -0.213 A  
HETATM   13 CL   UNL     1      -8.786  11.608  66.878  1.00  0.00    -0.179 Cl 
HETATM   14  C   UNL     1      -8.265  14.236  67.318  1.00  0.00    -0.192 A  
BRANCH   9  15
HETATM   15  S   UNL     1     -11.622  12.646  65.667  1.00  0.00    -0.397 S  
HETATM   16  O   UNL     1     -11.134  12.031  64.458  1.00  0.00    -0.306 OA 
HETATM   17  H2  UNL     1     -12.940  14.678  65.335  1.00  0.00     0.000 HD 
HETATM   18  H1  UNL     1     -13.594  13.020  64.890  1.00  0.00     0.000 HD 
HETATM   19  O   UNL     1     -12.131  11.856  66.768  1.00  0.00    -0.593 OA 
HETATM   20  N   UNL     1     -12.888  13.662  65.250  1.00  0.00    -0.439 N  
ENDBRANCH   9  15
ENDBRANCH   2   7
TORSDOF 2
ENDMDL
MODEL       56
REMARK 921   NORMALIZED FREE ENERGY PREDICTED BY IDOCK:   -4.70 KCAL/MOL
REMARK 922        TOTAL FREE ENERGY PREDICTED BY IDOCK:   -5.22 KCAL/MOL
REMARK 923 INTER-LIGAND FREE ENERGY PREDICTED BY IDOCK:   -5.29 KCAL/MOL
REMARK 924 INTRA-LIGAND FREE ENERGY PREDICTED BY IDOCK:    0.06 KCAL/MOL
REMARK 927      BINDING AFFINITY PREDICTED BY RF-SCORE:    0.00 PKD
ROOT
HETATM    1  N   UNL     1     -11.550   6.561  69.460  1.00  0.00    -0.642 N  
HETATM    2  S   UNL     1     -11.380   7.339  70.934  1.00  0.00    -0.289 S  
HETATM    3  H1  UNL     1     -10.761   6.853  68.883  1.00  0.00     0.000 HD 
HETATM    4  H2  UNL     1     -12.297   5.922  69.191  1.00  0.00     0.000 HD 
HETATM    5  O   UNL     1     -10.006   7.149  71.336  1.00  0.00    -0.187 OA 
HETATM    6  O   UNL     1     -12.496   6.927  71.751  1.00  0.00    -0.345 OA 
ENDROOT
BRANCH   2   7
HETATM    7  C   UNL     1     -11.605   9.030  70.465  1.00  0.00    -0.175 A  
HETATM    8  C   UNL     1     -11.147   9.488  69.230  1.00  0.00    -0.109 A  
HETATM    9  C   UNL     1     -11.344  10.834  68.874  1.00  0.00    -0.284 A  
HETATM   10 CL   UNL     1     -13.289  12.223  72.130  1.00  0.00    -0.587 Cl 
HETATM   11  C   UNL     1     -12.000  11.719  69.745  1.00  0.00    -0.322 A  
HETATM   12  C   UNL     1     -12.272   9.890  71.336  1.00  0.00    -0.499 A  
HETATM   13 CL   UNL     1     -12.270  13.384  69.341  1.00  0.00    -0.300 Cl 
HETATM   14  C   UNL     1     -12.463  11.228  70.980  1.00  0.00    -0.400 A  
BRANCH   9  15
HETATM   15  S   UNL     1     -10.711  11.370  67.314  1.00  0.00    -0.256 S  
HETATM   16  O   UNL     1     -10.065  10.262  66.657  1.00  0.00    -0.206 OA 
HETATM   17  H2  UNL     1      -9.240  12.770  68.673  1.00  0.00     0.000 HD 
HETATM   18  H1  UNL     1      -9.162  12.785  66.839  1.00  0.00     0.000 HD 
HETATM   19  O   UNL     1     -11.729  12.158  66.650  1.00  0.00    -0.493 OA 
HETATM   20  N   UNL     1      -9.527  12.476  67.739  1.00  0.00    -0.190 N  
ENDBRANCH   9  15
ENDBRANCH   2   7
TORSDOF 2
ENDMDL
MODEL       57
REMARK 921   NORMALIZED FREE ENERGY PREDICTED BY IDOCK:   -4.70 KCAL/MOL
REMARK 922        TOTAL FREE ENERGY PREDICTED BY IDOCK:   -5.22 KCAL/MOL
REMARK 923 INTER-LIGAND FREE ENERGY PREDICTED BY IDOCK:   -5.30 KCAL/MOL
REMARK 924 INTRA-LIGAND FREE ENERGY PREDICTED BY IDOCK:    0.08 KCAL/MOL
REMARK 927      BINDING AFFINITY PREDICTED BY RF-SCORE:    0.00 PKD
ROOT
HETATM    1  N   UNL     1     -11.298  13.508  63.971  1.00  0.00    -0.573 N  
HETATM    2  S   UNL     1     -12.248  14.687  64.687  1.00  0.00    -0.369 S  
HETATM    3  H1  UNL     1     -11.050  12.846  64.707  1.00  0.00     0.000 HD 
HETATM    4  H2  UNL     1     -11.021  13.461  62.991  1.00  0.00     0.000 HD 
HETATM    5  O   UNL     1     -13.236  13.988  65.475  1.00  0.00    -0.710 OA 
HETATM    6  O   UNL     1     -12.599  15.624  63.648  1.00  0.00    -0.476 OA 
ENDROOT
BRANCH   2   7
HETATM    7  C   UNL     1     -11.088  15.454  65.782  1.00  0.00    -0.260 A  
HETATM    8  C   UNL     1     -11.014  16.844  65.871  1.00  0.00     0.109 A  
HETATM    9  C   UNL     1     -10.089  17.432  66.753  1.00  0.00    -0.313 A  
HETATM   10 CL   UNL     1      -8.369  14.158  68.376  1.00  0.00    -0.158 Cl 
HETATM   11  C   UNL     1      -9.246  16.637  67.546  1.00  0.00    -0.207 A  
HETATM   12  C   UNL     1     -10.270  14.648  66.572  1.00  0.00    -0.282 A  
HETATM   13 CL   UNL     1      -8.099  17.322  68.652  1.00  0.00    -0.262 Cl 
HETATM   14  C   UNL     1      -9.351  15.237  67.445  1.00  0.00    -0.199 A  
BRANCH   9  15
HETATM   15  S   UNL     1     -10.011  19.197  66.801  1.00  0.00    -0.393 S  
HETATM   16  O   UNL     1     -10.814  19.737  65.733  1.00  0.00    -0.458 OA 
HETATM   17  H2  UNL     1      -7.653  18.858  66.257  1.00  0.00     0.000 HD 
HETATM   18  H1  UNL     1      -8.360  20.538  66.478  1.00  0.00     0.000 HD 
HETATM   19  O   UNL     1     -10.184  19.629  68.173  1.00  0.00    -0.420 OA 
HETATM   20  N   UNL     1      -8.405  19.520  66.451  1.00  0.00    -0.333 N  
ENDBRANCH   9  15
ENDBRANCH   2   7
TORSDOF 2
ENDMDL
MODEL       58
REMARK 921   NORMALIZED FREE ENERGY PREDICTED BY IDOCK:   -4.65 KCAL/MOL
REMARK 922        TOTAL FREE ENERGY PREDICTED BY IDOCK:   -5.16 KCAL/MOL
REMARK 923 INTER-LIGAND FREE ENERGY PREDICTED BY IDOCK:   -4.94 KCAL/MOL
REMARK 924 INTRA-LIGAND FREE ENERGY PREDICTED BY IDOCK:   -0.22 KCAL/MOL
REMARK 927      BINDING AFFINITY PREDICTED BY RF-SCORE:    0.00 PKD
ROOT
HETATM    1  N   UNL     1     -11.726   9.741  68.930  1.00  0.00    -0.312 N  
HETATM    2  S   UNL     1     -11.908  10.509  70.407  1.00  0.00    -0.366 S  
HETATM    3  H1  UNL     1     -10.755   9.876  68.648  1.00  0.00     0.000 HD 
HETATM    4  H2  UNL     1     -12.445   9.236  68.413  1.00  0.00     0.000 HD 
HETATM    5  O   UNL     1     -10.793  10.090  71.222  1.00  0.00    -0.205 OA 
HETATM    6  O   UNL     1     -13.281  10.318  70.806  1.00  0.00    -0.385 OA 
ENDROOT
BRANCH   2   7
HETATM    7  C   UNL     1     -11.674  12.203  69.951  1.00  0.00    -0.287 A  
HETATM    8  C   UNL     1     -11.033  12.530  68.756  1.00  0.00    -0.294 A  
HETATM    9  C   UNL     1     -10.865  13.883  68.410  1.00  0.00    -0.254 A  
HETATM   10 CL   UNL     1     -12.619  15.717  71.552  1.00  0.00    -0.496 Cl 
HETATM   11  C   UNL     1     -11.337  14.905  69.249  1.00  0.00    -0.296 A  
HETATM   12  C   UNL     1     -12.163  13.203  70.790  1.00  0.00    -0.375 A  
HETATM   13 CL   UNL     1     -11.157  16.584  68.855  1.00  0.00    -0.324 Cl 
HETATM   14  C   UNL     1     -11.991  14.546  70.443  1.00  0.00    -0.318 A  
BRANCH   9  15
HETATM   15  S   UNL     1     -10.015  14.243  66.903  1.00  0.00    -0.269 S  
HETATM   16  O   UNL     1     -10.945  14.802  65.954  1.00  0.00    -0.320 OA 
HETATM   17  H2  UNL     1      -9.735  11.819  66.774  1.00  0.00     0.000 HD 
HETATM   18  H1  UNL     1      -9.072  12.937  65.477  1.00  0.00     0.000 HD 
HETATM   19  O   UNL     1      -8.768  14.906  67.224  1.00  0.00    -0.182 OA 
HETATM   20  N   UNL     1      -9.562  12.729  66.347  1.00  0.00    -0.256 N  
ENDBRANCH   9  15
ENDBRANCH   2   7
TORSDOF 2
ENDMDL
MODEL       59
REMARK 921   NORMALIZED FREE ENERGY PREDICTED BY IDOCK:   -4.64 KCAL/MOL
REMARK 922        TOTAL FREE ENERGY PREDICTED BY IDOCK:   -5.15 KCAL/MOL
REMARK 923 INTER-LIGAND FREE ENERGY PREDICTED BY IDOCK:   -4.97 KCAL/MOL
REMARK 924 INTRA-LIGAND FREE ENERGY PREDICTED BY IDOCK:   -0.19 KCAL/MOL
REMARK 927      BINDING AFFINITY PREDICTED BY RF-SCORE:    0.00 PKD
ROOT
HETATM    1  N   UNL     1      -9.423  11.498  68.882  1.00  0.00    -0.399 N  
HETATM    2  S   UNL     1      -8.876  11.286  67.313  1.00  0.00    -0.153 S  
HETATM    3  H1  UNL     1     -10.438  11.396  68.855  1.00  0.00     0.000 HD 
HETATM    4  H2  UNL     1      -8.853  11.691  69.705  1.00  0.00     0.000 HD 
HETATM    5  O   UNL     1      -9.528  10.099  66.814  1.00  0.00    -0.160 OA 
HETATM    6  O   UNL     1      -7.441  11.431  67.352  1.00  0.00    -0.106 OA 
ENDROOT
BRANCH   2   7
HETATM    7  C   UNL     1      -9.573  12.699  66.507  1.00  0.00    -0.248 A  
HETATM    8  C   UNL     1      -9.223  13.987  66.912  1.00  0.00    -0.271 A  
HETATM    9  C   UNL     1      -9.783  15.096  66.252  1.00  0.00    -0.290 A  
HETATM   10 CL   UNL     1     -12.103  13.272  63.495  1.00  0.00    -0.588 Cl 
HETATM   11  C   UNL     1     -10.683  14.921  65.190  1.00  0.00    -0.411 A  
HETATM   12  C   UNL     1     -10.453  12.505  65.445  1.00  0.00    -0.308 A  
HETATM   13 CL   UNL     1     -11.390  16.261  64.345  1.00  0.00    -0.343 Cl 
HETATM   14  C   UNL     1     -11.009  13.610  64.793  1.00  0.00    -0.378 A  
BRANCH   9  15
HETATM   15  S   UNL     1      -9.334  16.705  66.829  1.00  0.00    -0.258 S  
HETATM   16  O   UNL     1      -8.418  17.307  65.892  1.00  0.00    -0.533 OA 
HETATM   17  H2  UNL     1      -8.283  15.480  68.664  1.00  0.00     0.000 HD 
HETATM   18  H1  UNL     1      -8.229  17.314  68.572  1.00  0.00     0.000 HD 
HETATM   19  O   UNL     1     -10.533  17.390  67.265  1.00  0.00    -0.335 OA 
HETATM   20  N   UNL     1      -8.488  16.385  68.240  1.00  0.00    -0.188 N  
ENDBRANCH   9  15
ENDBRANCH   2   7
TORSDOF 2
ENDMDL
MODEL       60
REMARK 921   NORMALIZED FREE ENERGY PREDICTED BY IDOCK:   -4.63 KCAL/MOL
REMARK 922        TOTAL FREE ENERGY PREDICTED BY IDOCK:   -5.14 KCAL/MOL
REMARK 923 INTER-LIGAND FREE ENERGY PREDICTED BY IDOCK:   -5.02 KCAL/MOL
REMARK 924 INTRA-LIGAND FREE ENERGY PREDICTED BY IDOCK:   -0.12 KCAL/MOL
REMARK 927      BINDING AFFINITY PREDICTED BY RF-SCORE:    0.00 PKD
ROOT
HETATM    1  N   UNL     1     -10.696  11.259  64.723  1.00  0.00    -0.305 N  
HETATM    2  S   UNL     1     -11.378  12.433  65.704  1.00  0.00    -0.362 S  
HETATM    3  H1  UNL     1     -11.353  10.478  64.701  1.00  0.00     0.000 HD 
HETATM    4  H2  UNL     1      -9.799  11.313  64.241  1.00  0.00     0.000 HD 
HETATM    5  O   UNL     1     -12.747  12.577  65.272  1.00  0.00    -0.654 OA 
HETATM    6  O   UNL     1     -10.449  13.536  65.736  1.00  0.00    -0.280 OA 
ENDROOT
BRANCH   2   7
HETATM    7  C   UNL     1     -11.362  11.625  67.279  1.00  0.00    -0.305 A  
HETATM    8  C   UNL     1     -10.810  10.351  67.413  1.00  0.00    -0.344 A  
HETATM    9  C   UNL     1     -10.801   9.730  68.675  1.00  0.00    -0.188 A  
HETATM   10 CL   UNL     1     -12.554  12.568  70.952  1.00  0.00    -0.390 Cl 
HETATM   11  C   UNL     1     -11.335  10.379  69.799  1.00  0.00    -0.289 A  
HETATM   12  C   UNL     1     -11.883  12.291  68.386  1.00  0.00    -0.358 A  
HETATM   13 CL   UNL     1     -11.335   9.653  71.374  1.00  0.00    -0.449 Cl 
HETATM   14  C   UNL     1     -11.874  11.670  69.638  1.00  0.00    -0.352 A  
BRANCH   9  15
HETATM   15  S   UNL     1     -10.123   8.101  68.782  1.00  0.00    -0.202 S  
HETATM   16  O   UNL     1      -8.770   8.181  69.274  1.00  0.00    -0.138 OA 
HETATM   17  H2  UNL     1     -10.344   8.120  66.349  1.00  0.00     0.000 HD 
HETATM   18  H1  UNL     1      -9.668   6.667  67.245  1.00  0.00     0.000 HD 
HETATM   19  O   UNL     1     -11.104   7.233  69.399  1.00  0.00    -0.178 OA 
HETATM   20  N   UNL     1     -10.060   7.606  67.183  1.00  0.00    -0.225 N  
ENDBRANCH   9  15
ENDBRANCH   2   7
TORSDOF 2
ENDMDL
MODEL       61
REMARK 921   NORMALIZED FREE ENERGY PREDICTED BY IDOCK:   -4.63 KCAL/MOL
REMARK 922        TOTAL FREE ENERGY PREDICTED BY IDOCK:   -5.14 KCAL/MOL
REMARK 923 INTER-LIGAND FREE ENERGY PREDICTED BY IDOCK:   -5.14 KCAL/MOL
REMARK 924 INTRA-LIGAND FREE ENERGY PREDICTED BY IDOCK:    0.00 KCAL/MOL
REMARK 927      BINDING AFFINITY PREDICTED BY RF-SCORE:    0.00 PKD
ROOT
HETATM    1  N   UNL     1     -11.492  14.899  64.316  1.00  0.00    -0.649 N  
HETATM    2  S   UNL     1     -10.855  14.592  65.834  1.00  0.00    -0.324 S  
HETATM    3  H1  UNL     1     -10.705  14.922  63.667  1.00  0.00     0.000 HD 
HETATM    4  H2  UNL     1     -12.476  15.036  64.084  1.00  0.00     0.000 HD 
HETATM    5  O   UNL     1      -9.943  13.485  65.675  1.00  0.00    -0.284 OA 
HETATM    6  O   UNL     1     -11.968  14.561  66.751  1.00  0.00    -0.397 OA 
ENDROOT
BRANCH   2   7
HETATM    7  C   UNL     1      -9.917  16.065  66.123  1.00  0.00    -0.325 A  
HETATM    8  C   UNL     1      -8.573  15.985  66.487  1.00  0.00    -0.344 A  
HETATM    9  C   UNL     1      -7.843  17.168  66.704  1.00  0.00    -0.262 A  
HETATM   10 CL   UNL     1     -10.657  19.967  65.951  1.00  0.00    -0.586 Cl 
HETATM   11  C   UNL     1      -8.451  18.425  66.553  1.00  0.00    -0.270 A  
HETATM   12  C   UNL     1     -10.533  17.303  65.954  1.00  0.00    -0.267 A  
HETATM   13 CL   UNL     1      -7.585  19.907  66.803  1.00  0.00    -0.283 Cl 
HETATM   14  C   UNL     1      -9.805  18.476  66.173  1.00  0.00    -0.283 A  
BRANCH   9  15
HETATM   15  S   UNL     1      -6.154  17.011  67.199  1.00  0.00    -0.181 S  
HETATM   16  O   UNL     1      -5.922  17.829  68.363  1.00  0.00    -0.167 OA 
HETATM   17  H2  UNL     1      -5.687  18.096  65.060  1.00  0.00     0.000 HD 
HETATM   18  H1  UNL     1      -4.339  17.599  66.204  1.00  0.00     0.000 HD 
HETATM   19  O   UNL     1      -5.795  15.608  67.174  1.00  0.00    -0.329 OA 
HETATM   20  N   UNL     1      -5.314  17.690  65.918  1.00  0.00    -0.189 N  
ENDBRANCH   9  15
ENDBRANCH   2   7
TORSDOF 2
ENDMDL
MODEL       62
REMARK 921   NORMALIZED FREE ENERGY PREDICTED BY IDOCK:   -4.61 KCAL/MOL
REMARK 922        TOTAL FREE ENERGY PREDICTED BY IDOCK:   -5.12 KCAL/MOL
REMARK 923 INTER-LIGAND FREE ENERGY PREDICTED BY IDOCK:   -5.16 KCAL/MOL
REMARK 924 INTRA-LIGAND FREE ENERGY PREDICTED BY IDOCK:    0.04 KCAL/MOL
REMARK 927      BINDING AFFINITY PREDICTED BY RF-SCORE:    0.00 PKD
ROOT
HETATM    1  N   UNL     1      -8.779   8.237  64.116  1.00  0.00    -0.384 N  
HETATM    2  S   UNL     1      -8.723   9.878  63.783  1.00  0.00    -0.231 S  
HETATM    3  H1  UNL     1      -9.757   7.956  64.038  1.00  0.00     0.000 HD 
HETATM    4  H2  UNL     1      -7.990   7.636  64.351  1.00  0.00     0.000 HD 
HETATM    5  O   UNL     1      -9.498  10.074  62.582  1.00  0.00    -0.292 OA 
HETATM    6  O   UNL     1      -7.341  10.275  63.894  1.00  0.00    -0.130 OA 
ENDROOT
BRANCH   2   7
HETATM    7  C   UNL     1      -9.622  10.544  65.155  1.00  0.00    -0.260 A  
HETATM    8  C   UNL     1     -10.234  11.793  65.058  1.00  0.00    -0.314 A  
HETATM    9  C   UNL     1     -10.950  12.300  66.158  1.00  0.00    -0.293 A  
HETATM   10 CL   UNL     1     -10.517   9.294  68.821  1.00  0.00    -0.231 Cl 
HETATM   11  C   UNL     1     -11.060  11.561  67.346  1.00  0.00    -0.282 A  
HETATM   12  C   UNL     1      -9.733   9.788  66.320  1.00  0.00    -0.295 A  
HETATM   13 CL   UNL     1     -11.941  12.145  68.721  1.00  0.00    -0.334 Cl 
HETATM   14  C   UNL     1     -10.444  10.297  67.412  1.00  0.00    -0.251 A  
BRANCH   9  15
HETATM   15  S   UNL     1     -11.674  13.904  65.995  1.00  0.00    -0.384 S  
HETATM   16  O   UNL     1     -12.992  13.775  65.425  1.00  0.00    -0.706 OA 
HETATM   17  H2  UNL     1      -9.879  14.276  64.379  1.00  0.00     0.000 HD 
HETATM   18  H1  UNL     1     -11.114  15.579  64.766  1.00  0.00     0.000 HD 
HETATM   19  O   UNL     1     -11.447  14.639  67.222  1.00  0.00    -0.346 OA 
HETATM   20  N   UNL     1     -10.695  14.654  64.860  1.00  0.00    -0.424 N  
ENDBRANCH   9  15
ENDBRANCH   2   7
TORSDOF 2
ENDMDL
MODEL       63
REMARK 921   NORMALIZED FREE ENERGY PREDICTED BY IDOCK:   -4.59 KCAL/MOL
REMARK 922        TOTAL FREE ENERGY PREDICTED BY IDOCK:   -5.10 KCAL/MOL
REMARK 923 INTER-LIGAND FREE ENERGY PREDICTED BY IDOCK:   -4.89 KCAL/MOL
REMARK 924 INTRA-LIGAND FREE ENERGY PREDICTED BY IDOCK:   -0.21 KCAL/MOL
REMARK 927      BINDING AFFINITY PREDICTED BY RF-SCORE:    0.00 PKD
ROOT
HETATM    1  N   UNL     1      -7.670  12.788  68.819  1.00  0.00    -0.297 N  
HETATM    2  S   UNL     1      -7.291  14.333  68.297  1.00  0.00    -0.140 S  
HETATM    3  H1  UNL     1      -7.558  12.171  68.014  1.00  0.00     0.000 HD 
HETATM    4  H2  UNL     1      -7.957  12.515  69.759  1.00  0.00     0.000 HD 
HETATM    5  O   UNL     1      -6.051  14.221  67.566  1.00  0.00    -0.328 OA 
HETATM    6  O   UNL     1      -7.449  15.205  69.435  1.00  0.00    -0.177 OA 
ENDROOT
BRANCH   2   7
HETATM    7  C   UNL     1      -8.601  14.645  67.148  1.00  0.00    -0.223 A  
HETATM    8  C   UNL     1      -9.259  13.586  66.524  1.00  0.00    -0.187 A  
HETATM    9  C   UNL     1     -10.303  13.857  65.621  1.00  0.00    -0.325 A  
HETATM   10 CL   UNL     1     -10.412  17.893  65.742  1.00  0.00    -0.294 Cl 
HETATM   11  C   UNL     1     -10.691  15.178  65.345  1.00  0.00    -0.381 A  
HETATM   12  C   UNL     1      -8.981  15.962  66.899  1.00  0.00    -0.257 A  
HETATM   13 CL   UNL     1     -11.978  15.554  64.245  1.00  0.00    -0.297 Cl 
HETATM   14  C   UNL     1     -10.017  16.227  65.999  1.00  0.00    -0.345 A  
BRANCH   9  15
HETATM   15  S   UNL     1     -11.080  12.481  64.830  1.00  0.00    -0.317 S  
HETATM   16  O   UNL     1     -12.468  12.432  65.216  1.00  0.00    -0.611 OA 
HETATM   17  H2  UNL     1      -9.571  11.152  66.219  1.00  0.00     0.000 HD 
HETATM   18  H1  UNL     1     -10.758  10.366  65.059  1.00  0.00     0.000 HD 
HETATM   19  O   UNL     1     -10.678  12.461  63.439  1.00  0.00    -0.446 OA 
HETATM   20  N   UNL     1     -10.310  11.160  65.515  1.00  0.00    -0.261 N  
ENDBRANCH   9  15
ENDBRANCH   2   7
TORSDOF 2
ENDMDL
MODEL       64
REMARK 921   NORMALIZED FREE ENERGY PREDICTED BY IDOCK:   -4.58 KCAL/MOL
REMARK 922        TOTAL FREE ENERGY PREDICTED BY IDOCK:   -5.08 KCAL/MOL
REMARK 923 INTER-LIGAND FREE ENERGY PREDICTED BY IDOCK:   -4.86 KCAL/MOL
REMARK 924 INTRA-LIGAND FREE ENERGY PREDICTED BY IDOCK:   -0.22 KCAL/MOL
REMARK 927      BINDING AFFINITY PREDICTED BY RF-SCORE:    0.00 PKD
ROOT
HETATM    1  N   UNL     1     -11.405   4.956  65.678  1.00  0.00    -0.911 N  
HETATM    2  S   UNL     1      -9.928   5.123  66.451  1.00  0.00    -0.235 S  
HETATM    3  H1  UNL     1     -11.589   5.840  65.204  1.00  0.00     0.000 HD 
HETATM    4  H2  UNL     1     -12.004   4.131  65.681  1.00  0.00     0.000 HD 
HETATM    5  O   UNL     1      -9.024   5.690  65.479  1.00  0.00    -0.158 OA 
HETATM    6  O   UNL     1      -9.668   3.873  67.121  1.00  0.00    -0.209 OA 
ENDROOT
BRANCH   2   7
HETATM    7  C   UNL     1     -10.305   6.356  67.663  1.00  0.00    -0.197 A  
HETATM    8  C   UNL     1     -10.290   7.709  67.322  1.00  0.00    -0.367 A  
HETATM    9  C   UNL     1     -10.601   8.672  68.300  1.00  0.00    -0.128 A  
HETATM   10 CL   UNL     1     -11.347   6.322  71.499  1.00  0.00    -0.341 Cl 
HETATM   11  C   UNL     1     -10.930   8.287  69.609  1.00  0.00    -0.086 A  
HETATM   12  C   UNL     1     -10.645   5.954  68.953  1.00  0.00    -0.357 A  
HETATM   13 CL   UNL     1     -11.328   9.441  70.841  1.00  0.00    -0.356 Cl 
HETATM   14  C   UNL     1     -10.951   6.914  69.922  1.00  0.00    -0.277 A  
BRANCH   9  15
HETATM   15  S   UNL     1     -10.531  10.373  67.825  1.00  0.00    -0.246 S  
HETATM   16  O   UNL     1     -11.851  10.945  67.911  1.00  0.00    -0.590 OA 
HETATM   17  H2  UNL     1      -9.931   9.477  65.632  1.00  0.00     0.000 HD 
HETATM   18  H1  UNL     1     -10.067  11.284  65.932  1.00  0.00     0.000 HD 
HETATM   19  O   UNL     1      -9.394  10.987  68.478  1.00  0.00    -0.174 OA 
HETATM   20  N   UNL     1     -10.106  10.302  66.206  1.00  0.00    -0.232 N  
ENDBRANCH   9  15
ENDBRANCH   2   7
TORSDOF 2
ENDMDL
MODEL       65
REMARK 921   NORMALIZED FREE ENERGY PREDICTED BY IDOCK:   -4.50 KCAL/MOL
REMARK 922        TOTAL FREE ENERGY PREDICTED BY IDOCK:   -5.00 KCAL/MOL
REMARK 923 INTER-LIGAND FREE ENERGY PREDICTED BY IDOCK:   -4.80 KCAL/MOL
REMARK 924 INTRA-LIGAND FREE ENERGY PREDICTED BY IDOCK:   -0.20 KCAL/MOL
REMARK 927      BINDING AFFINITY PREDICTED BY RF-SCORE:    0.00 PKD
ROOT
HETATM    1  N   UNL     1     -11.603  11.364  62.969  1.00  0.00    -0.853 N  
HETATM    2  S   UNL     1     -12.096  12.432  64.161  1.00  0.00    -0.476 S  
HETATM    3  H1  UNL     1     -11.941  10.442  63.245  1.00  0.00     0.000 HD 
HETATM    4  H2  UNL     1     -11.070  11.591  62.131  1.00  0.00     0.000 HD 
HETATM    5  O   UNL     1     -13.491  12.152  64.405  1.00  0.00    -0.675 OA 
HETATM    6  O   UNL     1     -11.619  13.737  63.771  1.00  0.00    -0.272 OA 
ENDROOT
BRANCH   2   7
HETATM    7  C   UNL     1     -11.153  11.868  65.548  1.00  0.00    -0.304 A  
HETATM    8  C   UNL     1      -9.910  11.264  65.358  1.00  0.00    -0.281 A  
HETATM    9  C   UNL     1      -9.173  10.830  66.475  1.00  0.00    -0.168 A  
HETATM   10 CL   UNL     1     -11.635  11.898  69.494  1.00  0.00    -0.375 Cl 
HETATM   11  C   UNL     1      -9.672  11.003  67.776  1.00  0.00    -0.170 A  
HETATM   12  C   UNL     1     -11.657  12.062  66.833  1.00  0.00    -0.389 A  
HETATM   13 CL   UNL     1      -8.792  10.490  69.180  1.00  0.00    -0.172 Cl 
HETATM   14  C   UNL     1     -10.923  11.627  67.940  1.00  0.00    -0.225 A  
BRANCH   9  15
HETATM   15  S   UNL     1      -7.622  10.038  66.176  1.00  0.00    -0.114 S  
HETATM   16  O   UNL     1      -6.570  10.804  66.797  1.00  0.00    -0.088 OA 
HETATM   17  H2  UNL     1      -8.071  10.598  63.840  1.00  0.00     0.000 HD 
HETATM   18  H1  UNL     1      -6.544   9.711  64.343  1.00  0.00     0.000 HD 
HETATM   19  O   UNL     1      -7.773   8.619  66.421  1.00  0.00    -0.092 OA 
HETATM   20  N   UNL     1      -7.439  10.167  64.515  1.00  0.00    -0.142 N  
ENDBRANCH   9  15
ENDBRANCH   2   7
TORSDOF 2
ENDMDL
MODEL       66
REMARK 921   NORMALIZED FREE ENERGY PREDICTED BY IDOCK:   -4.46 KCAL/MOL
REMARK 922        TOTAL FREE ENERGY PREDICTED BY IDOCK:   -4.95 KCAL/MOL
REMARK 923 INTER-LIGAND FREE ENERGY PREDICTED BY IDOCK:   -4.74 KCAL/MOL
REMARK 924 INTRA-LIGAND FREE ENERGY PREDICTED BY IDOCK:   -0.21 KCAL/MOL
REMARK 927      BINDING AFFINITY PREDICTED BY RF-SCORE:    0.00 PKD
ROOT
HETATM    1  N   UNL     1     -12.575   9.798  71.936  1.00  0.00    -0.395 N  
HETATM    2  S   UNL     1     -11.479   8.608  71.503  1.00  0.00    -0.320 S  
HETATM    3  H1  UNL     1     -13.403   9.658  71.357  1.00  0.00     0.000 HD 
HETATM    4  H2  UNL     1     -12.441  10.523  72.640  1.00  0.00     0.000 HD 
HETATM    5  O   UNL     1     -12.216   7.367  71.483  1.00  0.00    -0.305 OA 
HETATM    6  O   UNL     1     -10.308   8.807  72.322  1.00  0.00    -0.325 OA 
ENDROOT
BRANCH   2   7
HETATM    7  C   UNL     1     -11.099   9.070  69.838  1.00  0.00    -0.142 A  
HETATM    8  C   UNL     1     -11.271  10.388  69.415  1.00  0.00    -0.314 A  
HETATM    9  C   UNL     1     -10.956  10.735  68.088  1.00  0.00    -0.257 A  
HETATM   10 CL   UNL     1      -9.690   7.186  66.634  1.00  0.00    -0.240 Cl 
HETATM   11  C   UNL     1     -10.466   9.773  67.190  1.00  0.00    -0.250 A  
HETATM   12  C   UNL     1     -10.600   8.105  68.966  1.00  0.00    -0.167 A  
HETATM   13 CL   UNL     1     -10.058  10.162  65.550  1.00  0.00    -0.359 Cl 
HETATM   14  C   UNL     1     -10.291   8.454  67.648  1.00  0.00    -0.252 A  
BRANCH   9  15
HETATM   15  S   UNL     1     -11.227  12.410  67.593  1.00  0.00    -0.309 S  
HETATM   16  O   UNL     1      -9.955  13.066  67.420  1.00  0.00    -0.223 OA 
HETATM   17  H2  UNL     1     -12.218  12.643  69.815  1.00  0.00     0.000 HD 
HETATM   18  H1  UNL     1     -12.132  14.055  68.644  1.00  0.00     0.000 HD 
HETATM   19  O   UNL     1     -12.237  12.427  66.556  1.00  0.00    -0.586 OA 
HETATM   20  N   UNL     1     -11.976  13.088  68.930  1.00  0.00    -0.296 N  
ENDBRANCH   9  15
ENDBRANCH   2   7
TORSDOF 2
ENDMDL
MODEL       67
REMARK 921   NORMALIZED FREE ENERGY PREDICTED BY IDOCK:   -4.43 KCAL/MOL
REMARK 922        TOTAL FREE ENERGY PREDICTED BY IDOCK:   -4.92 KCAL/MOL
REMARK 923 INTER-LIGAND FREE ENERGY PREDICTED BY IDOCK:   -4.98 KCAL/MOL
REMARK 924 INTRA-LIGAND FREE ENERGY PREDICTED BY IDOCK:    0.07 KCAL/MOL
REMARK 927      BINDING AFFINITY PREDICTED BY RF-SCORE:    0.00 PKD
ROOT
HETATM    1  N   UNL     1     -10.713  18.122  67.354  1.00  0.00    -0.384 N  
HETATM    2  S   UNL     1     -10.062  17.807  65.843  1.00  0.00    -0.088 S  
HETATM    3  H1  UNL     1     -10.100  17.674  68.035  1.00  0.00     0.000 HD 
HETATM    4  H2  UNL     1     -11.558  18.657  67.554  1.00  0.00     0.000 HD 
HETATM    5  O   UNL     1      -8.653  18.104  65.939  1.00  0.00    -0.507 OA 
HETATM    6  O   UNL     1     -10.929  18.440  64.879  1.00  0.00    -0.598 OA 
ENDROOT
BRANCH   2   7
HETATM    7  C   UNL     1     -10.267  16.052  65.733  1.00  0.00    -0.377 A  
HETATM    8  C   UNL     1      -9.609  15.208  66.626  1.00  0.00    -0.272 A  
HETATM    9  C   UNL     1      -9.792  13.816  66.526  1.00  0.00    -0.290 A  
HETATM   10 CL   UNL     1     -12.357  13.591  63.414  1.00  0.00    -0.427 Cl 
HETATM   11  C   UNL     1     -10.633  13.271  65.542  1.00  0.00    -0.287 A  
HETATM   12  C   UNL     1     -11.117  15.531  64.759  1.00  0.00    -0.421 A  
HETATM   13 CL   UNL     1     -10.892  11.563  65.390  1.00  0.00    -0.336 Cl 
HETATM   14  C   UNL     1     -11.294  14.148  64.662  1.00  0.00    -0.371 A  
BRANCH   9  15
HETATM   15  S   UNL     1      -8.907  12.789  67.659  1.00  0.00    -0.202 S  
HETATM   16  O   UNL     1      -8.038  13.610  68.465  1.00  0.00    -0.144 OA 
HETATM   17  H2  UNL     1      -7.885  11.870  65.639  1.00  0.00     0.000 HD 
HETATM   18  H1  UNL     1      -7.434  11.260  67.311  1.00  0.00     0.000 HD 
HETATM   19  O   UNL     1      -9.837  11.855  68.258  1.00  0.00    -0.190 OA 
HETATM   20  N   UNL     1      -7.945  11.852  66.657  1.00  0.00    -0.090 N  
ENDBRANCH   9  15
ENDBRANCH   2   7
TORSDOF 2
ENDMDL
MODEL       68
REMARK 921   NORMALIZED FREE ENERGY PREDICTED BY IDOCK:   -4.43 KCAL/MOL
REMARK 922        TOTAL FREE ENERGY PREDICTED BY IDOCK:   -4.91 KCAL/MOL
REMARK 923 INTER-LIGAND FREE ENERGY PREDICTED BY IDOCK:   -4.92 KCAL/MOL
REMARK 924 INTRA-LIGAND FREE ENERGY PREDICTED BY IDOCK:    0.00 KCAL/MOL
REMARK 927      BINDING AFFINITY PREDICTED BY RF-SCORE:    0.00 PKD
ROOT
HETATM    1  N   UNL     1      -9.647   8.415  65.562  1.00  0.00    -0.383 N  
HETATM    2  S   UNL     1      -9.838   8.392  67.226  1.00  0.00    -0.227 S  
HETATM    3  H1  UNL     1      -8.911   9.092  65.362  1.00  0.00     0.000 HD 
HETATM    4  H2  UNL     1     -10.166   7.861  64.881  1.00  0.00     0.000 HD 
HETATM    5  O   UNL     1      -8.511   8.290  67.784  1.00  0.00    -0.129 OA 
HETATM    6  O   UNL     1     -10.880   7.435  67.509  1.00  0.00    -0.242 OA 
ENDROOT
BRANCH   2   7
HETATM    7  C   UNL     1     -10.458  10.022  67.530  1.00  0.00    -0.254 A  
HETATM    8  C   UNL     1     -10.414  10.991  66.528  1.00  0.00    -0.309 A  
HETATM    9  C   UNL     1     -10.920  12.278  66.789  1.00  0.00    -0.276 A  
HETATM   10 CL   UNL     1     -12.175  11.864  70.605  1.00  0.00    -0.464 Cl 
HETATM   11  C   UNL     1     -11.471  12.594  68.041  1.00  0.00    -0.318 A  
HETATM   12  C   UNL     1     -11.015  10.311  68.773  1.00  0.00    -0.285 A  
HETATM   13 CL   UNL     1     -12.112  14.165  68.400  1.00  0.00    -0.358 Cl 
HETATM   14  C   UNL     1     -11.514  11.592  69.029  1.00  0.00    -0.294 A  
BRANCH   9  15
HETATM   15  S   UNL     1     -10.806  13.480  65.498  1.00  0.00    -0.295 S  
HETATM   16  O   UNL     1     -10.175  14.670  66.010  1.00  0.00    -0.282 OA 
HETATM   17  H2  UNL     1     -13.247  13.469  65.616  1.00  0.00     0.000 HD 
HETATM   18  H1  UNL     1     -12.343  14.541  64.430  1.00  0.00     0.000 HD 
HETATM   19  O   UNL     1     -10.329  12.824  64.298  1.00  0.00    -0.372 OA 
HETATM   20  N   UNL     1     -12.409  13.847  65.174  1.00  0.00    -0.430 N  
ENDBRANCH   9  15
ENDBRANCH   2   7
TORSDOF 2
ENDMDL
MODEL       69
REMARK 921   NORMALIZED FREE ENERGY PREDICTED BY IDOCK:   -4.41 KCAL/MOL
REMARK 922        TOTAL FREE ENERGY PREDICTED BY IDOCK:   -4.89 KCAL/MOL
REMARK 923 INTER-LIGAND FREE ENERGY PREDICTED BY IDOCK:   -5.01 KCAL/MOL
REMARK 924 INTRA-LIGAND FREE ENERGY PREDICTED BY IDOCK:    0.12 KCAL/MOL
REMARK 927      BINDING AFFINITY PREDICTED BY RF-SCORE:    0.00 PKD
ROOT
HETATM    1  N   UNL     1     -12.911  12.479  64.746  1.00  0.00    -0.641 N  
HETATM    2  S   UNL     1     -11.752  13.621  64.348  1.00  0.00    -0.416 S  
HETATM    3  H1  UNL     1     -13.623  12.963  65.293  1.00  0.00     0.000 HD 
HETATM    4  H2  UNL     1     -12.905  11.491  64.492  1.00  0.00     0.000 HD 
HETATM    5  O   UNL     1     -12.470  14.771  63.852  1.00  0.00    -0.811 OA 
HETATM    6  O   UNL     1     -10.744  12.937  63.575  1.00  0.00    -0.307 OA 
ENDROOT
BRANCH   2   7
HETATM    7  C   UNL     1     -11.085  14.012  65.941  1.00  0.00    -0.301 A  
HETATM    8  C   UNL     1      -9.871  14.689  66.051  1.00  0.00    -0.347 A  
HETATM    9  C   UNL     1      -9.363  14.996  67.326  1.00  0.00    -0.202 A  
HETATM   10 CL   UNL     1     -12.252  13.471  69.702  1.00  0.00    -0.339 Cl 
HETATM   11  C   UNL     1     -10.067  14.634  68.486  1.00  0.00    -0.238 A  
HETATM   12  C   UNL     1     -11.805  13.657  67.080  1.00  0.00    -0.448 A  
HETATM   13 CL   UNL     1      -9.480  15.001  70.077  1.00  0.00     0.110 Cl 
HETATM   14  C   UNL     1     -11.295  13.962  68.345  1.00  0.00    -0.285 A  
BRANCH   9  15
HETATM   15  S   UNL     1      -7.804  15.823  67.410  1.00  0.00    -0.195 S  
HETATM   16  O   UNL     1      -7.819  16.755  68.510  1.00  0.00    -0.206 OA 
HETATM   17  H2  UNL     1      -8.466  16.758  65.252  1.00  0.00     0.000 HD 
HETATM   18  H1  UNL     1      -6.862  17.186  66.037  1.00  0.00     0.000 HD 
HETATM   19  O   UNL     1      -6.752  14.840  67.264  1.00  0.00    -0.279 OA 
HETATM   20  N   UNL     1      -7.762  16.709  65.988  1.00  0.00    -0.105 N  
ENDBRANCH   9  15
ENDBRANCH   2   7
TORSDOF 2
ENDMDL
MODEL       70
REMARK 921   NORMALIZED FREE ENERGY PREDICTED BY IDOCK:   -4.40 KCAL/MOL
REMARK 922        TOTAL FREE ENERGY PREDICTED BY IDOCK:   -4.89 KCAL/MOL
REMARK 923 INTER-LIGAND FREE ENERGY PREDICTED BY IDOCK:   -5.08 KCAL/MOL
REMARK 924 INTRA-LIGAND FREE ENERGY PREDICTED BY IDOCK:    0.19 KCAL/MOL
REMARK 927      BINDING AFFINITY PREDICTED BY RF-SCORE:    0.00 PKD
ROOT
HETATM    1  N   UNL     1      -8.988   7.754  64.963  1.00  0.00    -0.334 N  
HETATM    2  S   UNL     1      -9.443   7.899  66.569  1.00  0.00    -0.204 S  
HETATM    3  H1  UNL     1      -8.250   8.440  64.805  1.00  0.00     0.000 HD 
HETATM    4  H2  UNL     1      -9.374   7.106  64.277  1.00  0.00     0.000 HD 
HETATM    5  O   UNL     1      -8.221   7.921  67.336  1.00  0.00    -0.120 OA 
HETATM    6  O   UNL     1     -10.487   6.929  66.792  1.00  0.00    -0.257 OA 
ENDROOT
BRANCH   2   7
HETATM    7  C   UNL     1     -10.154   9.520  66.586  1.00  0.00    -0.252 A  
HETATM    8  C   UNL     1     -10.114  10.320  65.444  1.00  0.00    -0.354 A  
HETATM    9  C   UNL     1     -10.692  11.602  65.477  1.00  0.00    -0.281 A  
HETATM   10 CL   UNL     1     -12.086  11.731  69.266  1.00  0.00    -0.325 Cl 
HETATM   11  C   UNL     1     -11.310  12.082  66.643  1.00  0.00    -0.340 A  
HETATM   12  C   UNL     1     -10.776   9.973  67.747  1.00  0.00    -0.333 A  
HETATM   13 CL   UNL     1     -12.042  13.653  66.723  1.00  0.00    -0.449 Cl 
HETATM   14  C   UNL     1     -11.347  11.249  67.777  1.00  0.00    -0.285 A  
BRANCH   9  15
HETATM   15  S   UNL     1     -10.583  12.588  64.015  1.00  0.00    -0.436 S  
HETATM   16  O   UNL     1      -9.543  12.064  63.165  1.00  0.00    -0.365 OA 
HETATM   17  H2  UNL     1      -9.873  14.348  65.555  1.00  0.00     0.000 HD 
HETATM   18  H1  UNL     1     -10.009  14.645  63.748  1.00  0.00     0.000 HD 
HETATM   19  O   UNL     1     -11.922  12.825  63.517  1.00  0.00    -0.489 OA 
HETATM   20  N   UNL     1     -10.073  14.076  64.592  1.00  0.00    -0.253 N  
ENDBRANCH   9  15
ENDBRANCH   2   7
TORSDOF 2
ENDMDL
MODEL       71
REMARK 921   NORMALIZED FREE ENERGY PREDICTED BY IDOCK:   -4.40 KCAL/MOL
REMARK 922        TOTAL FREE ENERGY PREDICTED BY IDOCK:   -4.88 KCAL/MOL
REMARK 923 INTER-LIGAND FREE ENERGY PREDICTED BY IDOCK:   -4.67 KCAL/MOL
REMARK 924 INTRA-LIGAND FREE ENERGY PREDICTED BY IDOCK:   -0.21 KCAL/MOL
REMARK 927      BINDING AFFINITY PREDICTED BY RF-SCORE:    0.00 PKD
ROOT
HETATM    1  N   UNL     1     -11.974  16.408  72.121  1.00  0.00    -0.634 N  
HETATM    2  S   UNL     1     -12.329  15.217  70.998  1.00  0.00    -0.387 S  
HETATM    3  H1  UNL     1     -12.132  17.303  71.658  1.00  0.00     0.000 HD 
HETATM    4  H2  UNL     1     -11.661  16.267  73.081  1.00  0.00     0.000 HD 
HETATM    5  O   UNL     1     -13.596  15.579  70.410  1.00  0.00    -0.228 OA 
HETATM    6  O   UNL     1     -12.105  13.951  71.653  1.00  0.00    -0.188 OA 
ENDROOT
BRANCH   2   7
HETATM    7  C   UNL     1     -11.052  15.476  69.799  1.00  0.00    -0.296 A  
HETATM    8  C   UNL     1     -10.579  16.761  69.539  1.00  0.00    -0.283 A  
HETATM    9  C   UNL     1      -9.558  16.943  68.588  1.00  0.00    -0.265 A  
HETATM   10 CL   UNL     1      -8.895  13.134  67.419  1.00  0.00    -0.194 Cl 
HETATM   11  C   UNL     1      -9.010  15.847  67.903  1.00  0.00    -0.181 A  
HETATM   12  C   UNL     1     -10.510  14.374  69.141  1.00  0.00    -0.199 A  
HETATM   13 CL   UNL     1      -7.745  16.027  66.730  1.00  0.00    -0.278 Cl 
HETATM   14  C   UNL     1      -9.498  14.559  68.195  1.00  0.00    -0.208 A  
BRANCH   9  15
HETATM   15  S   UNL     1      -9.020  18.596  68.269  1.00  0.00    -0.326 S  
HETATM   16  O   UNL     1      -7.703  18.782  68.825  1.00  0.00    -0.326 OA 
HETATM   17  H2  UNL     1     -10.865  19.215  69.748  1.00  0.00     0.000 HD 
HETATM   18  H1  UNL     1      -9.779  20.480  68.979  1.00  0.00     0.000 HD 
HETATM   19  O   UNL     1      -9.314  18.919  66.889  1.00  0.00    -0.292 OA 
HETATM   20  N   UNL     1     -10.090  19.527  69.162  1.00  0.00    -0.389 N  
ENDBRANCH   9  15
ENDBRANCH   2   7
TORSDOF 2
ENDMDL
MODEL       72
REMARK 921   NORMALIZED FREE ENERGY PREDICTED BY IDOCK:   -4.39 KCAL/MOL
REMARK 922        TOTAL FREE ENERGY PREDICTED BY IDOCK:   -4.87 KCAL/MOL
REMARK 923 INTER-LIGAND FREE ENERGY PREDICTED BY IDOCK:   -4.64 KCAL/MOL
REMARK 924 INTRA-LIGAND FREE ENERGY PREDICTED BY IDOCK:   -0.23 KCAL/MOL
REMARK 927      BINDING AFFINITY PREDICTED BY RF-SCORE:    0.00 PKD
ROOT
HETATM    1  N   UNL     1     -12.598  14.030  65.839  1.00  0.00    -0.487 N  
HETATM    2  S   UNL     1     -11.600  12.773  66.318  1.00  0.00    -0.398 S  
HETATM    3  H1  UNL     1     -12.215  14.392  64.966  1.00  0.00     0.000 HD 
HETATM    4  H2  UNL     1     -13.428  14.369  66.326  1.00  0.00     0.000 HD 
HETATM    5  O   UNL     1     -11.401  11.947  65.152  1.00  0.00    -0.315 OA 
HETATM    6  O   UNL     1     -12.142  12.262  67.554  1.00  0.00    -0.514 OA 
ENDROOT
BRANCH   2   7
HETATM    7  C   UNL     1     -10.094  13.636  66.666  1.00  0.00    -0.277 A  
HETATM    8  C   UNL     1     -10.071  15.030  66.698  1.00  0.00    -0.267 A  
HETATM    9  C   UNL     1      -8.865  15.696  66.984  1.00  0.00    -0.225 A  
HETATM   10 CL   UNL     1      -6.361  12.572  67.524  1.00  0.00    -0.142 Cl 
HETATM   11  C   UNL     1      -7.689  14.973  67.243  1.00  0.00    -0.202 A  
HETATM   12  C   UNL     1      -8.941  12.901  66.935  1.00  0.00    -0.210 A  
HETATM   13 CL   UNL     1      -6.185  15.754  67.608  1.00  0.00    -0.173 Cl 
HETATM   14  C   UNL     1      -7.744  13.567  67.216  1.00  0.00    -0.077 A  
BRANCH   9  15
HETATM   15  S   UNL     1      -8.882  17.463  66.976  1.00  0.00    -0.241 S  
HETATM   16  O   UNL     1      -8.680  17.946  68.319  1.00  0.00    -0.261 OA 
HETATM   17  H2  UNL     1     -11.219  17.187  66.314  1.00  0.00     0.000 HD 
HETATM   18  H1  UNL     1     -10.465  18.849  66.525  1.00  0.00     0.000 HD 
HETATM   19  O   UNL     1      -8.068  17.927  65.872  1.00  0.00    -0.524 OA 
HETATM   20  N   UNL     1     -10.455  17.829  66.530  1.00  0.00    -0.330 N  
ENDBRANCH   9  15
ENDBRANCH   2   7
TORSDOF 2
ENDMDL
MODEL       73
REMARK 921   NORMALIZED FREE ENERGY PREDICTED BY IDOCK:   -4.38 KCAL/MOL
REMARK 922        TOTAL FREE ENERGY PREDICTED BY IDOCK:   -4.86 KCAL/MOL
REMARK 923 INTER-LIGAND FREE ENERGY PREDICTED BY IDOCK:   -4.89 KCAL/MOL
REMARK 924 INTRA-LIGAND FREE ENERGY PREDICTED BY IDOCK:    0.03 KCAL/MOL
REMARK 927      BINDING AFFINITY PREDICTED BY RF-SCORE:    0.00 PKD
ROOT
HETATM    1  N   UNL     1     -10.008  13.398  68.843  1.00  0.00    -0.431 N  
HETATM    2  S   UNL     1     -11.564  12.792  68.986  1.00  0.00    -0.331 S  
HETATM    3  H1  UNL     1      -9.587  12.935  68.037  1.00  0.00     0.000 HD 
HETATM    4  H2  UNL     1      -9.567  14.093  69.444  1.00  0.00     0.000 HD 
HETATM    5  O   UNL     1     -12.142  12.846  67.665  1.00  0.00    -0.325 OA 
HETATM    6  O   UNL     1     -12.159  13.447  70.126  1.00  0.00    -0.333 OA 
ENDROOT
BRANCH   2   7
HETATM    7  C   UNL     1     -11.244  11.101  69.399  1.00  0.00    -0.270 A  
HETATM    8  C   UNL     1     -11.916  10.494  70.460  1.00  0.00    -0.436 A  
HETATM    9  C   UNL     1     -11.652   9.147  70.765  1.00  0.00    -0.276 A  
HETATM   10 CL   UNL     1      -8.916   8.228  67.939  1.00  0.00    -0.134 Cl 
HETATM   11  C   UNL     1     -10.726   8.407  70.012  1.00  0.00    -0.236 A  
HETATM   12  C   UNL     1     -10.333  10.379  68.631  1.00  0.00    -0.202 A  
HETATM   13 CL   UNL     1     -10.378   6.742  70.351  1.00  0.00    -0.215 Cl 
HETATM   14  C   UNL     1     -10.072   9.041  68.939  1.00  0.00    -0.196 A  
BRANCH   9  15
HETATM   15  S   UNL     1     -12.503   8.437  72.142  1.00  0.00    -0.373 S  
HETATM   16  O   UNL     1     -11.539   7.939  73.091  1.00  0.00    -0.292 OA 
HETATM   17  H2  UNL     1     -13.278   6.802  70.499  1.00  0.00     0.000 HD 
HETATM   18  H1  UNL     1     -13.779   6.709  72.263  1.00  0.00     0.000 HD 
HETATM   19  O   UNL     1     -13.566   9.336  72.540  1.00  0.00    -0.467 OA 
HETATM   20  N   UNL     1     -13.288   7.119  71.469  1.00  0.00    -0.377 N  
ENDBRANCH   9  15
ENDBRANCH   2   7
TORSDOF 2
ENDMDL
MODEL       74
REMARK 921   NORMALIZED FREE ENERGY PREDICTED BY IDOCK:   -4.35 KCAL/MOL
REMARK 922        TOTAL FREE ENERGY PREDICTED BY IDOCK:   -4.83 KCAL/MOL
REMARK 923 INTER-LIGAND FREE ENERGY PREDICTED BY IDOCK:   -4.84 KCAL/MOL
REMARK 924 INTRA-LIGAND FREE ENERGY PREDICTED BY IDOCK:    0.01 KCAL/MOL
REMARK 927      BINDING AFFINITY PREDICTED BY RF-SCORE:    0.00 PKD
ROOT
HETATM    1  N   UNL     1     -11.129  15.334  64.442  1.00  0.00    -0.685 N  
HETATM    2  S   UNL     1     -11.886  14.324  65.543  1.00  0.00    -0.369 S  
HETATM    3  H1  UNL     1     -11.257  14.911  63.522  1.00  0.00     0.000 HD 
HETATM    4  H2  UNL     1     -10.636  16.202  64.649  1.00  0.00     0.000 HD 
HETATM    5  O   UNL     1     -13.187  14.029  64.994  1.00  0.00    -0.720 OA 
HETATM    6  O   UNL     1     -11.705  14.922  66.844  1.00  0.00    -0.343 OA 
ENDROOT
BRANCH   2   7
HETATM    7  C   UNL     1     -10.880  12.872  65.435  1.00  0.00    -0.283 A  
HETATM    8  C   UNL     1     -10.516  12.178  66.588  1.00  0.00    -0.248 A  
HETATM    9  C   UNL     1      -9.722  11.022  66.479  1.00  0.00    -0.198 A  
HETATM   10 CL   UNL     1      -9.235  10.789  62.476  1.00  0.00    -0.320 Cl 
HETATM   11  C   UNL     1      -9.299  10.557  65.223  1.00  0.00    -0.213 A  
HETATM   12  C   UNL     1     -10.483  12.418  64.179  1.00  0.00    -0.415 A  
HETATM   13 CL   UNL     1      -8.327   9.132  65.043  1.00  0.00    -0.151 Cl 
HETATM   14  C   UNL     1      -9.692  11.270  64.075  1.00  0.00    -0.265 A  
BRANCH   9  15
HETATM   15  S   UNL     1      -9.258  10.201  67.973  1.00  0.00    -0.139 S  
HETATM   16  O   UNL     1      -7.847   9.909  67.937  1.00  0.00    -0.090 OA 
HETATM   17  H2  UNL     1     -10.708   8.416  67.148  1.00  0.00     0.000 HD 
HETATM   18  H1  UNL     1      -9.818   8.274  68.748  1.00  0.00     0.000 HD 
HETATM   19  O   UNL     1      -9.859  10.902  69.089  1.00  0.00    -0.205 OA 
HETATM   20  N   UNL     1     -10.086   8.747  67.886  1.00  0.00    -0.195 N  
ENDBRANCH   9  15
ENDBRANCH   2   7
TORSDOF 2
ENDMDL
MODEL       75
REMARK 921   NORMALIZED FREE ENERGY PREDICTED BY IDOCK:   -4.35 KCAL/MOL
REMARK 922        TOTAL FREE ENERGY PREDICTED BY IDOCK:   -4.82 KCAL/MOL
REMARK 923 INTER-LIGAND FREE ENERGY PREDICTED BY IDOCK:   -4.87 KCAL/MOL
REMARK 924 INTRA-LIGAND FREE ENERGY PREDICTED BY IDOCK:    0.05 KCAL/MOL
REMARK 927      BINDING AFFINITY PREDICTED BY RF-SCORE:    0.00 PKD
ROOT
HETATM    1  N   UNL     1     -12.056  11.379  63.011  1.00  0.00    -0.873 N  
HETATM    2  S   UNL     1     -10.449  11.446  63.478  1.00  0.00    -0.412 S  
HETATM    3  H1  UNL     1     -12.534  12.137  63.498  1.00  0.00     0.000 HD 
HETATM    4  H2  UNL     1     -12.476  10.711  62.365  1.00  0.00     0.000 HD 
HETATM    5  O   UNL     1     -10.048  12.827  63.356  1.00  0.00    -0.288 OA 
HETATM    6  O   UNL     1      -9.773  10.373  62.789  1.00  0.00    -0.312 OA 
ENDROOT
BRANCH   2   7
HETATM    7  C   UNL     1     -10.567  11.038  65.196  1.00  0.00    -0.226 A  
HETATM    8  C   UNL     1     -10.124   9.800  65.660  1.00  0.00    -0.282 A  
HETATM    9  C   UNL     1     -10.220   9.499  67.031  1.00  0.00    -0.255 A  
HETATM   10 CL   UNL     1     -11.847  12.908  68.462  1.00  0.00    -0.358 Cl 
HETATM   11  C   UNL     1     -10.752  10.432  67.935  1.00  0.00    -0.261 A  
HETATM   12  C   UNL     1     -11.084  11.983  66.081  1.00  0.00    -0.367 A  
HETATM   13 CL   UNL     1     -10.881  10.105  69.634  1.00  0.00    -0.269 Cl 
HETATM   14  C   UNL     1     -11.180  11.679  67.442  1.00  0.00    -0.298 A  
BRANCH   9  15
HETATM   15  S   UNL     1      -9.678   7.903  67.560  1.00  0.00    -0.171 S  
HETATM   16  O   UNL     1     -10.606   7.384  68.534  1.00  0.00    -0.199 OA 
HETATM   17  H2  UNL     1      -7.781   9.132  68.489  1.00  0.00     0.000 HD 
HETATM   18  H1  UNL     1      -7.923   7.309  68.655  1.00  0.00     0.000 HD 
HETATM   19  O   UNL     1      -9.295   7.136  66.394  1.00  0.00    -0.171 OA 
HETATM   20  N   UNL     1      -8.236   8.230  68.349  1.00  0.00    -0.130 N  
ENDBRANCH   9  15
ENDBRANCH   2   7
TORSDOF 2
ENDMDL
MODEL       76
REMARK 921   NORMALIZED FREE ENERGY PREDICTED BY IDOCK:   -4.30 KCAL/MOL
REMARK 922        TOTAL FREE ENERGY PREDICTED BY IDOCK:   -4.77 KCAL/MOL
REMARK 923 INTER-LIGAND FREE ENERGY PREDICTED BY IDOCK:   -4.61 KCAL/MOL
REMARK 924 INTRA-LIGAND FREE ENERGY PREDICTED BY IDOCK:   -0.16 KCAL/MOL
REMARK 927      BINDING AFFINITY PREDICTED BY RF-SCORE:    0.00 PKD
ROOT
HETATM    1  N   UNL     1      -8.553  11.066  66.921  1.00  0.00    -0.139 N  
HETATM    2  S   UNL     1      -9.304   9.605  67.250  1.00  0.00    -0.140 S  
HETATM    3  H1  UNL     1      -7.998  11.302  67.744  1.00  0.00     0.000 HD 
HETATM    4  H2  UNL     1      -8.635  11.614  66.065  1.00  0.00     0.000 HD 
HETATM    5  O   UNL     1      -8.281   8.734  67.777  1.00  0.00    -0.110 OA 
HETATM    6  O   UNL     1     -10.090   9.272  66.086  1.00  0.00    -0.288 OA 
ENDROOT
BRANCH   2   7
HETATM    7  C   UNL     1     -10.396  10.062  68.566  1.00  0.00    -0.193 A  
HETATM    8  C   UNL     1     -10.895   9.094  69.437  1.00  0.00    -0.165 A  
HETATM    9  C   UNL     1     -11.755   9.480  70.482  1.00  0.00    -0.222 A  
HETATM   10 CL   UNL     1     -11.945  13.472  69.898  1.00  0.00    -0.400 Cl 
HETATM   11  C   UNL     1     -12.110  10.827  70.659  1.00  0.00    -0.370 A  
HETATM   12  C   UNL     1     -10.725  11.405  68.736  1.00  0.00    -0.240 A  
HETATM   13 CL   UNL     1     -13.160  11.346  71.938  1.00  0.00    -0.578 Cl 
HETATM   14  C   UNL     1     -11.582  11.784  69.773  1.00  0.00    -0.299 A  
BRANCH   9  15
HETATM   15  S   UNL     1     -12.388   8.209  71.534  1.00  0.00    -0.307 S  
HETATM   16  O   UNL     1     -11.658   8.214  72.777  1.00  0.00    -0.411 OA 
HETATM   17  H2  UNL     1     -11.511   6.702  69.822  1.00  0.00     0.000 HD 
HETATM   18  H1  UNL     1     -12.362   6.068  71.321  1.00  0.00     0.000 HD 
HETATM   19  O   UNL     1     -13.835   8.264  71.504  1.00  0.00    -0.358 OA 
HETATM   20  N   UNL     1     -11.997   6.802  70.714  1.00  0.00    -0.389 N  
ENDBRANCH   9  15
ENDBRANCH   2   7
TORSDOF 2
ENDMDL
MODEL       77
REMARK 921   NORMALIZED FREE ENERGY PREDICTED BY IDOCK:   -4.28 KCAL/MOL
REMARK 922        TOTAL FREE ENERGY PREDICTED BY IDOCK:   -4.75 KCAL/MOL
REMARK 923 INTER-LIGAND FREE ENERGY PREDICTED BY IDOCK:   -4.68 KCAL/MOL
REMARK 924 INTRA-LIGAND FREE ENERGY PREDICTED BY IDOCK:   -0.07 KCAL/MOL
REMARK 927      BINDING AFFINITY PREDICTED BY RF-SCORE:    0.00 PKD
ROOT
HETATM    1  N   UNL     1      -9.107  13.001  66.474  1.00  0.00    -0.407 N  
HETATM    2  S   UNL     1      -9.291  11.362  66.764  1.00  0.00    -0.185 S  
HETATM    3  H1  UNL     1      -8.578  13.380  67.259  1.00  0.00     0.000 HD 
HETATM    4  H2  UNL     1      -9.457  13.521  65.669  1.00  0.00     0.000 HD 
HETATM    5  O   UNL     1      -7.987  10.869  67.137  1.00  0.00    -0.119 OA 
HETATM    6  O   UNL     1     -10.039  10.826  65.653  1.00  0.00    -0.244 OA 
ENDROOT
BRANCH   2   7
HETATM    7  C   UNL     1     -10.326  11.375  68.200  1.00  0.00    -0.188 A  
HETATM    8  C   UNL     1     -10.490  10.218  68.962  1.00  0.00    -0.238 A  
HETATM    9  C   UNL     1     -11.311  10.253  70.103  1.00  0.00    -0.316 A  
HETATM   10 CL   UNL     1     -12.513  14.109  70.081  1.00  0.00    -0.406 Cl 
HETATM   11  C   UNL     1     -11.961  11.437  70.485  1.00  0.00    -0.356 A  
HETATM   12  C   UNL     1     -10.951  12.563  68.571  1.00  0.00    -0.280 A  
HETATM   13 CL   UNL     1     -12.975  11.525  71.890  1.00  0.00    -0.524 Cl 
HETATM   14  C   UNL     1     -11.768  12.593  69.705  1.00  0.00    -0.303 A  
BRANCH   9  15
HETATM   15  S   UNL     1     -11.514   8.751  71.013  1.00  0.00    -0.294 S  
HETATM   16  O   UNL     1     -10.563   8.719  72.095  1.00  0.00    -0.340 OA 
HETATM   17  H2  UNL     1     -10.764   7.690  68.943  1.00  0.00     0.000 HD 
HETATM   18  H1  UNL     1     -11.190   6.705  70.433  1.00  0.00     0.000 HD 
HETATM   19  O   UNL     1     -12.928   8.536  71.239  1.00  0.00    -0.268 OA 
HETATM   20  N   UNL     1     -11.074   7.571  69.908  1.00  0.00    -0.217 N  
ENDBRANCH   9  15
ENDBRANCH   2   7
TORSDOF 2
ENDMDL
MODEL       78
REMARK 921   NORMALIZED FREE ENERGY PREDICTED BY IDOCK:   -4.25 KCAL/MOL
REMARK 922        TOTAL FREE ENERGY PREDICTED BY IDOCK:   -4.72 KCAL/MOL
REMARK 923 INTER-LIGAND FREE ENERGY PREDICTED BY IDOCK:   -4.73 KCAL/MOL
REMARK 924 INTRA-LIGAND FREE ENERGY PREDICTED BY IDOCK:    0.01 KCAL/MOL
REMARK 927      BINDING AFFINITY PREDICTED BY RF-SCORE:    0.00 PKD
ROOT
HETATM    1  N   UNL     1     -13.752   9.604  70.531  1.00  0.00    -0.371 N  
HETATM    2  S   UNL     1     -12.573  10.545  71.260  1.00  0.00    -0.452 S  
HETATM    3  H1  UNL     1     -13.263   8.908  69.968  1.00  0.00     0.000 HD 
HETATM    4  H2  UNL     1     -14.761   9.708  70.630  1.00  0.00     0.000 HD 
HETATM    5  O   UNL     1     -11.610   9.627  71.818  1.00  0.00    -0.378 OA 
HETATM    6  O   UNL     1     -13.264  11.531  72.056  1.00  0.00    -0.509 OA 
ENDROOT
BRANCH   2   7
HETATM    7  C   UNL     1     -11.848  11.346  69.858  1.00  0.00    -0.359 A  
HETATM    8  C   UNL     1     -11.063  10.623  68.960  1.00  0.00    -0.307 A  
HETATM    9  C   UNL     1     -10.502  11.278  67.848  1.00  0.00    -0.188 A  
HETATM   10 CL   UNL     1     -11.890  15.034  68.376  1.00  0.00    -0.328 Cl 
HETATM   11  C   UNL     1     -10.730  12.646  67.630  1.00  0.00    -0.218 A  
HETATM   12  C   UNL     1     -12.097  12.701  69.650  1.00  0.00    -0.277 A  
HETATM   13 CL   UNL     1     -10.065  13.489  66.268  1.00  0.00    -0.291 Cl 
HETATM   14  C   UNL     1     -11.536  13.348  68.545  1.00  0.00    -0.333 A  
BRANCH   9  15
HETATM   15  S   UNL     1      -9.486  10.324  66.762  1.00  0.00    -0.168 S  
HETATM   16  O   UNL     1      -8.209  10.976  66.612  1.00  0.00    -0.142 OA 
HETATM   17  H2  UNL     1     -11.156  10.920  65.081  1.00  0.00     0.000 HD 
HETATM   18  H1  UNL     1      -9.702   9.876  64.669  1.00  0.00     0.000 HD 
HETATM   19  O   UNL     1      -9.586   8.930  67.142  1.00  0.00    -0.155 OA 
HETATM   20  N   UNL     1     -10.289  10.426  65.296  1.00  0.00    -0.255 N  
ENDBRANCH   9  15
ENDBRANCH   2   7
TORSDOF 2
ENDMDL
MODEL       79
REMARK 921   NORMALIZED FREE ENERGY PREDICTED BY IDOCK:   -4.25 KCAL/MOL
REMARK 922        TOTAL FREE ENERGY PREDICTED BY IDOCK:   -4.71 KCAL/MOL
REMARK 923 INTER-LIGAND FREE ENERGY PREDICTED BY IDOCK:   -4.52 KCAL/MOL
REMARK 924 INTRA-LIGAND FREE ENERGY PREDICTED BY IDOCK:   -0.19 KCAL/MOL
REMARK 927      BINDING AFFINITY PREDICTED BY RF-SCORE:    0.00 PKD
ROOT
HETATM    1  N   UNL     1     -12.286  14.884  67.988  1.00  0.00    -0.547 N  
HETATM    2  S   UNL     1     -11.205  13.744  68.569  1.00  0.00    -0.294 S  
HETATM    3  H1  UNL     1     -13.112  14.373  67.678  1.00  0.00     0.000 HD 
HETATM    4  H2  UNL     1     -12.146  15.894  67.951  1.00  0.00     0.000 HD 
HETATM    5  O   UNL     1     -11.960  12.878  69.442  1.00  0.00    -0.302 OA 
HETATM    6  O   UNL     1     -10.036  14.468  69.007  1.00  0.00    -0.216 OA 
ENDROOT
BRANCH   2   7
HETATM    7  C   UNL     1     -10.808  12.854  67.091  1.00  0.00    -0.256 A  
HETATM    8  C   UNL     1      -9.890  11.805  67.124  1.00  0.00    -0.207 A  
HETATM    9  C   UNL     1      -9.595  11.106  65.939  1.00  0.00    -0.218 A  
HETATM   10 CL   UNL     1     -11.981  13.014  63.296  1.00  0.00    -0.601 Cl 
HETATM   11  C   UNL     1     -10.217  11.450  64.728  1.00  0.00    -0.286 A  
HETATM   12  C   UNL     1     -11.447  13.201  65.902  1.00  0.00    -0.366 A  
HETATM   13 CL   UNL     1      -9.889  10.609  63.247  1.00  0.00    -0.373 Cl 
HETATM   14  C   UNL     1     -11.149  12.505  64.726  1.00  0.00    -0.301 A  
BRANCH   9  15
HETATM   15  S   UNL     1      -8.399   9.809  66.028  1.00  0.00    -0.123 S  
HETATM   16  O   UNL     1      -9.007   8.572  65.608  1.00  0.00    -0.187 OA 
HETATM   17  H2  UNL     1      -8.481  10.239  68.433  1.00  0.00     0.000 HD 
HETATM   18  H1  UNL     1      -7.391   8.944  67.721  1.00  0.00     0.000 HD 
HETATM   19  O   UNL     1      -7.161  10.283  65.445  1.00  0.00    -0.134 OA 
HETATM   20  N   UNL     1      -8.081   9.693  67.669  1.00  0.00    -0.113 N  
ENDBRANCH   9  15
ENDBRANCH   2   7
TORSDOF 2
ENDMDL
MODEL       80
REMARK 921   NORMALIZED FREE ENERGY PREDICTED BY IDOCK:   -4.24 KCAL/MOL
REMARK 922        TOTAL FREE ENERGY PREDICTED BY IDOCK:   -4.71 KCAL/MOL
REMARK 923 INTER-LIGAND FREE ENERGY PREDICTED BY IDOCK:   -5.11 KCAL/MOL
REMARK 924 INTRA-LIGAND FREE ENERGY PREDICTED BY IDOCK:    0.41 KCAL/MOL
REMARK 927      BINDING AFFINITY PREDICTED BY RF-SCORE:    0.00 PKD
ROOT
HETATM    1  N   UNL     1     -10.881  19.481  66.972  1.00  0.00    -0.477 N  
HETATM    2  S   UNL     1      -9.563  18.450  67.064  1.00  0.00    -0.310 S  
HETATM    3  H1  UNL     1     -11.243  19.579  67.921  1.00  0.00     0.000 HD 
HETATM    4  H2  UNL     1     -11.250  19.923  66.131  1.00  0.00     0.000 HD 
HETATM    5  O   UNL     1      -8.755  18.924  68.163  1.00  0.00    -0.290 OA 
HETATM    6  O   UNL     1      -9.052  18.312  65.723  1.00  0.00    -0.443 OA 
ENDROOT
BRANCH   2   7
HETATM    7  C   UNL     1     -10.339  16.933  67.542  1.00  0.00    -0.318 A  
HETATM    8  C   UNL     1     -10.991  16.830  68.770  1.00  0.00    -0.275 A  
HETATM    9  C   UNL     1     -11.608  15.617  69.127  1.00  0.00    -0.383 A  
HETATM   10 CL   UNL     1     -10.825  13.360  65.870  1.00  0.00    -0.278 Cl 
HETATM   11  C   UNL     1     -11.577  14.513  68.259  1.00  0.00    -0.329 A  
HETATM   12  C   UNL     1     -10.311  15.854  66.662  1.00  0.00    -0.302 A  
HETATM   13 CL   UNL     1     -12.332  13.003  68.657  1.00  0.00    -0.000 Cl 
HETATM   14  C   UNL     1     -10.922  14.649  67.021  1.00  0.00    -0.317 A  
BRANCH   9  15
HETATM   15  S   UNL     1     -12.390  15.529  70.709  1.00  0.00    -0.426 S  
HETATM   16  O   UNL     1     -11.727  16.431  71.617  1.00  0.00    -0.465 OA 
HETATM   17  H2  UNL     1     -11.541  13.237  70.722  1.00  0.00     0.000 HD 
HETATM   18  H1  UNL     1     -12.515  13.913  72.125  1.00  0.00     0.000 HD 
HETATM   19  O   UNL     1     -13.825  15.564  70.517  1.00  0.00    -0.239 OA 
HETATM   20  N   UNL     1     -12.064  13.964  71.211  1.00  0.00    -0.262 N  
ENDBRANCH   9  15
ENDBRANCH   2   7
TORSDOF 2
ENDMDL
MODEL       81
REMARK 921   NORMALIZED FREE ENERGY PREDICTED BY IDOCK:   -4.21 KCAL/MOL
REMARK 922        TOTAL FREE ENERGY PREDICTED BY IDOCK:   -4.68 KCAL/MOL
REMARK 923 INTER-LIGAND FREE ENERGY PREDICTED BY IDOCK:   -4.73 KCAL/MOL
REMARK 924 INTRA-LIGAND FREE ENERGY PREDICTED BY IDOCK:    0.06 KCAL/MOL
REMARK 927      BINDING AFFINITY PREDICTED BY RF-SCORE:    0.00 PKD
ROOT
HETATM    1  N   UNL     1      -6.990  10.852  65.503  1.00  0.00    -0.368 N  
HETATM    2  S   UNL     1      -8.343   9.864  65.505  1.00  0.00    -0.147 S  
HETATM    3  H1  UNL     1      -6.968  11.319  66.410  1.00  0.00     0.000 HD 
HETATM    4  H2  UNL     1      -6.320  10.966  64.744  1.00  0.00     0.000 HD 
HETATM    5  O   UNL     1      -8.315   9.142  66.754  1.00  0.00    -0.120 OA 
HETATM    6  O   UNL     1      -8.375   9.205  64.222  1.00  0.00    -0.155 OA 
ENDROOT
BRANCH   2   7
HETATM    7  C   UNL     1      -9.648  11.058  65.568  1.00  0.00    -0.222 A  
HETATM    8  C   UNL     1      -9.740  11.947  66.639  1.00  0.00    -0.220 A  
HETATM    9  C   UNL     1     -10.781  12.893  66.666  1.00  0.00    -0.265 A  
HETATM   10 CL   UNL     1     -12.696  12.041  63.213  1.00  0.00    -0.603 Cl 
HETATM   11  C   UNL     1     -11.722  12.955  65.626  1.00  0.00    -0.387 A  
HETATM   12  C   UNL     1     -10.564  11.114  64.520  1.00  0.00    -0.397 A  
HETATM   13 CL   UNL     1     -13.015  14.111  65.616  1.00  0.00    -0.437 Cl 
HETATM   14  C   UNL     1     -11.598  12.054  64.552  1.00  0.00    -0.317 A  
BRANCH   9  15
HETATM   15  S   UNL     1     -10.872  13.971  68.063  1.00  0.00    -0.251 S  
HETATM   16  O   UNL     1     -12.139  13.784  68.726  1.00  0.00    -0.357 OA 
HETATM   17  H2  UNL     1     -10.836  15.744  66.381  1.00  0.00     0.000 HD 
HETATM   18  H1  UNL     1     -10.930  16.119  68.176  1.00  0.00     0.000 HD 
HETATM   19  O   UNL     1      -9.620  13.898  68.785  1.00  0.00    -0.177 OA 
HETATM   20  N   UNL     1     -10.876  15.497  67.370  1.00  0.00    -0.309 N  
ENDBRANCH   9  15
ENDBRANCH   2   7
TORSDOF 2
ENDMDL
MODEL       82
REMARK 921   NORMALIZED FREE ENERGY PREDICTED BY IDOCK:   -4.21 KCAL/MOL
REMARK 922        TOTAL FREE ENERGY PREDICTED BY IDOCK:   -4.67 KCAL/MOL
REMARK 923 INTER-LIGAND FREE ENERGY PREDICTED BY IDOCK:   -4.75 KCAL/MOL
REMARK 924 INTRA-LIGAND FREE ENERGY PREDICTED BY IDOCK:    0.08 KCAL/MOL
REMARK 927      BINDING AFFINITY PREDICTED BY RF-SCORE:    0.00 PKD
ROOT
HETATM    1  N   UNL     1      -9.315   8.670  65.350  1.00  0.00    -0.440 N  
HETATM    2  S   UNL     1      -9.526   9.295  66.889  1.00  0.00    -0.173 S  
HETATM    3  H1  UNL     1      -8.476   9.107  64.969  1.00  0.00     0.000 HD 
HETATM    4  H2  UNL     1      -9.910   7.986  64.883  1.00  0.00     0.000 HD 
HETATM    5  O   UNL     1      -8.240   9.214  67.539  1.00  0.00    -0.107 OA 
HETATM    6  O   UNL     1     -10.713   8.677  67.428  1.00  0.00    -0.264 OA 
ENDROOT
BRANCH   2   7
HETATM    7  C   UNL     1      -9.876  10.993  66.532  1.00  0.00    -0.203 A  
HETATM    8  C   UNL     1     -11.039  11.345  65.849  1.00  0.00    -0.225 A  
HETATM    9  C   UNL     1     -11.301  12.702  65.582  1.00  0.00    -0.322 A  
HETATM   10 CL   UNL     1      -8.080  14.463  67.268  1.00  0.00    -0.215 Cl 
HETATM   11  C   UNL     1     -10.409  13.702  66.000  1.00  0.00    -0.304 A  
HETATM   12  C   UNL     1      -8.986  11.972  66.969  1.00  0.00    -0.198 A  
HETATM   13 CL   UNL     1     -10.698  15.385  65.699  1.00  0.00    -0.357 Cl 
HETATM   14  C   UNL     1      -9.248  13.319  66.699  1.00  0.00    -0.215 A  
BRANCH   9  15
HETATM   15  S   UNL     1     -12.771  13.091  64.682  1.00  0.00    -0.229 S  
HETATM   16  O   UNL     1     -13.368  11.872  64.197  1.00  0.00    -0.652 OA 
HETATM   17  H2  UNL     1     -11.230  14.178  63.127  1.00  0.00     0.000 HD 
HETATM   18  H1  UNL     1     -13.043  14.166  62.838  1.00  0.00     0.000 HD 
HETATM   19  O   UNL     1     -13.533  14.060  65.440  1.00  0.00    -0.679 OA 
HETATM   20  N   UNL     1     -12.195  13.942  63.358  1.00  0.00    -0.173 N  
ENDBRANCH   9  15
ENDBRANCH   2   7
TORSDOF 2
ENDMDL
MODEL       83
REMARK 921   NORMALIZED FREE ENERGY PREDICTED BY IDOCK:   -4.20 KCAL/MOL
REMARK 922        TOTAL FREE ENERGY PREDICTED BY IDOCK:   -4.66 KCAL/MOL
REMARK 923 INTER-LIGAND FREE ENERGY PREDICTED BY IDOCK:   -4.50 KCAL/MOL
REMARK 924 INTRA-LIGAND FREE ENERGY PREDICTED BY IDOCK:   -0.16 KCAL/MOL
REMARK 927      BINDING AFFINITY PREDICTED BY RF-SCORE:    0.00 PKD
ROOT
HETATM    1  N   UNL     1     -11.888  12.720  65.991  1.00  0.00    -0.420 N  
HETATM    2  S   UNL     1     -11.292  12.945  67.540  1.00  0.00    -0.328 S  
HETATM    3  H1  UNL     1     -12.794  12.262  66.089  1.00  0.00     0.000 HD 
HETATM    4  H2  UNL     1     -11.433  12.988  65.118  1.00  0.00     0.000 HD 
HETATM    5  O   UNL     1     -12.373  13.511  68.312  1.00  0.00    -0.215 OA 
HETATM    6  O   UNL     1     -10.010  13.593  67.401  1.00  0.00    -0.229 OA 
ENDROOT
BRANCH   2   7
HETATM    7  C   UNL     1     -11.036  11.274  68.062  1.00  0.00    -0.266 A  
HETATM    8  C   UNL     1     -11.470  10.852  69.319  1.00  0.00    -0.372 A  
HETATM    9  C   UNL     1     -11.263   9.517  69.711  1.00  0.00    -0.144 A  
HETATM   10 CL   UNL     1      -9.431   8.020  66.437  1.00  0.00    -0.267 Cl 
HETATM   11  C   UNL     1     -10.631   8.605  68.850  1.00  0.00    -0.144 A  
HETATM   12  C   UNL     1     -10.421  10.380  67.189  1.00  0.00    -0.311 A  
HETATM   13 CL   UNL     1     -10.365   6.949  69.291  1.00  0.00    -0.200 Cl 
HETATM   14  C   UNL     1     -10.215   9.054  67.583  1.00  0.00    -0.242 A  
BRANCH   9  15
HETATM   15  S   UNL     1     -11.799   9.045  71.327  1.00  0.00    -0.331 S  
HETATM   16  O   UNL     1     -12.713   7.935  71.219  1.00  0.00    -0.300 OA 
HETATM   17  H2  UNL     1     -12.848  11.252  71.352  1.00  0.00     0.000 HD 
HETATM   18  H1  UNL     1     -12.979  10.106  72.780  1.00  0.00     0.000 HD 
HETATM   19  O   UNL     1     -10.645   8.995  72.200  1.00  0.00    -0.324 OA 
HETATM   20  N   UNL     1     -12.670  10.379  71.848  1.00  0.00    -0.406 N  
ENDBRANCH   9  15
ENDBRANCH   2   7
TORSDOF 2
ENDMDL
MODEL       84
REMARK 921   NORMALIZED FREE ENERGY PREDICTED BY IDOCK:   -4.19 KCAL/MOL
REMARK 922        TOTAL FREE ENERGY PREDICTED BY IDOCK:   -4.65 KCAL/MOL
REMARK 923 INTER-LIGAND FREE ENERGY PREDICTED BY IDOCK:   -4.67 KCAL/MOL
REMARK 924 INTRA-LIGAND FREE ENERGY PREDICTED BY IDOCK:    0.02 KCAL/MOL
REMARK 927      BINDING AFFINITY PREDICTED BY RF-SCORE:    0.00 PKD
ROOT
HETATM    1  N   UNL     1     -12.794   7.217  70.793  1.00  0.00    -0.602 N  
HETATM    2  S   UNL     1     -12.425   8.585  71.687  1.00  0.00    -0.344 S  
HETATM    3  H1  UNL     1     -11.984   6.600  70.854  1.00  0.00     0.000 HD 
HETATM    4  H2  UNL     1     -13.661   7.036  70.286  1.00  0.00     0.000 HD 
HETATM    5  O   UNL     1     -11.894   8.115  72.945  1.00  0.00    -0.352 OA 
HETATM    6  O   UNL     1     -13.571   9.457  71.601  1.00  0.00    -0.378 OA 
ENDROOT
BRANCH   2   7
HETATM    7  C   UNL     1     -11.104   9.278  70.736  1.00  0.00    -0.285 A  
HETATM    8  C   UNL     1     -11.377  10.130  69.666  1.00  0.00    -0.289 A  
HETATM    9  C   UNL     1     -10.311  10.677  68.927  1.00  0.00    -0.207 A  
HETATM   10 CL   UNL     1      -7.135   9.091  70.855  1.00  0.00    -0.088 Cl 
HETATM   11  C   UNL     1      -8.980  10.378  69.259  1.00  0.00    -0.163 A  
HETATM   12  C   UNL     1      -9.789   8.982  71.089  1.00  0.00    -0.371 A  
HETATM   13 CL   UNL     1      -7.637  11.037  68.380  1.00  0.00    -0.101 Cl 
HETATM   14  C   UNL     1      -8.733   9.525  70.351  1.00  0.00    -0.223 A  
BRANCH   9  15
HETATM   15  S   UNL     1     -10.712  11.721  67.560  1.00  0.00    -0.233 S  
HETATM   16  O   UNL     1      -9.910  11.345  66.423  1.00  0.00    -0.202 OA 
HETATM   17  H2  UNL     1      -9.766  13.490  68.955  1.00  0.00     0.000 HD 
HETATM   18  H1  UNL     1     -10.434  13.836  67.280  1.00  0.00     0.000 HD 
HETATM   19  O   UNL     1     -12.153  11.828  67.469  1.00  0.00    -0.599 OA 
HETATM   20  N   UNL     1     -10.203  13.234  68.069  1.00  0.00    -0.234 N  
ENDBRANCH   9  15
ENDBRANCH   2   7
TORSDOF 2
ENDMDL
MODEL       85
REMARK 921   NORMALIZED FREE ENERGY PREDICTED BY IDOCK:   -4.18 KCAL/MOL
REMARK 922        TOTAL FREE ENERGY PREDICTED BY IDOCK:   -4.64 KCAL/MOL
REMARK 923 INTER-LIGAND FREE ENERGY PREDICTED BY IDOCK:   -4.53 KCAL/MOL
REMARK 924 INTRA-LIGAND FREE ENERGY PREDICTED BY IDOCK:   -0.11 KCAL/MOL
REMARK 927      BINDING AFFINITY PREDICTED BY RF-SCORE:    0.00 PKD
ROOT
HETATM    1  N   UNL     1     -11.390   4.830  65.342  1.00  0.00    -0.977 N  
HETATM    2  S   UNL     1      -9.941   4.901  66.179  1.00  0.00    -0.250 S  
HETATM    3  H1  UNL     1     -11.463   5.697  64.809  1.00  0.00     0.000 HD 
HETATM    4  H2  UNL     1     -12.069   4.069  65.361  1.00  0.00     0.000 HD 
HETATM    5  O   UNL     1      -8.942   5.316  65.224  1.00  0.00    -0.160 OA 
HETATM    6  O   UNL     1      -9.839   3.675  66.933  1.00  0.00    -0.148 OA 
ENDROOT
BRANCH   2   7
HETATM    7  C   UNL     1     -10.248   6.238  67.298  1.00  0.00    -0.191 A  
HETATM    8  C   UNL     1     -10.453   5.990  68.655  1.00  0.00    -0.297 A  
HETATM    9  C   UNL     1     -10.688   7.068  69.527  1.00  0.00    -0.241 A  
HETATM   10 CL   UNL     1     -10.495  10.192  66.974  1.00  0.00    -0.301 Cl 
HETATM   11  C   UNL     1     -10.713   8.387  69.048  1.00  0.00    -0.080 A  
HETATM   12  C   UNL     1     -10.255   7.541  66.806  1.00  0.00    -0.324 A  
HETATM   13 CL   UNL     1     -10.991   9.745  70.091  1.00  0.00    -0.311 Cl 
HETATM   14  C   UNL     1     -10.492   8.610  67.676  1.00  0.00    -0.244 A  
BRANCH   9  15
HETATM   15  S   UNL     1     -10.976   6.696  71.230  1.00  0.00    -0.264 S  
HETATM   16  O   UNL     1     -10.086   7.483  72.046  1.00  0.00    -0.182 OA 
HETATM   17  H2  UNL     1     -10.142   4.479  70.629  1.00  0.00     0.000 HD 
HETATM   18  H1  UNL     1     -10.673   4.878  72.341  1.00  0.00     0.000 HD 
HETATM   19  O   UNL     1     -12.405   6.681  71.464  1.00  0.00    -0.349 OA 
HETATM   20  N   UNL     1     -10.507   5.092  71.358  1.00  0.00    -0.207 N  
ENDBRANCH   9  15
ENDBRANCH   2   7
TORSDOF 2
ENDMDL
MODEL       86
REMARK 921   NORMALIZED FREE ENERGY PREDICTED BY IDOCK:   -4.16 KCAL/MOL
REMARK 922        TOTAL FREE ENERGY PREDICTED BY IDOCK:   -4.62 KCAL/MOL
REMARK 923 INTER-LIGAND FREE ENERGY PREDICTED BY IDOCK:   -4.42 KCAL/MOL
REMARK 924 INTRA-LIGAND FREE ENERGY PREDICTED BY IDOCK:   -0.20 KCAL/MOL
REMARK 927      BINDING AFFINITY PREDICTED BY RF-SCORE:    0.00 PKD
ROOT
HETATM    1  N   UNL     1      -8.542   9.497  68.020  1.00  0.00    -0.120 N  
HETATM    2  S   UNL     1     -10.192   9.334  67.783  1.00  0.00    -0.232 S  
HETATM    3  H1  UNL     1      -8.372   9.332  69.013  1.00  0.00     0.000 HD 
HETATM    4  H2  UNL     1      -7.843   9.718  67.312  1.00  0.00     0.000 HD 
HETATM    5  O   UNL     1     -10.579   8.114  68.450  1.00  0.00    -0.185 OA 
HETATM    6  O   UNL     1     -10.433   9.567  66.380  1.00  0.00    -0.199 OA 
ENDROOT
BRANCH   2   7
HETATM    7  C   UNL     1     -10.815  10.709  68.707  1.00  0.00    -0.229 A  
HETATM    8  C   UNL     1     -10.525  12.014  68.313  1.00  0.00    -0.218 A  
HETATM    9  C   UNL     1     -11.037  13.092  69.058  1.00  0.00    -0.234 A  
HETATM   10 CL   UNL     1     -13.109  11.143  71.925  1.00  0.00    -0.583 Cl 
HETATM   11  C   UNL     1     -11.839  12.868  70.188  1.00  0.00    -0.245 A  
HETATM   12  C   UNL     1     -11.623  10.466  69.817  1.00  0.00    -0.339 A  
HETATM   13 CL   UNL     1     -12.497  14.168  71.129  1.00  0.00    -0.421 Cl 
HETATM   14  C   UNL     1     -12.127  11.540  70.556  1.00  0.00    -0.378 A  
BRANCH   9  15
HETATM   15  S   UNL     1     -10.608  14.726  68.537  1.00  0.00    -0.256 S  
HETATM   16  O   UNL     1     -11.758  15.347  67.928  1.00  0.00    -0.319 OA 
HETATM   17  H2  UNL     1      -9.114  13.569  66.987  1.00  0.00     0.000 HD 
HETATM   18  H1  UNL     1      -9.226  15.401  67.033  1.00  0.00     0.000 HD 
HETATM   19  O   UNL     1      -9.872  15.372  69.603  1.00  0.00    -0.264 OA 
HETATM   20  N   UNL     1      -9.472  14.459  67.334  1.00  0.00    -0.202 N  
ENDBRANCH   9  15
ENDBRANCH   2   7
TORSDOF 2
ENDMDL
MODEL       87
REMARK 921   NORMALIZED FREE ENERGY PREDICTED BY IDOCK:   -4.15 KCAL/MOL
REMARK 922        TOTAL FREE ENERGY PREDICTED BY IDOCK:   -4.61 KCAL/MOL
REMARK 923 INTER-LIGAND FREE ENERGY PREDICTED BY IDOCK:   -4.40 KCAL/MOL
REMARK 924 INTRA-LIGAND FREE ENERGY PREDICTED BY IDOCK:   -0.21 KCAL/MOL
REMARK 927      BINDING AFFINITY PREDICTED BY RF-SCORE:    0.00 PKD
ROOT
HETATM    1  N   UNL     1      -9.352  12.254  66.559  1.00  0.00    -0.228 N  
HETATM    2  S   UNL     1     -10.691  11.342  66.132  1.00  0.00    -0.247 S  
HETATM    3  H1  UNL     1      -8.532  11.728  66.259  1.00  0.00     0.000 HD 
HETATM    4  H2  UNL     1      -9.356  13.159  67.028  1.00  0.00     0.000 HD 
HETATM    5  O   UNL     1     -10.483  10.934  64.763  1.00  0.00    -0.328 OA 
HETATM    6  O   UNL     1     -11.851  12.086  66.557  1.00  0.00    -0.585 OA 
ENDROOT
BRANCH   2   7
HETATM    7  C   UNL     1     -10.500   9.929  67.181  1.00  0.00    -0.242 A  
HETATM    8  C   UNL     1     -10.876   9.990  68.522  1.00  0.00    -0.270 A  
HETATM    9  C   UNL     1     -10.723   8.853  69.336  1.00  0.00    -0.181 A  
HETATM   10 CL   UNL     1      -9.198   6.205  66.695  1.00  0.00    -0.147 Cl 
HETATM   11  C   UNL     1     -10.203   7.659  68.812  1.00  0.00    -0.199 A  
HETATM   12  C   UNL     1      -9.996   8.749  66.639  1.00  0.00    -0.355 A  
HETATM   13 CL   UNL     1     -10.006   6.233  69.779  1.00  0.00    -0.193 Cl 
HETATM   14  C   UNL     1      -9.844   7.622  67.452  1.00  0.00    -0.173 A  
BRANCH   9  15
HETATM   15  S   UNL     1     -11.180   8.996  71.037  1.00  0.00    -0.320 S  
HETATM   16  O   UNL     1     -12.261   8.084  71.317  1.00  0.00    -0.304 OA 
HETATM   17  H2  UNL     1     -11.867  11.254  70.405  1.00  0.00     0.000 HD 
HETATM   18  H1  UNL     1     -12.048  10.637  72.125  1.00  0.00     0.000 HD 
HETATM   19  O   UNL     1      -9.974   9.011  71.839  1.00  0.00    -0.332 OA 
HETATM   20  N   UNL     1     -11.783  10.555  71.143  1.00  0.00    -0.298 N  
ENDBRANCH   9  15
ENDBRANCH   2   7
TORSDOF 2
ENDMDL
MODEL       88
REMARK 921   NORMALIZED FREE ENERGY PREDICTED BY IDOCK:   -4.14 KCAL/MOL
REMARK 922        TOTAL FREE ENERGY PREDICTED BY IDOCK:   -4.60 KCAL/MOL
REMARK 923 INTER-LIGAND FREE ENERGY PREDICTED BY IDOCK:   -4.67 KCAL/MOL
REMARK 924 INTRA-LIGAND FREE ENERGY PREDICTED BY IDOCK:    0.07 KCAL/MOL
REMARK 927      BINDING AFFINITY PREDICTED BY RF-SCORE:    0.00 PKD
ROOT
HETATM    1  N   UNL     1     -11.154   5.830  66.307  1.00  0.00    -0.755 N  
HETATM    2  S   UNL     1      -9.738   6.283  67.078  1.00  0.00    -0.152 S  
HETATM    3  H1  UNL     1     -11.346   6.543  65.603  1.00  0.00     0.000 HD 
HETATM    4  H2  UNL     1     -11.717   5.002  66.503  1.00  0.00     0.000 HD 
HETATM    5  O   UNL     1      -8.800   6.622  66.035  1.00  0.00    -0.153 OA 
HETATM    6  O   UNL     1      -9.468   5.274  68.074  1.00  0.00    -0.114 OA 
ENDROOT
BRANCH   2   7
HETATM    7  C   UNL     1     -10.244   7.771  67.892  1.00  0.00    -0.206 A  
HETATM    8  C   UNL     1     -10.441   8.943  67.162  1.00  0.00    -0.344 A  
HETATM    9  C   UNL     1     -10.850  10.112  67.828  1.00  0.00    -0.292 A  
HETATM   10 CL   UNL     1     -11.117   8.787  71.635  1.00  0.00    -0.372 Cl 
HETATM   11  C   UNL     1     -11.068  10.111  69.215  1.00  0.00    -0.225 A  
HETATM   12  C   UNL     1     -10.469   7.746  69.267  1.00  0.00    -0.221 A  
HETATM   13 CL   UNL     1     -11.582  11.528  70.073  1.00  0.00    -0.381 Cl 
HETATM   14  C   UNL     1     -10.874   8.911  69.925  1.00  0.00    -0.211 A  
BRANCH   9  15
HETATM   15  S   UNL     1     -11.050  11.578  66.862  1.00  0.00    -0.293 S  
HETATM   16  O   UNL     1     -10.761  11.281  65.482  1.00  0.00    -0.267 OA 
HETATM   17  H2  UNL     1      -9.150  12.394  68.165  1.00  0.00     0.000 HD 
HETATM   18  H1  UNL     1      -9.952  13.429  66.877  1.00  0.00     0.000 HD 
HETATM   19  O   UNL     1     -12.283  12.227  67.257  1.00  0.00    -0.485 OA 
HETATM   20  N   UNL     1      -9.837  12.583  67.435  1.00  0.00    -0.199 N  
ENDBRANCH   9  15
ENDBRANCH   2   7
TORSDOF 2
ENDMDL
MODEL       89
REMARK 921   NORMALIZED FREE ENERGY PREDICTED BY IDOCK:   -4.11 KCAL/MOL
REMARK 922        TOTAL FREE ENERGY PREDICTED BY IDOCK:   -4.57 KCAL/MOL
REMARK 923 INTER-LIGAND FREE ENERGY PREDICTED BY IDOCK:   -4.40 KCAL/MOL
REMARK 924 INTRA-LIGAND FREE ENERGY PREDICTED BY IDOCK:   -0.17 KCAL/MOL
REMARK 927      BINDING AFFINITY PREDICTED BY RF-SCORE:    0.00 PKD
ROOT
HETATM    1  N   UNL     1      -8.422  12.912  68.786  1.00  0.00    -0.362 N  
HETATM    2  S   UNL     1      -7.773  11.785  67.731  1.00  0.00    -0.144 S  
HETATM    3  H1  UNL     1      -9.303  12.524  69.124  1.00  0.00     0.000 HD 
HETATM    4  H2  UNL     1      -8.016  13.812  69.042  1.00  0.00     0.000 HD 
HETATM    5  O   UNL     1      -7.858  10.509  68.399  1.00  0.00    -0.101 OA 
HETATM    6  O   UNL     1      -6.527  12.335  67.253  1.00  0.00    -0.144 OA 
ENDROOT
BRANCH   2   7
HETATM    7  C   UNL     1      -8.956  11.817  66.415  1.00  0.00    -0.201 A  
HETATM    8  C   UNL     1     -10.021  12.716  66.445  1.00  0.00    -0.262 A  
HETATM    9  C   UNL     1     -10.946  12.729  65.385  1.00  0.00    -0.283 A  
HETATM   10 CL   UNL     1      -9.432   9.846  62.995  1.00  0.00    -0.242 Cl 
HETATM   11  C   UNL     1     -10.804  11.854  64.296  1.00  0.00    -0.344 A  
HETATM   12  C   UNL     1      -8.789  10.951  65.336  1.00  0.00    -0.192 A  
HETATM   13 CL   UNL     1     -11.916  11.844  62.965  1.00  0.00    -0.249 Cl 
HETATM   14  C   UNL     1      -9.712  10.966  64.285  1.00  0.00    -0.294 A  
BRANCH   9  15
HETATM   15  S   UNL     1     -12.298  13.862  65.491  1.00  0.00    -0.507 S  
HETATM   16  O   UNL     1     -12.042  14.989  64.629  1.00  0.00    -0.399 OA 
HETATM   17  H2  UNL     1     -11.559  14.139  67.804  1.00  0.00     0.000 HD 
HETATM   18  H1  UNL     1     -13.004  15.055  67.136  1.00  0.00     0.000 HD 
HETATM   19  O   UNL     1     -13.534  13.113  65.413  1.00  0.00    -0.330 OA 
HETATM   20  N   UNL     1     -12.224  14.401  67.075  1.00  0.00    -0.345 N  
ENDBRANCH   9  15
ENDBRANCH   2   7
TORSDOF 2
ENDMDL
MODEL       90
REMARK 921   NORMALIZED FREE ENERGY PREDICTED BY IDOCK:   -4.11 KCAL/MOL
REMARK 922        TOTAL FREE ENERGY PREDICTED BY IDOCK:   -4.56 KCAL/MOL
REMARK 923 INTER-LIGAND FREE ENERGY PREDICTED BY IDOCK:   -4.33 KCAL/MOL
REMARK 924 INTRA-LIGAND FREE ENERGY PREDICTED BY IDOCK:   -0.22 KCAL/MOL
REMARK 927      BINDING AFFINITY PREDICTED BY RF-SCORE:    0.00 PKD
ROOT
HETATM    1  N   UNL     1      -8.568   8.489  68.439  1.00  0.00    -0.138 N  
HETATM    2  S   UNL     1     -10.011   9.294  68.717  1.00  0.00    -0.187 S  
HETATM    3  H1  UNL     1      -7.843   9.203  68.373  1.00  0.00     0.000 HD 
HETATM    4  H2  UNL     1      -8.439   7.481  68.351  1.00  0.00     0.000 HD 
HETATM    5  O   UNL     1      -9.749  10.240  69.775  1.00  0.00    -0.220 OA 
HETATM    6  O   UNL     1     -11.036   8.283  68.810  1.00  0.00     0.105 OA 
ENDROOT
BRANCH   2   7
HETATM    7  C   UNL     1     -10.215  10.181  67.199  1.00  0.00    -0.225 A  
HETATM    8  C   UNL     1     -10.911  11.389  67.176  1.00  0.00    -0.340 A  
HETATM    9  C   UNL     1     -11.055  12.081  65.960  1.00  0.00    -0.320 A  
HETATM   10 CL   UNL     1      -9.064   9.638  63.433  1.00  0.00    -0.259 Cl 
HETATM   11  C   UNL     1     -10.502  11.573  64.774  1.00  0.00    -0.299 A  
HETATM   12  C   UNL     1      -9.646   9.668  66.036  1.00  0.00    -0.305 A  
HETATM   13 CL   UNL     1     -10.649  12.399  63.256  1.00  0.00    -0.373 Cl 
HETATM   14  C   UNL     1      -9.793  10.358  64.829  1.00  0.00    -0.340 A  
BRANCH   9  15
HETATM   15  S   UNL     1     -11.978  13.588  65.979  1.00  0.00    -0.433 S  
HETATM   16  O   UNL     1     -11.090  14.692  65.713  1.00  0.00    -0.317 OA 
HETATM   17  H2  UNL     1     -12.303  13.067  68.344  1.00  0.00     0.000 HD 
HETATM   18  H1  UNL     1     -13.015  14.578  67.583  1.00  0.00     0.000 HD 
HETATM   19  O   UNL     1     -13.195  13.393  65.219  1.00  0.00    -0.644 OA 
HETATM   20  N   UNL     1     -12.483  13.708  67.572  1.00  0.00    -0.035 N  
ENDBRANCH   9  15
ENDBRANCH   2   7
TORSDOF 2
ENDMDL
MODEL       91
REMARK 921   NORMALIZED FREE ENERGY PREDICTED BY IDOCK:   -4.09 KCAL/MOL
REMARK 922        TOTAL FREE ENERGY PREDICTED BY IDOCK:   -4.54 KCAL/MOL
REMARK 923 INTER-LIGAND FREE ENERGY PREDICTED BY IDOCK:   -5.02 KCAL/MOL
REMARK 924 INTRA-LIGAND FREE ENERGY PREDICTED BY IDOCK:    0.48 KCAL/MOL
REMARK 927      BINDING AFFINITY PREDICTED BY RF-SCORE:    0.00 PKD
ROOT
HETATM    1  N   UNL     1      -7.259  14.165  69.506  1.00  0.00    -0.333 N  
HETATM    2  S   UNL     1      -7.173  13.140  68.184  1.00  0.00    -0.135 S  
HETATM    3  H1  UNL     1      -8.143  13.964  69.975  1.00  0.00     0.000 HD 
HETATM    4  H2  UNL     1      -6.564  14.856  69.788  1.00  0.00     0.000 HD 
HETATM    5  O   UNL     1      -7.519  11.825  68.668  1.00  0.00    -0.111 OA 
HETATM    6  O   UNL     1      -5.923  13.424  67.521  1.00  0.00    -0.277 OA 
ENDROOT
BRANCH   2   7
HETATM    7  C   UNL     1      -8.502  13.746  67.185  1.00  0.00    -0.175 A  
HETATM    8  C   UNL     1      -8.664  15.116  66.981  1.00  0.00    -0.264 A  
HETATM    9  C   UNL     1      -9.723  15.576  66.177  1.00  0.00    -0.319 A  
HETATM   10 CL   UNL     1     -11.447  12.088  65.093  1.00  0.00    -0.367 Cl 
HETATM   11  C   UNL     1     -10.613  14.672  65.575  1.00  0.00    -0.355 A  
HETATM   12  C   UNL     1      -9.366  12.833  66.584  1.00  0.00    -0.242 A  
HETATM   13 CL   UNL     1     -11.925  15.196  64.570  1.00  0.00    -0.387 Cl 
HETATM   14  C   UNL     1     -10.418  13.294  65.787  1.00  0.00    -0.284 A  
BRANCH   9  15
HETATM   15  S   UNL     1      -9.905  17.322  65.981  1.00  0.00    -0.144 S  
HETATM   16  O   UNL     1      -8.600  17.930  65.901  1.00  0.00    -0.510 OA 
HETATM   17  H2  UNL     1     -10.865  17.222  68.226  1.00  0.00     0.000 HD 
HETATM   18  H1  UNL     1     -10.710  18.808  67.313  1.00  0.00     0.000 HD 
HETATM   19  O   UNL     1     -10.920  17.571  64.979  1.00  0.00    -0.754 OA 
HETATM   20  N   UNL     1     -10.606  17.800  67.426  1.00  0.00    -0.361 N  
ENDBRANCH   9  15
ENDBRANCH   2   7
TORSDOF 2
ENDMDL
MODEL       92
REMARK 921   NORMALIZED FREE ENERGY PREDICTED BY IDOCK:   -4.05 KCAL/MOL
REMARK 922        TOTAL FREE ENERGY PREDICTED BY IDOCK:   -4.49 KCAL/MOL
REMARK 923 INTER-LIGAND FREE ENERGY PREDICTED BY IDOCK:   -4.55 KCAL/MOL
REMARK 924 INTRA-LIGAND FREE ENERGY PREDICTED BY IDOCK:    0.06 KCAL/MOL
REMARK 927      BINDING AFFINITY PREDICTED BY RF-SCORE:    0.00 PKD
ROOT
HETATM    1  N   UNL     1      -8.592  18.709  66.092  1.00  0.00    -0.211 N  
HETATM    2  S   UNL     1     -10.146  18.144  66.362  1.00  0.00    -0.388 S  
HETATM    3  H1  UNL     1      -8.253  18.244  65.250  1.00  0.00     0.000 HD 
HETATM    4  H2  UNL     1      -8.083  19.387  66.660  1.00  0.00     0.000 HD 
HETATM    5  O   UNL     1     -10.832  18.226  65.096  1.00  0.00    -0.656 OA 
HETATM    6  O   UNL     1     -10.624  18.803  67.554  1.00  0.00    -0.412 OA 
ENDROOT
BRANCH   2   7
HETATM    7  C   UNL     1      -9.839  16.441  66.733  1.00  0.00    -0.256 A  
HETATM    8  C   UNL     1      -8.552  16.009  67.052  1.00  0.00    -0.238 A  
HETATM    9  C   UNL     1      -8.331  14.652  67.350  1.00  0.00    -0.206 A  
HETATM   10 CL   UNL     1     -12.065  13.157  66.979  1.00  0.00    -0.408 Cl 
HETATM   11  C   UNL     1      -9.391  13.732  67.336  1.00  0.00    -0.226 A  
HETATM   12  C   UNL     1     -10.906  15.546  66.728  1.00  0.00    -0.291 A  
HETATM   13 CL   UNL     1      -9.164  12.053  67.706  1.00  0.00    -0.183 Cl 
HETATM   14  C   UNL     1     -10.682  14.197  67.023  1.00  0.00    -0.285 A  
BRANCH   9  15
HETATM   15  S   UNL     1      -6.676  14.151  67.712  1.00  0.00    -0.173 S  
HETATM   16  O   UNL     1      -6.419  12.875  67.093  1.00  0.00    -0.210 OA 
HETATM   17  H2  UNL     1      -7.479  14.041  70.018  1.00  0.00     0.000 HD 
HETATM   18  H1  UNL     1      -5.743  13.631  69.581  1.00  0.00     0.000 HD 
HETATM   19  O   UNL     1      -5.796  15.283  67.509  1.00  0.00    -0.293 OA 
HETATM   20  N   UNL     1      -6.699  13.921  69.372  1.00  0.00    -0.114 N  
ENDBRANCH   9  15
ENDBRANCH   2   7
TORSDOF 2
ENDMDL
MODEL       93
REMARK 921   NORMALIZED FREE ENERGY PREDICTED BY IDOCK:   -4.04 KCAL/MOL
REMARK 922        TOTAL FREE ENERGY PREDICTED BY IDOCK:   -4.48 KCAL/MOL
REMARK 923 INTER-LIGAND FREE ENERGY PREDICTED BY IDOCK:   -4.27 KCAL/MOL
REMARK 924 INTRA-LIGAND FREE ENERGY PREDICTED BY IDOCK:   -0.22 KCAL/MOL
REMARK 927      BINDING AFFINITY PREDICTED BY RF-SCORE:    0.00 PKD
ROOT
HETATM    1  N   UNL     1     -11.834  12.421  70.121  1.00  0.00    -0.502 N  
HETATM    2  S   UNL     1     -10.903  11.795  68.877  1.00  0.00    -0.207 S  
HETATM    3  H1  UNL     1     -11.191  12.663  70.875  1.00  0.00     0.000 HD 
HETATM    4  H2  UNL     1     -12.848  12.536  70.126  1.00  0.00     0.000 HD 
HETATM    5  O   UNL     1      -9.801  12.709  68.698  1.00  0.00    -0.177 OA 
HETATM    6  O   UNL     1     -11.814  11.452  67.812  1.00  0.00    -0.595 OA 
ENDROOT
BRANCH   2   7
HETATM    7  C   UNL     1     -10.293  10.305  69.612  1.00  0.00    -0.248 A  
HETATM    8  C   UNL     1     -11.036   9.645  70.590  1.00  0.00    -0.384 A  
HETATM    9  C   UNL     1     -10.536   8.458  71.155  1.00  0.00    -0.212 A  
HETATM   10 CL   UNL     1      -7.051   8.052  69.154  1.00  0.00    -0.067 Cl 
HETATM   11  C   UNL     1      -9.302   7.930  70.742  1.00  0.00    -0.157 A  
HETATM   12  C   UNL     1      -9.074   9.789  69.179  1.00  0.00    -0.166 A  
HETATM   13 CL   UNL     1      -8.654   6.465  71.407  1.00  0.00    -0.130 Cl 
HETATM   14  C   UNL     1      -8.579   8.610  69.745  1.00  0.00    -0.131 A  
BRANCH   9  15
HETATM   15  S   UNL     1     -11.500   7.680  72.415  1.00  0.00    -0.349 S  
HETATM   16  O   UNL     1     -12.056   6.454  71.900  1.00  0.00    -0.336 OA 
HETATM   17  H2  UNL     1     -12.934   9.646  72.181  1.00  0.00     0.000 HD 
HETATM   18  H1  UNL     1     -13.319   8.308  73.378  1.00  0.00     0.000 HD 
HETATM   19  O   UNL     1     -10.751   7.713  73.654  1.00  0.00    -0.292 OA 
HETATM   20  N   UNL     1     -12.762   8.757  72.651  1.00  0.00    -0.316 N  
ENDBRANCH   9  15
ENDBRANCH   2   7
TORSDOF 2
ENDMDL
MODEL       94
REMARK 921   NORMALIZED FREE ENERGY PREDICTED BY IDOCK:   -4.03 KCAL/MOL
REMARK 922        TOTAL FREE ENERGY PREDICTED BY IDOCK:   -4.47 KCAL/MOL
REMARK 923 INTER-LIGAND FREE ENERGY PREDICTED BY IDOCK:   -4.48 KCAL/MOL
REMARK 924 INTRA-LIGAND FREE ENERGY PREDICTED BY IDOCK:    0.01 KCAL/MOL
REMARK 927      BINDING AFFINITY PREDICTED BY RF-SCORE:    0.00 PKD
ROOT
HETATM    1  N   UNL     1     -12.526  15.470  69.704  1.00  0.00    -0.591 N  
HETATM    2  S   UNL     1     -11.076  15.774  68.923  1.00  0.00    -0.321 S  
HETATM    3  H1  UNL     1     -12.378  14.644  70.284  1.00  0.00     0.000 HD 
HETATM    4  H2  UNL     1     -13.389  16.006  69.618  1.00  0.00     0.000 HD 
HETATM    5  O   UNL     1     -10.048  15.704  69.934  1.00  0.00    -0.283 OA 
HETATM    6  O   UNL     1     -11.285  16.942  68.102  1.00  0.00    -0.297 OA 
ENDROOT
BRANCH   2   7
HETATM    7  C   UNL     1     -10.939  14.355  67.874  1.00  0.00    -0.262 A  
HETATM    8  C   UNL     1      -9.920  13.424  68.076  1.00  0.00    -0.239 A  
HETATM    9  C   UNL     1      -9.834  12.299  67.236  1.00  0.00    -0.205 A  
HETATM   10 CL   UNL     1     -12.996  12.907  64.796  1.00  0.00    -0.353 Cl 
HETATM   11  C   UNL     1     -10.765  12.101  66.203  1.00  0.00    -0.272 A  
HETATM   12  C   UNL     1     -11.881  14.167  66.865  1.00  0.00    -0.458 A  
HETATM   13 CL   UNL     1     -10.700  10.723  65.151  1.00  0.00    -0.232 Cl 
HETATM   14  C   UNL     1     -11.791  13.049  66.031  1.00  0.00    -0.417 A  
BRANCH   9  15
HETATM   15  S   UNL     1      -8.503  11.171  67.511  1.00  0.00    -0.128 S  
HETATM   16  O   UNL     1      -7.798  10.957  66.272  1.00  0.00    -0.155 OA 
HETATM   17  H2  UNL     1     -10.288   9.568  67.976  1.00  0.00     0.000 HD 
HETATM   18  H1  UNL     1      -8.517   9.092  68.067  1.00  0.00     0.000 HD 
HETATM   19  O   UNL     1      -7.809  11.561  68.720  1.00  0.00    -0.140 OA 
HETATM   20  N   UNL     1      -9.285   9.743  67.909  1.00  0.00    -0.125 N  
ENDBRANCH   9  15
ENDBRANCH   2   7
TORSDOF 2
ENDMDL
MODEL       95
REMARK 921   NORMALIZED FREE ENERGY PREDICTED BY IDOCK:   -4.01 KCAL/MOL
REMARK 922        TOTAL FREE ENERGY PREDICTED BY IDOCK:   -4.45 KCAL/MOL
REMARK 923 INTER-LIGAND FREE ENERGY PREDICTED BY IDOCK:   -4.45 KCAL/MOL
REMARK 924 INTRA-LIGAND FREE ENERGY PREDICTED BY IDOCK:    0.01 KCAL/MOL
REMARK 927      BINDING AFFINITY PREDICTED BY RF-SCORE:    0.00 PKD
ROOT
HETATM    1  N   UNL     1     -10.488   7.368  73.380  1.00  0.00    -0.363 N  
HETATM    2  S   UNL     1     -10.798   7.045  71.766  1.00  0.00    -0.226 S  
HETATM    3  H1  UNL     1     -11.356   7.729  73.778  1.00  0.00     0.000 HD 
HETATM    4  H2  UNL     1      -9.605   7.232  73.870  1.00  0.00     0.000 HD 
HETATM    5  O   UNL     1     -12.038   6.308  71.731  1.00  0.00    -0.323 OA 
HETATM    6  O   UNL     1      -9.571   6.536  71.203  1.00  0.00    -0.170 OA 
ENDROOT
BRANCH   2   7
HETATM    7  C   UNL     1     -11.086   8.673  71.133  1.00  0.00    -0.266 A  
HETATM    8  C   UNL     1     -10.393   9.127  70.011  1.00  0.00    -0.231 A  
HETATM    9  C   UNL     1     -10.644  10.421  69.520  1.00  0.00    -0.246 A  
HETATM   10 CL   UNL     1     -13.465  11.704  72.110  1.00  0.00    -0.424 Cl 
HETATM   11  C   UNL     1     -11.585  11.256  70.143  1.00  0.00    -0.305 A  
HETATM   12  C   UNL     1     -12.035   9.481  71.755  1.00  0.00    -0.443 A  
HETATM   13 CL   UNL     1     -11.929  12.855  69.564  1.00  0.00    -0.365 Cl 
HETATM   14  C   UNL     1     -12.279  10.768  71.265  1.00  0.00    -0.321 A  
BRANCH   9  15
HETATM   15  S   UNL     1      -9.712  10.961  68.119  1.00  0.00    -0.172 S  
HETATM   16  O   UNL     1      -9.107  12.236  68.412  1.00  0.00    -0.193 OA 
HETATM   17  H2  UNL     1     -11.895  11.077  67.027  1.00  0.00     0.000 HD 
HETATM   18  H1  UNL     1     -10.349  11.518  66.141  1.00  0.00     0.000 HD 
HETATM   19  O   UNL     1      -8.930   9.845  67.628  1.00  0.00    -0.128 OA 
HETATM   20  N   UNL     1     -10.886  11.207  66.949  1.00  0.00    -0.275 N  
ENDBRANCH   9  15
ENDBRANCH   2   7
TORSDOF 2
ENDMDL
MODEL       96
REMARK 921   NORMALIZED FREE ENERGY PREDICTED BY IDOCK:   -4.00 KCAL/MOL
REMARK 922        TOTAL FREE ENERGY PREDICTED BY IDOCK:   -4.44 KCAL/MOL
REMARK 923 INTER-LIGAND FREE ENERGY PREDICTED BY IDOCK:   -4.24 KCAL/MOL
REMARK 924 INTRA-LIGAND FREE ENERGY PREDICTED BY IDOCK:   -0.20 KCAL/MOL
REMARK 927      BINDING AFFINITY PREDICTED BY RF-SCORE:    0.00 PKD
ROOT
HETATM    1  N   UNL     1     -12.535  14.555  68.167  1.00  0.00    -0.505 N  
HETATM    2  S   UNL     1     -11.521  13.837  69.291  1.00  0.00    -0.301 S  
HETATM    3  H1  UNL     1     -13.349  13.947  68.078  1.00  0.00     0.000 HD 
HETATM    4  H2  UNL     1     -12.370  15.429  67.669  1.00  0.00     0.000 HD 
HETATM    5  O   UNL     1     -12.352  13.476  70.414  1.00  0.00    -0.338 OA 
HETATM    6  O   UNL     1     -10.369  14.696  69.417  1.00  0.00    -0.206 OA 
ENDROOT
BRANCH   2   7
HETATM    7  C   UNL     1     -11.044  12.361  68.439  1.00  0.00    -0.250 A  
HETATM    8  C   UNL     1     -10.775  11.191  69.149  1.00  0.00    -0.262 A  
HETATM    9  C   UNL     1     -10.405  10.027  68.451  1.00  0.00    -0.191 A  
HETATM   10 CL   UNL     1     -10.519  11.340  64.633  1.00  0.00    -0.366 Cl 
HETATM   11  C   UNL     1     -10.309  10.029  67.051  1.00  0.00    -0.243 A  
HETATM   12  C   UNL     1     -10.969  12.378  67.048  1.00  0.00    -0.303 A  
HETATM   13 CL   UNL     1      -9.865   8.614  66.152  1.00  0.00    -0.314 Cl 
HETATM   14  C   UNL     1     -10.598  11.220  66.358  1.00  0.00    -0.266 A  
BRANCH   9  15
HETATM   15  S   UNL     1     -10.041   8.583  69.402  1.00  0.00    -0.209 S  
HETATM   16  O   UNL     1     -10.947   7.526  69.028  1.00  0.00    -0.114 OA 
HETATM   17  H2  UNL     1     -10.766   9.950  71.293  1.00  0.00     0.000 HD 
HETATM   18  H1  UNL     1     -10.204   8.216  71.516  1.00  0.00     0.000 HD 
HETATM   19  O   UNL     1      -8.606   8.385  69.408  1.00  0.00    -0.127 OA 
HETATM   20  N   UNL     1     -10.414   9.049  70.967  1.00  0.00    -0.244 N  
ENDBRANCH   9  15
ENDBRANCH   2   7
TORSDOF 2
ENDMDL
MODEL       97
REMARK 921   NORMALIZED FREE ENERGY PREDICTED BY IDOCK:   -3.95 KCAL/MOL
REMARK 922        TOTAL FREE ENERGY PREDICTED BY IDOCK:   -4.38 KCAL/MOL
REMARK 923 INTER-LIGAND FREE ENERGY PREDICTED BY IDOCK:   -4.39 KCAL/MOL
REMARK 924 INTRA-LIGAND FREE ENERGY PREDICTED BY IDOCK:    0.01 KCAL/MOL
REMARK 927      BINDING AFFINITY PREDICTED BY RF-SCORE:    0.00 PKD
ROOT
HETATM    1  N   UNL     1     -10.209  13.538  67.057  1.00  0.00    -0.247 N  
HETATM    2  S   UNL     1     -11.519  12.503  67.197  1.00  0.00    -0.370 S  
HETATM    3  H1  UNL     1      -9.897  13.486  66.087  1.00  0.00     0.000 HD 
HETATM    4  H2  UNL     1      -9.803  14.111  67.797  1.00  0.00     0.000 HD 
HETATM    5  O   UNL     1     -12.386  12.793  66.081  1.00  0.00    -0.542 OA 
HETATM    6  O   UNL     1     -11.960  12.578  68.569  1.00  0.00    -0.313 OA 
ENDROOT
BRANCH   2   7
HETATM    7  C   UNL     1     -10.751  10.931  66.927  1.00  0.00    -0.264 A  
HETATM    8  C   UNL     1     -10.811   9.939  67.905  1.00  0.00    -0.312 A  
HETATM    9  C   UNL     1     -10.201   8.694  67.666  1.00  0.00    -0.239 A  
HETATM   10 CL   UNL     1      -8.723   9.252  63.949  1.00  0.00    -0.215 Cl 
HETATM   11  C   UNL     1      -9.539   8.439  66.455  1.00  0.00    -0.237 A  
HETATM   12  C   UNL     1     -10.112  10.692  65.712  1.00  0.00    -0.327 A  
HETATM   13 CL   UNL     1      -8.781   6.916  66.117  1.00  0.00    -0.147 Cl 
HETATM   14  C   UNL     1      -9.505   9.454  65.480  1.00  0.00    -0.260 A  
BRANCH   9  15
HETATM   15  S   UNL     1     -10.275   7.485  68.952  1.00  0.00    -0.211 S  
HETATM   16  O   UNL     1      -8.941   7.025  69.250  1.00  0.00    -0.138 OA 
HETATM   17  H2  UNL     1     -11.481   6.157  67.293  1.00  0.00     0.000 HD 
HETATM   18  H1  UNL     1     -11.149   5.519  68.983  1.00  0.00     0.000 HD 
HETATM   19  O   UNL     1     -11.159   7.970  69.991  1.00  0.00    -0.238 OA 
HETATM   20  N   UNL     1     -11.107   6.217  68.240  1.00  0.00    -0.325 N  
ENDBRANCH   9  15
ENDBRANCH   2   7
TORSDOF 2
ENDMDL
MODEL       98
REMARK 921   NORMALIZED FREE ENERGY PREDICTED BY IDOCK:   -3.89 KCAL/MOL
REMARK 922        TOTAL FREE ENERGY PREDICTED BY IDOCK:   -4.32 KCAL/MOL
REMARK 923 INTER-LIGAND FREE ENERGY PREDICTED BY IDOCK:   -4.38 KCAL/MOL
REMARK 924 INTRA-LIGAND FREE ENERGY PREDICTED BY IDOCK:    0.06 KCAL/MOL
REMARK 927      BINDING AFFINITY PREDICTED BY RF-SCORE:    0.00 PKD
ROOT
HETATM    1  N   UNL     1     -10.884   8.065  72.733  1.00  0.00    -0.368 N  
HETATM    2  S   UNL     1     -12.222   8.417  71.788  1.00  0.00    -0.351 S  
HETATM    3  H1  UNL     1     -10.456   8.958  72.978  1.00  0.00     0.000 HD 
HETATM    4  H2  UNL     1     -10.560   7.138  73.009  1.00  0.00     0.000 HD 
HETATM    5  O   UNL     1     -12.939   9.464  72.475  1.00  0.00    -0.380 OA 
HETATM    6  O   UNL     1     -12.827   7.154  71.441  1.00  0.00    -0.376 OA 
ENDROOT
BRANCH   2   7
HETATM    7  C   UNL     1     -11.459   9.103  70.345  1.00  0.00    -0.194 A  
HETATM    8  C   UNL     1     -11.539  10.471  70.088  1.00  0.00    -0.408 A  
HETATM    9  C   UNL     1     -10.919  10.997  68.940  1.00  0.00    -0.227 A  
HETATM   10 CL   UNL     1      -9.305   7.662  67.331  1.00  0.00    -0.156 Cl 
HETATM   11  C   UNL     1     -10.219  10.161  68.055  1.00  0.00    -0.173 A  
HETATM   12  C   UNL     1     -10.756   8.260  69.487  1.00  0.00    -0.179 A  
HETATM   13 CL   UNL     1      -9.435  10.770  66.633  1.00  0.00    -0.195 Cl 
HETATM   14  C   UNL     1     -10.144   8.786  68.345  1.00  0.00    -0.190 A  
BRANCH   9  15
HETATM   15  S   UNL     1     -11.081  12.731  68.642  1.00  0.00    -0.280 S  
HETATM   16  O   UNL     1     -11.927  13.310  69.656  1.00  0.00    -0.308 OA 
HETATM   17  H2  UNL     1     -12.239  12.020  66.610  1.00  0.00     0.000 HD 
HETATM   18  H1  UNL     1     -12.002  13.796  67.015  1.00  0.00     0.000 HD 
HETATM   19  O   UNL     1      -9.771  13.272  68.346  1.00  0.00    -0.224 OA 
HETATM   20  N   UNL     1     -11.908  12.795  67.186  1.00  0.00    -0.372 N  
ENDBRANCH   9  15
ENDBRANCH   2   7
TORSDOF 2
ENDMDL
MODEL       99
REMARK 921   NORMALIZED FREE ENERGY PREDICTED BY IDOCK:   -3.86 KCAL/MOL
REMARK 922        TOTAL FREE ENERGY PREDICTED BY IDOCK:   -4.28 KCAL/MOL
REMARK 923 INTER-LIGAND FREE ENERGY PREDICTED BY IDOCK:   -4.06 KCAL/MOL
REMARK 924 INTRA-LIGAND FREE ENERGY PREDICTED BY IDOCK:   -0.22 KCAL/MOL
REMARK 927      BINDING AFFINITY PREDICTED BY RF-SCORE:    0.00 PKD
ROOT
HETATM    1  N   UNL     1      -9.639  12.349  68.632  1.00  0.00    -0.394 N  
HETATM    2  S   UNL     1     -10.722  11.453  67.721  1.00  0.00    -0.226 S  
HETATM    3  H1  UNL     1      -8.721  11.923  68.498  1.00  0.00     0.000 HD 
HETATM    4  H2  UNL     1      -9.854  13.162  69.208  1.00  0.00     0.000 HD 
HETATM    5  O   UNL     1     -10.119  11.290  66.420  1.00  0.00    -0.208 OA 
HETATM    6  O   UNL     1     -12.019  12.055  67.911  1.00  0.00    -0.526 OA 
ENDROOT
BRANCH   2   7
HETATM    7  C   UNL     1     -10.683   9.897  68.564  1.00  0.00    -0.226 A  
HETATM    8  C   UNL     1     -10.170   8.765  67.932  1.00  0.00    -0.272 A  
HETATM    9  C   UNL     1     -10.142   7.540  68.623  1.00  0.00    -0.184 A  
HETATM   10 CL   UNL     1     -11.729   8.615  72.178  1.00  0.00    -0.434 Cl 
HETATM   11  C   UNL     1     -10.619   7.446  69.940  1.00  0.00    -0.236 A  
HETATM   12  C   UNL     1     -11.147   9.828  69.875  1.00  0.00    -0.293 A  
HETATM   13 CL   UNL     1     -10.595   5.958  70.830  1.00  0.00    -0.311 Cl 
HETATM   14  C   UNL     1     -11.120   8.608  70.558  1.00  0.00    -0.242 A  
BRANCH   9  15
HETATM   15  S   UNL     1      -9.515   6.128  67.763  1.00  0.00    -0.115 S  
HETATM   16  O   UNL     1      -8.267   5.724  68.361  1.00  0.00    -0.106 OA 
HETATM   17  H2  UNL     1      -9.310   7.676  65.884  1.00  0.00     0.000 HD 
HETATM   18  H1  UNL     1      -8.820   5.913  65.739  1.00  0.00     0.000 HD 
HETATM   19  O   UNL     1     -10.600   5.191  67.564  1.00  0.00    -0.135 OA 
HETATM   20  N   UNL     1      -9.182   6.727  66.234  1.00  0.00    -0.154 N  
ENDBRANCH   9  15
ENDBRANCH   2   7
TORSDOF 2
ENDMDL
MODEL      100
REMARK 921   NORMALIZED FREE ENERGY PREDICTED BY IDOCK:   -3.86 KCAL/MOL
REMARK 922        TOTAL FREE ENERGY PREDICTED BY IDOCK:   -4.28 KCAL/MOL
REMARK 923 INTER-LIGAND FREE ENERGY PREDICTED BY IDOCK:   -4.06 KCAL/MOL
REMARK 924 INTRA-LIGAND FREE ENERGY PREDICTED BY IDOCK:   -0.22 KCAL/MOL
REMARK 927      BINDING AFFINITY PREDICTED BY RF-SCORE:    0.00 PKD
ROOT
HETATM    1  N   UNL     1     -11.434   9.223  71.193  1.00  0.00    -0.304 N  
HETATM    2  S   UNL     1     -12.018   7.824  71.905  1.00  0.00    -0.315 S  
HETATM    3  H1  UNL     1     -11.800   9.242  70.241  1.00  0.00     0.000 HD 
HETATM    4  H2  UNL     1     -10.829   9.920  71.626  1.00  0.00     0.000 HD 
HETATM    5  O   UNL     1     -13.431   7.780  71.611  1.00  0.00    -0.347 OA 
HETATM    6  O   UNL     1     -11.500   7.798  73.251  1.00  0.00    -0.295 OA 
ENDROOT
BRANCH   2   7
HETATM    7  C   UNL     1     -11.200   6.578  70.951  1.00  0.00    -0.311 A  
HETATM    8  C   UNL     1     -10.965   6.772  69.591  1.00  0.00    -0.336 A  
HETATM    9  C   UNL     1     -10.306   5.771  68.853  1.00  0.00    -0.227 A  
HETATM   10 CL   UNL     1      -9.635   3.005  71.719  1.00  0.00    -0.213 Cl 
HETATM   11  C   UNL     1      -9.880   4.585  69.472  1.00  0.00    -0.207 A  
HETATM   12  C   UNL     1     -10.771   5.414  71.586  1.00  0.00    -0.266 A  
HETATM   13 CL   UNL     1      -9.057   3.331  68.601  1.00  0.00    -0.188 Cl 
HETATM   14  C   UNL     1     -10.119   4.421  70.849  1.00  0.00    -0.129 A  
BRANCH   9  15
HETATM   15  S   UNL     1     -10.065   6.052  67.125  1.00  0.00    -0.197 S  
HETATM   16  O   UNL     1      -8.654   6.170  66.855  1.00  0.00    -0.109 OA 
HETATM   17  H2  UNL     1     -11.216   8.162  67.562  1.00  0.00     0.000 HD 
HETATM   18  H1  UNL     1     -10.622   7.717  65.882  1.00  0.00     0.000 HD 
HETATM   19  O   UNL     1     -10.904   5.131  66.387  1.00  0.00    -0.283 OA 
HETATM   20  N   UNL     1     -10.762   7.555  66.879  1.00  0.00    -0.328 N  
ENDBRANCH   9  15
ENDBRANCH   2   7
TORSDOF 2
ENDMDL
MODEL      101
REMARK 921   NORMALIZED FREE ENERGY PREDICTED BY IDOCK:   -3.84 KCAL/MOL
REMARK 922        TOTAL FREE ENERGY PREDICTED BY IDOCK:   -4.25 KCAL/MOL
REMARK 923 INTER-LIGAND FREE ENERGY PREDICTED BY IDOCK:   -4.36 KCAL/MOL
REMARK 924 INTRA-LIGAND FREE ENERGY PREDICTED BY IDOCK:    0.11 KCAL/MOL
REMARK 927      BINDING AFFINITY PREDICTED BY RF-SCORE:    0.00 PKD
ROOT
HETATM    1  N   UNL     1      -8.586  10.832  66.968  1.00  0.00    -0.129 N  
HETATM    2  S   UNL     1     -10.198  11.073  66.580  1.00  0.00    -0.243 S  
HETATM    3  H1  UNL     1      -8.559  10.565  67.952  1.00  0.00     0.000 HD 
HETATM    4  H2  UNL     1      -7.788  10.933  66.342  1.00  0.00     0.000 HD 
HETATM    5  O   UNL     1     -10.914   9.932  67.100  1.00  0.00    -0.218 OA 
HETATM    6  O   UNL     1     -10.237  11.451  65.188  1.00  0.00    -0.250 OA 
ENDROOT
BRANCH   2   7
HETATM    7  C   UNL     1     -10.588  12.488  67.570  1.00  0.00    -0.220 A  
HETATM    8  C   UNL     1     -10.153  13.757  67.189  1.00  0.00    -0.241 A  
HETATM    9  C   UNL     1     -10.481  14.868  67.986  1.00  0.00    -0.246 A  
HETATM   10 CL   UNL     1     -12.629  13.115  70.923  1.00  0.00    -0.409 Cl 
HETATM   11  C   UNL     1     -11.243  14.715  69.155  1.00  0.00    -0.270 A  
HETATM   12  C   UNL     1     -11.359  12.317  68.718  1.00  0.00    -0.337 A  
HETATM   13 CL   UNL     1     -11.676  16.060  70.161  1.00  0.00    -0.326 Cl 
HETATM   14  C   UNL     1     -11.680  13.425  69.509  1.00  0.00    -0.324 A  
BRANCH   9  15
HETATM   15  S   UNL     1      -9.874  16.448  67.478  1.00  0.00    -0.243 S  
HETATM   16  O   UNL     1      -9.248  16.324  66.185  1.00  0.00    -0.297 OA 
HETATM   17  H2  UNL     1      -8.366  16.204  69.386  1.00  0.00     0.000 HD 
HETATM   18  H1  UNL     1      -8.322  17.688  68.306  1.00  0.00     0.000 HD 
HETATM   19  O   UNL     1     -10.898  17.440  67.733  1.00  0.00    -0.361 OA 
HETATM   20  N   UNL     1      -8.673  16.777  68.600  1.00  0.00    -0.247 N  
ENDBRANCH   9  15
ENDBRANCH   2   7
TORSDOF 2
ENDMDL
MODEL      102
REMARK 921   NORMALIZED FREE ENERGY PREDICTED BY IDOCK:   -3.82 KCAL/MOL
REMARK 922        TOTAL FREE ENERGY PREDICTED BY IDOCK:   -4.24 KCAL/MOL
REMARK 923 INTER-LIGAND FREE ENERGY PREDICTED BY IDOCK:   -4.44 KCAL/MOL
REMARK 924 INTRA-LIGAND FREE ENERGY PREDICTED BY IDOCK:    0.21 KCAL/MOL
REMARK 927      BINDING AFFINITY PREDICTED BY RF-SCORE:    0.00 PKD
ROOT
HETATM    1  N   UNL     1      -9.106   8.900  64.474  1.00  0.00    -0.419 N  
HETATM    2  S   UNL     1      -9.109   9.052  66.142  1.00  0.00    -0.215 S  
HETATM    3  H1  UNL     1      -8.248   9.341  64.141  1.00  0.00     0.000 HD 
HETATM    4  H2  UNL     1      -9.822   8.454  63.901  1.00  0.00     0.000 HD 
HETATM    5  O   UNL     1      -7.798   8.644  66.588  1.00  0.00    -0.095 OA 
HETATM    6  O   UNL     1     -10.322   8.429  66.612  1.00  0.00    -0.303 OA 
ENDROOT
BRANCH   2   7
HETATM    7  C   UNL     1      -9.254  10.806  66.333  1.00  0.00    -0.170 A  
HETATM    8  C   UNL     1     -10.157  11.528  65.553  1.00  0.00    -0.286 A  
HETATM    9  C   UNL     1     -10.261  12.920  65.727  1.00  0.00    -0.288 A  
HETATM   10 CL   UNL     1      -7.561  13.543  68.665  1.00  0.00    -0.125 Cl 
HETATM   11  C   UNL     1      -9.472  13.587  66.678  1.00  0.00    -0.265 A  
HETATM   12  C   UNL     1      -8.474  11.448  67.292  1.00  0.00    -0.148 A  
HETATM   13 CL   UNL     1      -9.576  15.300  66.929  1.00  0.00    -0.234 Cl 
HETATM   14  C   UNL     1      -8.579  12.832  67.460  1.00  0.00    -0.187 A  
BRANCH   9  15
HETATM   15  S   UNL     1     -11.394  13.793  64.688  1.00  0.00    -0.381 S  
HETATM   16  O   UNL     1     -10.909  15.134  64.478  1.00  0.00    -0.312 OA 
HETATM   17  H2  UNL     1     -12.932  13.530  66.569  1.00  0.00     0.000 HD 
HETATM   18  H1  UNL     1     -13.432  14.393  65.027  1.00  0.00     0.000 HD 
HETATM   19  O   UNL     1     -11.757  12.935  63.580  1.00  0.00    -0.490 OA 
HETATM   20  N   UNL     1     -12.779  13.889  65.626  1.00  0.00    -0.528 N  
ENDBRANCH   9  15
ENDBRANCH   2   7
TORSDOF 2
ENDMDL
MODEL      103
REMARK 921   NORMALIZED FREE ENERGY PREDICTED BY IDOCK:   -3.71 KCAL/MOL
REMARK 922        TOTAL FREE ENERGY PREDICTED BY IDOCK:   -4.11 KCAL/MOL
REMARK 923 INTER-LIGAND FREE ENERGY PREDICTED BY IDOCK:   -4.17 KCAL/MOL
REMARK 924 INTRA-LIGAND FREE ENERGY PREDICTED BY IDOCK:    0.06 KCAL/MOL
REMARK 927      BINDING AFFINITY PREDICTED BY RF-SCORE:    0.00 PKD
ROOT
HETATM    1  N   UNL     1     -12.661  10.247  69.788  1.00  0.00    -0.539 N  
HETATM    2  S   UNL     1     -12.855   9.744  71.373  1.00  0.00    -0.419 S  
HETATM    3  H1  UNL     1     -12.660   9.406  69.211  1.00  0.00     0.000 HD 
HETATM    4  H2  UNL     1     -12.562  11.208  69.461  1.00  0.00     0.000 HD 
HETATM    5  O   UNL     1     -13.947   8.800  71.368  1.00  0.00    -0.362 OA 
HETATM    6  O   UNL     1     -12.856  10.934  72.188  1.00  0.00    -0.341 OA 
ENDROOT
BRANCH   2   7
HETATM    7  C   UNL     1     -11.345   8.862  71.647  1.00  0.00    -0.337 A  
HETATM    8  C   UNL     1     -11.362   7.601  72.241  1.00  0.00    -0.355 A  
HETATM    9  C   UNL     1     -10.150   6.914  72.442  1.00  0.00    -0.170 A  
HETATM   10 CL   UNL     1      -7.499   9.549  70.910  1.00  0.00    -0.103 Cl 
HETATM   11  C   UNL     1      -8.928   7.483  72.049  1.00  0.00    -0.125 A  
HETATM   12  C   UNL     1     -10.144   9.436  71.236  1.00  0.00    -0.309 A  
HETATM   13 CL   UNL     1      -7.414   6.667  72.271  1.00  0.00    -0.093 Cl 
HETATM   14  C   UNL     1      -8.942   8.752  71.441  1.00  0.00    -0.238 A  
BRANCH   9  15
HETATM   15  S   UNL     1     -10.224   5.335  73.231  1.00  0.00    -0.205 S  
HETATM   16  O   UNL     1      -9.468   5.380  74.458  1.00  0.00    -0.130 OA 
HETATM   17  H2  UNL     1      -8.977   4.577  71.272  1.00  0.00     0.000 HD 
HETATM   18  H1  UNL     1      -9.453   3.422  72.618  1.00  0.00     0.000 HD 
HETATM   19  O   UNL     1     -11.595   4.869  73.202  1.00  0.00    -0.324 OA 
HETATM   20  N   UNL     1      -9.410   4.334  72.163  1.00  0.00    -0.123 N  
ENDBRANCH   9  15
ENDBRANCH   2   7
TORSDOF 2
ENDMDL
MODEL      104
REMARK 921   NORMALIZED FREE ENERGY PREDICTED BY IDOCK:   -3.70 KCAL/MOL
REMARK 922        TOTAL FREE ENERGY PREDICTED BY IDOCK:   -4.11 KCAL/MOL
REMARK 923 INTER-LIGAND FREE ENERGY PREDICTED BY IDOCK:   -4.06 KCAL/MOL
REMARK 924 INTRA-LIGAND FREE ENERGY PREDICTED BY IDOCK:   -0.05 KCAL/MOL
REMARK 927      BINDING AFFINITY PREDICTED BY RF-SCORE:    0.00 PKD
ROOT
HETATM    1  N   UNL     1     -10.979  16.735  70.133  1.00  0.00    -0.382 N  
HETATM    2  S   UNL     1     -10.270  16.799  68.616  1.00  0.00    -0.319 S  
HETATM    3  H1  UNL     1     -10.444  16.057  70.677  1.00  0.00     0.000 HD 
HETATM    4  H2  UNL     1     -11.787  17.268  70.451  1.00  0.00     0.000 HD 
HETATM    5  O   UNL     1      -8.850  16.922  68.838  1.00  0.00    -0.262 OA 
HETATM    6  O   UNL     1     -11.027  17.756  67.847  1.00  0.00    -0.308 OA 
ENDROOT
BRANCH   2   7
HETATM    7  C   UNL     1     -10.611  15.174  68.003  1.00  0.00    -0.258 A  
HETATM    8  C   UNL     1     -11.049  14.170  68.867  1.00  0.00    -0.288 A  
HETATM    9  C   UNL     1     -11.321  12.888  68.357  1.00  0.00    -0.294 A  
HETATM   10 CL   UNL     1     -10.503  13.420  64.437  1.00  0.00    -0.447 Cl 
HETATM   11  C   UNL     1     -11.162  12.609  66.990  1.00  0.00    -0.300 A  
HETATM   12  C   UNL     1     -10.461  14.921  66.641  1.00  0.00    -0.292 A  
HETATM   13 CL   UNL     1     -11.494  11.045  66.319  1.00  0.00     0.134 Cl 
HETATM   14  C   UNL     1     -10.730  13.644  66.138  1.00  0.00    -0.286 A  
BRANCH   9  15
HETATM   15  S   UNL     1     -11.838  11.644  69.500  1.00  0.00    -0.350 S  
HETATM   16  O   UNL     1     -12.985  10.954  68.965  1.00  0.00     0.124 OA 
HETATM   17  H2  UNL     1     -12.354  13.544  70.948  1.00  0.00     0.000 HD 
HETATM   18  H1  UNL     1     -12.645  11.813  71.488  1.00  0.00     0.000 HD 
HETATM   19  O   UNL     1     -10.668  10.926  69.961  1.00  0.00    -0.175 OA 
HETATM   20  N   UNL     1     -12.346  12.531  70.828  1.00  0.00    -0.357 N  
ENDBRANCH   9  15
ENDBRANCH   2   7
TORSDOF 2
ENDMDL
MODEL      105
REMARK 921   NORMALIZED FREE ENERGY PREDICTED BY IDOCK:   -3.70 KCAL/MOL
REMARK 922        TOTAL FREE ENERGY PREDICTED BY IDOCK:   -4.10 KCAL/MOL
REMARK 923 INTER-LIGAND FREE ENERGY PREDICTED BY IDOCK:   -4.17 KCAL/MOL
REMARK 924 INTRA-LIGAND FREE ENERGY PREDICTED BY IDOCK:    0.08 KCAL/MOL
REMARK 927      BINDING AFFINITY PREDICTED BY RF-SCORE:    0.00 PKD
ROOT
HETATM    1  N   UNL     1      -9.818  10.912  68.427  1.00  0.00    -0.170 N  
HETATM    2  S   UNL     1     -11.081  12.011  68.393  1.00  0.00    -0.268 S  
HETATM    3  H1  UNL     1      -9.149  11.256  69.116  1.00  0.00     0.000 HD 
HETATM    4  H2  UNL     1      -9.732  10.063  67.868  1.00  0.00     0.000 HD 
HETATM    5  O   UNL     1     -11.437  12.262  69.769  1.00  0.00    -0.247 OA 
HETATM    6  O   UNL     1     -12.026  11.524  67.418  1.00  0.00    -0.623 OA 
ENDROOT
BRANCH   2   7
HETATM    7  C   UNL     1     -10.277  13.448  67.743  1.00  0.00    -0.235 A  
HETATM    8  C   UNL     1      -9.096  13.916  68.318  1.00  0.00    -0.191 A  
HETATM    9  C   UNL     1      -8.469  15.055  67.781  1.00  0.00    -0.156 A  
HETATM   10 CL   UNL     1     -10.963  15.952  64.733  1.00  0.00    -0.461 Cl 
HETATM   11  C   UNL     1      -9.016  15.721  66.672  1.00  0.00    -0.280 A  
HETATM   12  C   UNL     1     -10.826  14.085  66.633  1.00  0.00    -0.297 A  
HETATM   13 CL   UNL     1      -8.270  17.123  65.975  1.00  0.00    -0.262 Cl 
HETATM   14  C   UNL     1     -10.201  15.219  66.104  1.00  0.00    -0.304 A  
BRANCH   9  15
HETATM   15  S   UNL     1      -6.995  15.628  68.570  1.00  0.00    -0.120 S  
HETATM   16  O   UNL     1      -6.783  14.878  69.782  1.00  0.00    -0.159 OA 
HETATM   17  H2  UNL     1      -8.250  17.707  68.846  1.00  0.00     0.000 HD 
HETATM   18  H1  UNL     1      -6.527  17.532  69.457  1.00  0.00     0.000 HD 
HETATM   19  O   UNL     1      -5.958  15.762  67.569  1.00  0.00    -0.162 OA 
HETATM   20  N   UNL     1      -7.378  17.202  69.001  1.00  0.00    -0.240 N  
ENDBRANCH   9  15
ENDBRANCH   2   7
TORSDOF 2
ENDMDL
MODEL      106
REMARK 921   NORMALIZED FREE ENERGY PREDICTED BY IDOCK:   -3.69 KCAL/MOL
REMARK 922        TOTAL FREE ENERGY PREDICTED BY IDOCK:   -4.09 KCAL/MOL
REMARK 923 INTER-LIGAND FREE ENERGY PREDICTED BY IDOCK:   -3.88 KCAL/MOL
REMARK 924 INTRA-LIGAND FREE ENERGY PREDICTED BY IDOCK:   -0.21 KCAL/MOL
REMARK 927      BINDING AFFINITY PREDICTED BY RF-SCORE:    0.00 PKD
ROOT
HETATM    1  N   UNL     1     -12.833  10.469  68.975  1.00  0.00     0.505 N  
HETATM    2  S   UNL     1     -11.517  11.224  68.264  1.00  0.00    -0.309 S  
HETATM    3  H1  UNL     1     -13.656  11.019  68.725  1.00  0.00     0.000 HD 
HETATM    4  H2  UNL     1     -12.816   9.625  69.547  1.00  0.00     0.000 HD 
HETATM    5  O   UNL     1     -11.893  11.489  66.896  1.00  0.00    -0.542 OA 
HETATM    6  O   UNL     1     -10.354  10.447  68.617  1.00  0.00    -0.167 OA 
ENDROOT
BRANCH   2   7
HETATM    7  C   UNL     1     -11.474  12.756  69.148  1.00  0.00    -0.306 A  
HETATM    8  C   UNL     1     -10.809  13.860  68.615  1.00  0.00    -0.278 A  
HETATM    9  C   UNL     1     -10.793  15.071  69.331  1.00  0.00    -0.260 A  
HETATM   10 CL   UNL     1     -12.954  14.073  72.594  1.00  0.00    -0.489 Cl 
HETATM   11  C   UNL     1     -11.442  15.181  70.571  1.00  0.00    -0.304 A  
HETATM   12  C   UNL     1     -12.136  12.850  70.370  1.00  0.00    -0.385 A  
HETATM   13 CL   UNL     1     -11.454  16.657  71.481  1.00  0.00    -0.165 Cl 
HETATM   14  C   UNL     1     -12.116  14.055  71.080  1.00  0.00    -0.305 A  
BRANCH   9  15
HETATM   15  S   UNL     1      -9.906  16.428  68.627  1.00  0.00    -0.245 S  
HETATM   16  O   UNL     1     -10.823  17.507  68.360  1.00  0.00    -0.314 OA 
HETATM   17  H2  UNL     1      -9.539  14.894  66.760  1.00  0.00     0.000 HD 
HETATM   18  H1  UNL     1      -8.872  16.605  66.749  1.00  0.00     0.000 HD 
HETATM   19  O   UNL     1      -8.695  16.633  69.393  1.00  0.00    -0.104 OA 
HETATM   20  N   UNL     1      -9.383  15.822  67.155  1.00  0.00    -0.210 N  
ENDBRANCH   9  15
ENDBRANCH   2   7
TORSDOF 2
ENDMDL
MODEL      107
REMARK 921   NORMALIZED FREE ENERGY PREDICTED BY IDOCK:   -3.67 KCAL/MOL
REMARK 922        TOTAL FREE ENERGY PREDICTED BY IDOCK:   -4.07 KCAL/MOL
REMARK 923 INTER-LIGAND FREE ENERGY PREDICTED BY IDOCK:   -3.89 KCAL/MOL
REMARK 924 INTRA-LIGAND FREE ENERGY PREDICTED BY IDOCK:   -0.18 KCAL/MOL
REMARK 927      BINDING AFFINITY PREDICTED BY RF-SCORE:    0.00 PKD
ROOT
HETATM    1  N   UNL     1      -8.436   7.415  70.394  1.00  0.00    -0.140 N  
HETATM    2  S   UNL     1      -8.696   9.060  70.574  1.00  0.00    -0.226 S  
HETATM    3  H1  UNL     1      -7.624   7.312  69.785  1.00  0.00     0.000 HD 
HETATM    4  H2  UNL     1      -8.982   6.663  70.812  1.00  0.00     0.000 HD 
HETATM    5  O   UNL     1      -7.411   9.642  70.880  1.00  0.00    -0.302 OA 
HETATM    6  O   UNL     1      -9.844   9.206  71.435  1.00  0.00    -0.298 OA 
ENDROOT
BRANCH   2   7
HETATM    7  C   UNL     1      -9.152   9.523  68.927  1.00  0.00    -0.141 A  
HETATM    8  C   UNL     1      -9.754  10.757  68.682  1.00  0.00    -0.187 A  
HETATM    9  C   UNL     1     -10.102  11.108  67.365  1.00  0.00    -0.185 A  
HETATM   10 CL   UNL     1      -8.854   7.847  65.335  1.00  0.00    -0.083 Cl 
HETATM   11  C   UNL     1      -9.844  10.234  66.297  1.00  0.00    -0.219 A  
HETATM   12  C   UNL     1      -8.875   8.649  67.878  1.00  0.00    -0.137 A  
HETATM   13 CL   UNL     1     -10.249  10.632  64.658  1.00  0.00    -0.417 Cl 
HETATM   14  C   UNL     1      -9.225   9.001  66.571  1.00  0.00    -0.179 A  
BRANCH   9  15
HETATM   15  S   UNL     1     -10.895  12.667  67.115  1.00  0.00    -0.260 S  
HETATM   16  O   UNL     1      -9.947  13.599  66.556  1.00  0.00    -0.272 OA 
HETATM   17  H2  UNL     1     -11.059  12.693  69.553  1.00  0.00     0.000 HD 
HETATM   18  H1  UNL     1     -11.709  14.071  68.528  1.00  0.00     0.000 HD 
HETATM   19  O   UNL     1     -12.184  12.435  66.497  1.00  0.00    -0.586 OA 
HETATM   20  N   UNL     1     -11.252  13.171  68.672  1.00  0.00    -0.259 N  
ENDBRANCH   9  15
ENDBRANCH   2   7
TORSDOF 2
ENDMDL
MODEL      108
REMARK 921   NORMALIZED FREE ENERGY PREDICTED BY IDOCK:   -3.65 KCAL/MOL
REMARK 922        TOTAL FREE ENERGY PREDICTED BY IDOCK:   -4.04 KCAL/MOL
REMARK 923 INTER-LIGAND FREE ENERGY PREDICTED BY IDOCK:   -3.82 KCAL/MOL
REMARK 924 INTRA-LIGAND FREE ENERGY PREDICTED BY IDOCK:   -0.22 KCAL/MOL
REMARK 927      BINDING AFFINITY PREDICTED BY RF-SCORE:    0.00 PKD
ROOT
HETATM    1  N   UNL     1     -11.983  11.743  69.741  1.00  0.00    -0.324 N  
HETATM    2  S   UNL     1     -10.944  10.973  68.676  1.00  0.00    -0.247 S  
HETATM    3  H1  UNL     1     -12.503  12.431  69.196  1.00  0.00     0.000 HD 
HETATM    4  H2  UNL     1     -12.077  11.561  70.740  1.00  0.00     0.000 HD 
HETATM    5  O   UNL     1     -11.736  10.617  67.523  1.00  0.00    -0.445 OA 
HETATM    6  O   UNL     1     -10.207  10.001  69.448  1.00  0.00    -0.194 OA 
ENDROOT
BRANCH   2   7
HETATM    7  C   UNL     1      -9.855  12.296  68.232  1.00  0.00    -0.217 A  
HETATM    8  C   UNL     1     -10.316  13.612  68.210  1.00  0.00    -0.251 A  
HETATM    9  C   UNL     1      -9.431  14.649  67.862  1.00  0.00    -0.210 A  
HETATM   10 CL   UNL     1      -6.023  12.581  67.212  1.00  0.00    -0.147 Cl 
HETATM   11  C   UNL     1      -8.093  14.374  67.541  1.00  0.00    -0.190 A  
HETATM   12  C   UNL     1      -8.526  12.005  67.931  1.00  0.00    -0.160 A  
HETATM   13 CL   UNL     1      -6.968  15.624  67.114  1.00  0.00    -0.220 Cl 
HETATM   14  C   UNL     1      -7.651  13.038  67.582  1.00  0.00    -0.160 A  
BRANCH   9  15
HETATM   15  S   UNL     1     -10.075  16.294  67.815  1.00  0.00    -0.258 S  
HETATM   16  O   UNL     1      -9.434  17.085  68.835  1.00  0.00    -0.266 OA 
HETATM   17  H2  UNL     1     -12.166  15.227  68.493  1.00  0.00     0.000 HD 
HETATM   18  H1  UNL     1     -12.050  17.040  68.229  1.00  0.00     0.000 HD 
HETATM   19  O   UNL     1     -10.124  16.731  66.435  1.00  0.00    -0.290 OA 
HETATM   20  N   UNL     1     -11.679  16.091  68.256  1.00  0.00    -0.243 N  
ENDBRANCH   9  15
ENDBRANCH   2   7
TORSDOF 2
ENDMDL
MODEL      109
REMARK 921   NORMALIZED FREE ENERGY PREDICTED BY IDOCK:   -3.64 KCAL/MOL
REMARK 922        TOTAL FREE ENERGY PREDICTED BY IDOCK:   -4.04 KCAL/MOL
REMARK 923 INTER-LIGAND FREE ENERGY PREDICTED BY IDOCK:   -3.82 KCAL/MOL
REMARK 924 INTRA-LIGAND FREE ENERGY PREDICTED BY IDOCK:   -0.22 KCAL/MOL
REMARK 927      BINDING AFFINITY PREDICTED BY RF-SCORE:    0.00 PKD
ROOT
HETATM    1  N   UNL     1      -6.299  17.521  67.708  1.00  0.00    -0.151 N  
HETATM    2  S   UNL     1      -7.817  18.145  67.375  1.00  0.00    -0.219 S  
HETATM    3  H1  UNL     1      -5.909  17.209  66.819  1.00  0.00     0.000 HD 
HETATM    4  H2  UNL     1      -5.851  17.463  68.623  1.00  0.00     0.000 HD 
HETATM    5  O   UNL     1      -7.653  19.025  66.243  1.00  0.00    -0.253 OA 
HETATM    6  O   UNL     1      -8.369  18.585  68.633  1.00  0.00    -0.326 OA 
ENDROOT
BRANCH   2   7
HETATM    7  C   UNL     1      -8.683  16.694  66.846  1.00  0.00    -0.214 A  
HETATM    8  C   UNL     1      -8.367  15.448  67.386  1.00  0.00    -0.204 A  
HETATM    9  C   UNL     1      -9.073  14.309  66.957  1.00  0.00    -0.233 A  
HETATM   10 CL   UNL     1     -11.637  15.939  64.296  1.00  0.00    -0.322 Cl 
HETATM   11  C   UNL     1     -10.092  14.414  65.997  1.00  0.00    -0.322 A  
HETATM   12  C   UNL     1      -9.701  16.821  65.904  1.00  0.00    -0.247 A  
HETATM   13 CL   UNL     1     -10.992  13.037  65.448  1.00  0.00    -0.291 Cl 
HETATM   14  C   UNL     1     -10.398  15.686  65.478  1.00  0.00    -0.396 A  
BRANCH   9  15
HETATM   15  S   UNL     1      -8.609  12.749  67.646  1.00  0.00    -0.195 S  
HETATM   16  O   UNL     1      -9.679  12.260  68.478  1.00  0.00    -0.203 OA 
HETATM   17  H2  UNL     1      -6.905  14.055  68.814  1.00  0.00     0.000 HD 
HETATM   18  H1  UNL     1      -7.053  12.239  69.043  1.00  0.00     0.000 HD 
HETATM   19  O   UNL     1      -8.029  11.936  66.598  1.00  0.00    -0.132 OA 
HETATM   20  N   UNL     1      -7.321  13.139  68.645  1.00  0.00    -0.109 N  
ENDBRANCH   9  15
ENDBRANCH   2   7
TORSDOF 2
ENDMDL
MODEL      110
REMARK 921   NORMALIZED FREE ENERGY PREDICTED BY IDOCK:   -3.64 KCAL/MOL
REMARK 922        TOTAL FREE ENERGY PREDICTED BY IDOCK:   -4.03 KCAL/MOL
REMARK 923 INTER-LIGAND FREE ENERGY PREDICTED BY IDOCK:   -3.87 KCAL/MOL
REMARK 924 INTRA-LIGAND FREE ENERGY PREDICTED BY IDOCK:   -0.17 KCAL/MOL
REMARK 927      BINDING AFFINITY PREDICTED BY RF-SCORE:    0.00 PKD
ROOT
HETATM    1  N   UNL     1     -13.539   7.594  71.218  1.00  0.00    -0.580 N  
HETATM    2  S   UNL     1     -11.924   7.684  71.656  1.00  0.00    -0.313 S  
HETATM    3  H1  UNL     1     -13.656   6.718  70.710  1.00  0.00     0.000 HD 
HETATM    4  H2  UNL     1     -14.264   8.282  71.420  1.00  0.00     0.000 HD 
HETATM    5  O   UNL     1     -11.587   6.401  72.224  1.00  0.00    -0.285 OA 
HETATM    6  O   UNL     1     -11.760   8.924  72.375  1.00  0.00    -0.331 OA 
ENDROOT
BRANCH   2   7
HETATM    7  C   UNL     1     -11.141   7.830  70.075  1.00  0.00    -0.175 A  
HETATM    8  C   UNL     1     -10.788   6.689  69.355  1.00  0.00    -0.340 A  
HETATM    9  C   UNL     1     -10.173   6.828  68.097  1.00  0.00    -0.174 A  
HETATM   10 CL   UNL     1     -10.037  10.848  67.736  1.00  0.00    -0.196 Cl 
HETATM   11  C   UNL     1      -9.918   8.099  67.559  1.00  0.00    -0.192 A  
HETATM   12  C   UNL     1     -10.910   9.100  69.551  1.00  0.00    -0.194 A  
HETATM   13 CL   UNL     1      -9.170   8.313  66.008  1.00  0.00    -0.241 Cl 
HETATM   14  C   UNL     1     -10.297   9.233  68.301  1.00  0.00    -0.217 A  
BRANCH   9  15
HETATM   15  S   UNL     1      -9.713   5.351  67.243  1.00  0.00    -0.157 S  
HETATM   16  O   UNL     1     -10.662   5.096  66.189  1.00  0.00    -0.296 OA 
HETATM   17  H2  UNL     1     -10.214   4.261  69.373  1.00  0.00     0.000 HD 
HETATM   18  H1  UNL     1      -9.640   3.307  67.913  1.00  0.00     0.000 HD 
HETATM   19  O   UNL     1      -8.288   5.391  66.989  1.00  0.00    -0.108 OA 
HETATM   20  N   UNL     1      -9.905   4.159  68.406  1.00  0.00    -0.071 N  
ENDBRANCH   9  15
ENDBRANCH   2   7
TORSDOF 2
ENDMDL
MODEL      111
REMARK 921   NORMALIZED FREE ENERGY PREDICTED BY IDOCK:   -3.62 KCAL/MOL
REMARK 922        TOTAL FREE ENERGY PREDICTED BY IDOCK:   -4.02 KCAL/MOL
REMARK 923 INTER-LIGAND FREE ENERGY PREDICTED BY IDOCK:   -4.03 KCAL/MOL
REMARK 924 INTRA-LIGAND FREE ENERGY PREDICTED BY IDOCK:    0.01 KCAL/MOL
REMARK 927      BINDING AFFINITY PREDICTED BY RF-SCORE:    0.00 PKD
ROOT
HETATM    1  N   UNL     1     -12.654  10.227  69.772  1.00  0.00    -0.539 N  
HETATM    2  S   UNL     1     -13.040   9.483  71.223  1.00  0.00    -0.295 S  
HETATM    3  H1  UNL     1     -12.709   9.508  69.051  1.00  0.00     0.000 HD 
HETATM    4  H2  UNL     1     -12.411  11.208  69.636  1.00  0.00     0.000 HD 
HETATM    5  O   UNL     1     -14.236   8.713  70.977  1.00  0.00    -0.175 OA 
HETATM    6  O   UNL     1     -12.961  10.499  72.243  1.00  0.00    -0.370 OA 
ENDROOT
BRANCH   2   7
HETATM    7  C   UNL     1     -11.677   8.369  71.417  1.00  0.00    -0.287 A  
HETATM    8  C   UNL     1     -11.378   7.440  70.421  1.00  0.00    -0.273 A  
HETATM    9  C   UNL     1     -10.286   6.570  70.593  1.00  0.00    -0.201 A  
HETATM   10 CL   UNL     1      -8.902   7.758  74.196  1.00  0.00    -0.296 Cl 
HETATM   11  C   UNL     1      -9.493   6.631  71.750  1.00  0.00    -0.151 A  
HETATM   12  C   UNL     1     -10.893   8.455  72.565  1.00  0.00    -0.375 A  
HETATM   13 CL   UNL     1      -8.134   5.582  71.996  1.00  0.00    -0.113 Cl 
HETATM   14  C   UNL     1      -9.810   7.587  72.733  1.00  0.00    -0.208 A  
BRANCH   9  15
HETATM   15  S   UNL     1      -9.973   5.387  69.318  1.00  0.00    -0.228 S  
HETATM   16  O   UNL     1      -9.911   4.068  69.898  1.00  0.00    -0.209 OA 
HETATM   17  H2  UNL     1      -7.825   6.536  69.125  1.00  0.00     0.000 HD 
HETATM   18  H1  UNL     1      -8.253   5.106  68.056  1.00  0.00     0.000 HD 
HETATM   19  O   UNL     1     -10.837   5.681  68.193  1.00  0.00    -0.202 OA 
HETATM   20  N   UNL     1      -8.434   5.789  68.791  1.00  0.00    -0.107 N  
ENDBRANCH   9  15
ENDBRANCH   2   7
TORSDOF 2
ENDMDL
MODEL      112
REMARK 921   NORMALIZED FREE ENERGY PREDICTED BY IDOCK:   -3.58 KCAL/MOL
REMARK 922        TOTAL FREE ENERGY PREDICTED BY IDOCK:   -3.96 KCAL/MOL
REMARK 923 INTER-LIGAND FREE ENERGY PREDICTED BY IDOCK:   -3.75 KCAL/MOL
REMARK 924 INTRA-LIGAND FREE ENERGY PREDICTED BY IDOCK:   -0.22 KCAL/MOL
REMARK 927      BINDING AFFINITY PREDICTED BY RF-SCORE:    0.00 PKD
ROOT
HETATM    1  N   UNL     1     -12.086  14.419  72.188  1.00  0.00    -0.166 N  
HETATM    2  S   UNL     1     -12.169  15.528  70.935  1.00  0.00    -0.433 S  
HETATM    3  H1  UNL     1     -11.116  14.408  72.506  1.00  0.00     0.000 HD 
HETATM    4  H2  UNL     1     -12.854  13.861  72.560  1.00  0.00     0.000 HD 
HETATM    5  O   UNL     1     -11.487  16.713  71.398  1.00  0.00    -0.260 OA 
HETATM    6  O   UNL     1     -13.540  15.542  70.485  1.00  0.00    -0.335 OA 
ENDROOT
BRANCH   2   7
HETATM    7  C   UNL     1     -11.170  14.741  69.704  1.00  0.00    -0.275 A  
HETATM    8  C   UNL     1      -9.833  15.104  69.543  1.00  0.00    -0.191 A  
HETATM    9  C   UNL     1      -9.054  14.461  68.564  1.00  0.00    -0.193 A  
HETATM   10 CL   UNL     1     -11.740  11.873  67.011  1.00  0.00    -0.356 Cl 
HETATM   11  C   UNL     1      -9.606  13.456  67.753  1.00  0.00    -0.213 A  
HETATM   12  C   UNL     1     -11.731  13.736  68.920  1.00  0.00    -0.374 A  
HETATM   13 CL   UNL     1      -8.679  12.632  66.541  1.00  0.00    -0.081 Cl 
HETATM   14  C   UNL     1     -10.954  13.100  67.946  1.00  0.00    -0.249 A  
BRANCH   9  15
HETATM   15  S   UNL     1      -7.377  14.984  68.376  1.00  0.00    -0.120 S  
HETATM   16  O   UNL     1      -6.498  13.934  68.828  1.00  0.00    -0.083 OA 
HETATM   17  H2  UNL     1      -7.968  16.643  70.071  1.00  0.00     0.000 HD 
HETATM   18  H1  UNL     1      -6.282  16.561  69.346  1.00  0.00     0.000 HD 
HETATM   19  O   UNL     1      -7.226  15.589  67.069  1.00  0.00    -0.192 OA 
HETATM   20  N   UNL     1      -7.250  16.260  69.454  1.00  0.00    -0.225 N  
ENDBRANCH   9  15
ENDBRANCH   2   7
TORSDOF 2
ENDMDL
MODEL      113
REMARK 921   NORMALIZED FREE ENERGY PREDICTED BY IDOCK:   -3.53 KCAL/MOL
REMARK 922        TOTAL FREE ENERGY PREDICTED BY IDOCK:   -3.91 KCAL/MOL
REMARK 923 INTER-LIGAND FREE ENERGY PREDICTED BY IDOCK:   -4.34 KCAL/MOL
REMARK 924 INTRA-LIGAND FREE ENERGY PREDICTED BY IDOCK:    0.43 KCAL/MOL
REMARK 927      BINDING AFFINITY PREDICTED BY RF-SCORE:    0.00 PKD
ROOT
HETATM    1  N   UNL     1      -9.596  10.647  66.305  1.00  0.00    -0.179 N  
HETATM    2  S   UNL     1     -10.488  11.642  67.315  1.00  0.00    -0.225 S  
HETATM    3  H1  UNL     1     -10.126   9.782  66.203  1.00  0.00     0.000 HD 
HETATM    4  H2  UNL     1      -8.697  10.864  65.875  1.00  0.00     0.000 HD 
HETATM    5  O   UNL     1     -11.844  11.611  66.819  1.00  0.00    -0.557 OA 
HETATM    6  O   UNL     1      -9.738  12.866  67.459  1.00  0.00    -0.198 OA 
ENDROOT
BRANCH   2   7
HETATM    7  C   UNL     1     -10.420  10.744  68.838  1.00  0.00    -0.205 A  
HETATM    8  C   UNL     1     -11.563  10.602  69.625  1.00  0.00    -0.368 A  
HETATM    9  C   UNL     1     -11.488   9.878  70.829  1.00  0.00    -0.354 A  
HETATM   10 CL   UNL     1      -7.606   8.763  70.827  1.00  0.00    -0.082 Cl 
HETATM   11  C   UNL     1     -10.280   9.294  71.243  1.00  0.00    -0.313 A  
HETATM   12  C   UNL     1      -9.216  10.159  69.225  1.00  0.00    -0.220 A  
HETATM   13 CL   UNL     1     -10.147   8.387  72.715  1.00  0.00    -0.331 Cl 
HETATM   14  C   UNL     1      -9.146   9.443  70.423  1.00  0.00    -0.256 A  
BRANCH   9  15
HETATM   15  S   UNL     1     -12.956   9.759  71.806  1.00  0.00    -0.464 S  
HETATM   16  O   UNL     1     -12.767   8.760  72.828  1.00  0.00    -0.331 OA 
HETATM   17  H2  UNL     1     -13.968   8.945  69.736  1.00  0.00     0.000 HD 
HETATM   18  H1  UNL     1     -14.939   9.107  71.286  1.00  0.00     0.000 HD 
HETATM   19  O   UNL     1     -13.405  11.098  72.128  1.00  0.00    -0.452 OA 
HETATM   20  N   UNL     1     -14.092   9.176  70.722  1.00  0.00     0.197 N  
ENDBRANCH   9  15
ENDBRANCH   2   7
TORSDOF 2
ENDMDL
MODEL      114
REMARK 921   NORMALIZED FREE ENERGY PREDICTED BY IDOCK:   -3.51 KCAL/MOL
REMARK 922        TOTAL FREE ENERGY PREDICTED BY IDOCK:   -3.90 KCAL/MOL
REMARK 923 INTER-LIGAND FREE ENERGY PREDICTED BY IDOCK:   -3.90 KCAL/MOL
REMARK 924 INTRA-LIGAND FREE ENERGY PREDICTED BY IDOCK:    0.01 KCAL/MOL
REMARK 927      BINDING AFFINITY PREDICTED BY RF-SCORE:    0.00 PKD
ROOT
HETATM    1  N   UNL     1      -9.302  10.550  69.756  1.00  0.00    -0.412 N  
HETATM    2  S   UNL     1     -10.847   9.912  69.649  1.00  0.00    -0.266 S  
HETATM    3  H1  UNL     1      -8.779  10.186  68.960  1.00  0.00     0.000 HD 
HETATM    4  H2  UNL     1      -8.951  11.180  70.477  1.00  0.00     0.000 HD 
HETATM    5  O   UNL     1     -11.271  10.105  68.282  1.00  0.00    -0.255 OA 
HETATM    6  O   UNL     1     -11.586  10.428  70.775  1.00  0.00    -0.327 OA 
ENDROOT
BRANCH   2   7
HETATM    7  C   UNL     1     -10.533   8.190  69.908  1.00  0.00    -0.226 A  
HETATM    8  C   UNL     1     -10.464   7.672  71.201  1.00  0.00    -0.220 A  
HETATM    9  C   UNL     1     -10.221   6.299  71.385  1.00  0.00    -0.201 A  
HETATM   10 CL   UNL     1      -9.954   5.038  67.557  1.00  0.00    -0.206 Cl 
HETATM   11  C   UNL     1     -10.053   5.445  70.283  1.00  0.00    -0.248 A  
HETATM   12  C   UNL     1     -10.383   7.356  68.802  1.00  0.00    -0.209 A  
HETATM   13 CL   UNL     1      -9.760   3.746  70.465  1.00  0.00    -0.260 Cl 
HETATM   14  C   UNL     1     -10.139   5.992  68.989  1.00  0.00    -0.176 A  
BRANCH   9  15
HETATM   15  S   UNL     1     -10.108   5.701  73.044  1.00  0.00    -0.189 S  
HETATM   16  O   UNL     1      -8.930   4.881  73.174  1.00  0.00    -0.112 OA 
HETATM   17  H2  UNL     1     -12.156   4.491  72.482  1.00  0.00     0.000 HD 
HETATM   18  H1  UNL     1     -11.380   4.358  74.141  1.00  0.00     0.000 HD 
HETATM   19  O   UNL     1     -10.370   6.800  73.949  1.00  0.00    -0.327 OA 
HETATM   20  N   UNL     1     -11.446   4.703  73.184  1.00  0.00    -0.270 N  
ENDBRANCH   9  15
ENDBRANCH   2   7
TORSDOF 2
ENDMDL
MODEL      115
REMARK 921   NORMALIZED FREE ENERGY PREDICTED BY IDOCK:   -3.51 KCAL/MOL
REMARK 922        TOTAL FREE ENERGY PREDICTED BY IDOCK:   -3.89 KCAL/MOL
REMARK 923 INTER-LIGAND FREE ENERGY PREDICTED BY IDOCK:   -3.89 KCAL/MOL
REMARK 924 INTRA-LIGAND FREE ENERGY PREDICTED BY IDOCK:    0.00 KCAL/MOL
REMARK 927      BINDING AFFINITY PREDICTED BY RF-SCORE:    0.00 PKD
ROOT
HETATM    1  N   UNL     1      -8.663   5.572  68.459  1.00  0.00    -0.105 N  
HETATM    2  S   UNL     1      -9.767   6.669  69.079  1.00  0.00    -0.140 S  
HETATM    3  H1  UNL     1      -7.755   6.036  68.463  1.00  0.00     0.000 HD 
HETATM    4  H2  UNL     1      -8.860   4.623  68.140  1.00  0.00     0.000 HD 
HETATM    5  O   UNL     1      -9.171   7.210  70.277  1.00  0.00    -0.155 OA 
HETATM    6  O   UNL     1     -11.051   6.012  69.073  1.00  0.00    -0.351 OA 
ENDROOT
BRANCH   2   7
HETATM    7  C   UNL     1      -9.757   7.919  67.825  1.00  0.00    -0.155 A  
HETATM    8  C   UNL     1     -10.420   9.129  68.030  1.00  0.00    -0.276 A  
HETATM    9  C   UNL     1     -10.393  10.112  67.024  1.00  0.00    -0.244 A  
HETATM   10 CL   UNL     1      -8.148   8.281  64.208  1.00  0.00    -0.160 Cl 
HETATM   11  C   UNL     1      -9.704   9.890  65.821  1.00  0.00    -0.266 A  
HETATM   12  C   UNL     1      -9.056   7.686  66.644  1.00  0.00    -0.198 A  
HETATM   13 CL   UNL     1      -9.639  11.078  64.559  1.00  0.00    -0.277 Cl 
HETATM   14  C   UNL     1      -9.034   8.664  65.646  1.00  0.00    -0.182 A  
BRANCH   9  15
HETATM   15  S   UNL     1     -11.278  11.612  67.320  1.00  0.00    -0.304 S  
HETATM   16  O   UNL     1     -12.113  11.904  66.182  1.00  0.00    -0.519 OA 
HETATM   17  H2  UNL     1      -9.060  12.637  67.267  1.00  0.00     0.000 HD 
HETATM   18  H1  UNL     1     -10.577  13.634  67.547  1.00  0.00     0.000 HD 
HETATM   19  O   UNL     1     -11.814  11.574  68.664  1.00  0.00    -0.337 OA 
HETATM   20  N   UNL     1     -10.066  12.768  67.377  1.00  0.00    -0.217 N  
ENDBRANCH   9  15
ENDBRANCH   2   7
TORSDOF 2
ENDMDL
MODEL      116
REMARK 921   NORMALIZED FREE ENERGY PREDICTED BY IDOCK:   -3.50 KCAL/MOL
REMARK 922        TOTAL FREE ENERGY PREDICTED BY IDOCK:   -3.88 KCAL/MOL
REMARK 923 INTER-LIGAND FREE ENERGY PREDICTED BY IDOCK:   -3.69 KCAL/MOL
REMARK 924 INTRA-LIGAND FREE ENERGY PREDICTED BY IDOCK:   -0.19 KCAL/MOL
REMARK 927      BINDING AFFINITY PREDICTED BY RF-SCORE:    0.00 PKD
ROOT
HETATM    1  N   UNL     1      -8.212  10.921  63.589  1.00  0.00    -0.367 N  
HETATM    2  S   UNL     1      -7.861   9.717  64.700  1.00  0.00    -0.142 S  
HETATM    3  H1  UNL     1      -7.972  11.807  64.033  1.00  0.00     0.000 HD 
HETATM    4  H2  UNL     1      -8.593  10.793  62.652  1.00  0.00     0.000 HD 
HETATM    5  O   UNL     1      -6.540  10.004  65.204  1.00  0.00    -0.102 OA 
HETATM    6  O   UNL     1      -8.202   8.463  64.072  1.00  0.00    -0.159 OA 
ENDROOT
BRANCH   2   7
HETATM    7  C   UNL     1      -9.042  10.060  65.972  1.00  0.00    -0.155 A  
HETATM    8  C   UNL     1      -9.053   9.308  67.147  1.00  0.00    -0.149 A  
HETATM    9  C   UNL     1      -9.996   9.603  68.149  1.00  0.00    -0.159 A  
HETATM   10 CL   UNL     1     -11.961  12.711  66.478  1.00  0.00    -0.452 Cl 
HETATM   11  C   UNL     1     -10.919  10.647  67.982  1.00  0.00    -0.282 A  
HETATM   12  C   UNL     1      -9.941  11.110  65.795  1.00  0.00    -0.292 A  
HETATM   13 CL   UNL     1     -12.091  11.049  69.195  1.00  0.00    -0.395 Cl 
HETATM   14  C   UNL     1     -10.877  11.398  66.792  1.00  0.00    -0.286 A  
BRANCH   9  15
HETATM   15  S   UNL     1      -9.990   8.596  69.601  1.00  0.00    -0.196 S  
HETATM   16  O   UNL     1      -9.758   9.428  70.755  1.00  0.00    -0.260 OA 
HETATM   17  H2  UNL     1      -7.983   7.616  68.610  1.00  0.00     0.000 HD 
HETATM   18  H1  UNL     1      -8.638   7.044  70.227  1.00  0.00     0.000 HD 
HETATM   19  O   UNL     1     -11.115   7.686  69.535  1.00  0.00    -0.155 OA 
HETATM   20  N   UNL     1      -8.642   7.624  69.389  1.00  0.00    -0.135 N  
ENDBRANCH   9  15
ENDBRANCH   2   7
TORSDOF 2
ENDMDL
MODEL      117
REMARK 921   NORMALIZED FREE ENERGY PREDICTED BY IDOCK:   -3.45 KCAL/MOL
REMARK 922        TOTAL FREE ENERGY PREDICTED BY IDOCK:   -3.82 KCAL/MOL
REMARK 923 INTER-LIGAND FREE ENERGY PREDICTED BY IDOCK:   -3.88 KCAL/MOL
REMARK 924 INTRA-LIGAND FREE ENERGY PREDICTED BY IDOCK:    0.06 KCAL/MOL
REMARK 927      BINDING AFFINITY PREDICTED BY RF-SCORE:    0.00 PKD
ROOT
HETATM    1  N   UNL     1     -11.258  14.594  64.280  1.00  0.00    -0.622 N  
HETATM    2  S   UNL     1     -11.291  14.580  65.955  1.00  0.00    -0.342 S  
HETATM    3  H1  UNL     1     -11.625  13.694  63.972  1.00  0.00     0.000 HD 
HETATM    4  H2  UNL     1     -10.933  15.355  63.684  1.00  0.00     0.000 HD 
HETATM    5  O   UNL     1     -12.600  14.101  66.329  1.00  0.00    -0.449 OA 
HETATM    6  O   UNL     1     -10.772  15.853  66.390  1.00  0.00    -0.308 OA 
ENDROOT
BRANCH   2   7
HETATM    7  C   UNL     1     -10.101  13.321  66.317  1.00  0.00    -0.294 A  
HETATM    8  C   UNL     1      -9.065  13.567  67.217  1.00  0.00    -0.225 A  
HETATM    9  C   UNL     1      -8.134  12.550  67.496  1.00  0.00    -0.176 A  
HETATM   10 CL   UNL     1      -9.540   9.553  65.182  1.00  0.00    -0.328 Cl 
HETATM   11  C   UNL     1      -8.241  11.291  66.885  1.00  0.00    -0.153 A  
HETATM   12  C   UNL     1     -10.233  12.073  65.712  1.00  0.00    -0.274 A  
HETATM   13 CL   UNL     1      -7.120  10.007  67.208  1.00  0.00    -0.084 Cl 
HETATM   14  C   UNL     1      -9.304  11.065  65.991  1.00  0.00    -0.201 A  
BRANCH   9  15
HETATM   15  S   UNL     1      -6.819  12.927  68.615  1.00  0.00    -0.104 S  
HETATM   16  O   UNL     1      -6.915  14.309  69.013  1.00  0.00    -0.102 OA 
HETATM   17  H2  UNL     1      -5.387  12.502  66.682  1.00  0.00     0.000 HD 
HETATM   18  H1  UNL     1      -4.690  12.977  68.313  1.00  0.00     0.000 HD 
HETATM   19  O   UNL     1      -6.725  11.861  69.592  1.00  0.00    -0.098 OA 
HETATM   20  N   UNL     1      -5.448  12.759  67.667  1.00  0.00    -0.124 N  
ENDBRANCH   9  15
ENDBRANCH   2   7
TORSDOF 2
ENDMDL
MODEL      118
REMARK 921   NORMALIZED FREE ENERGY PREDICTED BY IDOCK:   -3.42 KCAL/MOL
REMARK 922        TOTAL FREE ENERGY PREDICTED BY IDOCK:   -3.79 KCAL/MOL
REMARK 923 INTER-LIGAND FREE ENERGY PREDICTED BY IDOCK:   -3.58 KCAL/MOL
REMARK 924 INTRA-LIGAND FREE ENERGY PREDICTED BY IDOCK:   -0.21 KCAL/MOL
REMARK 927      BINDING AFFINITY PREDICTED BY RF-SCORE:    0.00 PKD
ROOT
HETATM    1  N   UNL     1     -10.805  15.876  67.636  1.00  0.00    -0.316 N  
HETATM    2  S   UNL     1     -11.126  14.848  66.353  1.00  0.00    -0.331 S  
HETATM    3  H1  UNL     1      -9.877  16.268  67.471  1.00  0.00     0.000 HD 
HETATM    4  H2  UNL     1     -11.416  16.072  68.428  1.00  0.00     0.000 HD 
HETATM    5  O   UNL     1     -10.789  15.578  65.155  1.00  0.00    -0.386 OA 
HETATM    6  O   UNL     1     -12.438  14.293  66.587  1.00  0.00    -0.407 OA 
ENDROOT
BRANCH   2   7
HETATM    7  C   UNL     1      -9.915  13.583  66.607  1.00  0.00    -0.282 A  
HETATM    8  C   UNL     1      -9.851  12.485  65.750  1.00  0.00    -0.244 A  
HETATM    9  C   UNL     1      -8.875  11.494  65.965  1.00  0.00    -0.143 A  
HETATM   10 CL   UNL     1      -6.973  12.969  69.209  1.00  0.00    -0.027 Cl 
HETATM   11  C   UNL     1      -7.965  11.602  67.029  1.00  0.00    -0.164 A  
HETATM   12  C   UNL     1      -9.011  13.715  67.659  1.00  0.00    -0.202 A  
HETATM   13 CL   UNL     1      -6.742  10.408  67.324  1.00  0.00    -0.075 Cl 
HETATM   14  C   UNL     1      -8.044  12.727  67.871  1.00  0.00    -0.159 A  
BRANCH   9  15
HETATM   15  S   UNL     1      -8.861  10.106  64.872  1.00  0.00    -0.207 S  
HETATM   16  O   UNL     1      -7.598  10.061  64.178  1.00  0.00    -0.136 OA 
HETATM   17  H2  UNL     1     -10.638  11.319  63.712  1.00  0.00     0.000 HD 
HETATM   18  H1  UNL     1     -10.040   9.686  63.122  1.00  0.00     0.000 HD 
HETATM   19  O   UNL     1      -9.378   8.955  65.581  1.00  0.00    -0.231 OA 
HETATM   20  N   UNL     1     -10.048  10.487  63.753  1.00  0.00    -0.268 N  
ENDBRANCH   9  15
ENDBRANCH   2   7
TORSDOF 2
ENDMDL
MODEL      119
REMARK 921   NORMALIZED FREE ENERGY PREDICTED BY IDOCK:   -3.41 KCAL/MOL
REMARK 922        TOTAL FREE ENERGY PREDICTED BY IDOCK:   -3.78 KCAL/MOL
REMARK 923 INTER-LIGAND FREE ENERGY PREDICTED BY IDOCK:   -3.56 KCAL/MOL
REMARK 924 INTRA-LIGAND FREE ENERGY PREDICTED BY IDOCK:   -0.22 KCAL/MOL
REMARK 927      BINDING AFFINITY PREDICTED BY RF-SCORE:    0.00 PKD
ROOT
HETATM    1  N   UNL     1      -8.251   7.722  67.179  1.00  0.00    -0.117 N  
HETATM    2  S   UNL     1      -9.547   6.664  67.095  1.00  0.00    -0.145 S  
HETATM    3  H1  UNL     1      -7.451   7.180  67.506  1.00  0.00     0.000 HD 
HETATM    4  H2  UNL     1      -8.259   8.715  66.948  1.00  0.00     0.000 HD 
HETATM    5  O   UNL     1      -9.067   5.489  66.408  1.00  0.00    -0.135 OA 
HETATM    6  O   UNL     1     -10.678   7.431  66.632  1.00  0.00    -0.241 OA 
ENDROOT
BRANCH   2   7
HETATM    7  C   UNL     1      -9.784   6.266  68.803  1.00  0.00    -0.128 A  
HETATM    8  C   UNL     1     -10.114   7.263  69.721  1.00  0.00    -0.196 A  
HETATM    9  C   UNL     1     -10.306   6.923  71.072  1.00  0.00    -0.205 A  
HETATM   10 CL   UNL     1      -9.670   2.936  70.970  1.00  0.00    -0.214 Cl 
HETATM   11  C   UNL     1     -10.174   5.594  71.505  1.00  0.00    -0.208 A  
HETATM   12  C   UNL     1      -9.664   4.939  69.210  1.00  0.00    -0.258 A  
HETATM   13 CL   UNL     1     -10.410   5.132  73.160  1.00  0.00    -0.212 Cl 
HETATM   14  C   UNL     1      -9.853   4.606  70.555  1.00  0.00    -0.231 A  
BRANCH   9  15
HETATM   15  S   UNL     1     -10.686   8.230  72.200  1.00  0.00    -0.344 S  
HETATM   16  O   UNL     1     -12.012   8.030  72.729  1.00  0.00    -0.337 OA 
HETATM   17  H2  UNL     1     -10.567   9.644  70.210  1.00  0.00     0.000 HD 
HETATM   18  H1  UNL     1     -10.945  10.340  71.867  1.00  0.00     0.000 HD 
HETATM   19  O   UNL     1      -9.546   8.436  73.068  1.00  0.00    -0.246 OA 
HETATM   20  N   UNL     1     -10.725   9.586  71.216  1.00  0.00    -0.343 N  
ENDBRANCH   9  15
ENDBRANCH   2   7
TORSDOF 2
ENDMDL
MODEL      120
REMARK 921   NORMALIZED FREE ENERGY PREDICTED BY IDOCK:   -3.37 KCAL/MOL
REMARK 922        TOTAL FREE ENERGY PREDICTED BY IDOCK:   -3.74 KCAL/MOL
REMARK 923 INTER-LIGAND FREE ENERGY PREDICTED BY IDOCK:   -3.56 KCAL/MOL
REMARK 924 INTRA-LIGAND FREE ENERGY PREDICTED BY IDOCK:   -0.17 KCAL/MOL
REMARK 927      BINDING AFFINITY PREDICTED BY RF-SCORE:    0.00 PKD
ROOT
HETATM    1  N   UNL     1      -6.751  17.477  69.268  1.00  0.00    -0.245 N  
HETATM    2  S   UNL     1      -7.356  17.321  67.714  1.00  0.00    -0.174 S  
HETATM    3  H1  UNL     1      -5.997  16.796  69.359  1.00  0.00     0.000 HD 
HETATM    4  H2  UNL     1      -7.074  18.126  69.986  1.00  0.00     0.000 HD 
HETATM    5  O   UNL     1      -6.212  17.303  66.834  1.00  0.00    -0.147 OA 
HETATM    6  O   UNL     1      -8.423  18.284  67.587  1.00  0.00    -0.250 OA 
ENDROOT
BRANCH   2   7
HETATM    7  C   UNL     1      -8.054  15.696  67.772  1.00  0.00    -0.146 A  
HETATM    8  C   UNL     1      -9.405  15.518  68.066  1.00  0.00    -0.193 A  
HETATM    9  C   UNL     1      -9.941  14.218  68.099  1.00  0.00    -0.230 A  
HETATM   10 CL   UNL     1      -6.686  12.011  67.180  1.00  0.00    -0.146 Cl 
HETATM   11  C   UNL     1      -9.133  13.101  67.835  1.00  0.00    -0.207 A  
HETATM   12  C   UNL     1      -7.239  14.601  67.492  1.00  0.00    -0.216 A  
HETATM   13 CL   UNL     1      -9.756  11.482  67.857  1.00  0.00    -0.178 Cl 
HETATM   14  C   UNL     1      -7.775  13.310  67.528  1.00  0.00    -0.171 A  
BRANCH   9  15
HETATM   15  S   UNL     1     -11.650  14.046  68.513  1.00  0.00    -0.344 S  
HETATM   16  O   UNL     1     -12.403  13.765  67.317  1.00  0.00    -0.337 OA 
HETATM   17  H2  UNL     1     -11.488  16.413  69.102  1.00  0.00     0.000 HD 
HETATM   18  H1  UNL     1     -13.061  15.481  69.276  1.00  0.00     0.000 HD 
HETATM   19  O   UNL     1     -11.758  13.211  69.691  1.00  0.00    -0.298 OA 
HETATM   20  N   UNL     1     -12.074  15.580  69.037  1.00  0.00    -0.282 N  
ENDBRANCH   9  15
ENDBRANCH   2   7
TORSDOF 2
ENDMDL
MODEL      121
REMARK 921   NORMALIZED FREE ENERGY PREDICTED BY IDOCK:   -3.37 KCAL/MOL
REMARK 922        TOTAL FREE ENERGY PREDICTED BY IDOCK:   -3.73 KCAL/MOL
REMARK 923 INTER-LIGAND FREE ENERGY PREDICTED BY IDOCK:   -3.54 KCAL/MOL
REMARK 924 INTRA-LIGAND FREE ENERGY PREDICTED BY IDOCK:   -0.19 KCAL/MOL
REMARK 927      BINDING AFFINITY PREDICTED BY RF-SCORE:    0.00 PKD
ROOT
HETATM    1  N   UNL     1      -6.209  11.159  69.660  1.00  0.00    -0.093 N  
HETATM    2  S   UNL     1      -7.483  10.628  68.711  1.00  0.00    -0.114 S  
HETATM    3  H1  UNL     1      -6.610  11.764  70.377  1.00  0.00     0.000 HD 
HETATM    4  H2  UNL     1      -5.223  10.924  69.544  1.00  0.00     0.000 HD 
HETATM    5  O   UNL     1      -8.509  10.183  69.623  1.00  0.00    -0.172 OA 
HETATM    6  O   UNL     1      -6.915   9.774  67.697  1.00  0.00    -0.084 OA 
ENDROOT
BRANCH   2   7
HETATM    7  C   UNL     1      -8.010  12.140  67.957  1.00  0.00    -0.152 A  
HETATM    8  C   UNL     1      -9.247  12.216  67.316  1.00  0.00    -0.185 A  
HETATM    9  C   UNL     1      -9.649  13.430  66.730  1.00  0.00    -0.262 A  
HETATM   10 CL   UNL     1      -6.491  15.796  67.592  1.00  0.00    -0.174 Cl 
HETATM   11  C   UNL     1      -8.825  14.564  66.788  1.00  0.00    -0.220 A  
HETATM   12  C   UNL     1      -7.185  13.260  68.038  1.00  0.00    -0.121 A  
HETATM   13 CL   UNL     1      -9.287  16.081  66.086  1.00  0.00    -0.351 Cl 
HETATM   14  C   UNL     1      -7.588  14.463  67.452  1.00  0.00    -0.172 A  
BRANCH   9  15
HETATM   15  S   UNL     1     -11.209  13.461  65.899  1.00  0.00    -0.304 S  
HETATM   16  O   UNL     1     -12.166  14.171  66.710  1.00  0.00    -0.447 OA 
HETATM   17  H2  UNL     1     -11.155  11.041  66.239  1.00  0.00     0.000 HD 
HETATM   18  H1  UNL     1     -12.559  11.865  65.389  1.00  0.00     0.000 HD 
HETATM   19  O   UNL     1     -10.985  13.808  64.511  1.00  0.00    -0.387 OA 
HETATM   20  N   UNL     1     -11.659  11.847  65.868  1.00  0.00    -0.299 N  
ENDBRANCH   9  15
ENDBRANCH   2   7
TORSDOF 2
ENDMDL
MODEL      122
REMARK 921   NORMALIZED FREE ENERGY PREDICTED BY IDOCK:   -3.36 KCAL/MOL
REMARK 922        TOTAL FREE ENERGY PREDICTED BY IDOCK:   -3.72 KCAL/MOL
REMARK 923 INTER-LIGAND FREE ENERGY PREDICTED BY IDOCK:   -3.73 KCAL/MOL
REMARK 924 INTRA-LIGAND FREE ENERGY PREDICTED BY IDOCK:    0.01 KCAL/MOL
REMARK 927      BINDING AFFINITY PREDICTED BY RF-SCORE:    0.00 PKD
ROOT
HETATM    1  N   UNL     1     -11.240  15.684  68.113  1.00  0.00    -0.335 N  
HETATM    2  S   UNL     1     -11.170  14.673  66.779  1.00  0.00    -0.350 S  
HETATM    3  H1  UNL     1     -10.290  16.017  68.277  1.00  0.00     0.000 HD 
HETATM    4  H2  UNL     1     -12.071  15.919  68.656  1.00  0.00     0.000 HD 
HETATM    5  O   UNL     1     -10.406  15.377  65.777  1.00  0.00    -0.310 OA 
HETATM    6  O   UNL     1     -12.513  14.201  66.546  1.00  0.00    -0.447 OA 
ENDROOT
BRANCH   2   7
HETATM    7  C   UNL     1     -10.193  13.336  67.404  1.00  0.00    -0.229 A  
HETATM    8  C   UNL     1     -10.781  12.331  68.170  1.00  0.00    -0.241 A  
HETATM    9  C   UNL     1      -9.986  11.273  68.651  1.00  0.00    -0.204 A  
HETATM   10 CL   UNL     1      -6.371  12.273  67.153  1.00  0.00    -0.147 Cl 
HETATM   11  C   UNL     1      -8.614  11.217  68.363  1.00  0.00    -0.155 A  
HETATM   12  C   UNL     1      -8.835  13.290  67.094  1.00  0.00    -0.223 A  
HETATM   13 CL   UNL     1      -7.601   9.928  68.928  1.00  0.00    -0.079 Cl 
HETATM   14  C   UNL     1      -8.049  12.239  67.576  1.00  0.00    -0.170 A  
BRANCH   9  15
HETATM   15  S   UNL     1     -10.773  10.045  69.648  1.00  0.00    -0.272 S  
HETATM   16  O   UNL     1      -9.978   9.808  70.826  1.00  0.00    -0.241 OA 
HETATM   17  H2  UNL     1     -10.297   8.567  67.761  1.00  0.00     0.000 HD 
HETATM   18  H1  UNL     1     -11.153   7.961  69.268  1.00  0.00     0.000 HD 
HETATM   19  O   UNL     1     -12.185  10.357  69.736  1.00  0.00    -0.211 OA 
HETATM   20  N   UNL     1     -10.699   8.670  68.693  1.00  0.00    -0.115 N  
ENDBRANCH   9  15
ENDBRANCH   2   7
TORSDOF 2
ENDMDL
MODEL      123
REMARK 921   NORMALIZED FREE ENERGY PREDICTED BY IDOCK:   -3.34 KCAL/MOL
REMARK 922        TOTAL FREE ENERGY PREDICTED BY IDOCK:   -3.71 KCAL/MOL
REMARK 923 INTER-LIGAND FREE ENERGY PREDICTED BY IDOCK:   -3.77 KCAL/MOL
REMARK 924 INTRA-LIGAND FREE ENERGY PREDICTED BY IDOCK:    0.07 KCAL/MOL
REMARK 927      BINDING AFFINITY PREDICTED BY RF-SCORE:    0.00 PKD
ROOT
HETATM    1  N   UNL     1      -8.384  10.877  63.857  1.00  0.00    -0.370 N  
HETATM    2  S   UNL     1      -8.053  10.066  65.284  1.00  0.00    -0.151 S  
HETATM    3  H1  UNL     1      -8.005  11.819  63.961  1.00  0.00     0.000 HD 
HETATM    4  H2  UNL     1      -8.870  10.504  63.042  1.00  0.00     0.000 HD 
HETATM    5  O   UNL     1      -6.663  10.320  65.581  1.00  0.00    -0.109 OA 
HETATM    6  O   UNL     1      -8.588   8.734  65.137  1.00  0.00    -0.175 OA 
ENDROOT
BRANCH   2   7
HETATM    7  C   UNL     1      -9.054  10.962  66.436  1.00  0.00    -0.172 A  
HETATM    8  C   UNL     1      -9.314  12.318  66.239  1.00  0.00    -0.206 A  
HETATM    9  C   UNL     1     -10.119  13.009  67.163  1.00  0.00    -0.244 A  
HETATM   10 CL   UNL     1     -11.018  10.060  69.772  1.00  0.00    -0.287 Cl 
HETATM   11  C   UNL     1     -10.664  12.349  68.276  1.00  0.00    -0.230 A  
HETATM   12  C   UNL     1      -9.599  10.287  67.526  1.00  0.00    -0.180 A  
HETATM   13 CL   UNL     1     -11.668  13.163  69.433  1.00  0.00    -0.367 Cl 
HETATM   14  C   UNL     1     -10.395  10.978  68.443  1.00  0.00    -0.183 A  
BRANCH   9  15
HETATM   15  S   UNL     1     -10.388  14.734  66.886  1.00  0.00    -0.271 S  
HETATM   16  O   UNL     1      -9.710  15.132  65.678  1.00  0.00    -0.336 OA 
HETATM   17  H2  UNL     1      -9.093  15.010  68.940  1.00  0.00     0.000 HD 
HETATM   18  H1  UNL     1      -9.758  16.452  68.017  1.00  0.00     0.000 HD 
HETATM   19  O   UNL     1     -11.791  15.021  67.099  1.00  0.00    -0.288 OA 
HETATM   20  N   UNL     1      -9.603  15.457  68.178  1.00  0.00    -0.202 N  
ENDBRANCH   9  15
ENDBRANCH   2   7
TORSDOF 2
ENDMDL
MODEL      124
REMARK 921   NORMALIZED FREE ENERGY PREDICTED BY IDOCK:   -3.32 KCAL/MOL
REMARK 922        TOTAL FREE ENERGY PREDICTED BY IDOCK:   -3.68 KCAL/MOL
REMARK 923 INTER-LIGAND FREE ENERGY PREDICTED BY IDOCK:   -3.46 KCAL/MOL
REMARK 924 INTRA-LIGAND FREE ENERGY PREDICTED BY IDOCK:   -0.22 KCAL/MOL
REMARK 927      BINDING AFFINITY PREDICTED BY RF-SCORE:    0.00 PKD
ROOT
HETATM    1  N   UNL     1      -9.643   8.996  71.888  1.00  0.00    -0.245 N  
HETATM    2  S   UNL     1     -11.133   8.326  71.516  1.00  0.00    -0.276 S  
HETATM    3  H1  UNL     1      -9.237   9.312  71.007  1.00  0.00     0.000 HD 
HETATM    4  H2  UNL     1      -9.223   9.073  72.814  1.00  0.00     0.000 HD 
HETATM    5  O   UNL     1     -11.794   9.268  70.645  1.00  0.00    -0.267 OA 
HETATM    6  O   UNL     1     -11.707   7.878  72.762  1.00  0.00    -0.364 OA 
ENDROOT
BRANCH   2   7
HETATM    7  C   UNL     1     -10.653   6.912  70.566  1.00  0.00    -0.220 A  
HETATM    8  C   UNL     1     -10.071   5.808  71.187  1.00  0.00    -0.257 A  
HETATM    9  C   UNL     1      -9.704   4.692  70.413  1.00  0.00    -0.222 A  
HETATM   10 CL   UNL     1     -10.845   5.891  66.729  1.00  0.00    -0.377 Cl 
HETATM   11  C   UNL     1      -9.922   4.676  69.027  1.00  0.00    -0.116 A  
HETATM   12  C   UNL     1     -10.891   6.909  69.193  1.00  0.00    -0.262 A  
HETATM   13 CL   UNL     1      -9.493   3.317  68.038  1.00  0.00    -0.243 Cl 
HETATM   14  C   UNL     1     -10.523   5.799  68.427  1.00  0.00    -0.222 A  
BRANCH   9  15
HETATM   15  S   UNL     1      -8.938   3.334  71.245  1.00  0.00    -0.106 S  
HETATM   16  O   UNL     1      -9.833   2.205  71.237  1.00  0.00    -0.147 OA 
HETATM   17  H2  UNL     1      -9.101   4.773  73.214  1.00  0.00     0.000 HD 
HETATM   18  H1  UNL     1      -8.366   3.092  73.306  1.00  0.00     0.000 HD 
HETATM   19  O   UNL     1      -7.571   3.221  70.781  1.00  0.00    -0.040 OA 
HETATM   20  N   UNL     1      -8.808   3.876  72.825  1.00  0.00    -0.098 N  
ENDBRANCH   9  15
ENDBRANCH   2   7
TORSDOF 2
ENDMDL
MODEL      125
REMARK 921   NORMALIZED FREE ENERGY PREDICTED BY IDOCK:   -3.32 KCAL/MOL
REMARK 922        TOTAL FREE ENERGY PREDICTED BY IDOCK:   -3.67 KCAL/MOL
REMARK 923 INTER-LIGAND FREE ENERGY PREDICTED BY IDOCK:   -3.46 KCAL/MOL
REMARK 924 INTRA-LIGAND FREE ENERGY PREDICTED BY IDOCK:   -0.22 KCAL/MOL
REMARK 927      BINDING AFFINITY PREDICTED BY RF-SCORE:    0.00 PKD
ROOT
HETATM    1  N   UNL     1     -12.770   9.438  70.844  1.00  0.00    -0.510 N  
HETATM    2  S   UNL     1     -11.942   8.092  71.399  1.00  0.00    -0.304 S  
HETATM    3  H1  UNL     1     -13.031   9.243  69.877  1.00  0.00     0.000 HD 
HETATM    4  H2  UNL     1     -12.974  10.287  71.370  1.00  0.00     0.000 HD 
HETATM    5  O   UNL     1     -12.732   6.945  71.019  1.00  0.00    -0.356 OA 
HETATM    6  O   UNL     1     -11.573   8.367  72.766  1.00  0.00    -0.358 OA 
ENDROOT
BRANCH   2   7
HETATM    7  C   UNL     1     -10.487   8.137  70.392  1.00  0.00    -0.215 A  
HETATM    8  C   UNL     1     -10.457   7.476  69.165  1.00  0.00    -0.220 A  
HETATM    9  C   UNL     1      -9.293   7.532  68.377  1.00  0.00    -0.141 A  
HETATM   10 CL   UNL     1      -6.904   9.836  70.680  1.00  0.00    -0.122 Cl 
HETATM   11  C   UNL     1      -8.166   8.249  68.809  1.00  0.00    -0.117 A  
HETATM   12  C   UNL     1      -9.384   8.866  70.831  1.00  0.00    -0.295 A  
HETATM   13 CL   UNL     1      -6.715   8.350  67.865  1.00  0.00    -0.065 Cl 
HETATM   14  C   UNL     1      -8.228   8.917  70.047  1.00  0.00    -0.122 A  
BRANCH   9  15
HETATM   15  S   UNL     1      -9.295   6.646  66.847  1.00  0.00    -0.153 S  
HETATM   16  O   UNL     1      -9.186   7.582  65.756  1.00  0.00    -0.055 OA 
HETATM   17  H2  UNL     1     -11.580   6.055  67.481  1.00  0.00     0.000 HD 
HETATM   18  H1  UNL     1     -10.830   5.463  65.913  1.00  0.00     0.000 HD 
HETATM   19  O   UNL     1      -8.400   5.515  66.969  1.00  0.00    -0.108 OA 
HETATM   20  N   UNL     1     -10.829   5.974  66.796  1.00  0.00    -0.316 N  
ENDBRANCH   9  15
ENDBRANCH   2   7
TORSDOF 2
ENDMDL
MODEL      126
REMARK 921   NORMALIZED FREE ENERGY PREDICTED BY IDOCK:   -3.32 KCAL/MOL
REMARK 922        TOTAL FREE ENERGY PREDICTED BY IDOCK:   -3.67 KCAL/MOL
REMARK 923 INTER-LIGAND FREE ENERGY PREDICTED BY IDOCK:   -3.48 KCAL/MOL
REMARK 924 INTRA-LIGAND FREE ENERGY PREDICTED BY IDOCK:   -0.20 KCAL/MOL
REMARK 927      BINDING AFFINITY PREDICTED BY RF-SCORE:    0.00 PKD
ROOT
HETATM    1  N   UNL     1     -13.918   6.725  72.316  1.00  0.00    -0.498 N  
HETATM    2  S   UNL     1     -13.180   8.161  71.870  1.00  0.00    -0.301 S  
HETATM    3  H1  UNL     1     -13.235   6.203  72.866  1.00  0.00     0.000 HD 
HETATM    4  H2  UNL     1     -14.866   6.429  72.084  1.00  0.00     0.000 HD 
HETATM    5  O   UNL     1     -12.570   8.692  73.066  1.00  0.00    -0.232 OA 
HETATM    6  O   UNL     1     -14.145   8.899  71.093  1.00  0.00    -0.248 OA 
ENDROOT
BRANCH   2   7
HETATM    7  C   UNL     1     -11.902   7.578  70.793  1.00  0.00    -0.228 A  
HETATM    8  C   UNL     1     -11.373   8.412  69.809  1.00  0.00     0.134 A  
HETATM    9  C   UNL     1     -10.353   7.930  68.969  1.00  0.00    -0.214 A  
HETATM   10 CL   UNL     1      -9.872   4.183  70.397  1.00  0.00    -0.268 Cl 
HETATM   11  C   UNL     1      -9.860   6.624  69.113  1.00  0.00    -0.148 A  
HETATM   12  C   UNL     1     -11.416   6.283  70.961  1.00  0.00    -0.370 A  
HETATM   13 CL   UNL     1      -8.598   5.994  68.104  1.00  0.00    -0.115 Cl 
HETATM   14  C   UNL     1     -10.404   5.807  70.122  1.00  0.00    -0.256 A  
BRANCH   9  15
HETATM   15  S   UNL     1      -9.742   9.016  67.715  1.00  0.00    -0.163 S  
HETATM   16  O   UNL     1      -8.331   9.230  67.918  1.00  0.00    -0.115 OA 
HETATM   17  H2  UNL     1     -11.204  10.660  68.780  1.00  0.00     0.000 HD 
HETATM   18  H1  UNL     1     -10.180  11.084  67.315  1.00  0.00     0.000 HD 
HETATM   19  O   UNL     1     -10.268   8.586  66.436  1.00  0.00    -0.273 OA 
HETATM   20  N   UNL     1     -10.532  10.458  68.038  1.00  0.00    -0.182 N  
ENDBRANCH   9  15
ENDBRANCH   2   7
TORSDOF 2
ENDMDL
MODEL      127
REMARK 921   NORMALIZED FREE ENERGY PREDICTED BY IDOCK:   -3.31 KCAL/MOL
REMARK 922        TOTAL FREE ENERGY PREDICTED BY IDOCK:   -3.67 KCAL/MOL
REMARK 923 INTER-LIGAND FREE ENERGY PREDICTED BY IDOCK:   -3.46 KCAL/MOL
REMARK 924 INTRA-LIGAND FREE ENERGY PREDICTED BY IDOCK:   -0.21 KCAL/MOL
REMARK 927      BINDING AFFINITY PREDICTED BY RF-SCORE:    0.00 PKD
ROOT
HETATM    1  N   UNL     1     -11.151   5.620  71.909  1.00  0.00    -0.243 N  
HETATM    2  S   UNL     1     -11.605   7.161  71.434  1.00  0.00    -0.301 S  
HETATM    3  H1  UNL     1     -10.144   5.646  72.064  1.00  0.00     0.000 HD 
HETATM    4  H2  UNL     1     -11.763   4.812  72.021  1.00  0.00     0.000 HD 
HETATM    5  O   UNL     1     -10.983   8.071  72.365  1.00  0.00    -0.284 OA 
HETATM    6  O   UNL     1     -13.030   7.123  71.214  1.00  0.00    -0.383 OA 
ENDROOT
BRANCH   2   7
HETATM    7  C   UNL     1     -10.787   7.300  69.871  1.00  0.00    -0.247 A  
HETATM    8  C   UNL     1      -9.886   8.338  69.636  1.00  0.00    -0.184 A  
HETATM    9  C   UNL     1      -9.241   8.425  68.388  1.00  0.00    -0.135 A  
HETATM   10 CL   UNL     1     -10.777   5.207  66.491  1.00  0.00    -0.324 Cl 
HETATM   11  C   UNL     1      -9.490   7.478  67.383  1.00  0.00    -0.142 A  
HETATM   12  C   UNL     1     -11.037   6.342  68.890  1.00  0.00    -0.434 A  
HETATM   13 CL   UNL     1      -8.710   7.544  65.835  1.00  0.00    -0.176 Cl 
HETATM   14  C   UNL     1     -10.395   6.434  67.651  1.00  0.00    -0.197 A  
BRANCH   9  15
HETATM   15  S   UNL     1      -8.136   9.779  68.130  1.00  0.00    -0.109 S  
HETATM   16  O   UNL     1      -6.807   9.271  67.897  1.00  0.00    -0.070 OA 
HETATM   17  H2  UNL     1      -8.646  10.315  70.459  1.00  0.00     0.000 HD 
HETATM   18  H1  UNL     1      -7.496  11.342  69.463  1.00  0.00     0.000 HD 
HETATM   19  O   UNL     1      -8.760  10.717  67.220  1.00  0.00    -0.129 OA 
HETATM   20  N   UNL     1      -8.134  10.561  69.612  1.00  0.00    -0.103 N  
ENDBRANCH   9  15
ENDBRANCH   2   7
TORSDOF 2
ENDMDL
MODEL      128
REMARK 921   NORMALIZED FREE ENERGY PREDICTED BY IDOCK:   -3.31 KCAL/MOL
REMARK 922        TOTAL FREE ENERGY PREDICTED BY IDOCK:   -3.66 KCAL/MOL
REMARK 923 INTER-LIGAND FREE ENERGY PREDICTED BY IDOCK:   -3.77 KCAL/MOL
REMARK 924 INTRA-LIGAND FREE ENERGY PREDICTED BY IDOCK:    0.10 KCAL/MOL
REMARK 927      BINDING AFFINITY PREDICTED BY RF-SCORE:    0.00 PKD
ROOT
HETATM    1  N   UNL     1      -8.518   7.044  64.319  1.00  0.00    -0.335 N  
HETATM    2  S   UNL     1      -8.132   7.754  65.786  1.00  0.00    -0.132 S  
HETATM    3  H1  UNL     1      -8.140   7.652  63.592  1.00  0.00     0.000 HD 
HETATM    4  H2  UNL     1      -9.031   6.174  64.179  1.00  0.00     0.000 HD 
HETATM    5  O   UNL     1      -6.734   8.106  65.710  1.00  0.00    -0.054 OA 
HETATM    6  O   UNL     1      -8.666   6.895  66.815  1.00  0.00    -0.115 OA 
ENDROOT
BRANCH   2   7
HETATM    7  C   UNL     1      -9.095   9.237  65.721  1.00  0.00    -0.209 A  
HETATM    8  C   UNL     1      -9.638   9.778  66.886  1.00  0.00    -0.228 A  
HETATM    9  C   UNL     1     -10.394  10.962  66.812  1.00  0.00    -0.241 A  
HETATM   10 CL   UNL     1     -10.220  11.752  62.855  1.00  0.00    -0.223 Cl 
HETATM   11  C   UNL     1     -10.603  11.606  65.582  1.00  0.00    -0.275 A  
HETATM   12  C   UNL     1      -9.279   9.870  64.493  1.00  0.00    -0.315 A  
HETATM   13 CL   UNL     1     -11.522  13.071  65.449  1.00  0.00    -0.332 Cl 
HETATM   14  C   UNL     1     -10.034  11.045  64.424  1.00  0.00    -0.312 A  
BRANCH   9  15
HETATM   15  S   UNL     1     -11.089  11.586  68.313  1.00  0.00    -0.265 S  
HETATM   16  O   UNL     1     -12.527  11.552  68.220  1.00  0.00    -0.295 OA 
HETATM   17  H2  UNL     1     -10.056  13.690  67.623  1.00  0.00     0.000 HD 
HETATM   18  H1  UNL     1     -11.014  13.552  69.184  1.00  0.00     0.000 HD 
HETATM   19  O   UNL     1     -10.387  10.989  69.429  1.00  0.00    -0.196 OA 
HETATM   20  N   UNL     1     -10.613  13.192  68.318  1.00  0.00    -0.241 N  
ENDBRANCH   9  15
ENDBRANCH   2   7
TORSDOF 2
ENDMDL
MODEL      129
REMARK 921   NORMALIZED FREE ENERGY PREDICTED BY IDOCK:   -3.31 KCAL/MOL
REMARK 922        TOTAL FREE ENERGY PREDICTED BY IDOCK:   -3.66 KCAL/MOL
REMARK 923 INTER-LIGAND FREE ENERGY PREDICTED BY IDOCK:   -3.45 KCAL/MOL
REMARK 924 INTRA-LIGAND FREE ENERGY PREDICTED BY IDOCK:   -0.21 KCAL/MOL
REMARK 927      BINDING AFFINITY PREDICTED BY RF-SCORE:    0.00 PKD
ROOT
HETATM    1  N   UNL     1      -9.377  11.851  67.682  1.00  0.00    -0.178 N  
HETATM    2  S   UNL     1     -10.552  11.205  66.677  1.00  0.00    -0.263 S  
HETATM    3  H1  UNL     1      -8.576  12.072  67.091  1.00  0.00     0.000 HD 
HETATM    4  H2  UNL     1      -9.448  11.994  68.689  1.00  0.00     0.000 HD 
HETATM    5  O   UNL     1     -10.641  12.088  65.539  1.00  0.00    -0.255 OA 
HETATM    6  O   UNL     1     -11.685  10.892  67.514  1.00  0.00    -0.543 OA 
ENDROOT
BRANCH   2   7
HETATM    7  C   UNL     1      -9.782   9.695  66.166  1.00  0.00    -0.252 A  
HETATM    8  C   UNL     1     -10.138   8.485  66.760  1.00  0.00    -0.369 A  
HETATM    9  C   UNL     1      -9.519   7.296  66.333  1.00  0.00    -0.127 A  
HETATM   10 CL   UNL     1      -7.054   8.693  63.453  1.00  0.00    -0.089 Cl 
HETATM   11  C   UNL     1      -8.554   7.314  65.313  1.00  0.00     0.014 A  
HETATM   12  C   UNL     1      -8.838   9.732  65.142  1.00  0.00    -0.213 A  
HETATM   13 CL   UNL     1      -7.774   5.871  64.751  1.00  0.00    -0.092 Cl 
HETATM   14  C   UNL     1      -8.224   8.548  64.721  1.00  0.00    -0.162 A  
BRANCH   9  15
HETATM   15  S   UNL     1      -9.979   5.795  67.144  1.00  0.00    -0.180 S  
HETATM   16  O   UNL     1     -10.599   4.910  66.191  1.00  0.00    -0.309 OA 
HETATM   17  H2  UNL     1     -11.522   7.231  68.381  1.00  0.00     0.000 HD 
HETATM   18  H1  UNL     1     -11.424   5.424  68.695  1.00  0.00     0.000 HD 
HETATM   19  O   UNL     1      -8.874   5.363  67.975  1.00  0.00    -0.106 OA 
HETATM   20  N   UNL     1     -11.158   6.290  68.227  1.00  0.00    -0.325 N  
ENDBRANCH   9  15
ENDBRANCH   2   7
TORSDOF 2
ENDMDL
MODEL      130
REMARK 921   NORMALIZED FREE ENERGY PREDICTED BY IDOCK:   -3.29 KCAL/MOL
REMARK 922        TOTAL FREE ENERGY PREDICTED BY IDOCK:   -3.65 KCAL/MOL
REMARK 923 INTER-LIGAND FREE ENERGY PREDICTED BY IDOCK:   -3.66 KCAL/MOL
REMARK 924 INTRA-LIGAND FREE ENERGY PREDICTED BY IDOCK:    0.01 KCAL/MOL
REMARK 927      BINDING AFFINITY PREDICTED BY RF-SCORE:    0.00 PKD
ROOT
HETATM    1  N   UNL     1     -13.281   7.290  70.708  1.00  0.00    -0.556 N  
HETATM    2  S   UNL     1     -12.025   7.418  71.809  1.00  0.00    -0.319 S  
HETATM    3  H1  UNL     1     -13.048   6.516  70.087  1.00  0.00     0.000 HD 
HETATM    4  H2  UNL     1     -14.117   7.873  70.667  1.00  0.00     0.000 HD 
HETATM    5  O   UNL     1     -11.770   6.081  72.290  1.00  0.00    -0.310 OA 
HETATM    6  O   UNL     1     -12.356   8.513  72.688  1.00  0.00    -0.378 OA 
ENDROOT
BRANCH   2   7
HETATM    7  C   UNL     1     -10.688   7.909  70.759  1.00  0.00    -0.223 A  
HETATM    8  C   UNL     1      -9.459   8.275  71.306  1.00  0.00    -0.219 A  
HETATM    9  C   UNL     1      -8.407   8.655  70.452  1.00  0.00    -0.130 A  
HETATM   10 CL   UNL     1     -10.156   8.245  66.834  1.00  0.00    -0.340 Cl 
HETATM   11  C   UNL     1      -8.580   8.664  69.058  1.00  0.00    -0.129 A  
HETATM   12  C   UNL     1     -10.875   7.897  69.378  1.00  0.00    -0.114 A  
HETATM   13 CL   UNL     1      -7.307   9.116  67.971  1.00  0.00    -0.083 Cl 
HETATM   14  C   UNL     1      -9.828   8.278  68.533  1.00  0.00    -0.176 A  
BRANCH   9  15
HETATM   15  S   UNL     1      -6.882   9.144  71.198  1.00  0.00    -0.058 S  
HETATM   16  O   UNL     1      -6.525  10.460  70.731  1.00  0.00    -0.302 OA 
HETATM   17  H2  UNL     1      -5.944   7.296  69.902  1.00  0.00     0.000 HD 
HETATM   18  H1  UNL     1      -4.897   8.340  70.991  1.00  0.00     0.000 HD 
HETATM   19  O   UNL     1      -6.937   8.829  72.610  1.00  0.00    -0.292 OA 
HETATM   20  N   UNL     1      -5.777   8.057  70.561  1.00  0.00    -0.029 N  
ENDBRANCH   9  15
ENDBRANCH   2   7
TORSDOF 2
ENDMDL
MODEL      131
REMARK 921   NORMALIZED FREE ENERGY PREDICTED BY IDOCK:   -3.28 KCAL/MOL
REMARK 922        TOTAL FREE ENERGY PREDICTED BY IDOCK:   -3.64 KCAL/MOL
REMARK 923 INTER-LIGAND FREE ENERGY PREDICTED BY IDOCK:   -3.51 KCAL/MOL
REMARK 924 INTRA-LIGAND FREE ENERGY PREDICTED BY IDOCK:   -0.12 KCAL/MOL
REMARK 927      BINDING AFFINITY PREDICTED BY RF-SCORE:    0.00 PKD
ROOT
HETATM    1  N   UNL     1     -10.294  16.014  69.941  1.00  0.00    -0.276 N  
HETATM    2  S   UNL     1      -9.551  16.477  68.513  1.00  0.00    -0.242 S  
HETATM    3  H1  UNL     1      -9.580  15.554  70.506  1.00  0.00     0.000 HD 
HETATM    4  H2  UNL     1     -11.270  16.162  70.195  1.00  0.00     0.000 HD 
HETATM    5  O   UNL     1      -8.317  17.125  68.890  1.00  0.00    -0.252 OA 
HETATM    6  O   UNL     1     -10.560  17.126  67.712  1.00  0.00    -0.352 OA 
ENDROOT
BRANCH   2   7
HETATM    7  C   UNL     1      -9.170  14.906  67.791  1.00  0.00    -0.186 A  
HETATM    8  C   UNL     1      -9.942  14.405  66.743  1.00  0.00    -0.265 A  
HETATM    9  C   UNL     1      -9.618  13.158  66.180  1.00  0.00    -0.200 A  
HETATM   10 CL   UNL     1      -6.383  12.132  68.370  1.00  0.00    -0.051 Cl 
HETATM   11  C   UNL     1      -8.524  12.417  66.656  1.00  0.00    -0.030 A  
HETATM   12  C   UNL     1      -8.073  14.192  68.267  1.00  0.00    -0.146 A  
HETATM   13 CL   UNL     1      -8.085  10.879  65.983  1.00  0.00    -0.159 Cl 
HETATM   14  C   UNL     1      -7.755  12.952  67.706  1.00  0.00    -0.151 A  
BRANCH   9  15
HETATM   15  S   UNL     1     -10.650  12.553  64.879  1.00  0.00    -0.314 S  
HETATM   16  O   UNL     1     -10.019  12.817  63.610  1.00  0.00    -0.339 OA 
HETATM   17  H2  UNL     1     -12.200  14.280  65.645  1.00  0.00     0.000 HD 
HETATM   18  H1  UNL     1     -12.607  13.174  64.237  1.00  0.00     0.000 HD 
HETATM   19  O   UNL     1     -11.111  11.227  65.236  1.00  0.00    -0.196 OA 
HETATM   20  N   UNL     1     -12.012  13.523  64.988  1.00  0.00    -0.354 N  
ENDBRANCH   9  15
ENDBRANCH   2   7
TORSDOF 2
ENDMDL
MODEL      132
REMARK 921   NORMALIZED FREE ENERGY PREDICTED BY IDOCK:   -3.27 KCAL/MOL
REMARK 922        TOTAL FREE ENERGY PREDICTED BY IDOCK:   -3.62 KCAL/MOL
REMARK 923 INTER-LIGAND FREE ENERGY PREDICTED BY IDOCK:   -3.71 KCAL/MOL
REMARK 924 INTRA-LIGAND FREE ENERGY PREDICTED BY IDOCK:    0.09 KCAL/MOL
REMARK 927      BINDING AFFINITY PREDICTED BY RF-SCORE:    0.00 PKD
ROOT
HETATM    1  N   UNL     1      -9.345   7.590  74.392  1.00  0.00    -0.407 N  
HETATM    2  S   UNL     1      -9.785   6.495  73.202  1.00  0.00    -0.165 S  
HETATM    3  H1  UNL     1     -10.177   8.139  74.607  1.00  0.00     0.000 HD 
HETATM    4  H2  UNL     1      -8.424   7.689  74.818  1.00  0.00     0.000 HD 
HETATM    5  O   UNL     1     -11.022   5.896  73.641  1.00  0.00    -0.225 OA 
HETATM    6  O   UNL     1      -8.607   5.719  72.898  1.00  0.00    -0.122 OA 
ENDROOT
BRANCH   2   7
HETATM    7  C   UNL     1     -10.126   7.576  71.842  1.00  0.00    -0.172 A  
HETATM    8  C   UNL     1      -9.722   7.236  70.552  1.00  0.00    -0.176 A  
HETATM    9  C   UNL     1     -10.010   8.105  69.485  1.00  0.00    -0.187 A  
HETATM   10 CL   UNL     1     -11.977  11.066  71.403  1.00  0.00    -0.169 Cl 
HETATM   11  C   UNL     1     -10.704   9.306  69.703  1.00  0.00    -0.230 A  
HETATM   12  C   UNL     1     -10.829   8.756  72.077  1.00  0.00    -0.428 A  
HETATM   13 CL   UNL     1     -11.087  10.402  68.415  1.00  0.00    -0.314 Cl 
HETATM   14  C   UNL     1     -11.112   9.618  71.014  1.00  0.00    -0.368 A  
BRANCH   9  15
HETATM   15  S   UNL     1      -9.444   7.644  67.876  1.00  0.00    -0.144 S  
HETATM   16  O   UNL     1      -9.008   8.823  67.169  1.00  0.00    -0.129 OA 
HETATM   17  H2  UNL     1     -11.777   7.019  67.507  1.00  0.00     0.000 HD 
HETATM   18  H1  UNL     1     -10.506   6.815  66.198  1.00  0.00     0.000 HD 
HETATM   19  O   UNL     1      -8.594   6.479  68.002  1.00  0.00    -0.118 OA 
HETATM   20  N   UNL     1     -10.833   7.081  67.126  1.00  0.00    -0.358 N  
ENDBRANCH   9  15
ENDBRANCH   2   7
TORSDOF 2
ENDMDL
MODEL      133
REMARK 921   NORMALIZED FREE ENERGY PREDICTED BY IDOCK:   -3.27 KCAL/MOL
REMARK 922        TOTAL FREE ENERGY PREDICTED BY IDOCK:   -3.62 KCAL/MOL
REMARK 923 INTER-LIGAND FREE ENERGY PREDICTED BY IDOCK:   -3.42 KCAL/MOL
REMARK 924 INTRA-LIGAND FREE ENERGY PREDICTED BY IDOCK:   -0.20 KCAL/MOL
REMARK 927      BINDING AFFINITY PREDICTED BY RF-SCORE:    0.00 PKD
ROOT
HETATM    1  N   UNL     1      -9.125   8.953  64.396  1.00  0.00    -0.396 N  
HETATM    2  S   UNL     1      -9.239   9.236  66.043  1.00  0.00    -0.224 S  
HETATM    3  H1  UNL     1      -8.354   9.526  64.053  1.00  0.00     0.000 HD 
HETATM    4  H2  UNL     1      -9.712   8.330  63.842  1.00  0.00     0.000 HD 
HETATM    5  O   UNL     1      -7.897   9.133  66.565  1.00  0.00    -0.099 OA 
HETATM    6  O   UNL     1     -10.329   8.426  66.527  1.00  0.00    -0.285 OA 
ENDROOT
BRANCH   2   7
HETATM    7  C   UNL     1      -9.730  10.936  66.072  1.00  0.00    -0.224 A  
HETATM    8  C   UNL     1      -8.871  11.910  66.581  1.00  0.00    -0.191 A  
HETATM    9  C   UNL     1      -9.279  13.257  66.588  1.00  0.00    -0.215 A  
HETATM   10 CL   UNL     1     -12.944  12.968  64.914  1.00  0.00    -0.357 Cl 
HETATM   11  C   UNL     1     -10.536  13.630  66.084  1.00  0.00    -0.297 A  
HETATM   12  C   UNL     1     -10.975  11.288  65.555  1.00  0.00    -0.199 A  
HETATM   13 CL   UNL     1     -11.073  15.279  66.066  1.00  0.00    -0.314 Cl 
HETATM   14  C   UNL     1     -11.377  12.627  65.566  1.00  0.00    -0.321 A  
BRANCH   9  15
HETATM   15  S   UNL     1      -8.168  14.446  67.276  1.00  0.00    -0.182 S  
HETATM   16  O   UNL     1      -7.820  15.412  66.265  1.00  0.00     0.204 OA 
HETATM   17  H2  UNL     1      -6.644  12.544  67.461  1.00  0.00     0.000 HD 
HETATM   18  H1  UNL     1      -6.158  14.228  68.012  1.00  0.00     0.000 HD 
HETATM   19  O   UNL     1      -8.672  14.852  68.572  1.00  0.00    -0.158 OA 
HETATM   20  N   UNL     1      -6.799  13.541  67.615  1.00  0.00    -0.165 N  
ENDBRANCH   9  15
ENDBRANCH   2   7
TORSDOF 2
ENDMDL
MODEL      134
REMARK 921   NORMALIZED FREE ENERGY PREDICTED BY IDOCK:   -3.24 KCAL/MOL
REMARK 922        TOTAL FREE ENERGY PREDICTED BY IDOCK:   -3.59 KCAL/MOL
REMARK 923 INTER-LIGAND FREE ENERGY PREDICTED BY IDOCK:   -3.62 KCAL/MOL
REMARK 924 INTRA-LIGAND FREE ENERGY PREDICTED BY IDOCK:    0.03 KCAL/MOL
REMARK 927      BINDING AFFINITY PREDICTED BY RF-SCORE:    0.00 PKD
ROOT
HETATM    1  N   UNL     1      -7.739  10.904  65.216  1.00  0.00    -0.357 N  
HETATM    2  S   UNL     1      -9.414  10.934  65.203  1.00  0.00    -0.240 S  
HETATM    3  H1  UNL     1      -7.460   9.995  64.847  1.00  0.00     0.000 HD 
HETATM    4  H2  UNL     1      -7.118  11.648  65.532  1.00  0.00     0.000 HD 
HETATM    5  O   UNL     1      -9.817  10.464  63.899  1.00  0.00    -0.312 OA 
HETATM    6  O   UNL     1      -9.808  12.220  65.725  1.00  0.00    -0.249 OA 
ENDROOT
BRANCH   2   7
HETATM    7  C   UNL     1      -9.796   9.688  66.400  1.00  0.00    -0.244 A  
HETATM    8  C   UNL     1      -9.513   8.347  66.137  1.00  0.00    -0.263 A  
HETATM    9  C   UNL     1      -9.818   7.373  67.105  1.00  0.00    -0.193 A  
HETATM   10 CL   UNL     1     -11.366   9.663  70.052  1.00  0.00    -0.257 Cl 
HETATM   11  C   UNL     1     -10.397   7.736  68.332  1.00  0.00    -0.196 A  
HETATM   12  C   UNL     1     -10.356  10.069  67.617  1.00  0.00    -0.272 A  
HETATM   13 CL   UNL     1     -10.780   6.568  69.556  1.00  0.00    -0.288 Cl 
HETATM   14  C   UNL     1     -10.660   9.097  68.576  1.00  0.00    -0.169 A  
BRANCH   9  15
HETATM   15  S   UNL     1      -9.474   5.686  66.708  1.00  0.00    -0.149 S  
HETATM   16  O   UNL     1     -10.686   4.915  66.819  1.00  0.00    -0.187 OA 
HETATM   17  H2  UNL     1      -8.099   5.752  68.728  1.00  0.00     0.000 HD 
HETATM   18  H1  UNL     1      -8.246   4.231  67.710  1.00  0.00     0.000 HD 
HETATM   19  O   UNL     1      -8.659   5.652  65.511  1.00  0.00    -0.144 OA 
HETATM   20  N   UNL     1      -8.444   5.205  67.939  1.00  0.00    -0.104 N  
ENDBRANCH   9  15
ENDBRANCH   2   7
TORSDOF 2
ENDMDL
MODEL      135
REMARK 921   NORMALIZED FREE ENERGY PREDICTED BY IDOCK:   -3.24 KCAL/MOL
REMARK 922        TOTAL FREE ENERGY PREDICTED BY IDOCK:   -3.59 KCAL/MOL
REMARK 923 INTER-LIGAND FREE ENERGY PREDICTED BY IDOCK:   -3.40 KCAL/MOL
REMARK 924 INTRA-LIGAND FREE ENERGY PREDICTED BY IDOCK:   -0.19 KCAL/MOL
REMARK 927      BINDING AFFINITY PREDICTED BY RF-SCORE:    0.00 PKD
ROOT
HETATM    1  N   UNL     1     -10.359   4.345  64.494  1.00  0.00    -0.429 N  
HETATM    2  S   UNL     1      -9.155   4.366  65.659  1.00  0.00    -0.147 S  
HETATM    3  H1  UNL     1     -10.223   5.176  63.918  1.00  0.00     0.000 HD 
HETATM    4  H2  UNL     1     -11.086   3.638  64.381  1.00  0.00     0.000 HD 
HETATM    5  O   UNL     1      -7.921   4.640  64.961  1.00  0.00    -0.092 OA 
HETATM    6  O   UNL     1      -9.347   3.191  66.473  1.00  0.00    -0.159 OA 
ENDROOT
BRANCH   2   7
HETATM    7  C   UNL     1      -9.606   5.795  66.600  1.00  0.00    -0.152 A  
HETATM    8  C   UNL     1      -9.273   7.072  66.148  1.00  0.00    -0.119 A  
HETATM    9  C   UNL     1      -9.648   8.195  66.908  1.00  0.00    -0.208 A  
HETATM   10 CL   UNL     1     -11.562   6.437  70.000  1.00  0.00    -0.498 Cl 
HETATM   11  C   UNL     1     -10.355   8.044  68.112  1.00  0.00    -0.200 A  
HETATM   12  C   UNL     1     -10.320   5.626  67.784  1.00  0.00    -0.260 A  
HETATM   13 CL   UNL     1     -10.843   9.402  69.074  1.00  0.00    -0.203 Cl 
HETATM   14  C   UNL     1     -10.688   6.745  68.538  1.00  0.00    -0.231 A  
BRANCH   9  15
HETATM   15  S   UNL     1      -9.171   9.787  66.308  1.00  0.00    -0.175 S  
HETATM   16  O   UNL     1     -10.351  10.579  66.073  1.00  0.00    -0.248 OA 
HETATM   17  H2  UNL     1      -8.358   8.537  64.372  1.00  0.00     0.000 HD 
HETATM   18  H1  UNL     1      -8.202  10.364  64.476  1.00  0.00     0.000 HD 
HETATM   19  O   UNL     1      -8.078  10.277  67.122  1.00  0.00    -0.119 OA 
HETATM   20  N   UNL     1      -8.476   9.445  64.822  1.00  0.00    -0.156 N  
ENDBRANCH   9  15
ENDBRANCH   2   7
TORSDOF 2
ENDMDL
MODEL      136
REMARK 921   NORMALIZED FREE ENERGY PREDICTED BY IDOCK:   -3.22 KCAL/MOL
REMARK 922        TOTAL FREE ENERGY PREDICTED BY IDOCK:   -3.57 KCAL/MOL
REMARK 923 INTER-LIGAND FREE ENERGY PREDICTED BY IDOCK:   -3.64 KCAL/MOL
REMARK 924 INTRA-LIGAND FREE ENERGY PREDICTED BY IDOCK:    0.06 KCAL/MOL
REMARK 927      BINDING AFFINITY PREDICTED BY RF-SCORE:    0.00 PKD
ROOT
HETATM    1  N   UNL     1     -11.711  11.942  70.150  1.00  0.00    -0.497 N  
HETATM    2  S   UNL     1     -10.910  11.353  68.802  1.00  0.00    -0.221 S  
HETATM    3  H1  UNL     1     -10.993  12.190  70.831  1.00  0.00     0.000 HD 
HETATM    4  H2  UNL     1     -12.719  12.034  70.268  1.00  0.00     0.000 HD 
HETATM    5  O   UNL     1      -9.854  12.294  68.515  1.00  0.00    -0.207 OA 
HETATM    6  O   UNL     1     -11.925  11.001  67.839  1.00  0.00    -0.620 OA 
ENDROOT
BRANCH   2   7
HETATM    7  C   UNL     1     -10.190   9.869  69.443  1.00  0.00    -0.216 A  
HETATM    8  C   UNL     1      -8.937   9.900  70.056  1.00  0.00    -0.206 A  
HETATM    9  C   UNL     1      -8.387   8.709  70.566  1.00  0.00    -0.140 A  
HETATM   10 CL   UNL     1     -11.309   6.062  69.688  1.00  0.00    -0.444 Cl 
HETATM   11  C   UNL     1      -9.086   7.496  70.470  1.00  0.00    -0.156 A  
HETATM   12  C   UNL     1     -10.906   8.677  69.352  1.00  0.00    -0.108 A  
HETATM   13 CL   UNL     1      -8.448   6.008  71.093  1.00  0.00    -0.124 Cl 
HETATM   14  C   UNL     1     -10.354   7.496  69.858  1.00  0.00    -0.223 A  
BRANCH   9  15
HETATM   15  S   UNL     1      -6.782   8.797  71.299  1.00  0.00    -0.084 S  
HETATM   16  O   UNL     1      -6.270  10.138  71.164  1.00  0.00    -0.289 OA 
HETATM   17  H2  UNL     1      -6.153   7.263  69.504  1.00  0.00     0.000 HD 
HETATM   18  H1  UNL     1      -4.932   7.846  70.746  1.00  0.00     0.000 HD 
HETATM   19  O   UNL     1      -6.823   8.127  72.582  1.00  0.00    -0.077 OA 
HETATM   20  N   UNL     1      -5.859   7.795  70.323  1.00  0.00    -0.023 N  
ENDBRANCH   9  15
ENDBRANCH   2   7
TORSDOF 2
ENDMDL
MODEL      137
REMARK 921   NORMALIZED FREE ENERGY PREDICTED BY IDOCK:   -3.19 KCAL/MOL
REMARK 922        TOTAL FREE ENERGY PREDICTED BY IDOCK:   -3.53 KCAL/MOL
REMARK 923 INTER-LIGAND FREE ENERGY PREDICTED BY IDOCK:   -3.54 KCAL/MOL
REMARK 924 INTRA-LIGAND FREE ENERGY PREDICTED BY IDOCK:    0.01 KCAL/MOL
REMARK 927      BINDING AFFINITY PREDICTED BY RF-SCORE:    0.00 PKD
ROOT
HETATM    1  N   UNL     1      -7.081   7.379  66.647  1.00  0.00    -0.073 N  
HETATM    2  S   UNL     1      -8.550   7.383  65.843  1.00  0.00    -0.136 S  
HETATM    3  H1  UNL     1      -7.222   6.856  67.512  1.00  0.00     0.000 HD 
HETATM    4  H2  UNL     1      -6.214   7.815  66.335  1.00  0.00     0.000 HD 
HETATM    5  O   UNL     1      -9.026   6.021  65.862  1.00  0.00    -0.156 OA 
HETATM    6  O   UNL     1      -8.351   8.124  64.621  1.00  0.00    -0.148 OA 
ENDROOT
BRANCH   2   7
HETATM    7  C   UNL     1      -9.547   8.348  66.942  1.00  0.00    -0.202 A  
HETATM    8  C   UNL     1      -9.757   7.930  68.256  1.00  0.00    -0.172 A  
HETATM    9  C   UNL     1     -10.547   8.716  69.115  1.00  0.00    -0.178 A  
HETATM   10 CL   UNL     1     -11.530  11.783  66.678  1.00  0.00    -0.381 Cl 
HETATM   11  C   UNL     1     -11.120   9.917  68.666  1.00  0.00    -0.134 A  
HETATM   12  C   UNL     1     -10.095   9.544  66.483  1.00  0.00    -0.326 A  
HETATM   13 CL   UNL     1     -12.092  10.919  69.694  1.00  0.00    -0.400 Cl 
HETATM   14  C   UNL     1     -10.881  10.321  67.339  1.00  0.00    -0.277 A  
BRANCH   9  15
HETATM   15  S   UNL     1     -10.811   8.122  70.758  1.00  0.00    -0.231 S  
HETATM   16  O   UNL     1     -12.211   8.235  71.085  1.00  0.00    -0.296 OA 
HETATM   17  H2  UNL     1      -9.438  10.038  71.403  1.00  0.00     0.000 HD 
HETATM   18  H1  UNL     1     -10.126   8.879  72.651  1.00  0.00     0.000 HD 
HETATM   19  O   UNL     1     -10.093   6.875  70.918  1.00  0.00    -0.193 OA 
HETATM   20  N   UNL     1      -9.972   9.222  71.703  1.00  0.00    -0.242 N  
ENDBRANCH   9  15
ENDBRANCH   2   7
TORSDOF 2
ENDMDL
MODEL      138
REMARK 921   NORMALIZED FREE ENERGY PREDICTED BY IDOCK:   -3.15 KCAL/MOL
REMARK 922        TOTAL FREE ENERGY PREDICTED BY IDOCK:   -3.49 KCAL/MOL
REMARK 923 INTER-LIGAND FREE ENERGY PREDICTED BY IDOCK:   -3.50 KCAL/MOL
REMARK 924 INTRA-LIGAND FREE ENERGY PREDICTED BY IDOCK:    0.01 KCAL/MOL
REMARK 927      BINDING AFFINITY PREDICTED BY RF-SCORE:    0.00 PKD
ROOT
HETATM    1  N   UNL     1      -6.668  11.008  68.664  1.00  0.00    -0.057 N  
HETATM    2  S   UNL     1      -7.895  10.171  67.890  1.00  0.00    -0.101 S  
HETATM    3  H1  UNL     1      -7.110  11.560  69.400  1.00  0.00     0.000 HD 
HETATM    4  H2  UNL     1      -5.673  10.973  68.444  1.00  0.00     0.000 HD 
HETATM    5  O   UNL     1      -8.703   9.581  68.930  1.00  0.00    -0.127 OA 
HETATM    6  O   UNL     1      -7.271   9.391  66.849  1.00  0.00    -0.085 OA 
ENDROOT
BRANCH   2   7
HETATM    7  C   UNL     1      -8.805  11.494  67.146  1.00  0.00    -0.168 A  
HETATM    8  C   UNL     1      -8.643  12.804  67.597  1.00  0.00    -0.181 A  
HETATM    9  C   UNL     1      -9.370  13.841  66.986  1.00  0.00    -0.248 A  
HETATM   10 CL   UNL     1     -11.439  11.797  64.183  1.00  0.00    -0.421 Cl 
HETATM   11  C   UNL     1     -10.252  13.574  65.927  1.00  0.00    -0.301 A  
HETATM   12  C   UNL     1      -9.664  11.211  66.086  1.00  0.00    -0.253 A  
HETATM   13 CL   UNL     1     -11.161  14.825  65.141  1.00  0.00    -0.364 Cl 
HETATM   14  C   UNL     1     -10.387  12.245  65.483  1.00  0.00    -0.267 A  
BRANCH   9  15
HETATM   15  S   UNL     1      -9.155  15.477  67.620  1.00  0.00    -0.183 S  
HETATM   16  O   UNL     1     -10.444  16.038  67.936  1.00  0.00    -0.274 OA 
HETATM   17  H2  UNL     1      -8.332  15.970  65.373  1.00  0.00     0.000 HD 
HETATM   18  H1  UNL     1      -8.412  17.261  66.676  1.00  0.00     0.000 HD 
HETATM   19  O   UNL     1      -8.078  15.458  68.589  1.00  0.00    -0.139 OA 
HETATM   20  N   UNL     1      -8.535  16.318  66.310  1.00  0.00    -0.330 N  
ENDBRANCH   9  15
ENDBRANCH   2   7
TORSDOF 2
ENDMDL
MODEL      139
REMARK 921   NORMALIZED FREE ENERGY PREDICTED BY IDOCK:   -3.15 KCAL/MOL
REMARK 922        TOTAL FREE ENERGY PREDICTED BY IDOCK:   -3.49 KCAL/MOL
REMARK 923 INTER-LIGAND FREE ENERGY PREDICTED BY IDOCK:   -3.69 KCAL/MOL
REMARK 924 INTRA-LIGAND FREE ENERGY PREDICTED BY IDOCK:    0.20 KCAL/MOL
REMARK 927      BINDING AFFINITY PREDICTED BY RF-SCORE:    0.00 PKD
ROOT
HETATM    1  N   UNL     1     -10.143   4.103  66.858  1.00  0.00    -0.280 N  
HETATM    2  S   UNL     1      -9.229   4.272  68.252  1.00  0.00    -0.152 S  
HETATM    3  H1  UNL     1      -9.848   4.844  66.223  1.00  0.00     0.000 HD 
HETATM    4  H2  UNL     1     -10.856   3.397  66.679  1.00  0.00     0.000 HD 
HETATM    5  O   UNL     1      -7.860   4.432  67.821  1.00  0.00    -0.083 OA 
HETATM    6  O   UNL     1      -9.647   3.223  69.150  1.00  0.00    -0.157 OA 
ENDROOT
BRANCH   2   7
HETATM    7  C   UNL     1      -9.815   5.823  68.869  1.00  0.00    -0.147 A  
HETATM    8  C   UNL     1     -10.196   5.953  70.204  1.00  0.00    -0.281 A  
HETATM    9  C   UNL     1     -10.652   7.198  70.676  1.00  0.00    -0.225 A  
HETATM   10 CL   UNL     1     -10.361   9.450  67.335  1.00  0.00    -0.304 Cl 
HETATM   11  C   UNL     1     -10.723   8.308  69.820  1.00  0.00    -0.221 A  
HETATM   12  C   UNL     1      -9.865   6.917  68.008  1.00  0.00    -0.153 A  
HETATM   13 CL   UNL     1     -11.271   9.862  70.363  1.00  0.00    -0.348 Cl 
HETATM   14  C   UNL     1     -10.321   8.152  68.480  1.00  0.00    -0.198 A  
BRANCH   9  15
HETATM   15  S   UNL     1     -11.155   7.299  72.366  1.00  0.00    -0.293 S  
HETATM   16  O   UNL     1     -11.425   5.973  72.862  1.00  0.00    -0.237 OA 
HETATM   17  H2  UNL     1     -13.093   8.479  71.458  1.00  0.00     0.000 HD 
HETATM   18  H1  UNL     1     -12.903   8.180  73.260  1.00  0.00     0.000 HD 
HETATM   19  O   UNL     1     -10.261   8.201  73.061  1.00  0.00    -0.309 OA 
HETATM   20  N   UNL     1     -12.612   8.123  72.284  1.00  0.00    -0.302 N  
ENDBRANCH   9  15
ENDBRANCH   2   7
TORSDOF 2
ENDMDL
MODEL      140
REMARK 921   NORMALIZED FREE ENERGY PREDICTED BY IDOCK:   -3.14 KCAL/MOL
REMARK 922        TOTAL FREE ENERGY PREDICTED BY IDOCK:   -3.48 KCAL/MOL
REMARK 923 INTER-LIGAND FREE ENERGY PREDICTED BY IDOCK:   -3.35 KCAL/MOL
REMARK 924 INTRA-LIGAND FREE ENERGY PREDICTED BY IDOCK:   -0.13 KCAL/MOL
REMARK 927      BINDING AFFINITY PREDICTED BY RF-SCORE:    0.00 PKD
ROOT
HETATM    1  N   UNL     1     -11.028   7.466  67.107  1.00  0.00    -0.548 N  
HETATM    2  S   UNL     1      -9.573   6.808  67.611  1.00  0.00    -0.127 S  
HETATM    3  H1  UNL     1     -11.205   8.276  67.701  1.00  0.00     0.000 HD 
HETATM    4  H2  UNL     1     -11.623   7.124  66.352  1.00  0.00     0.000 HD 
HETATM    5  O   UNL     1      -8.648   7.911  67.723  1.00  0.00    -0.127 OA 
HETATM    6  O   UNL     1      -9.323   5.663  66.770  1.00  0.00    -0.126 OA 
ENDROOT
BRANCH   2   7
HETATM    7  C   UNL     1      -9.987   6.246  69.237  1.00  0.00    -0.155 A  
HETATM    8  C   UNL     1      -9.563   4.994  69.680  1.00  0.00    -0.240 A  
HETATM    9  C   UNL     1      -9.897   4.570  70.979  1.00  0.00    -0.196 A  
HETATM   10 CL   UNL     1     -11.975   7.760  72.328  1.00  0.00    -0.353 Cl 
HETATM   11  C   UNL     1     -10.647   5.394  71.833  1.00  0.00    -0.226 A  
HETATM   12  C   UNL     1     -10.720   7.084  70.075  1.00  0.00    -0.267 A  
HETATM   13 CL   UNL     1     -11.074   4.913  73.444  1.00  0.00    -0.388 Cl 
HETATM   14  C   UNL     1     -11.052   6.658  71.364  1.00  0.00    -0.263 A  
BRANCH   9  15
HETATM   15  S   UNL     1      -9.365   2.960  71.479  1.00  0.00    -0.141 S  
HETATM   16  O   UNL     1      -8.176   3.081  72.284  1.00  0.00    -0.061 OA 
HETATM   17  H2  UNL     1      -8.969   2.625  69.091  1.00  0.00     0.000 HD 
HETATM   18  H1  UNL     1      -8.626   1.305  70.320  1.00  0.00     0.000 HD 
HETATM   19  O   UNL     1     -10.519   2.215  71.936  1.00  0.00    -0.052 OA 
HETATM   20  N   UNL     1      -8.933   2.233  70.032  1.00  0.00    -0.083 N  
ENDBRANCH   9  15
ENDBRANCH   2   7
TORSDOF 2
ENDMDL
MODEL      141
REMARK 921   NORMALIZED FREE ENERGY PREDICTED BY IDOCK:   -3.13 KCAL/MOL
REMARK 922        TOTAL FREE ENERGY PREDICTED BY IDOCK:   -3.47 KCAL/MOL
REMARK 923 INTER-LIGAND FREE ENERGY PREDICTED BY IDOCK:   -3.54 KCAL/MOL
REMARK 924 INTRA-LIGAND FREE ENERGY PREDICTED BY IDOCK:    0.07 KCAL/MOL
REMARK 927      BINDING AFFINITY PREDICTED BY RF-SCORE:    0.00 PKD
ROOT
HETATM    1  N   UNL     1      -8.531   8.099  67.650  1.00  0.00    -0.130 N  
HETATM    2  S   UNL     1     -10.130   7.962  68.131  1.00  0.00    -0.197 S  
HETATM    3  H1  UNL     1      -8.321   7.270  67.094  1.00  0.00     0.000 HD 
HETATM    4  H2  UNL     1      -7.892   8.862  67.871  1.00  0.00     0.000 HD 
HETATM    5  O   UNL     1     -10.879   7.604  66.950  1.00  0.00    -0.328 OA 
HETATM    6  O   UNL     1     -10.427   9.135  68.918  1.00  0.00    -0.218 OA 
ENDROOT
BRANCH   2   7
HETATM    7  C   UNL     1     -10.053   6.557  69.204  1.00  0.00    -0.168 A  
HETATM    8  C   UNL     1     -10.361   6.684  70.558  1.00  0.00    -0.231 A  
HETATM    9  C   UNL     1     -10.301   5.552  71.391  1.00  0.00    -0.229 A  
HETATM   10 CL   UNL     1      -9.198   2.701  68.751  1.00  0.00    -0.211 Cl 
HETATM   11  C   UNL     1      -9.941   4.298  70.874  1.00  0.00    -0.155 A  
HETATM   12  C   UNL     1      -9.709   5.317  68.669  1.00  0.00    -0.199 A  
HETATM   13 CL   UNL     1      -9.863   2.876  71.864  1.00  0.00    -0.234 Cl 
HETATM   14  C   UNL     1      -9.648   4.195  69.501  1.00  0.00    -0.204 A  
BRANCH   9  15
HETATM   15  S   UNL     1     -10.664   5.776  73.106  1.00  0.00    -0.277 S  
HETATM   16  O   UNL     1     -10.855   7.180  73.371  1.00  0.00    -0.351 OA 
HETATM   17  H2  UNL     1      -8.385   4.960  73.438  1.00  0.00     0.000 HD 
HETATM   18  H1  UNL     1      -9.458   5.428  74.853  1.00  0.00     0.000 HD 
HETATM   19  O   UNL     1     -11.646   4.789  73.502  1.00  0.00    -0.281 OA 
HETATM   20  N   UNL     1      -9.248   5.298  73.864  1.00  0.00    -0.125 N  
ENDBRANCH   9  15
ENDBRANCH   2   7
TORSDOF 2
ENDMDL
MODEL      142
REMARK 921   NORMALIZED FREE ENERGY PREDICTED BY IDOCK:   -3.12 KCAL/MOL
REMARK 922        TOTAL FREE ENERGY PREDICTED BY IDOCK:   -3.45 KCAL/MOL
REMARK 923 INTER-LIGAND FREE ENERGY PREDICTED BY IDOCK:   -3.46 KCAL/MOL
REMARK 924 INTRA-LIGAND FREE ENERGY PREDICTED BY IDOCK:    0.01 KCAL/MOL
REMARK 927      BINDING AFFINITY PREDICTED BY RF-SCORE:    0.00 PKD
ROOT
HETATM    1  N   UNL     1      -7.332  10.876  65.368  1.00  0.00    -0.363 N  
HETATM    2  S   UNL     1      -9.000  10.885  65.521  1.00  0.00    -0.186 S  
HETATM    3  H1  UNL     1      -7.083   9.983  64.943  1.00  0.00     0.000 HD 
HETATM    4  H2  UNL     1      -6.691  11.618  65.645  1.00  0.00     0.000 HD 
HETATM    5  O   UNL     1      -9.527  10.452  64.249  1.00  0.00    -0.244 OA 
HETATM    6  O   UNL     1      -9.353  12.148  66.123  1.00  0.00    -0.231 OA 
ENDROOT
BRANCH   2   7
HETATM    7  C   UNL     1      -9.249   9.596  66.708  1.00  0.00    -0.149 A  
HETATM    8  C   UNL     1      -8.729   9.712  67.996  1.00  0.00    -0.119 A  
HETATM    9  C   UNL     1      -8.945   8.679  68.926  1.00  0.00    -0.142 A  
HETATM   10 CL   UNL     1     -11.133   6.095  66.723  1.00  0.00    -0.346 Cl 
HETATM   11  C   UNL     1      -9.682   7.537  68.573  1.00  0.00    -0.156 A  
HETATM   12  C   UNL     1      -9.996   8.477  66.343  1.00  0.00    -0.314 A  
HETATM   13 CL   UNL     1      -9.978   6.245  69.691  1.00  0.00    -0.190 Cl 
HETATM   14  C   UNL     1     -10.206   7.451  67.269  1.00  0.00    -0.260 A  
BRANCH   9  15
HETATM   15  S   UNL     1      -8.233   8.860  70.533  1.00  0.00    -0.164 S  
HETATM   16  O   UNL     1      -7.532   7.650  70.882  1.00  0.00    -0.069 OA 
HETATM   17  H2  UNL     1     -10.559   8.962  71.277  1.00  0.00     0.000 HD 
HETATM   18  H1  UNL     1      -9.161   9.089  72.461  1.00  0.00     0.000 HD 
HETATM   19  O   UNL     1      -7.593  10.157  70.610  1.00  0.00    -0.237 OA 
HETATM   20  N   UNL     1      -9.572   8.985  71.534  1.00  0.00    -0.288 N  
ENDBRANCH   9  15
ENDBRANCH   2   7
TORSDOF 2
ENDMDL
MODEL      143
REMARK 921   NORMALIZED FREE ENERGY PREDICTED BY IDOCK:   -3.11 KCAL/MOL
REMARK 922        TOTAL FREE ENERGY PREDICTED BY IDOCK:   -3.44 KCAL/MOL
REMARK 923 INTER-LIGAND FREE ENERGY PREDICTED BY IDOCK:   -3.22 KCAL/MOL
REMARK 924 INTRA-LIGAND FREE ENERGY PREDICTED BY IDOCK:   -0.22 KCAL/MOL
REMARK 927      BINDING AFFINITY PREDICTED BY RF-SCORE:    0.00 PKD
ROOT
HETATM    1  N   UNL     1      -8.874  13.177  67.040  1.00  0.00    -0.247 N  
HETATM    2  S   UNL     1     -10.283  12.525  66.411  1.00  0.00    -0.249 S  
HETATM    3  H1  UNL     1      -8.191  13.185  66.283  1.00  0.00     0.000 HD 
HETATM    4  H2  UNL     1      -8.727  13.503  67.995  1.00  0.00     0.000 HD 
HETATM    5  O   UNL     1     -10.516  13.200  65.157  1.00  0.00    -0.302 OA 
HETATM    6  O   UNL     1     -11.248  12.513  67.483  1.00  0.00    -0.259 OA 
ENDROOT
BRANCH   2   7
HETATM    7  C   UNL     1      -9.779  10.862  66.075  1.00  0.00    -0.224 A  
HETATM    8  C   UNL     1      -8.964  10.579  64.979  1.00  0.00    -0.223 A  
HETATM    9  C   UNL     1      -8.569   9.251  64.736  1.00  0.00    -0.184 A  
HETATM   10 CL   UNL     1     -10.355   7.331  67.808  1.00  0.00    -0.245 Cl 
HETATM   11  C   UNL     1      -8.980   8.211  65.585  1.00  0.00    -0.080 A  
HETATM   12  C   UNL     1     -10.184   9.846  66.938  1.00  0.00    -0.302 A  
HETATM   13 CL   UNL     1      -8.508   6.563  65.325  1.00  0.00    -0.126 Cl 
HETATM   14  C   UNL     1      -9.791   8.527  66.691  1.00  0.00    -0.272 A  
BRANCH   9  15
HETATM   15  S   UNL     1      -7.567   8.942  63.313  1.00  0.00    -0.115 S  
HETATM   16  O   UNL     1      -6.267   8.484  63.738  1.00  0.00    -0.072 OA 
HETATM   17  H2  UNL     1      -7.754  11.354  62.968  1.00  0.00     0.000 HD 
HETATM   18  H1  UNL     1      -6.801  10.285  61.817  1.00  0.00     0.000 HD 
HETATM   19  O   UNL     1      -8.353   8.203  62.347  1.00  0.00    -0.180 OA 
HETATM   20  N   UNL     1      -7.380  10.464  62.638  1.00  0.00    -0.142 N  
ENDBRANCH   9  15
ENDBRANCH   2   7
TORSDOF 2
ENDMDL
MODEL      144
REMARK 921   NORMALIZED FREE ENERGY PREDICTED BY IDOCK:   -3.09 KCAL/MOL
REMARK 922        TOTAL FREE ENERGY PREDICTED BY IDOCK:   -3.42 KCAL/MOL
REMARK 923 INTER-LIGAND FREE ENERGY PREDICTED BY IDOCK:   -3.25 KCAL/MOL
REMARK 924 INTRA-LIGAND FREE ENERGY PREDICTED BY IDOCK:   -0.17 KCAL/MOL
REMARK 927      BINDING AFFINITY PREDICTED BY RF-SCORE:    0.00 PKD
ROOT
HETATM    1  N   UNL     1      -8.123   5.757  71.451  1.00  0.00    -0.113 N  
HETATM    2  S   UNL     1      -9.793   5.753  71.581  1.00  0.00    -0.170 S  
HETATM    3  H1  UNL     1      -7.777   6.431  72.134  1.00  0.00     0.000 HD 
HETATM    4  H2  UNL     1      -7.560   5.195  70.813  1.00  0.00     0.000 HD 
HETATM    5  O   UNL     1     -10.089   5.658  72.991  1.00  0.00    -0.173 OA 
HETATM    6  O   UNL     1     -10.281   4.799  70.615  1.00  0.00    -0.230 OA 
ENDROOT
BRANCH   2   7
HETATM    7  C   UNL     1     -10.190   7.386  71.026  1.00  0.00    -0.191 A  
HETATM    8  C   UNL     1     -11.403   7.976  71.380  1.00  0.00    -0.292 A  
HETATM    9  C   UNL     1     -11.696   9.278  70.934  1.00  0.00    -0.296 A  
HETATM   10 CL   UNL     1      -8.350  10.155  68.847  1.00  0.00    -0.121 Cl 
HETATM   11  C   UNL     1     -10.779   9.989  70.143  1.00  0.00    -0.307 A  
HETATM   12  C   UNL     1      -9.262   8.082  70.254  1.00  0.00    -0.155 A  
HETATM   13 CL   UNL     1     -11.097  11.598  69.580  1.00  0.00    -0.266 Cl 
HETATM   14  C   UNL     1      -9.558   9.374  69.811  1.00  0.00    -0.201 A  
BRANCH   9  15
HETATM   15  S   UNL     1     -13.261   9.964  71.380  1.00  0.00    -0.383 S  
HETATM   16  O   UNL     1     -13.053  11.201  72.091  1.00  0.00    -0.463 OA 
HETATM   17  H2  UNL     1     -13.450   7.977  72.790  1.00  0.00     0.000 HD 
HETATM   18  H1  UNL     1     -14.779   9.242  72.723  1.00  0.00     0.000 HD 
HETATM   19  O   UNL     1     -14.142   9.888  70.233  1.00  0.00     0.561 OA 
HETATM   20  N   UNL     1     -13.876   8.845  72.465  1.00  0.00    -0.450 N  
ENDBRANCH   9  15
ENDBRANCH   2   7
TORSDOF 2
ENDMDL
MODEL      145
REMARK 921   NORMALIZED FREE ENERGY PREDICTED BY IDOCK:   -3.09 KCAL/MOL
REMARK 922        TOTAL FREE ENERGY PREDICTED BY IDOCK:   -3.42 KCAL/MOL
REMARK 923 INTER-LIGAND FREE ENERGY PREDICTED BY IDOCK:   -3.69 KCAL/MOL
REMARK 924 INTRA-LIGAND FREE ENERGY PREDICTED BY IDOCK:    0.27 KCAL/MOL
REMARK 927      BINDING AFFINITY PREDICTED BY RF-SCORE:    0.00 PKD
ROOT
HETATM    1  N   UNL     1      -8.001   6.714  71.973  1.00  0.00    -0.102 N  
HETATM    2  S   UNL     1      -8.631   8.253  72.173  1.00  0.00    -0.199 S  
HETATM    3  H1  UNL     1      -7.187   6.807  71.366  1.00  0.00     0.000 HD 
HETATM    4  H2  UNL     1      -8.362   5.850  72.379  1.00  0.00     0.000 HD 
HETATM    5  O   UNL     1      -7.513   9.109  72.491  1.00  0.00    -0.246 OA 
HETATM    6  O   UNL     1      -9.782   8.121  73.032  1.00  0.00    -0.275 OA 
ENDROOT
BRANCH   2   7
HETATM    7  C   UNL     1      -9.180   8.622  70.531  1.00  0.00    -0.175 A  
HETATM    8  C   UNL     1      -9.835   9.822  70.259  1.00  0.00    -0.296 A  
HETATM    9  C   UNL     1     -10.256  10.099  68.946  1.00  0.00    -0.199 A  
HETATM   10 CL   UNL     1      -8.992   6.786  67.010  1.00  0.00    -0.113 Cl 
HETATM   11  C   UNL     1     -10.019   9.184  67.908  1.00  0.00    -0.186 A  
HETATM   12  C   UNL     1      -8.922   7.708  69.512  1.00  0.00    -0.139 A  
HETATM   13 CL   UNL     1     -10.514   9.489  66.274  1.00  0.00    -0.209 Cl 
HETATM   14  C   UNL     1      -9.344   7.985  68.208  1.00  0.00    -0.140 A  
BRANCH   9  15
HETATM   15  S   UNL     1     -11.114  11.617  68.663  1.00  0.00    -0.257 S  
HETATM   16  O   UNL     1     -11.952  11.480  67.498  1.00  0.00    -0.629 OA 
HETATM   17  H2  UNL     1      -8.880  12.509  68.231  1.00  0.00     0.000 HD 
HETATM   18  H1  UNL     1     -10.378  13.565  68.121  1.00  0.00     0.000 HD 
HETATM   19  O   UNL     1     -11.641  12.092  69.925  1.00  0.00    -0.291 OA 
HETATM   20  N   UNL     1      -9.882  12.689  68.285  1.00  0.00    -0.228 N  
ENDBRANCH   9  15
ENDBRANCH   2   7
TORSDOF 2
ENDMDL
MODEL      146
REMARK 921   NORMALIZED FREE ENERGY PREDICTED BY IDOCK:   -3.06 KCAL/MOL
REMARK 922        TOTAL FREE ENERGY PREDICTED BY IDOCK:   -3.39 KCAL/MOL
REMARK 923 INTER-LIGAND FREE ENERGY PREDICTED BY IDOCK:   -3.29 KCAL/MOL
REMARK 924 INTRA-LIGAND FREE ENERGY PREDICTED BY IDOCK:   -0.10 KCAL/MOL
REMARK 927      BINDING AFFINITY PREDICTED BY RF-SCORE:    0.00 PKD
ROOT
HETATM    1  N   UNL     1     -10.514  10.676  66.671  1.00  0.00    -0.244 N  
HETATM    2  S   UNL     1      -9.124   9.746  66.765  1.00  0.00    -0.149 S  
HETATM    3  H1  UNL     1     -10.602  11.162  67.564  1.00  0.00     0.000 HD 
HETATM    4  H2  UNL     1     -11.150  10.743  65.877  1.00  0.00     0.000 HD 
HETATM    5  O   UNL     1      -8.093  10.611  67.287  1.00  0.00    -0.114 OA 
HETATM    6  O   UNL     1      -9.001   9.058  65.503  1.00  0.00    -0.184 OA 
ENDROOT
BRANCH   2   7
HETATM    7  C   UNL     1      -9.570   8.575  68.015  1.00  0.00    -0.149 A  
HETATM    8  C   UNL     1     -10.469   8.927  69.022  1.00  0.00    -0.231 A  
HETATM    9  C   UNL     1     -10.815   7.978  70.002  1.00  0.00    -0.235 A  
HETATM   10 CL   UNL     1      -8.649   4.788  68.798  1.00  0.00    -0.094 Cl 
HETATM   11  C   UNL     1     -10.272   6.684  69.973  1.00  0.00    -0.187 A  
HETATM   12  C   UNL     1      -9.032   7.291  67.961  1.00  0.00    -0.131 A  
HETATM   13 CL   UNL     1     -10.679   5.483  71.156  1.00  0.00    -0.306 Cl 
HETATM   14  C   UNL     1      -9.377   6.353  68.938  1.00  0.00    -0.130 A  
BRANCH   9  15
HETATM   15  S   UNL     1     -11.930   8.486  71.276  1.00  0.00    -0.285 S  
HETATM   16  O   UNL     1     -13.002   7.528  71.379  1.00  0.00    -0.351 OA 
HETATM   17  H2  UNL     1     -12.370  10.377  69.792  1.00  0.00     0.000 HD 
HETATM   18  H1  UNL     1     -13.216  10.205  71.413  1.00  0.00     0.000 HD 
HETATM   19  O   UNL     1     -11.156   8.886  72.433  1.00  0.00    -0.280 OA 
HETATM   20  N   UNL     1     -12.572   9.913  70.678  1.00  0.00    -0.223 N  
ENDBRANCH   9  15
ENDBRANCH   2   7
TORSDOF 2
ENDMDL
MODEL      147
REMARK 921   NORMALIZED FREE ENERGY PREDICTED BY IDOCK:   -3.05 KCAL/MOL
REMARK 922        TOTAL FREE ENERGY PREDICTED BY IDOCK:   -3.37 KCAL/MOL
REMARK 923 INTER-LIGAND FREE ENERGY PREDICTED BY IDOCK:   -3.44 KCAL/MOL
REMARK 924 INTRA-LIGAND FREE ENERGY PREDICTED BY IDOCK:    0.07 KCAL/MOL
REMARK 927      BINDING AFFINITY PREDICTED BY RF-SCORE:    0.00 PKD
ROOT
HETATM    1  N   UNL     1      -8.099  10.867  65.187  1.00  0.00    -0.364 N  
HETATM    2  S   UNL     1      -9.513  11.099  66.055  1.00  0.00    -0.216 S  
HETATM    3  H1  UNL     1      -8.210   9.991  64.676  1.00  0.00     0.000 HD 
HETATM    4  H2  UNL     1      -7.285  11.480  65.173  1.00  0.00     0.000 HD 
HETATM    5  O   UNL     1     -10.598  10.867  65.131  1.00  0.00    -0.269 OA 
HETATM    6  O   UNL     1      -9.356  12.338  66.778  1.00  0.00    -0.205 OA 
ENDROOT
BRANCH   2   7
HETATM    7  C   UNL     1      -9.446   9.753  67.201  1.00  0.00    -0.154 A  
HETATM    8  C   UNL     1     -10.157   9.810  68.399  1.00  0.00    -0.189 A  
HETATM    9  C   UNL     1     -10.095   8.725  69.293  1.00  0.00    -0.204 A  
HETATM   10 CL   UNL     1      -7.666   6.199  67.284  1.00  0.00    -0.093 Cl 
HETATM   11  C   UNL     1      -9.331   7.586  68.989  1.00  0.00    -0.146 A  
HETATM   12  C   UNL     1      -8.695   8.625  66.875  1.00  0.00    -0.133 A  
HETATM   13 CL   UNL     1      -9.235   6.224  70.059  1.00  0.00    -0.153 Cl 
HETATM   14  C   UNL     1      -8.634   7.550  67.767  1.00  0.00    -0.120 A  
BRANCH   9  15
HETATM   15  S   UNL     1     -10.985   8.863  70.813  1.00  0.00    -0.269 S  
HETATM   16  O   UNL     1     -11.520  10.197  70.930  1.00  0.00    -0.327 OA 
HETATM   17  H2  UNL     1      -8.791   8.534  71.838  1.00  0.00     0.000 HD 
HETATM   18  H1  UNL     1     -10.305   8.766  72.852  1.00  0.00     0.000 HD 
HETATM   19  O   UNL     1     -11.824   7.693  70.964  1.00  0.00    -0.293 OA 
HETATM   20  N   UNL     1      -9.791   8.685  71.975  1.00  0.00    -0.308 N  
ENDBRANCH   9  15
ENDBRANCH   2   7
TORSDOF 2
ENDMDL
MODEL      148
REMARK 921   NORMALIZED FREE ENERGY PREDICTED BY IDOCK:   -3.04 KCAL/MOL
REMARK 922        TOTAL FREE ENERGY PREDICTED BY IDOCK:   -3.37 KCAL/MOL
REMARK 923 INTER-LIGAND FREE ENERGY PREDICTED BY IDOCK:   -3.37 KCAL/MOL
REMARK 924 INTRA-LIGAND FREE ENERGY PREDICTED BY IDOCK:    0.00 KCAL/MOL
REMARK 927      BINDING AFFINITY PREDICTED BY RF-SCORE:    0.00 PKD
ROOT
HETATM    1  N   UNL     1     -10.858   8.938  67.571  1.00  0.00    -0.470 N  
HETATM    2  S   UNL     1      -9.447   8.757  68.456  1.00  0.00    -0.146 S  
HETATM    3  H1  UNL     1     -11.516   9.438  68.169  1.00  0.00     0.000 HD 
HETATM    4  H2  UNL     1     -11.026   8.611  66.620  1.00  0.00     0.000 HD 
HETATM    5  O   UNL     1      -9.157  10.051  69.025  1.00  0.00    -0.151 OA 
HETATM    6  O   UNL     1      -8.516   8.049  67.611  1.00  0.00    -0.129 OA 
ENDROOT
BRANCH   2   7
HETATM    7  C   UNL     1      -9.983   7.675  69.751  1.00  0.00    -0.184 A  
HETATM    8  C   UNL     1      -9.112   6.724  70.281  1.00  0.00    -0.153 A  
HETATM    9  C   UNL     1      -9.556   5.879  71.315  1.00  0.00    -0.168 A  
HETATM   10 CL   UNL     1     -13.343   7.192  71.820  1.00  0.00    -0.392 Cl 
HETATM   11  C   UNL     1     -10.862   5.987  71.820  1.00  0.00    -0.260 A  
HETATM   12  C   UNL     1     -11.277   7.807  70.249  1.00  0.00    -0.215 A  
HETATM   13 CL   UNL     1     -11.446   4.971  73.099  1.00  0.00    -0.398 Cl 
HETATM   14  C   UNL     1     -11.716   6.964  71.274  1.00  0.00    -0.328 A  
BRANCH   9  15
HETATM   15  S   UNL     1      -8.424   4.668  71.927  1.00  0.00    -0.119 S  
HETATM   16  O   UNL     1      -9.062   3.375  71.918  1.00  0.00    -0.100 OA 
HETATM   17  H2  UNL     1      -8.622   5.906  74.024  1.00  0.00     0.000 HD 
HETATM   18  H1  UNL     1      -7.552   4.421  73.878  1.00  0.00     0.000 HD 
HETATM   19  O   UNL     1      -7.136   4.883  71.302  1.00  0.00    -0.049 OA 
HETATM   20  N   UNL     1      -8.204   5.121  73.525  1.00  0.00    -0.110 N  
ENDBRANCH   9  15
ENDBRANCH   2   7
TORSDOF 2
ENDMDL
MODEL      149
REMARK 921   NORMALIZED FREE ENERGY PREDICTED BY IDOCK:   -3.03 KCAL/MOL
REMARK 922        TOTAL FREE ENERGY PREDICTED BY IDOCK:   -3.35 KCAL/MOL
REMARK 923 INTER-LIGAND FREE ENERGY PREDICTED BY IDOCK:   -3.12 KCAL/MOL
REMARK 924 INTRA-LIGAND FREE ENERGY PREDICTED BY IDOCK:   -0.23 KCAL/MOL
REMARK 927      BINDING AFFINITY PREDICTED BY RF-SCORE:    0.00 PKD
ROOT
HETATM    1  N   UNL     1      -9.169  15.856  68.556  1.00  0.00    -0.193 N  
HETATM    2  S   UNL     1      -8.234  15.195  67.333  1.00  0.00    -0.208 S  
HETATM    3  H1  UNL     1      -8.845  15.439  69.430  1.00  0.00     0.000 HD 
HETATM    4  H2  UNL     1      -9.916  16.542  68.450  1.00  0.00     0.000 HD 
HETATM    5  O   UNL     1      -6.864  15.281  67.779  1.00  0.00    -0.136 OA 
HETATM    6  O   UNL     1      -8.692  15.784  66.099  1.00  0.00    -0.325 OA 
ENDROOT
BRANCH   2   7
HETATM    7  C   UNL     1      -8.742  13.500  67.383  1.00  0.00    -0.220 A  
HETATM    8  C   UNL     1      -9.763  13.094  68.241  1.00  0.00    -0.223 A  
HETATM    9  C   UNL     1     -10.156  11.744  68.259  1.00  0.00    -0.197 A  
HETATM   10 CL   UNL     1      -7.687  10.178  65.472  1.00  0.00    -0.139 Cl 
HETATM   11  C   UNL     1      -9.537  10.804  67.419  1.00  0.00    -0.159 A  
HETATM   12  C   UNL     1      -8.125  12.585  66.532  1.00  0.00     0.263 A  
HETATM   13 CL   UNL     1      -9.997   9.132  67.404  1.00  0.00    -0.243 Cl 
HETATM   14  C   UNL     1      -8.518  11.244  66.554  1.00  0.00    -0.171 A  
BRANCH   9  15
HETATM   15  S   UNL     1     -11.430  11.275  69.391  1.00  0.00    -0.332 S  
HETATM   16  O   UNL     1     -12.594  10.856  68.650  1.00  0.00    -0.255 OA 
HETATM   17  H2  UNL     1     -11.396  13.638  70.016  1.00  0.00     0.000 HD 
HETATM   18  H1  UNL     1     -12.540  12.444  70.816  1.00  0.00     0.000 HD 
HETATM   19  O   UNL     1     -10.847  10.443  70.422  1.00  0.00    -0.289 OA 
HETATM   20  N   UNL     1     -11.805  12.714  70.163  1.00  0.00    -0.296 N  
ENDBRANCH   9  15
ENDBRANCH   2   7
TORSDOF 2
ENDMDL
MODEL      150
REMARK 921   NORMALIZED FREE ENERGY PREDICTED BY IDOCK:   -2.99 KCAL/MOL
REMARK 922        TOTAL FREE ENERGY PREDICTED BY IDOCK:   -3.30 KCAL/MOL
REMARK 923 INTER-LIGAND FREE ENERGY PREDICTED BY IDOCK:   -3.41 KCAL/MOL
REMARK 924 INTRA-LIGAND FREE ENERGY PREDICTED BY IDOCK:    0.11 KCAL/MOL
REMARK 927      BINDING AFFINITY PREDICTED BY RF-SCORE:    0.00 PKD
ROOT
HETATM    1  N   UNL     1      -8.644   7.802  65.524  1.00  0.00    -0.253 N  
HETATM    2  S   UNL     1      -8.637   8.164  67.160  1.00  0.00    -0.125 S  
HETATM    3  H1  UNL     1      -7.745   8.111  65.153  1.00  0.00     0.000 HD 
HETATM    4  H2  UNL     1      -9.399   7.360  65.001  1.00  0.00     0.000 HD 
HETATM    5  O   UNL     1      -7.375   7.689  67.675  1.00  0.00    -0.090 OA 
HETATM    6  O   UNL     1      -9.908   7.728  67.685  1.00  0.00    -0.148 OA 
ENDROOT
BRANCH   2   7
HETATM    7  C   UNL     1      -8.607   9.934  67.126  1.00  0.00    -0.125 A  
HETATM    8  C   UNL     1      -9.775  10.655  66.878  1.00  0.00    -0.213 A  
HETATM    9  C   UNL     1      -9.730  12.061  66.863  1.00  0.00    -0.203 A  
HETATM   10 CL   UNL     1      -5.828  12.723  67.672  1.00  0.00    -0.133 Cl 
HETATM   11  C   UNL     1      -8.526  12.744  67.100  1.00  0.00    -0.181 A  
HETATM   12  C   UNL     1      -7.406  10.594  67.379  1.00  0.00    -0.093 A  
HETATM   13 CL   UNL     1      -8.429  14.475  67.100  1.00  0.00    -0.229 Cl 
HETATM   14  C   UNL     1      -7.366  11.991  67.361  1.00  0.00    -0.150 A  
BRANCH   9  15
HETATM   15  S   UNL     1     -11.229  12.925  66.507  1.00  0.00    -0.316 S  
HETATM   16  O   UNL     1     -12.214  11.990  66.023  1.00  0.00    -0.546 OA 
HETATM   17  H2  UNL     1      -9.896  14.016  64.774  1.00  0.00     0.000 HD 
HETATM   18  H1  UNL     1     -11.668  14.425  65.028  1.00  0.00     0.000 HD 
HETATM   19  O   UNL     1     -11.514  13.825  67.605  1.00  0.00    -0.289 OA 
HETATM   20  N   UNL     1     -10.802  13.926  65.234  1.00  0.00    -0.316 N  
ENDBRANCH   9  15
ENDBRANCH   2   7
TORSDOF 2
ENDMDL
MODEL      151
REMARK 921   NORMALIZED FREE ENERGY PREDICTED BY IDOCK:   -2.98 KCAL/MOL
REMARK 922        TOTAL FREE ENERGY PREDICTED BY IDOCK:   -3.30 KCAL/MOL
REMARK 923 INTER-LIGAND FREE ENERGY PREDICTED BY IDOCK:   -3.37 KCAL/MOL
REMARK 924 INTRA-LIGAND FREE ENERGY PREDICTED BY IDOCK:    0.08 KCAL/MOL
REMARK 927      BINDING AFFINITY PREDICTED BY RF-SCORE:    0.00 PKD
ROOT
HETATM    1  N   UNL     1      -8.021   4.997  74.433  1.00  0.00    -0.096 N  
HETATM    2  S   UNL     1      -8.172   3.717  73.363  1.00  0.00    -0.088 S  
HETATM    3  H1  UNL     1      -8.964   5.230  74.745  1.00  0.00     0.000 HD 
HETATM    4  H2  UNL     1      -7.156   5.455  74.718  1.00  0.00     0.000 HD 
HETATM    5  O   UNL     1      -9.044   2.759  73.998  1.00  0.00    -0.074 OA 
HETATM    6  O   UNL     1      -6.838   3.388  72.922  1.00  0.00    -0.035 OA 
ENDROOT
BRANCH   2   7
HETATM    7  C   UNL     1      -9.045   4.481  72.026  1.00  0.00    -0.130 A  
HETATM    8  C   UNL     1      -9.789   5.641  72.240  1.00  0.00    -0.185 A  
HETATM    9  C   UNL     1     -10.469   6.236  71.162  1.00  0.00    -0.223 A  
HETATM   10 CL   UNL     1      -9.475   3.742  68.144  1.00  0.00    -0.227 Cl 
HETATM   11  C   UNL     1     -10.403   5.678  69.875  1.00  0.00    -0.277 A  
HETATM   12  C   UNL     1      -8.955   3.921  70.753  1.00  0.00    -0.153 A  
HETATM   13 CL   UNL     1     -11.219   6.384  68.517  1.00  0.00    -0.385 Cl 
HETATM   14  C   UNL     1      -9.634   4.514  69.685  1.00  0.00    -0.199 A  
BRANCH   9  15
HETATM   15  S   UNL     1     -11.426   7.683  71.495  1.00  0.00    -0.273 S  
HETATM   16  O   UNL     1     -11.267   8.050  72.879  1.00  0.00    -0.401 OA 
HETATM   17  H2  UNL     1     -13.331   6.228  71.022  1.00  0.00     0.000 HD 
HETATM   18  H1  UNL     1     -13.555   7.993  71.474  1.00  0.00     0.000 HD 
HETATM   19  O   UNL     1     -11.207   8.637  70.427  1.00  0.00    -0.254 OA 
HETATM   20  N   UNL     1     -13.003   7.158  71.281  1.00  0.00    -0.371 N  
ENDBRANCH   9  15
ENDBRANCH   2   7
TORSDOF 2
ENDMDL
MODEL      152
REMARK 921   NORMALIZED FREE ENERGY PREDICTED BY IDOCK:   -2.95 KCAL/MOL
REMARK 922        TOTAL FREE ENERGY PREDICTED BY IDOCK:   -3.26 KCAL/MOL
REMARK 923 INTER-LIGAND FREE ENERGY PREDICTED BY IDOCK:   -3.45 KCAL/MOL
REMARK 924 INTRA-LIGAND FREE ENERGY PREDICTED BY IDOCK:    0.19 KCAL/MOL
REMARK 927      BINDING AFFINITY PREDICTED BY RF-SCORE:    0.00 PKD
ROOT
HETATM    1  N   UNL     1     -12.131  14.847  68.149  1.00  0.00    -0.562 N  
HETATM    2  S   UNL     1     -11.663  14.105  66.722  1.00  0.00    -0.428 S  
HETATM    3  H1  UNL     1     -11.525  15.659  68.269  1.00  0.00     0.000 HD 
HETATM    4  H2  UNL     1     -12.876  14.546  68.777  1.00  0.00     0.000 HD 
HETATM    5  O   UNL     1     -11.558  15.153  65.736  1.00  0.00    -0.246 OA 
HETATM    6  O   UNL     1     -12.520  12.957  66.553  1.00  0.00    -0.396 OA 
ENDROOT
BRANCH   2   7
HETATM    7  C   UNL     1     -10.034  13.549  67.136  1.00  0.00    -0.246 A  
HETATM    8  C   UNL     1      -9.789  12.197  67.374  1.00  0.00    -0.193 A  
HETATM    9  C   UNL     1      -8.485  11.776  67.694  1.00  0.00    -0.149 A  
HETATM   10 CL   UNL     1      -6.483  15.282  67.573  1.00  0.00    -0.188 Cl 
HETATM   11  C   UNL     1      -7.430  12.699  67.770  1.00  0.00    -0.131 A  
HETATM   12  C   UNL     1      -8.997  14.478  67.192  1.00  0.00    -0.244 A  
HETATM   13 CL   UNL     1      -5.808  12.220  68.152  1.00  0.00    -0.054 Cl 
HETATM   14  C   UNL     1      -7.704  14.055  67.513  1.00  0.00    -0.182 A  
BRANCH   9  15
HETATM   15  S   UNL     1      -8.237  10.057  68.021  1.00  0.00    -0.117 S  
HETATM   16  O   UNL     1      -9.507   9.439  68.306  1.00  0.00    -0.137 OA 
HETATM   17  H2  UNL     1      -7.015  10.864  69.978  1.00  0.00     0.000 HD 
HETATM   18  H1  UNL     1      -7.197   9.071  69.626  1.00  0.00     0.000 HD 
HETATM   19  O   UNL     1      -7.340   9.521  67.018  1.00  0.00    -0.087 OA 
HETATM   20  N   UNL     1      -7.340  10.062  69.436  1.00  0.00    -0.087 N  
ENDBRANCH   9  15
ENDBRANCH   2   7
TORSDOF 2
ENDMDL
MODEL      153
REMARK 921   NORMALIZED FREE ENERGY PREDICTED BY IDOCK:   -2.95 KCAL/MOL
REMARK 922        TOTAL FREE ENERGY PREDICTED BY IDOCK:   -3.26 KCAL/MOL
REMARK 923 INTER-LIGAND FREE ENERGY PREDICTED BY IDOCK:   -3.32 KCAL/MOL
REMARK 924 INTRA-LIGAND FREE ENERGY PREDICTED BY IDOCK:    0.06 KCAL/MOL
REMARK 927      BINDING AFFINITY PREDICTED BY RF-SCORE:    0.00 PKD
ROOT
HETATM    1  N   UNL     1     -13.061   6.652  72.110  1.00  0.00    -0.534 N  
HETATM    2  S   UNL     1     -13.116   8.292  71.775  1.00  0.00    -0.344 S  
HETATM    3  H1  UNL     1     -12.207   6.491  72.644  1.00  0.00     0.000 HD 
HETATM    4  H2  UNL     1     -13.747   5.950  71.832  1.00  0.00     0.000 HD 
HETATM    5  O   UNL     1     -12.834   8.969  73.018  1.00  0.00    -0.248 OA 
HETATM    6  O   UNL     1     -14.323   8.520  71.018  1.00  0.00    -0.202 OA 
ENDROOT
BRANCH   2   7
HETATM    7  C   UNL     1     -11.722   8.476  70.699  1.00  0.00    -0.144 A  
HETATM    8  C   UNL     1     -10.931   7.374  70.374  1.00  0.00    -0.269 A  
HETATM    9  C   UNL     1      -9.833   7.542  69.511  1.00  0.00    -0.169 A  
HETATM   10 CL   UNL     1     -10.075  11.491  68.700  1.00  0.00    -0.218 Cl 
HETATM   11  C   UNL     1      -9.528   8.801  68.972  1.00  0.00    -0.160 A  
HETATM   12  C   UNL     1     -11.444   9.731  70.162  1.00  0.00    -0.272 A  
HETATM   13 CL   UNL     1      -8.188   9.049  67.899  1.00  0.00    -0.109 Cl 
HETATM   14  C   UNL     1     -10.350   9.894  69.307  1.00  0.00    -0.219 A  
BRANCH   9  15
HETATM   15  S   UNL     1      -8.843   6.121  69.160  1.00  0.00    -0.123 S  
HETATM   16  O   UNL     1      -9.384   4.980  69.856  1.00  0.00    -0.123 OA 
HETATM   17  H2  UNL     1      -7.105   7.343  70.369  1.00  0.00     0.000 HD 
HETATM   18  H1  UNL     1      -6.797   5.677  69.660  1.00  0.00     0.000 HD 
HETATM   19  O   UNL     1      -8.576   6.085  67.738  1.00  0.00    -0.108 OA 
HETATM   20  N   UNL     1      -7.368   6.497  69.862  1.00  0.00    -0.084 N  
ENDBRANCH   9  15
ENDBRANCH   2   7
TORSDOF 2
ENDMDL
MODEL      154
REMARK 921   NORMALIZED FREE ENERGY PREDICTED BY IDOCK:   -2.89 KCAL/MOL
REMARK 922        TOTAL FREE ENERGY PREDICTED BY IDOCK:   -3.19 KCAL/MOL
REMARK 923 INTER-LIGAND FREE ENERGY PREDICTED BY IDOCK:   -3.02 KCAL/MOL
REMARK 924 INTRA-LIGAND FREE ENERGY PREDICTED BY IDOCK:   -0.18 KCAL/MOL
REMARK 927      BINDING AFFINITY PREDICTED BY RF-SCORE:    0.00 PKD
ROOT
HETATM    1  N   UNL     1      -6.415   8.984  71.589  1.00  0.00    -0.077 N  
HETATM    2  S   UNL     1      -7.621   7.964  72.145  1.00  0.00    -0.097 S  
HETATM    3  H1  UNL     1      -6.867   9.867  71.348  1.00  0.00     0.000 HD 
HETATM    4  H2  UNL     1      -5.423   8.766  71.505  1.00  0.00     0.000 HD 
HETATM    5  O   UNL     1      -8.393   8.729  73.095  1.00  0.00    -0.402 OA 
HETATM    6  O   UNL     1      -6.983   6.715  72.485  1.00  0.00    -0.067 OA 
ENDROOT
BRANCH   2   7
HETATM    7  C   UNL     1      -8.588   7.734  70.681  1.00  0.00    -0.127 A  
HETATM    8  C   UNL     1      -8.999   8.832  69.927  1.00  0.00    -0.152 A  
HETATM    9  C   UNL     1      -9.761   8.626  68.762  1.00  0.00    -0.166 A  
HETATM   10 CL   UNL     1     -10.027   4.596  68.709  1.00  0.00    -0.196 Cl 
HETATM   11  C   UNL     1     -10.106   7.330  68.349  1.00  0.00    -0.171 A  
HETATM   12  C   UNL     1      -8.908   6.438  70.279  1.00  0.00    -0.151 A  
HETATM   13 CL   UNL     1     -11.035   7.032  66.915  1.00  0.00    -0.395 Cl 
HETATM   14  C   UNL     1      -9.667   6.238  69.122  1.00  0.00    -0.135 A  
BRANCH   9  15
HETATM   15  S   UNL     1     -10.287  10.054  67.863  1.00  0.00    -0.223 S  
HETATM   16  O   UNL     1      -9.786   9.978  66.514  1.00  0.00    -0.180 OA 
HETATM   17  H2  UNL     1      -8.854  11.261  69.433  1.00  0.00     0.000 HD 
HETATM   18  H1  UNL     1      -9.792  12.133  68.117  1.00  0.00     0.000 HD 
HETATM   19  O   UNL     1     -11.689  10.282  68.140  1.00  0.00    -0.287 OA 
HETATM   20  N   UNL     1      -9.489  11.309  68.636  1.00  0.00    -0.189 N  
ENDBRANCH   9  15
ENDBRANCH   2   7
TORSDOF 2
ENDMDL
MODEL      155
REMARK 921   NORMALIZED FREE ENERGY PREDICTED BY IDOCK:   -2.86 KCAL/MOL
REMARK 922        TOTAL FREE ENERGY PREDICTED BY IDOCK:   -3.16 KCAL/MOL
REMARK 923 INTER-LIGAND FREE ENERGY PREDICTED BY IDOCK:   -3.01 KCAL/MOL
REMARK 924 INTRA-LIGAND FREE ENERGY PREDICTED BY IDOCK:   -0.15 KCAL/MOL
REMARK 927      BINDING AFFINITY PREDICTED BY RF-SCORE:    0.00 PKD
ROOT
HETATM    1  N   UNL     1      -5.624   8.406  72.357  1.00  0.00    -0.043 N  
HETATM    2  S   UNL     1      -7.059   7.987  73.112  1.00  0.00    -0.108 S  
HETATM    3  H1  UNL     1      -5.586   9.426  72.346  1.00  0.00     0.000 HD 
HETATM    4  H2  UNL     1      -4.924   7.768  71.981  1.00  0.00     0.000 HD 
HETATM    5  O   UNL     1      -7.133   8.784  74.313  1.00  0.00    -0.354 OA 
HETATM    6  O   UNL     1      -7.113   6.545  73.127  1.00  0.00    -0.077 OA 
ENDROOT
BRANCH   2   7
HETATM    7  C   UNL     1      -8.253   8.593  71.954  1.00  0.00    -0.103 A  
HETATM    8  C   UNL     1      -9.614   8.366  72.160  1.00  0.00    -0.367 A  
HETATM    9  C   UNL     1     -10.546   8.863  71.231  1.00  0.00    -0.281 A  
HETATM   10 CL   UNL     1      -8.107  10.695  68.584  1.00  0.00    -0.124 Cl 
HETATM   11  C   UNL     1     -10.123   9.587  70.106  1.00  0.00    -0.249 A  
HETATM   12  C   UNL     1      -7.815   9.322  70.851  1.00  0.00    -0.148 A  
HETATM   13 CL   UNL     1     -11.240  10.224  68.941  1.00  0.00    -0.272 Cl 
HETATM   14  C   UNL     1      -8.745   9.812  69.929  1.00  0.00    -0.217 A  
BRANCH   9  15
HETATM   15  S   UNL     1     -12.255   8.516  71.520  1.00  0.00    -0.322 S  
HETATM   16  O   UNL     1     -12.994   9.754  71.539  1.00  0.00    -0.350 OA 
HETATM   17  H2  UNL     1     -11.472   7.744  73.702  1.00  0.00     0.000 HD 
HETATM   18  H1  UNL     1     -13.248   7.691  73.241  1.00  0.00     0.000 HD 
HETATM   19  O   UNL     1     -12.650   7.409  70.674  1.00  0.00    -0.116 OA 
HETATM   20  N   UNL     1     -12.262   7.890  73.074  1.00  0.00     0.116 N  
ENDBRANCH   9  15
ENDBRANCH   2   7
TORSDOF 2
ENDMDL
MODEL      156
REMARK 921   NORMALIZED FREE ENERGY PREDICTED BY IDOCK:   -2.86 KCAL/MOL
REMARK 922        TOTAL FREE ENERGY PREDICTED BY IDOCK:   -3.16 KCAL/MOL
REMARK 923 INTER-LIGAND FREE ENERGY PREDICTED BY IDOCK:   -3.22 KCAL/MOL
REMARK 924 INTRA-LIGAND FREE ENERGY PREDICTED BY IDOCK:    0.06 KCAL/MOL
REMARK 927      BINDING AFFINITY PREDICTED BY RF-SCORE:    0.00 PKD
ROOT
HETATM    1  N   UNL     1      -8.508   4.223  73.172  1.00  0.00    -0.090 N  
HETATM    2  S   UNL     1     -10.140   4.086  72.817  1.00  0.00    -0.164 S  
HETATM    3  H1  UNL     1      -8.419   4.984  73.846  1.00  0.00     0.000 HD 
HETATM    4  H2  UNL     1      -7.751   3.657  72.789  1.00  0.00     0.000 HD 
HETATM    5  O   UNL     1     -10.832   4.092  74.083  1.00  0.00    -0.236 OA 
HETATM    6  O   UNL     1     -10.266   3.011  71.863  1.00  0.00    -0.126 OA 
ENDROOT
BRANCH   2   7
HETATM    7  C   UNL     1     -10.448   5.622  71.993  1.00  0.00    -0.219 A  
HETATM    8  C   UNL     1      -9.461   6.210  71.203  1.00  0.00    -0.182 A  
HETATM    9  C   UNL     1      -9.730   7.427  70.551  1.00  0.00    -0.175 A  
HETATM   10 CL   UNL     1     -13.540   8.104  71.709  1.00  0.00    -0.381 Cl 
HETATM   11  C   UNL     1     -10.981   8.052  70.683  1.00  0.00    -0.245 A  
HETATM   12  C   UNL     1     -11.700   6.219  72.124  1.00  0.00    -0.368 A  
HETATM   13 CL   UNL     1     -11.356   9.548  69.890  1.00  0.00    -0.201 Cl 
HETATM   14  C   UNL     1     -11.963   7.430  71.477  1.00  0.00    -0.307 A  
BRANCH   9  15
HETATM   15  S   UNL     1      -8.433   8.147  69.591  1.00  0.00    -0.127 S  
HETATM   16  O   UNL     1      -7.245   7.340  69.717  1.00  0.00    -0.077 OA 
HETATM   17  H2  UNL     1      -8.610   9.986  71.191  1.00  0.00     0.000 HD 
HETATM   18  H1  UNL     1      -7.398  10.021  69.812  1.00  0.00     0.000 HD 
HETATM   19  O   UNL     1      -8.967   8.516  68.297  1.00  0.00    -0.138 OA 
HETATM   20  N   UNL     1      -8.147   9.605  70.366  1.00  0.00    -0.188 N  
ENDBRANCH   9  15
ENDBRANCH   2   7
TORSDOF 2
ENDMDL
MODEL      157
REMARK 921   NORMALIZED FREE ENERGY PREDICTED BY IDOCK:   -2.81 KCAL/MOL
REMARK 922        TOTAL FREE ENERGY PREDICTED BY IDOCK:   -3.11 KCAL/MOL
REMARK 923 INTER-LIGAND FREE ENERGY PREDICTED BY IDOCK:   -2.88 KCAL/MOL
REMARK 924 INTRA-LIGAND FREE ENERGY PREDICTED BY IDOCK:   -0.22 KCAL/MOL
REMARK 927      BINDING AFFINITY PREDICTED BY RF-SCORE:    0.00 PKD
ROOT
HETATM    1  N   UNL     1      -8.011   8.819  66.935  1.00  0.00    -0.098 N  
HETATM    2  S   UNL     1      -9.596   8.582  67.423  1.00  0.00    -0.170 S  
HETATM    3  H1  UNL     1      -7.621   7.896  66.747  1.00  0.00     0.000 HD 
HETATM    4  H2  UNL     1      -7.529   9.713  66.843  1.00  0.00     0.000 HD 
HETATM    5  O   UNL     1     -10.180   7.667  66.472  1.00  0.00    -0.221 OA 
HETATM    6  O   UNL     1     -10.147   9.889  67.689  1.00  0.00    -0.176 OA 
ENDROOT
BRANCH   2   7
HETATM    7  C   UNL     1      -9.365   7.734  68.959  1.00  0.00    -0.150 A  
HETATM    8  C   UNL     1     -10.397   7.677  69.896  1.00  0.00    -0.225 A  
HETATM    9  C   UNL     1     -10.194   6.991  71.107  1.00  0.00    -0.195 A  
HETATM   10 CL   UNL     1      -6.403   5.680  70.635  1.00  0.00    -0.030 Cl 
HETATM   11  C   UNL     1      -8.970   6.361  71.380  1.00  0.00    -0.138 A  
HETATM   12  C   UNL     1      -8.148   7.102  69.205  1.00  0.00    -0.120 A  
HETATM   13 CL   UNL     1      -8.683   5.498  72.857  1.00  0.00    -0.119 Cl 
HETATM   14  C   UNL     1      -7.950   6.423  70.412  1.00  0.00    -0.112 A  
BRANCH   9  15
HETATM   15  S   UNL     1     -11.521   6.980  72.274  1.00  0.00    -0.263 S  
HETATM   16  O   UNL     1     -12.060   5.646  72.369  1.00  0.00    -0.204 OA 
HETATM   17  H2  UNL     1     -12.629   8.432  70.650  1.00  0.00     0.000 HD 
HETATM   18  H1  UNL     1     -13.444   7.944  72.222  1.00  0.00     0.000 HD 
HETATM   19  O   UNL     1     -11.107   7.716  73.450  1.00  0.00    -0.337 OA 
HETATM   20  N   UNL     1     -12.679   7.951  71.549  1.00  0.00    -0.324 N  
ENDBRANCH   9  15
ENDBRANCH   2   7
TORSDOF 2
ENDMDL
MODEL      158
REMARK 921   NORMALIZED FREE ENERGY PREDICTED BY IDOCK:   -2.78 KCAL/MOL
REMARK 922        TOTAL FREE ENERGY PREDICTED BY IDOCK:   -3.08 KCAL/MOL
REMARK 923 INTER-LIGAND FREE ENERGY PREDICTED BY IDOCK:   -3.15 KCAL/MOL
REMARK 924 INTRA-LIGAND FREE ENERGY PREDICTED BY IDOCK:    0.07 KCAL/MOL
REMARK 927      BINDING AFFINITY PREDICTED BY RF-SCORE:    0.00 PKD
ROOT
HETATM    1  N   UNL     1      -8.735   3.722  73.261  1.00  0.00    -0.087 N  
HETATM    2  S   UNL     1     -10.288   3.705  72.633  1.00  0.00    -0.112 S  
HETATM    3  H1  UNL     1      -8.665   4.554  73.846  1.00  0.00     0.000 HD 
HETATM    4  H2  UNL     1      -8.001   3.034  73.090  1.00  0.00     0.000 HD 
HETATM    5  O   UNL     1     -11.176   3.954  73.744  1.00  0.00    -0.226 OA 
HETATM    6  O   UNL     1     -10.387   2.528  71.805  1.00  0.00    -0.037 OA 
ENDROOT
BRANCH   2   7
HETATM    7  C   UNL     1     -10.261   5.137  71.594  1.00  0.00    -0.212 A  
HETATM    8  C   UNL     1     -10.142   5.003  70.211  1.00  0.00    -0.339 A  
HETATM    9  C   UNL     1     -10.130   6.155  69.403  1.00  0.00    -0.184 A  
HETATM   10 CL   UNL     1     -10.524   9.060  72.182  1.00  0.00    -0.330 Cl 
HETATM   11  C   UNL     1     -10.242   7.433  69.972  1.00  0.00    -0.209 A  
HETATM   12  C   UNL     1     -10.388   6.396  72.176  1.00  0.00    -0.213 A  
HETATM   13 CL   UNL     1     -10.241   8.877  69.011  1.00  0.00    -0.209 Cl 
HETATM   14  C   UNL     1     -10.374   7.538  71.370  1.00  0.00    -0.194 A  
BRANCH   9  15
HETATM   15  S   UNL     1      -9.941   5.931  67.660  1.00  0.00    -0.153 S  
HETATM   16  O   UNL     1      -9.865   4.522  67.368  1.00  0.00    -0.182 OA 
HETATM   17  H2  UNL     1      -7.788   7.035  68.006  1.00  0.00     0.000 HD 
HETATM   18  H1  UNL     1      -8.327   6.472  66.343  1.00  0.00     0.000 HD 
HETATM   19  O   UNL     1     -10.879   6.798  66.979  1.00  0.00    -0.340 OA 
HETATM   20  N   UNL     1      -8.437   6.602  67.349  1.00  0.00    -0.120 N  
ENDBRANCH   9  15
ENDBRANCH   2   7
TORSDOF 2
ENDMDL
MODEL      159
REMARK 921   NORMALIZED FREE ENERGY PREDICTED BY IDOCK:   -2.73 KCAL/MOL
REMARK 922        TOTAL FREE ENERGY PREDICTED BY IDOCK:   -3.02 KCAL/MOL
REMARK 923 INTER-LIGAND FREE ENERGY PREDICTED BY IDOCK:   -2.81 KCAL/MOL
REMARK 924 INTRA-LIGAND FREE ENERGY PREDICTED BY IDOCK:   -0.21 KCAL/MOL
REMARK 927      BINDING AFFINITY PREDICTED BY RF-SCORE:    0.00 PKD
ROOT
HETATM    1  N   UNL     1      -9.698   2.994  66.731  1.00  0.00    -0.395 N  
HETATM    2  S   UNL     1      -8.825   3.145  68.154  1.00  0.00    -0.140 S  
HETATM    3  H1  UNL     1      -9.294   3.657  66.069  1.00  0.00     0.000 HD 
HETATM    4  H2  UNL     1     -10.481   2.364  66.560  1.00  0.00     0.000 HD 
HETATM    5  O   UNL     1      -7.432   3.122  67.778  1.00  0.00    -0.054 OA 
HETATM    6  O   UNL     1      -9.397   2.208  69.090  1.00  0.00    -0.130 OA 
ENDROOT
BRANCH   2   7
HETATM    7  C   UNL     1      -9.253   4.788  68.653  1.00  0.00    -0.124 A  
HETATM    8  C   UNL     1      -8.876   5.883  67.875  1.00  0.00    -0.105 A  
HETATM    9  C   UNL     1      -9.233   7.180  68.287  1.00  0.00    -0.132 A  
HETATM   10 CL   UNL     1     -11.252   6.386  71.695  1.00  0.00    -0.311 Cl 
HETATM   11  C   UNL     1      -9.966   7.383  69.467  1.00  0.00    -0.179 A  
HETATM   12  C   UNL     1      -9.993   4.968  69.820  1.00  0.00    -0.319 A  
HETATM   13 CL   UNL     1     -10.433   8.964  70.006  1.00  0.00    -0.215 Cl 
HETATM   14  C   UNL     1     -10.344   6.259  70.227  1.00  0.00    -0.205 A  
BRANCH   9  15
HETATM   15  S   UNL     1      -8.700   8.534  67.285  1.00  0.00    -0.130 S  
HETATM   16  O   UNL     1      -9.854   9.213  66.751  1.00  0.00    -0.187 OA 
HETATM   17  H2  UNL     1      -7.775   6.783  65.852  1.00  0.00     0.000 HD 
HETATM   18  H1  UNL     1      -7.606   8.563  65.432  1.00  0.00     0.000 HD 
HETATM   19  O   UNL     1      -7.658   9.249  67.991  1.00  0.00    -0.084 OA 
HETATM   20  N   UNL     1      -7.913   7.781  66.011  1.00  0.00    -0.103 N  
ENDBRANCH   9  15
ENDBRANCH   2   7
TORSDOF 2
ENDMDL
MODEL      160
REMARK 921   NORMALIZED FREE ENERGY PREDICTED BY IDOCK:   -2.70 KCAL/MOL
REMARK 922        TOTAL FREE ENERGY PREDICTED BY IDOCK:   -2.98 KCAL/MOL
REMARK 923 INTER-LIGAND FREE ENERGY PREDICTED BY IDOCK:   -3.00 KCAL/MOL
REMARK 924 INTRA-LIGAND FREE ENERGY PREDICTED BY IDOCK:    0.02 KCAL/MOL
REMARK 927      BINDING AFFINITY PREDICTED BY RF-SCORE:    0.00 PKD
ROOT
HETATM    1  N   UNL     1      -7.410   8.151  66.735  1.00  0.00    -0.082 N  
HETATM    2  S   UNL     1      -7.167   9.561  67.605  1.00  0.00    -0.082 S  
HETATM    3  H1  UNL     1      -7.334   8.399  65.749  1.00  0.00     0.000 HD 
HETATM    4  H2  UNL     1      -7.599   7.224  67.117  1.00  0.00     0.000 HD 
HETATM    5  O   UNL     1      -5.992  10.185  67.046  1.00  0.00    -0.050 OA 
HETATM    6  O   UNL     1      -7.276   9.211  69.001  1.00  0.00    -0.069 OA 
ENDROOT
BRANCH   2   7
HETATM    7  C   UNL     1      -8.589  10.508  67.140  1.00  0.00    -0.127 A  
HETATM    8  C   UNL     1      -8.998  10.558  65.808  1.00  0.00    -0.199 A  
HETATM    9  C   UNL     1     -10.135  11.310  65.461  1.00  0.00    -0.257 A  
HETATM   10 CL   UNL     1     -11.254  12.738  69.070  1.00  0.00    -0.312 Cl 
HETATM   11  C   UNL     1     -10.863  12.006  66.440  1.00  0.00    -0.278 A  
HETATM   12  C   UNL     1      -9.306  11.179  68.128  1.00  0.00    -0.176 A  
HETATM   13 CL   UNL     1     -12.274  12.937  66.056  1.00  0.00    -0.481 Cl 
HETATM   14  C   UNL     1     -10.434  11.928  67.778  1.00  0.00    -0.202 A  
BRANCH   9  15
HETATM   15  S   UNL     1     -10.590  11.369  63.754  1.00  0.00    -0.419 S  
HETATM   16  O   UNL     1     -12.019  11.227  63.638  1.00  0.00    -0.044 OA 
HETATM   17  H2  UNL     1      -9.326   9.282  63.604  1.00  0.00     0.000 HD 
HETATM   18  H1  UNL     1     -10.147  10.021  62.137  1.00  0.00     0.000 HD 
HETATM   19  O   UNL     1      -9.882  12.465  63.126  1.00  0.00    -0.314 OA 
HETATM   20  N   UNL     1      -9.884   9.987  63.121  1.00  0.00     0.092 N  
ENDBRANCH   9  15
ENDBRANCH   2   7
TORSDOF 2
ENDMDL
MODEL      161
REMARK 921   NORMALIZED FREE ENERGY PREDICTED BY IDOCK:   -2.67 KCAL/MOL
REMARK 922        TOTAL FREE ENERGY PREDICTED BY IDOCK:   -2.95 KCAL/MOL
REMARK 923 INTER-LIGAND FREE ENERGY PREDICTED BY IDOCK:   -2.79 KCAL/MOL
REMARK 924 INTRA-LIGAND FREE ENERGY PREDICTED BY IDOCK:   -0.16 KCAL/MOL
REMARK 927      BINDING AFFINITY PREDICTED BY RF-SCORE:    0.00 PKD
ROOT
HETATM    1  N   UNL     1     -11.677  13.758  71.843  1.00  0.00     0.401 N  
HETATM    2  S   UNL     1     -12.621  14.787  70.918  1.00  0.00    -0.363 S  
HETATM    3  H1  UNL     1     -10.906  14.318  72.210  1.00  0.00     0.000 HD 
HETATM    4  H2  UNL     1     -11.840  12.765  72.009  1.00  0.00     0.000 HD 
HETATM    5  O   UNL     1     -12.827  15.973  71.714  1.00  0.00    -0.444 OA 
HETATM    6  O   UNL     1     -13.710  13.996  70.400  1.00  0.00     0.387 OA 
ENDROOT
BRANCH   2   7
HETATM    7  C   UNL     1     -11.515  15.178  69.592  1.00  0.00    -0.293 A  
HETATM    8  C   UNL     1     -10.629  14.217  69.106  1.00  0.00    -0.201 A  
HETATM    9  C   UNL     1      -9.765  14.547  68.046  1.00  0.00    -0.218 A  
HETATM   10 CL   UNL     1     -10.822  18.382  67.343  1.00  0.00    -0.387 Cl 
HETATM   11  C   UNL     1      -9.787  15.828  67.472  1.00  0.00    -0.229 A  
HETATM   12  C   UNL     1     -11.563  16.450  69.026  1.00  0.00    -0.143 A  
HETATM   13 CL   UNL     1      -8.744  16.273  66.159  1.00  0.00    -0.367 Cl 
HETATM   14  C   UNL     1     -10.700  16.775  67.975  1.00  0.00    -0.355 A  
BRANCH   9  15
HETATM   15  S   UNL     1      -8.637  13.305  67.492  1.00  0.00    -0.213 S  
HETATM   16  O   UNL     1      -9.126  12.734  66.261  1.00  0.00    -0.155 OA 
HETATM   17  H2  UNL     1      -9.323  12.131  69.522  1.00  0.00     0.000 HD 
HETATM   18  H1  UNL     1      -8.096  11.412  68.360  1.00  0.00     0.000 HD 
HETATM   19  O   UNL     1      -7.289  13.821  67.605  1.00  0.00    -0.145 OA 
HETATM   20  N   UNL     1      -8.746  12.129  68.681  1.00  0.00    -0.061 N  
ENDBRANCH   9  15
ENDBRANCH   2   7
TORSDOF 2
ENDMDL
MODEL      162
REMARK 921   NORMALIZED FREE ENERGY PREDICTED BY IDOCK:   -2.64 KCAL/MOL
REMARK 922        TOTAL FREE ENERGY PREDICTED BY IDOCK:   -2.92 KCAL/MOL
REMARK 923 INTER-LIGAND FREE ENERGY PREDICTED BY IDOCK:   -2.73 KCAL/MOL
REMARK 924 INTRA-LIGAND FREE ENERGY PREDICTED BY IDOCK:   -0.19 KCAL/MOL
REMARK 927      BINDING AFFINITY PREDICTED BY RF-SCORE:    0.00 PKD
ROOT
HETATM    1  N   UNL     1      -8.543   9.811  67.892  1.00  0.00    -0.125 N  
HETATM    2  S   UNL     1      -9.908   9.131  67.199  1.00  0.00    -0.213 S  
HETATM    3  H1  UNL     1      -7.738   9.396  67.421  1.00  0.00     0.000 HD 
HETATM    4  H2  UNL     1      -8.519  10.504  68.639  1.00  0.00     0.000 HD 
HETATM    5  O   UNL     1      -9.717   9.205  65.770  1.00  0.00    -0.274 OA 
HETATM    6  O   UNL     1     -11.046   9.718  67.865  1.00  0.00    -0.236 OA 
ENDROOT
BRANCH   2   7
HETATM    7  C   UNL     1      -9.754   7.443  67.706  1.00  0.00    -0.143 A  
HETATM    8  C   UNL     1      -9.497   7.127  69.040  1.00  0.00    -0.143 A  
HETATM    9  C   UNL     1      -9.386   5.778  69.423  1.00  0.00    -0.126 A  
HETATM   10 CL   UNL     1     -10.018   3.913  65.896  1.00  0.00    -0.138 Cl 
HETATM   11  C   UNL     1      -9.537   4.749  68.480  1.00  0.00    -0.156 A  
HETATM   12  C   UNL     1      -9.922   6.435  66.759  1.00  0.00    -0.225 A  
HETATM   13 CL   UNL     1      -9.416   3.073  68.913  1.00  0.00    -0.223 Cl 
HETATM   14  C   UNL     1      -9.808   5.095  67.144  1.00  0.00    -0.170 A  
BRANCH   9  15
HETATM   15  S   UNL     1      -9.023   5.435  71.118  1.00  0.00    -0.142 S  
HETATM   16  O   UNL     1     -10.087   4.641  71.681  1.00  0.00    -0.188 OA 
HETATM   17  H2  UNL     1      -9.271   7.849  71.400  1.00  0.00     0.000 HD 
HETATM   18  H1  UNL     1      -8.867   6.749  72.814  1.00  0.00     0.000 HD 
HETATM   19  O   UNL     1      -7.638   5.026  71.220  1.00  0.00    -0.084 OA 
HETATM   20  N   UNL     1      -9.076   6.948  71.836  1.00  0.00    -0.141 N  
ENDBRANCH   9  15
ENDBRANCH   2   7
TORSDOF 2
ENDMDL
MODEL      163
REMARK 921   NORMALIZED FREE ENERGY PREDICTED BY IDOCK:   -2.60 KCAL/MOL
REMARK 922        TOTAL FREE ENERGY PREDICTED BY IDOCK:   -2.87 KCAL/MOL
REMARK 923 INTER-LIGAND FREE ENERGY PREDICTED BY IDOCK:   -3.06 KCAL/MOL
REMARK 924 INTRA-LIGAND FREE ENERGY PREDICTED BY IDOCK:    0.19 KCAL/MOL
REMARK 927      BINDING AFFINITY PREDICTED BY RF-SCORE:    0.00 PKD
ROOT
HETATM    1  N   UNL     1      -9.353   5.815  73.569  1.00  0.00    -0.134 N  
HETATM    2  S   UNL     1      -9.667   4.558  72.507  1.00  0.00    -0.157 S  
HETATM    3  H1  UNL     1     -10.188   6.402  73.581  1.00  0.00     0.000 HD 
HETATM    4  H2  UNL     1      -8.496   5.966  74.099  1.00  0.00     0.000 HD 
HETATM    5  O   UNL     1     -10.972   4.051  72.854  1.00  0.00    -0.145 OA 
HETATM    6  O   UNL     1      -8.486   3.728  72.489  1.00  0.00    -0.088 OA 
ENDROOT
BRANCH   2   7
HETATM    7  C   UNL     1      -9.784   5.422  70.967  1.00  0.00    -0.179 A  
HETATM    8  C   UNL     1      -9.799   6.816  70.939  1.00  0.00    -0.197 A  
HETATM    9  C   UNL     1      -9.885   7.483  69.703  1.00  0.00    -0.180 A  
HETATM   10 CL   UNL     1      -9.990   4.362  67.141  1.00  0.00    -0.213 Cl 
HETATM   11  C   UNL     1      -9.950   6.761  68.501  1.00  0.00    -0.149 A  
HETATM   12  C   UNL     1      -9.832   4.689  69.783  1.00  0.00    -0.296 A  
HETATM   13 CL   UNL     1     -10.048   7.544  66.956  1.00  0.00    -0.305 Cl 
HETATM   14  C   UNL     1      -9.920   5.355  68.557  1.00  0.00    -0.164 A  
BRANCH   9  15
HETATM   15  S   UNL     1      -9.937   9.249  69.727  1.00  0.00    -0.213 S  
HETATM   16  O   UNL     1     -10.703   9.717  68.599  1.00  0.00    -0.220 OA 
HETATM   17  H2  UNL     1      -7.529   9.075  69.343  1.00  0.00     0.000 HD 
HETATM   18  H1  UNL     1      -8.368  10.703  69.490  1.00  0.00     0.000 HD 
HETATM   19  O   UNL     1     -10.230   9.684  71.076  1.00  0.00    -0.288 OA 
HETATM   20  N   UNL     1      -8.338   9.683  69.477  1.00  0.00    -0.137 N  
ENDBRANCH   9  15
ENDBRANCH   2   7
TORSDOF 2
ENDMDL
MODEL      164
REMARK 921   NORMALIZED FREE ENERGY PREDICTED BY IDOCK:   -2.57 KCAL/MOL
REMARK 922        TOTAL FREE ENERGY PREDICTED BY IDOCK:   -2.84 KCAL/MOL
REMARK 923 INTER-LIGAND FREE ENERGY PREDICTED BY IDOCK:   -2.90 KCAL/MOL
REMARK 924 INTRA-LIGAND FREE ENERGY PREDICTED BY IDOCK:    0.06 KCAL/MOL
REMARK 927      BINDING AFFINITY PREDICTED BY RF-SCORE:    0.00 PKD
ROOT
HETATM    1  N   UNL     1      -9.699   4.617  69.761  1.00  0.00    -0.193 N  
HETATM    2  S   UNL     1     -10.098   6.194  70.161  1.00  0.00    -0.194 S  
HETATM    3  H1  UNL     1      -8.690   4.600  69.612  1.00  0.00     0.000 HD 
HETATM    4  H2  UNL     1     -10.339   3.828  69.682  1.00  0.00     0.000 HD 
HETATM    5  O   UNL     1      -9.152   6.608  71.169  1.00  0.00    -0.151 OA 
HETATM    6  O   UNL     1     -11.525   6.219  70.372  1.00  0.00    -0.364 OA 
ENDROOT
BRANCH   2   7
HETATM    7  C   UNL     1      -9.726   7.042  68.652  1.00  0.00    -0.139 A  
HETATM    8  C   UNL     1      -9.808   8.433  68.585  1.00  0.00    -0.180 A  
HETATM    9  C   UNL     1      -9.501   9.087  67.378  1.00  0.00    -0.144 A  
HETATM   10 CL   UNL     1      -8.547   5.952  65.016  1.00  0.00    -0.109 Cl 
HETATM   11  C   UNL     1      -9.109   8.356  66.245  1.00  0.00    -0.194 A  
HETATM   12  C   UNL     1      -9.325   6.301  67.542  1.00  0.00    -0.113 A  
HETATM   13 CL   UNL     1      -8.714   9.124  64.740  1.00  0.00    -0.211 Cl 
HETATM   14  C   UNL     1      -9.023   6.955  66.344  1.00  0.00    -0.153 A  
BRANCH   9  15
HETATM   15  S   UNL     1      -9.655  10.846  67.337  1.00  0.00    -0.164 S  
HETATM   16  O   UNL     1     -10.138  11.311  68.614  1.00  0.00    -0.197 OA 
HETATM   17  H2  UNL     1     -11.389  10.405  65.672  1.00  0.00     0.000 HD 
HETATM   18  H1  UNL     1     -10.956  12.115  66.184  1.00  0.00     0.000 HD 
HETATM   19  O   UNL     1      -8.463  11.400  66.730  1.00  0.00    -0.154 OA 
HETATM   20  N   UNL     1     -10.866  11.099  66.207  1.00  0.00    -0.242 N  
ENDBRANCH   9  15
ENDBRANCH   2   7
TORSDOF 2
ENDMDL
MODEL      165
REMARK 921   NORMALIZED FREE ENERGY PREDICTED BY IDOCK:   -2.56 KCAL/MOL
REMARK 922        TOTAL FREE ENERGY PREDICTED BY IDOCK:   -2.83 KCAL/MOL
REMARK 923 INTER-LIGAND FREE ENERGY PREDICTED BY IDOCK:   -2.66 KCAL/MOL
REMARK 924 INTRA-LIGAND FREE ENERGY PREDICTED BY IDOCK:   -0.18 KCAL/MOL
REMARK 927      BINDING AFFINITY PREDICTED BY RF-SCORE:    0.00 PKD
ROOT
HETATM    1  N   UNL     1      -7.309   8.776  70.979  1.00  0.00    -0.082 N  
HETATM    2  S   UNL     1      -8.728   8.181  71.642  1.00  0.00    -0.160 S  
HETATM    3  H1  UNL     1      -7.529   9.061  70.025  1.00  0.00     0.000 HD 
HETATM    4  H2  UNL     1      -6.401   8.841  71.440  1.00  0.00     0.000 HD 
HETATM    5  O   UNL     1      -9.755   9.146  71.332  1.00  0.00    -0.295 OA 
HETATM    6  O   UNL     1      -8.416   7.778  72.992  1.00  0.00    -0.126 OA 
ENDROOT
BRANCH   2   7
HETATM    7  C   UNL     1      -8.993   6.734  70.658  1.00  0.00    -0.151 A  
HETATM    8  C   UNL     1      -9.101   6.834  69.271  1.00  0.00    -0.139 A  
HETATM    9  C   UNL     1      -9.304   5.669  68.508  1.00  0.00    -0.123 A  
HETATM   10 CL   UNL     1      -9.354   2.844  71.395  1.00  0.00    -0.192 Cl 
HETATM   11  C   UNL     1      -9.393   4.412  69.125  1.00  0.00    -0.155 A  
HETATM   12  C   UNL     1      -9.063   5.493  71.288  1.00  0.00    -0.158 A  
HETATM   13 CL   UNL     1      -9.634   2.952  68.220  1.00  0.00    -0.203 Cl 
HETATM   14  C   UNL     1      -9.267   4.339  70.525  1.00  0.00    -0.122 A  
BRANCH   9  15
HETATM   15  S   UNL     1      -9.471   5.855  66.759  1.00  0.00    -0.147 S  
HETATM   16  O   UNL     1      -8.252   5.431  66.117  1.00  0.00    -0.108 OA 
HETATM   17  H2  UNL     1      -9.594   8.241  67.276  1.00  0.00     0.000 HD 
HETATM   18  H1  UNL     1      -9.702   7.621  65.551  1.00  0.00     0.000 HD 
HETATM   19  O   UNL     1     -10.760   5.330  66.360  1.00  0.00    -0.307 OA 
HETATM   20  N   UNL     1      -9.606   7.514  66.560  1.00  0.00    -0.190 N  
ENDBRANCH   9  15
ENDBRANCH   2   7
TORSDOF 2
ENDMDL
MODEL      166
REMARK 921   NORMALIZED FREE ENERGY PREDICTED BY IDOCK:   -2.44 KCAL/MOL
REMARK 922        TOTAL FREE ENERGY PREDICTED BY IDOCK:   -2.69 KCAL/MOL
REMARK 923 INTER-LIGAND FREE ENERGY PREDICTED BY IDOCK:   -2.53 KCAL/MOL
REMARK 924 INTRA-LIGAND FREE ENERGY PREDICTED BY IDOCK:   -0.16 KCAL/MOL
REMARK 927      BINDING AFFINITY PREDICTED BY RF-SCORE:    0.00 PKD
ROOT
HETATM    1  N   UNL     1      -8.112   8.766  67.073  1.00  0.00    -0.099 N  
HETATM    2  S   UNL     1      -9.593   8.017  67.302  1.00  0.00    -0.176 S  
HETATM    3  H1  UNL     1      -7.397   8.085  67.328  1.00  0.00     0.000 HD 
HETATM    4  H2  UNL     1      -7.956   9.719  66.744  1.00  0.00     0.000 HD 
HETATM    5  O   UNL     1      -9.491   6.720  66.676  1.00  0.00    -0.159 OA 
HETATM    6  O   UNL     1     -10.604   8.980  66.942  1.00  0.00    -0.248 OA 
ENDROOT
BRANCH   2   7
HETATM    7  C   UNL     1      -9.606   7.800  69.059  1.00  0.00    -0.155 A  
HETATM    8  C   UNL     1      -8.413   7.614  69.756  1.00  0.00    -0.134 A  
HETATM    9  C   UNL     1      -8.447   7.451  71.153  1.00  0.00    -0.118 A  
HETATM   10 CL   UNL     1     -12.410   7.737  71.876  1.00  0.00    -0.326 Cl 
HETATM   11  C   UNL     1      -9.665   7.478  71.851  1.00  0.00    -0.159 A  
HETATM   12  C   UNL     1     -10.824   7.845  69.735  1.00  0.00    -0.202 A  
HETATM   13 CL   UNL     1      -9.749   7.290  73.573  1.00  0.00    -0.283 Cl 
HETATM   14  C   UNL     1     -10.852   7.680  71.123  1.00  0.00    -0.235 A  
BRANCH   9  15
HETATM   15  S   UNL     1      -6.910   7.184  71.984  1.00  0.00    -0.056 S  
HETATM   16  O   UNL     1      -6.737   8.192  72.999  1.00  0.00    -0.085 OA 
HETATM   17  H2  UNL     1      -5.929   7.721  69.811  1.00  0.00     0.000 HD 
HETATM   18  H1  UNL     1      -4.886   7.307  71.265  1.00  0.00     0.000 HD 
HETATM   19  O   UNL     1      -6.790   5.773  72.287  1.00  0.00    -0.069 OA 
HETATM   20  N   UNL     1      -5.772   7.461  70.785  1.00  0.00    -0.027 N  
ENDBRANCH   9  15
ENDBRANCH   2   7
TORSDOF 2
ENDMDL
MODEL      167
REMARK 921   NORMALIZED FREE ENERGY PREDICTED BY IDOCK:   -2.43 KCAL/MOL
REMARK 922        TOTAL FREE ENERGY PREDICTED BY IDOCK:   -2.68 KCAL/MOL
REMARK 923 INTER-LIGAND FREE ENERGY PREDICTED BY IDOCK:   -3.37 KCAL/MOL
REMARK 924 INTRA-LIGAND FREE ENERGY PREDICTED BY IDOCK:    0.69 KCAL/MOL
REMARK 927      BINDING AFFINITY PREDICTED BY RF-SCORE:    0.00 PKD
ROOT
HETATM    1  N   UNL     1      -9.539   3.032  66.878  1.00  0.00    -0.410 N  
HETATM    2  S   UNL     1      -9.055   2.731  68.453  1.00  0.00    -0.183 S  
HETATM    3  H1  UNL     1      -8.995   3.831  66.552  1.00  0.00     0.000 HD 
HETATM    4  H2  UNL     1     -10.242   2.517  66.348  1.00  0.00     0.000 HD 
HETATM    5  O   UNL     1      -7.612   2.740  68.442  1.00  0.00    -0.051 OA 
HETATM    6  O   UNL     1      -9.825   1.602  68.915  1.00  0.00    -0.051 OA 
ENDROOT
BRANCH   2   7
HETATM    7  C   UNL     1      -9.625   4.190  69.279  1.00  0.00    -0.186 A  
HETATM    8  C   UNL     1      -9.729   4.219  70.669  1.00  0.00    -0.274 A  
HETATM    9  C   UNL     1     -10.177   5.391  71.305  1.00  0.00    -0.223 A  
HETATM   10 CL   UNL     1     -10.771   7.819  68.132  1.00  0.00    -0.169 Cl 
HETATM   11  C   UNL     1     -10.515   6.530  70.557  1.00  0.00    -0.207 A  
HETATM   12  C   UNL     1      -9.942   5.315  68.520  1.00  0.00    -0.227 A  
HETATM   13 CL   UNL     1     -11.063   7.997  71.302  1.00  0.00    -0.268 Cl 
HETATM   14  C   UNL     1     -10.389   6.477  69.156  1.00  0.00    -0.193 A  
BRANCH   9  15
HETATM   15  S   UNL     1     -10.324   5.363  73.066  1.00  0.00    -0.213 S  
HETATM   16  O   UNL     1     -11.649   4.921  73.425  1.00  0.00    -0.313 OA 
HETATM   17  H2  UNL     1     -10.056   7.785  72.877  1.00  0.00     0.000 HD 
HETATM   18  H1  UNL     1     -10.276   6.963  74.504  1.00  0.00     0.000 HD 
HETATM   19  O   UNL     1      -9.141   4.738  73.618  1.00  0.00    -0.110 OA 
HETATM   20  N   UNL     1     -10.190   6.979  73.488  1.00  0.00    -0.296 N  
ENDBRANCH   9  15
ENDBRANCH   2   7
TORSDOF 2
ENDMDL
MODEL      168
REMARK 921   NORMALIZED FREE ENERGY PREDICTED BY IDOCK:   -2.33 KCAL/MOL
REMARK 922        TOTAL FREE ENERGY PREDICTED BY IDOCK:   -2.57 KCAL/MOL
REMARK 923 INTER-LIGAND FREE ENERGY PREDICTED BY IDOCK:   -2.78 KCAL/MOL
REMARK 924 INTRA-LIGAND FREE ENERGY PREDICTED BY IDOCK:    0.20 KCAL/MOL
REMARK 927      BINDING AFFINITY PREDICTED BY RF-SCORE:    0.00 PKD
ROOT
HETATM    1  N   UNL     1      -8.367   7.831  67.874  1.00  0.00    -0.122 N  
HETATM    2  S   UNL     1      -7.485   9.217  68.205  1.00  0.00    -0.084 S  
HETATM    3  H1  UNL     1      -8.836   7.989  66.982  1.00  0.00     0.000 HD 
HETATM    4  H2  UNL     1      -8.424   6.993  68.452  1.00  0.00     0.000 HD 
HETATM    5  O   UNL     1      -6.771   9.541  66.993  1.00  0.00    -0.070 OA 
HETATM    6  O   UNL     1      -6.822   8.994  69.466  1.00  0.00    -0.046 OA 
ENDROOT
BRANCH   2   7
HETATM    7  C   UNL     1      -8.776  10.405  68.438  1.00  0.00    -0.129 A  
HETATM    8  C   UNL     1      -9.835  10.136  69.305  1.00  0.00    -0.235 A  
HETATM    9  C   UNL     1     -10.846  11.097  69.481  1.00  0.00    -0.188 A  
HETATM   10 CL   UNL     1      -9.545  14.050  67.052  1.00  0.00    -0.244 Cl 
HETATM   11  C   UNL     1     -10.799  12.324  68.799  1.00  0.00    -0.229 A  
HETATM   12  C   UNL     1      -8.704  11.622  67.764  1.00  0.00    -0.152 A  
HETATM   13 CL   UNL     1     -12.021  13.539  68.995  1.00  0.00    -0.378 Cl 
HETATM   14  C   UNL     1      -9.713  12.574  67.940  1.00  0.00    -0.205 A  
BRANCH   9  15
HETATM   15  S   UNL     1     -12.183  10.691  70.563  1.00  0.00    -0.388 S  
HETATM   16  O   UNL     1     -13.384  10.506  69.787  1.00  0.00     0.092 OA 
HETATM   17  H2  UNL     1     -11.845  12.954  71.422  1.00  0.00     0.000 HD 
HETATM   18  H1  UNL     1     -13.145  11.849  72.101  1.00  0.00     0.000 HD 
HETATM   19  O   UNL     1     -11.727   9.691  71.505  1.00  0.00    -0.371 OA 
HETATM   20  N   UNL     1     -12.374  12.083  71.477  1.00  0.00    -0.027 N  
ENDBRANCH   9  15
ENDBRANCH   2   7
TORSDOF 2
ENDMDL
MODEL      169
REMARK 921   NORMALIZED FREE ENERGY PREDICTED BY IDOCK:   -2.32 KCAL/MOL
REMARK 922        TOTAL FREE ENERGY PREDICTED BY IDOCK:   -2.56 KCAL/MOL
REMARK 923 INTER-LIGAND FREE ENERGY PREDICTED BY IDOCK:   -2.45 KCAL/MOL
REMARK 924 INTRA-LIGAND FREE ENERGY PREDICTED BY IDOCK:   -0.11 KCAL/MOL
REMARK 927      BINDING AFFINITY PREDICTED BY RF-SCORE:    0.00 PKD
ROOT
HETATM    1  N   UNL     1      -8.344   7.386  67.923  1.00  0.00    -0.119 N  
HETATM    2  S   UNL     1      -8.418   5.718  67.792  1.00  0.00    -0.101 S  
HETATM    3  H1  UNL     1      -7.514   7.599  68.478  1.00  0.00     0.000 HD 
HETATM    4  H2  UNL     1      -9.000   8.059  67.527  1.00  0.00     0.000 HD 
HETATM    5  O   UNL     1      -7.095   5.282  67.416  1.00  0.00    -0.064 OA 
HETATM    6  O   UNL     1      -9.591   5.416  67.009  1.00  0.00    -0.125 OA 
ENDROOT
BRANCH   2   7
HETATM    7  C   UNL     1      -8.715   5.248  69.473  1.00  0.00    -0.104 A  
HETATM    8  C   UNL     1      -9.756   5.831  70.195  1.00  0.00    -0.219 A  
HETATM    9  C   UNL     1      -9.979   5.437  71.527  1.00  0.00    -0.181 A  
HETATM   10 CL   UNL     1      -7.078   2.670  72.017  1.00  0.00    -0.037 Cl 
HETATM   11  C   UNL     1      -9.170   4.463  72.134  1.00  0.00    -0.127 A  
HETATM   12  C   UNL     1      -7.911   4.269  70.053  1.00  0.00    -0.055 A  
HETATM   13 CL   UNL     1      -9.417   3.944  73.770  1.00  0.00    -0.112 Cl 
HETATM   14  C   UNL     1      -8.135   3.883  71.378  1.00  0.00    -0.069 A  
BRANCH   9  15
HETATM   15  S   UNL     1     -11.288   6.233  72.408  1.00  0.00    -0.289 S  
HETATM   16  O   UNL     1     -12.149   5.231  72.987  1.00  0.00    -0.163 OA 
HETATM   17  H2  UNL     1     -11.961   7.023  70.196  1.00  0.00     0.000 HD 
HETATM   18  H1  UNL     1     -12.903   7.469  71.707  1.00  0.00     0.000 HD 
HETATM   19  O   UNL     1     -10.724   7.301  73.206  1.00  0.00    -0.334 OA 
HETATM   20  N   UNL     1     -12.148   7.011  71.199  1.00  0.00    -0.352 N  
ENDBRANCH   9  15
ENDBRANCH   2   7
TORSDOF 2
ENDMDL
MODEL      170
REMARK 921   NORMALIZED FREE ENERGY PREDICTED BY IDOCK:   -2.31 KCAL/MOL
REMARK 922        TOTAL FREE ENERGY PREDICTED BY IDOCK:   -2.55 KCAL/MOL
REMARK 923 INTER-LIGAND FREE ENERGY PREDICTED BY IDOCK:   -2.69 KCAL/MOL
REMARK 924 INTRA-LIGAND FREE ENERGY PREDICTED BY IDOCK:    0.14 KCAL/MOL
REMARK 927      BINDING AFFINITY PREDICTED BY RF-SCORE:    0.00 PKD
ROOT
HETATM    1  N   UNL     1      -7.095   5.498  73.795  1.00  0.00    -0.085 N  
HETATM    2  S   UNL     1      -7.208   4.597  72.388  1.00  0.00    -0.082 S  
HETATM    3  H1  UNL     1      -8.041   5.583  74.165  1.00  0.00     0.000 HD 
HETATM    4  H2  UNL     1      -6.245   5.888  74.203  1.00  0.00     0.000 HD 
HETATM    5  O   UNL     1      -8.027   3.452  72.705  1.00  0.00    -0.066 OA 
HETATM    6  O   UNL     1      -5.869   4.478  71.864  1.00  0.00    -0.011 OA 
ENDROOT
BRANCH   2   7
HETATM    7  C   UNL     1      -8.135   5.688  71.348  1.00  0.00    -0.118 A  
HETATM    8  C   UNL     1      -9.265   6.341  71.839  1.00  0.00    -0.147 A  
HETATM    9  C   UNL     1      -9.983   7.210  70.998  1.00  0.00    -0.188 A  
HETATM   10 CL   UNL     1      -7.818   6.965  67.596  1.00  0.00    -0.111 Cl 
HETATM   11  C   UNL     1      -9.573   7.430  69.673  1.00  0.00    -0.156 A  
HETATM   12  C   UNL     1      -7.704   5.905  70.041  1.00  0.00    -0.088 A  
HETATM   13 CL   UNL     1     -10.424   8.499  68.606  1.00  0.00    -0.221 Cl 
HETATM   14  C   UNL     1      -8.422   6.767  69.207  1.00  0.00    -0.129 A  
BRANCH   9  15
HETATM   15  S   UNL     1     -11.427   7.984  71.659  1.00  0.00    -0.281 S  
HETATM   16  O   UNL     1     -12.591   7.492  70.965  1.00  0.00    -0.281 OA 
HETATM   17  H2  UNL     1     -10.454  10.025  70.732  1.00  0.00     0.000 HD 
HETATM   18  H1  UNL     1     -12.058  10.041  71.625  1.00  0.00     0.000 HD 
HETATM   19  O   UNL     1     -11.341   7.963  73.105  1.00  0.00    -0.361 OA 
HETATM   20  N   UNL     1     -11.225   9.594  71.243  1.00  0.00    -0.370 N  
ENDBRANCH   9  15
ENDBRANCH   2   7
TORSDOF 2
ENDMDL
MODEL      171
REMARK 921   NORMALIZED FREE ENERGY PREDICTED BY IDOCK:   -2.30 KCAL/MOL
REMARK 922        TOTAL FREE ENERGY PREDICTED BY IDOCK:   -2.54 KCAL/MOL
REMARK 923 INTER-LIGAND FREE ENERGY PREDICTED BY IDOCK:   -2.61 KCAL/MOL
REMARK 924 INTRA-LIGAND FREE ENERGY PREDICTED BY IDOCK:    0.06 KCAL/MOL
REMARK 927      BINDING AFFINITY PREDICTED BY RF-SCORE:    0.00 PKD
ROOT
HETATM    1  N   UNL     1      -6.321   6.354  64.744  1.00  0.00    -0.033 N  
HETATM    2  S   UNL     1      -7.914   6.458  64.238  1.00  0.00    -0.069 S  
HETATM    3  H1  UNL     1      -6.307   5.715  65.539  1.00  0.00     0.000 HD 
HETATM    4  H2  UNL     1      -5.520   6.836  64.337  1.00  0.00     0.000 HD 
HETATM    5  O   UNL     1      -8.403   5.102  64.158  1.00  0.00    -0.129 OA 
HETATM    6  O   UNL     1      -7.933   7.362  63.114  1.00  0.00    -0.135 OA 
ENDROOT
BRANCH   2   7
HETATM    7  C   UNL     1      -8.671   7.253  65.626  1.00  0.00    -0.070 A  
HETATM    8  C   UNL     1      -8.903   6.545  66.805  1.00  0.00    -0.130 A  
HETATM    9  C   UNL     1      -9.498   7.199  67.899  1.00  0.00    -0.130 A  
HETATM   10 CL   UNL     1      -9.992  10.920  66.407  1.00  0.00    -0.255 Cl 
HETATM   11  C   UNL     1      -9.856   8.554  67.818  1.00  0.00    -0.175 A  
HETATM   12  C   UNL     1      -9.006   8.602  65.532  1.00  0.00    -0.209 A  
HETATM   13 CL   UNL     1     -10.585   9.400  69.146  1.00  0.00    -0.232 Cl 
HETATM   14  C   UNL     1      -9.600   9.248  66.621  1.00  0.00    -0.204 A  
BRANCH   9  15
HETATM   15  S   UNL     1      -9.803   6.247  69.356  1.00  0.00    -0.157 S  
HETATM   16  O   UNL     1      -9.407   4.881  69.123  1.00  0.00    -0.111 OA 
HETATM   17  H2  UNL     1     -12.150   6.740  68.886  1.00  0.00     0.000 HD 
HETATM   18  H1  UNL     1     -11.648   5.731  70.336  1.00  0.00     0.000 HD 
HETATM   19  O   UNL     1      -9.322   6.991  70.502  1.00  0.00    -0.159 OA 
HETATM   20  N   UNL     1     -11.472   6.281  69.495  1.00  0.00    -0.411 N  
ENDBRANCH   9  15
ENDBRANCH   2   7
TORSDOF 2
ENDMDL
MODEL      172
REMARK 921   NORMALIZED FREE ENERGY PREDICTED BY IDOCK:   -2.30 KCAL/MOL
REMARK 922        TOTAL FREE ENERGY PREDICTED BY IDOCK:   -2.54 KCAL/MOL
REMARK 923 INTER-LIGAND FREE ENERGY PREDICTED BY IDOCK:   -2.33 KCAL/MOL
REMARK 924 INTRA-LIGAND FREE ENERGY PREDICTED BY IDOCK:   -0.20 KCAL/MOL
REMARK 927      BINDING AFFINITY PREDICTED BY RF-SCORE:    0.00 PKD
ROOT
HETATM    1  N   UNL     1      -9.945   4.417  63.476  1.00  0.00    -0.371 N  
HETATM    2  S   UNL     1      -8.890   4.299  64.772  1.00  0.00    -0.146 S  
HETATM    3  H1  UNL     1      -9.507   5.041  62.798  1.00  0.00     0.000 HD 
HETATM    4  H2  UNL     1     -10.849   3.955  63.383  1.00  0.00     0.000 HD 
HETATM    5  O   UNL     1      -7.584   4.049  64.209  1.00  0.00    -0.076 OA 
HETATM    6  O   UNL     1      -9.509   3.416  65.730  1.00  0.00    -0.164 OA 
ENDROOT
BRANCH   2   7
HETATM    7  C   UNL     1      -8.929   5.951  65.405  1.00  0.00    -0.002 A  
HETATM    8  C   UNL     1      -8.262   6.979  64.738  1.00  0.00    -0.048 A  
HETATM    9  C   UNL     1      -8.313   8.286  65.255  1.00  0.00    -0.166 A  
HETATM   10 CL   UNL     1     -10.622   7.742  68.525  1.00  0.00    -0.192 Cl 
HETATM   11  C   UNL     1      -9.030   8.568  66.429  1.00  0.00    -0.165 A  
HETATM   12  C   UNL     1      -9.658   6.214  66.563  1.00  0.00    -0.183 A  
HETATM   13 CL   UNL     1      -9.124  10.167  67.095  1.00  0.00    -0.146 Cl 
HETATM   14  C   UNL     1      -9.703   7.514  67.075  1.00  0.00    -0.198 A  
BRANCH   9  15
HETATM   15  S   UNL     1      -7.421   9.544  64.392  1.00  0.00    -0.124 S  
HETATM   16  O   UNL     1      -8.355  10.415  63.723  1.00  0.00    -0.171 OA 
HETATM   17  H2  UNL     1      -6.594   7.681  63.044  1.00  0.00     0.000 HD 
HETATM   18  H1  UNL     1      -6.074   9.412  62.719  1.00  0.00     0.000 HD 
HETATM   19  O   UNL     1      -6.393  10.065  65.268  1.00  0.00    -0.092 OA 
HETATM   20  N   UNL     1      -6.588   8.686  63.218  1.00  0.00    -0.089 N  
ENDBRANCH   9  15
ENDBRANCH   2   7
TORSDOF 2
ENDMDL
MODEL      173
REMARK 921   NORMALIZED FREE ENERGY PREDICTED BY IDOCK:   -2.27 KCAL/MOL
REMARK 922        TOTAL FREE ENERGY PREDICTED BY IDOCK:   -2.51 KCAL/MOL
REMARK 923 INTER-LIGAND FREE ENERGY PREDICTED BY IDOCK:   -2.29 KCAL/MOL
REMARK 924 INTRA-LIGAND FREE ENERGY PREDICTED BY IDOCK:   -0.22 KCAL/MOL
REMARK 927      BINDING AFFINITY PREDICTED BY RF-SCORE:    0.00 PKD
ROOT
HETATM    1  N   UNL     1      -7.070   6.706  71.898  1.00  0.00    -0.079 N  
HETATM    2  S   UNL     1      -8.358   5.673  72.179  1.00  0.00    -0.115 S  
HETATM    3  H1  UNL     1      -7.442   7.506  71.386  1.00  0.00     0.000 HD 
HETATM    4  H2  UNL     1      -6.101   6.564  72.184  1.00  0.00     0.000 HD 
HETATM    5  O   UNL     1      -9.432   6.493  72.685  1.00  0.00    -0.148 OA 
HETATM    6  O   UNL     1      -7.831   4.542  72.903  1.00  0.00    -0.085 OA 
ENDROOT
BRANCH   2   7
HETATM    7  C   UNL     1      -8.761   5.162  70.532  1.00  0.00    -0.119 A  
HETATM    8  C   UNL     1      -9.146   6.102  69.577  1.00  0.00    -0.140 A  
HETATM    9  C   UNL     1      -9.454   5.675  68.272  1.00  0.00    -0.114 A  
HETATM   10 CL   UNL     1      -8.830   1.697  68.586  1.00  0.00    -0.112 Cl 
HETATM   11  C   UNL     1      -9.374   4.318  67.922  1.00  0.00    -0.156 A  
HETATM   12  C   UNL     1      -8.660   3.813  70.200  1.00  0.00    -0.107 A  
HETATM   13 CL   UNL     1      -9.737   3.751  66.323  1.00  0.00    -0.179 Cl 
HETATM   14  C   UNL     1      -8.970   3.393  68.903  1.00  0.00    -0.128 A  
BRANCH   9  15
HETATM   15  S   UNL     1      -9.972   6.901  67.110  1.00  0.00    -0.202 S  
HETATM   16  O   UNL     1      -8.992   7.001  66.056  1.00  0.00    -0.158 OA 
HETATM   17  H2  UNL     1      -9.648   8.447  68.975  1.00  0.00     0.000 HD 
HETATM   18  H1  UNL     1     -10.214   9.028  67.328  1.00  0.00     0.000 HD 
HETATM   19  O   UNL     1     -11.377   6.701  66.823  1.00  0.00    -0.270 OA 
HETATM   20  N   UNL     1      -9.916   8.321  67.999  1.00  0.00    -0.177 N  
ENDBRANCH   9  15
ENDBRANCH   2   7
TORSDOF 2
ENDMDL
MODEL      174
REMARK 921   NORMALIZED FREE ENERGY PREDICTED BY IDOCK:   -2.26 KCAL/MOL
REMARK 922        TOTAL FREE ENERGY PREDICTED BY IDOCK:   -2.50 KCAL/MOL
REMARK 923 INTER-LIGAND FREE ENERGY PREDICTED BY IDOCK:   -2.52 KCAL/MOL
REMARK 924 INTRA-LIGAND FREE ENERGY PREDICTED BY IDOCK:    0.02 KCAL/MOL
REMARK 927      BINDING AFFINITY PREDICTED BY RF-SCORE:    0.00 PKD
ROOT
HETATM    1  N   UNL     1      -9.845   5.282  65.549  1.00  0.00    -0.371 N  
HETATM    2  S   UNL     1     -10.142   6.182  66.930  1.00  0.00    -0.200 S  
HETATM    3  H1  UNL     1      -8.874   4.974  65.603  1.00  0.00     0.000 HD 
HETATM    4  H2  UNL     1     -10.507   5.081  64.799  1.00  0.00     0.000 HD 
HETATM    5  O   UNL     1      -9.629   5.409  68.036  1.00  0.00    -0.117 OA 
HETATM    6  O   UNL     1     -11.515   6.618  66.853  1.00  0.00    -0.209 OA 
ENDROOT
BRANCH   2   7
HETATM    7  C   UNL     1      -9.083   7.577  66.672  1.00  0.00    -0.158 A  
HETATM    8  C   UNL     1      -9.436   8.832  67.166  1.00  0.00    -0.208 A  
HETATM    9  C   UNL     1      -8.575   9.925  66.956  1.00  0.00    -0.128 A  
HETATM   10 CL   UNL     1      -5.564   8.166  64.919  1.00  0.00    -0.043 Cl 
HETATM   11  C   UNL     1      -7.366   9.765  66.261  1.00  0.00    -0.099 A  
HETATM   12  C   UNL     1      -7.880   7.395  65.993  1.00  0.00    -0.102 A  
HETATM   13 CL   UNL     1      -6.274  11.084  65.988  1.00  0.00    -0.112 Cl 
HETATM   14  C   UNL     1      -7.029   8.484  65.784  1.00  0.00    -0.071 A  
BRANCH   9  15
HETATM   15  S   UNL     1      -9.087  11.501  67.571  1.00  0.00    -0.170 S  
HETATM   16  O   UNL     1      -9.105  12.451  66.488  1.00  0.00    -0.217 OA 
HETATM   17  H2  UNL     1      -6.996  11.408  68.833  1.00  0.00     0.000 HD 
HETATM   18  H1  UNL     1      -8.139  12.839  68.964  1.00  0.00     0.000 HD 
HETATM   19  O   UNL     1     -10.236  11.309  68.431  1.00  0.00    -0.181 OA 
HETATM   20  N   UNL     1      -7.844  11.930  68.610  1.00  0.00    -0.129 N  
ENDBRANCH   9  15
ENDBRANCH   2   7
TORSDOF 2
ENDMDL
MODEL      175
REMARK 921   NORMALIZED FREE ENERGY PREDICTED BY IDOCK:   -2.20 KCAL/MOL
REMARK 922        TOTAL FREE ENERGY PREDICTED BY IDOCK:   -2.42 KCAL/MOL
REMARK 923 INTER-LIGAND FREE ENERGY PREDICTED BY IDOCK:   -2.31 KCAL/MOL
REMARK 924 INTRA-LIGAND FREE ENERGY PREDICTED BY IDOCK:   -0.12 KCAL/MOL
REMARK 927      BINDING AFFINITY PREDICTED BY RF-SCORE:    0.00 PKD
ROOT
HETATM    1  N   UNL     1      -9.504   6.747  74.021  1.00  0.00    -0.205 N  
HETATM    2  S   UNL     1     -10.082   5.684  72.863  1.00  0.00    -0.182 S  
HETATM    3  H1  UNL     1     -10.220   7.463  74.144  1.00  0.00     0.000 HD 
HETATM    4  H2  UNL     1      -8.610   6.691  74.509  1.00  0.00     0.000 HD 
HETATM    5  O   UNL     1     -11.440   5.373  73.240  1.00  0.00    -0.268 OA 
HETATM    6  O   UNL     1      -9.069   4.671  72.689  1.00  0.00    -0.125 OA 
ENDROOT
BRANCH   2   7
HETATM    7  C   UNL     1     -10.113   6.716  71.426  1.00  0.00    -0.190 A  
HETATM    8  C   UNL     1     -10.852   7.899  71.422  1.00  0.00    -0.259 A  
HETATM    9  C   UNL     1     -10.857   8.708  70.272  1.00  0.00    -0.235 A  
HETATM   10 CL   UNL     1      -8.432   6.598  67.825  1.00  0.00    -0.122 Cl 
HETATM   11  C   UNL     1     -10.124   8.341  69.132  1.00  0.00    -0.202 A  
HETATM   12  C   UNL     1      -9.367   6.343  70.310  1.00  0.00    -0.165 A  
HETATM   13 CL   UNL     1     -10.097   9.315  67.697  1.00  0.00    -0.248 Cl 
HETATM   14  C   UNL     1      -9.377   7.149  69.167  1.00  0.00    -0.141 A  
BRANCH   9  15
HETATM   15  S   UNL     1     -11.838  10.177  70.308  1.00  0.00    -0.240 S  
HETATM   16  O   UNL     1     -11.022  11.303  69.928  1.00  0.00    -0.177 OA 
HETATM   17  H2  UNL     1     -11.952   9.743  72.710  1.00  0.00     0.000 HD 
HETATM   18  H1  UNL     1     -12.786  11.192  71.951  1.00  0.00     0.000 HD 
HETATM   19  O   UNL     1     -13.103   9.903  69.657  1.00  0.00     0.578 OA 
HETATM   20  N   UNL     1     -12.220  10.344  71.930  1.00  0.00    -0.126 N  
ENDBRANCH   9  15
ENDBRANCH   2   7
TORSDOF 2
ENDMDL
MODEL      176
REMARK 921   NORMALIZED FREE ENERGY PREDICTED BY IDOCK:   -2.20 KCAL/MOL
REMARK 922        TOTAL FREE ENERGY PREDICTED BY IDOCK:   -2.42 KCAL/MOL
REMARK 923 INTER-LIGAND FREE ENERGY PREDICTED BY IDOCK:   -2.20 KCAL/MOL
REMARK 924 INTRA-LIGAND FREE ENERGY PREDICTED BY IDOCK:   -0.22 KCAL/MOL
REMARK 927      BINDING AFFINITY PREDICTED BY RF-SCORE:    0.00 PKD
ROOT
HETATM    1  N   UNL     1      -6.340   5.697  64.752  1.00  0.00    -0.036 N  
HETATM    2  S   UNL     1      -7.987   5.986  64.638  1.00  0.00    -0.130 S  
HETATM    3  H1  UNL     1      -6.232   4.712  64.994  1.00  0.00     0.000 HD 
HETATM    4  H2  UNL     1      -5.592   6.375  64.608  1.00  0.00     0.000 HD 
HETATM    5  O   UNL     1      -8.529   4.919  63.831  1.00  0.00    -0.126 OA 
HETATM    6  O   UNL     1      -8.140   7.379  64.296  1.00  0.00    -0.129 OA 
ENDROOT
BRANCH   2   7
HETATM    7  C   UNL     1      -8.500   5.747  66.315  1.00  0.00    -0.126 A  
HETATM    8  C   UNL     1      -8.868   6.838  67.102  1.00  0.00    -0.119 A  
HETATM    9  C   UNL     1      -9.280   6.625  68.430  1.00  0.00    -0.122 A  
HETATM   10 CL   UNL     1      -8.992   2.605  68.699  1.00  0.00    -0.161 Cl 
HETATM   11  C   UNL     1      -9.330   5.329  68.968  1.00  0.00    -0.130 A  
HETATM   12  C   UNL     1      -8.557   4.452  66.826  1.00  0.00    -0.107 A  
HETATM   13 CL   UNL     1      -9.840   5.022  70.597  1.00  0.00    -0.264 Cl 
HETATM   14  C   UNL     1      -8.965   4.245  68.147  1.00  0.00    -0.122 A  
BRANCH   9  15
HETATM   15  S   UNL     1      -9.701   8.044  69.395  1.00  0.00    -0.172 S  
HETATM   16  O   UNL     1     -11.107   8.006  69.709  1.00  0.00    -0.190 OA 
HETATM   17  H2  UNL     1      -9.125   9.282  67.368  1.00  0.00     0.000 HD 
HETATM   18  H1  UNL     1      -9.689  10.136  68.893  1.00  0.00     0.000 HD 
HETATM   19  O   UNL     1      -8.698   8.215  70.426  1.00  0.00    -0.131 OA 
HETATM   20  N   UNL     1      -9.446   9.317  68.336  1.00  0.00    -0.138 N  
ENDBRANCH   9  15
ENDBRANCH   2   7
TORSDOF 2
ENDMDL
MODEL      177
REMARK 921   NORMALIZED FREE ENERGY PREDICTED BY IDOCK:   -2.09 KCAL/MOL
REMARK 922        TOTAL FREE ENERGY PREDICTED BY IDOCK:   -2.31 KCAL/MOL
REMARK 923 INTER-LIGAND FREE ENERGY PREDICTED BY IDOCK:   -2.34 KCAL/MOL
REMARK 924 INTRA-LIGAND FREE ENERGY PREDICTED BY IDOCK:    0.03 KCAL/MOL
REMARK 927      BINDING AFFINITY PREDICTED BY RF-SCORE:    0.00 PKD
ROOT
HETATM    1  N   UNL     1      -7.644   8.565  67.902  1.00  0.00    -0.097 N  
HETATM    2  S   UNL     1      -9.211   8.202  68.368  1.00  0.00    -0.134 S  
HETATM    3  H1  UNL     1      -7.222   7.691  67.586  1.00  0.00     0.000 HD 
HETATM    4  H2  UNL     1      -7.197   9.481  67.929  1.00  0.00     0.000 HD 
HETATM    5  O   UNL     1      -9.774   7.403  67.306  1.00  0.00    -0.140 OA 
HETATM    6  O   UNL     1      -9.807   9.438  68.815  1.00  0.00    -0.156 OA 
ENDROOT
BRANCH   2   7
HETATM    7  C   UNL     1      -8.926   7.162  69.772  1.00  0.00    -0.142 A  
HETATM    8  C   UNL     1      -8.269   7.659  70.897  1.00  0.00    -0.108 A  
HETATM    9  C   UNL     1      -8.060   6.818  72.004  1.00  0.00    -0.101 A  
HETATM   10 CL   UNL     1      -9.785   3.398  70.721  1.00  0.00    -0.237 Cl 
HETATM   11  C   UNL     1      -8.509   5.488  71.992  1.00  0.00    -0.127 A  
HETATM   12  C   UNL     1      -9.393   5.850  69.746  1.00  0.00    -0.171 A  
HETATM   13 CL   UNL     1      -8.280   4.420  73.339  1.00  0.00    -0.094 Cl 
HETATM   14  C   UNL     1      -9.181   5.016  70.848  1.00  0.00    -0.146 A  
BRANCH   9  15
HETATM   15  S   UNL     1      -7.189   7.487  73.389  1.00  0.00    -0.089 S  
HETATM   16  O   UNL     1      -6.230   6.519  73.860  1.00  0.00    -0.063 OA 
HETATM   17  H2  UNL     1      -9.372   7.399  74.485  1.00  0.00     0.000 HD 
HETATM   18  H1  UNL     1      -7.880   8.022  75.356  1.00  0.00     0.000 HD 
HETATM   19  O   UNL     1      -6.804   8.848  73.078  1.00  0.00    -0.323 OA 
HETATM   20  N   UNL     1      -8.382   7.636  74.556  1.00  0.00    -0.213 N  
ENDBRANCH   9  15
ENDBRANCH   2   7
TORSDOF 2
ENDMDL
MODEL      178
REMARK 921   NORMALIZED FREE ENERGY PREDICTED BY IDOCK:   -2.01 KCAL/MOL
REMARK 922        TOTAL FREE ENERGY PREDICTED BY IDOCK:   -2.21 KCAL/MOL
REMARK 923 INTER-LIGAND FREE ENERGY PREDICTED BY IDOCK:   -2.26 KCAL/MOL
REMARK 924 INTRA-LIGAND FREE ENERGY PREDICTED BY IDOCK:    0.05 KCAL/MOL
REMARK 927      BINDING AFFINITY PREDICTED BY RF-SCORE:    0.00 PKD
ROOT
HETATM    1  N   UNL     1      -9.268   5.998  73.537  1.00  0.00    -0.131 N  
HETATM    2  S   UNL     1      -8.999   4.697  72.517  1.00  0.00    -0.121 S  
HETATM    3  H1  UNL     1     -10.247   6.260  73.425  1.00  0.00     0.000 HD 
HETATM    4  H2  UNL     1      -8.585   6.444  74.150  1.00  0.00     0.000 HD 
HETATM    5  O   UNL     1     -10.084   3.773  72.745  1.00  0.00    -0.148 OA 
HETATM    6  O   UNL     1      -7.613   4.327  72.676  1.00  0.00    -0.075 OA 
ENDROOT
BRANCH   2   7
HETATM    7  C   UNL     1      -9.214   5.446  70.929  1.00  0.00    -0.150 A  
HETATM    8  C   UNL     1      -8.738   4.815  69.780  1.00  0.00    -0.109 A  
HETATM    9  C   UNL     1      -8.927   5.425  68.526  1.00  0.00    -0.107 A  
HETATM   10 CL   UNL     1     -10.910   8.781  69.585  1.00  0.00    -0.212 Cl 
HETATM   11  C   UNL     1      -9.592   6.657  68.419  1.00  0.00    -0.123 A  
HETATM   12  C   UNL     1      -9.889   6.662  70.841  1.00  0.00    -0.197 A  
HETATM   13 CL   UNL     1      -9.852   7.438  66.893  1.00  0.00    -0.260 Cl 
HETATM   14  C   UNL     1     -10.072   7.266  69.594  1.00  0.00    -0.194 A  
BRANCH   9  15
HETATM   15  S   UNL     1      -8.274   4.600  67.107  1.00  0.00    -0.105 S  
HETATM   16  O   UNL     1      -7.319   5.461  66.454  1.00  0.00    -0.079 OA 
HETATM   17  H2  UNL     1     -10.563   4.766  66.267  1.00  0.00     0.000 HD 
HETATM   18  H1  UNL     1      -9.228   3.978  65.281  1.00  0.00     0.000 HD 
HETATM   19  O   UNL     1      -7.940   3.240  67.477  1.00  0.00    -0.076 OA 
HETATM   20  N   UNL     1      -9.605   4.454  66.101  1.00  0.00    -0.172 N  
ENDBRANCH   9  15
ENDBRANCH   2   7
TORSDOF 2
ENDMDL
MODEL      179
REMARK 921   NORMALIZED FREE ENERGY PREDICTED BY IDOCK:   -1.92 KCAL/MOL
REMARK 922        TOTAL FREE ENERGY PREDICTED BY IDOCK:   -2.11 KCAL/MOL
REMARK 923 INTER-LIGAND FREE ENERGY PREDICTED BY IDOCK:   -2.12 KCAL/MOL
REMARK 924 INTRA-LIGAND FREE ENERGY PREDICTED BY IDOCK:    0.01 KCAL/MOL
REMARK 927      BINDING AFFINITY PREDICTED BY RF-SCORE:    0.00 PKD
ROOT
HETATM    1  N   UNL     1      -9.972   9.458  70.428  1.00  0.00    -0.234 N  
HETATM    2  S   UNL     1      -8.398   9.604  69.873  1.00  0.00    -0.195 S  
HETATM    3  H1  UNL     1     -10.000   8.622  71.012  1.00  0.00     0.000 HD 
HETATM    4  H2  UNL     1     -10.751  10.083  70.221  1.00  0.00     0.000 HD 
HETATM    5  O   UNL     1      -7.545   9.427  71.024  1.00  0.00    -0.266 OA 
HETATM    6  O   UNL     1      -8.358  10.786  69.047  1.00  0.00    -0.148 OA 
ENDROOT
BRANCH   2   7
HETATM    7  C   UNL     1      -8.258   8.176  68.838  1.00  0.00    -0.124 A  
HETATM    8  C   UNL     1      -8.216   6.900  69.398  1.00  0.00    -0.131 A  
HETATM    9  C   UNL     1      -8.112   5.777  68.555  1.00  0.00    -0.108 A  
HETATM   10 CL   UNL     1      -8.057   7.535  64.919  1.00  0.00    -0.134 Cl 
HETATM   11  C   UNL     1      -8.056   5.928  67.161  1.00  0.00    -0.102 A  
HETATM   12  C   UNL     1      -8.219   8.345  67.455  1.00  0.00    -0.125 A  
HETATM   13 CL   UNL     1      -7.937   4.571  66.087  1.00  0.00    -0.099 Cl 
HETATM   14  C   UNL     1      -8.113   7.227  66.622  1.00  0.00    -0.113 A  
BRANCH   9  15
HETATM   15  S   UNL     1      -8.026   4.186  69.318  1.00  0.00    -0.055 S  
HETATM   16  O   UNL     1      -6.887   3.471  68.799  1.00  0.00    -0.044 OA 
HETATM   17  H2  UNL     1     -10.128   3.783  68.138  1.00  0.00     0.000 HD 
HETATM   18  H1  UNL     1      -9.359   2.501  69.204  1.00  0.00     0.000 HD 
HETATM   19  O   UNL     1      -8.237   4.344  70.742  1.00  0.00    -0.072 OA 
HETATM   20  N   UNL     1      -9.409   3.419  68.764  1.00  0.00    -0.167 N  
ENDBRANCH   9  15
ENDBRANCH   2   7
TORSDOF 2
ENDMDL
MODEL      180
REMARK 921   NORMALIZED FREE ENERGY PREDICTED BY IDOCK:   -1.90 KCAL/MOL
REMARK 922        TOTAL FREE ENERGY PREDICTED BY IDOCK:   -2.09 KCAL/MOL
REMARK 923 INTER-LIGAND FREE ENERGY PREDICTED BY IDOCK:   -2.15 KCAL/MOL
REMARK 924 INTRA-LIGAND FREE ENERGY PREDICTED BY IDOCK:    0.06 KCAL/MOL
REMARK 927      BINDING AFFINITY PREDICTED BY RF-SCORE:    0.00 PKD
ROOT
HETATM    1  N   UNL     1      -8.659   9.137  71.010  1.00  0.00    -0.207 N  
HETATM    2  S   UNL     1      -7.389   9.533  69.993  1.00  0.00    -0.134 S  
HETATM    3  H1  UNL     1      -8.477   8.193  71.352  1.00  0.00     0.000 HD 
HETATM    4  H2  UNL     1      -9.460   9.724  71.243  1.00  0.00     0.000 HD 
HETATM    5  O   UNL     1      -6.181   9.178  70.696  1.00  0.00    -0.040 OA 
HETATM    6  O   UNL     1      -7.648  10.868  69.509  1.00  0.00    -0.131 OA 
ENDROOT
BRANCH   2   7
HETATM    7  C   UNL     1      -7.633   8.387  68.667  1.00  0.00    -0.102 A  
HETATM    8  C   UNL     1      -8.724   7.518  68.676  1.00  0.00    -0.128 A  
HETATM    9  C   UNL     1      -8.903   6.620  67.608  1.00  0.00    -0.116 A  
HETATM   10 CL   UNL     1      -5.742   7.549  65.272  1.00  0.00    -0.037 Cl 
HETATM   11  C   UNL     1      -8.000   6.592  66.534  1.00  0.00    -0.106 A  
HETATM   12  C   UNL     1      -6.735   8.384  67.602  1.00  0.00    -0.066 A  
HETATM   13 CL   UNL     1      -8.189   5.507  65.194  1.00  0.00    -0.134 Cl 
HETATM   14  C   UNL     1      -6.915   7.488  66.544  1.00  0.00    -0.070 A  
BRANCH   9  15
HETATM   15  S   UNL     1     -10.281   5.517  67.688  1.00  0.00    -0.190 S  
HETATM   16  O   UNL     1     -11.002   5.744  68.915  1.00  0.00    -0.286 OA 
HETATM   17  H2  UNL     1      -8.565   3.780  67.800  1.00  0.00     0.000 HD 
HETATM   18  H1  UNL     1     -10.355   3.371  67.834  1.00  0.00     0.000 HD 
HETATM   19  O   UNL     1     -10.950   5.521  66.403  1.00  0.00    -0.232 OA 
HETATM   20  N   UNL     1      -9.559   4.008  67.788  1.00  0.00    -0.172 N  
ENDBRANCH   9  15
ENDBRANCH   2   7
TORSDOF 2
ENDMDL
MODEL      181
REMARK 921   NORMALIZED FREE ENERGY PREDICTED BY IDOCK:   -1.72 KCAL/MOL
REMARK 922        TOTAL FREE ENERGY PREDICTED BY IDOCK:   -1.89 KCAL/MOL
REMARK 923 INTER-LIGAND FREE ENERGY PREDICTED BY IDOCK:   -1.67 KCAL/MOL
REMARK 924 INTRA-LIGAND FREE ENERGY PREDICTED BY IDOCK:   -0.22 KCAL/MOL
REMARK 927      BINDING AFFINITY PREDICTED BY RF-SCORE:    0.00 PKD
ROOT
HETATM    1  N   UNL     1      -7.654   9.027  71.191  1.00  0.00    -0.120 N  
HETATM    2  S   UNL     1      -6.663   7.851  70.528  1.00  0.00    -0.037 S  
HETATM    3  H1  UNL     1      -8.351   8.540  71.755  1.00  0.00     0.000 HD 
HETATM    4  H2  UNL     1      -7.578  10.035  71.057  1.00  0.00     0.000 HD 
HETATM    5  O   UNL     1      -6.309   6.963  71.609  1.00  0.00    -0.041 OA 
HETATM    6  O   UNL     1      -5.679   8.541  69.730  1.00  0.00    -0.029 OA 
ENDROOT
BRANCH   2   7
HETATM    7  C   UNL     1      -7.789   7.013  69.450  1.00  0.00    -0.113 A  
HETATM    8  C   UNL     1      -7.317   6.327  68.331  1.00  0.00    -0.086 A  
HETATM    9  C   UNL     1      -8.228   5.661  67.492  1.00  0.00    -0.101 A  
HETATM   10 CL   UNL     1     -11.723   6.446  69.360  1.00  0.00    -0.262 Cl 
HETATM   11  C   UNL     1      -9.604   5.675  67.771  1.00  0.00    -0.119 A  
HETATM   12  C   UNL     1      -9.149   7.026  69.751  1.00  0.00    -0.144 A  
HETATM   13 CL   UNL     1     -10.760   4.860  66.767  1.00  0.00    -0.159 Cl 
HETATM   14  C   UNL     1     -10.052   6.365  68.913  1.00  0.00    -0.162 A  
BRANCH   9  15
HETATM   15  S   UNL     1      -7.581   4.837  66.069  1.00  0.00    -0.091 S  
HETATM   16  O   UNL     1      -7.816   3.421  66.191  1.00  0.00    -0.083 OA 
HETATM   17  H2  UNL     1      -5.422   5.607  66.915  1.00  0.00     0.000 HD 
HETATM   18  H1  UNL     1      -5.557   4.621  65.372  1.00  0.00     0.000 HD 
HETATM   19  O   UNL     1      -7.982   5.574  64.888  1.00  0.00    -0.101 OA 
HETATM   20  N   UNL     1      -5.930   5.097  66.193  1.00  0.00    -0.022 N  
ENDBRANCH   9  15
ENDBRANCH   2   7
TORSDOF 2
ENDMDL
MODEL      182
REMARK 921   NORMALIZED FREE ENERGY PREDICTED BY IDOCK:   38.51 KCAL/MOL
REMARK 922        TOTAL FREE ENERGY PREDICTED BY IDOCK:   43.04 KCAL/MOL
REMARK 923 INTER-LIGAND FREE ENERGY PREDICTED BY IDOCK:   42.96 KCAL/MOL
REMARK 924 INTRA-LIGAND FREE ENERGY PREDICTED BY IDOCK:    0.08 KCAL/MOL
REMARK 927      BINDING AFFINITY PREDICTED BY RF-SCORE:    0.00 PKD
ROOT
HETATM    1  N   UNL     1     -11.888   2.782  71.041  1.00  0.00     7.013 N  
HETATM    2  S   UNL     1     -11.882   3.790  69.703  1.00  0.00    13.569 S  
HETATM    3  H1  UNL     1     -11.945   3.385  71.862  1.00  0.00     0.000 HD 
HETATM    4  H2  UNL     1     -11.843   1.763  71.037  1.00  0.00     0.000 HD 
HETATM    5  O   UNL     1     -12.953   4.736  69.904  1.00  0.00    11.701 OA 
HETATM    6  O   UNL     1     -11.801   2.937  68.543  1.00  0.00    12.169 OA 
ENDROOT
BRANCH   2   7
HETATM    7  C   UNL     1     -10.337   4.630  69.906  1.00  0.00     0.064 A  
HETATM    8  C   UNL     1     -10.271   5.823  70.626  1.00  0.00    -0.280 A  
HETATM    9  C   UNL     1      -9.032   6.470  70.781  1.00  0.00    -0.144 A  
HETATM   10 CL   UNL     1      -6.583   3.950  68.790  1.00  0.00    -0.040 Cl 
HETATM   11  C   UNL     1      -7.863   5.927  70.225  1.00  0.00    -0.101 A  
HETATM   12  C   UNL     1      -9.185   4.068  69.360  1.00  0.00    -0.216 A  
HETATM   13 CL   UNL     1      -6.315   6.688  70.401  1.00  0.00    -0.041 Cl 
HETATM   14  C   UNL     1      -7.956   4.716  69.514  1.00  0.00    -0.062 A  
BRANCH   9  15
HETATM   15  S   UNL     1      -9.011   7.996  71.672  1.00  0.00    -0.163 S  
HETATM   16  O   UNL     1      -8.089   8.905  71.036  1.00  0.00    -0.143 OA 
HETATM   17  H2  UNL     1      -8.057   6.645  73.471  1.00  0.00     0.000 HD 
HETATM   18  H1  UNL     1      -8.352   8.447  73.670  1.00  0.00     0.000 HD 
HETATM   19  O   UNL     1     -10.376   8.381  71.961  1.00  0.00    -0.249 OA 
HETATM   20  N   UNL     1      -8.364   7.566  73.156  1.00  0.00    -0.115 N  
ENDBRANCH   9  15
ENDBRANCH   2   7
TORSDOF 2
ENDMDL
