MODEL        1
REMARK 921   NORMALIZED FREE ENERGY PREDICTED BY IDOCK:   -7.94 KCAL/MOL
REMARK 922        TOTAL FREE ENERGY PREDICTED BY IDOCK:   -9.68 KCAL/MOL
REMARK 923 INTER-LIGAND FREE ENERGY PREDICTED BY IDOCK:   -8.87 KCAL/MOL
REMARK 924 INTRA-LIGAND FREE ENERGY PREDICTED BY IDOCK:   -0.81 KCAL/MOL
REMARK 927      BINDING AFFINITY PREDICTED BY RF-SCORE:    0.00 PKD
ROOT
HETATM    1  O   UNL     1     -11.430  12.233  67.568  1.00  0.00    -0.302 OA 
HETATM    2  C   UNL     1     -11.394  12.160  66.194  1.00  0.00    -0.361 C  
HETATM    3  H   UNL     1     -11.083  11.575  68.159  1.00  0.00     0.000 HD 
HETATM    4  C   UNL     1     -11.886  13.091  65.357  1.00  0.00    -0.428 C  
HETATM    5  C   UNL     1     -10.153   9.984  66.478  1.00  0.00    -0.296 A  
HETATM    6  C   UNL     1     -11.768  12.890  63.889  1.00  0.00    -0.460 C  
HETATM    7  C   UNL     1      -9.394  10.093  63.793  1.00  0.00    -0.336 A  
HETATM    8  O   UNL     1     -10.835  11.969  63.441  1.00  0.00    -0.407 OA 
HETATM    9  O   UNL     1     -12.419  13.582  63.109  1.00  0.00    -0.759 OA 
HETATM   10  C   UNL     1     -10.283  11.026  64.325  1.00  0.00    -0.352 A  
HETATM   11  C   UNL     1      -8.883   9.093  64.619  1.00  0.00    -0.183 A  
HETATM   12  C   UNL     1      -9.284   9.022  65.953  1.00  0.00    -0.290 A  
HETATM   13  C   UNL     1     -10.635  11.021  65.670  1.00  0.00    -0.263 A  
ENDROOT
BRANCH   4  14
HETATM   14  C   UNL     1     -12.454  14.437  65.756  1.00  0.00    -0.334 C  
BRANCH  14  15
HETATM   15  C   UNL     1     -11.408  15.457  66.123  1.00  0.00    -0.082 C  
HETATM   16  C   UNL     1      -9.532  17.522  66.523  1.00  0.00    -0.272 A  
HETATM   17  H   UNL     1     -10.621  14.871  69.264  1.00  0.00     0.000 HD 
HETATM   18  C   UNL     1      -8.537  18.493  66.630  1.00  0.00    -0.295 A  
HETATM   19  C   UNL     1      -9.707  16.538  67.491  1.00  0.00    -0.242 A  
HETATM   20  O   UNL     1     -10.315  17.537  65.361  1.00  0.00    -0.629 OA 
HETATM   21  C   UNL     1     -11.134  16.464  65.064  1.00  0.00    -0.208 C  
HETATM   22  C   UNL     1     -10.786  15.560  67.314  1.00  0.00    -0.313 C  
HETATM   23  C   UNL     1      -7.665  18.454  67.714  1.00  0.00    -0.240 A  
HETATM   24  O   UNL     1     -11.659  16.365  63.957  1.00  0.00    -1.071 OA 
HETATM   25  O   UNL     1     -11.059  14.798  68.424  1.00  0.00    -0.245 OA 
HETATM   26  C   UNL     1      -7.800  17.454  68.678  1.00  0.00    -0.274 A  
HETATM   27  C   UNL     1      -8.827  16.509  68.571  1.00  0.00    -0.228 A  
ENDBRANCH  14  15
ENDBRANCH   4  14
TORSDOF 2
ENDMDL
MODEL        2
REMARK 921   NORMALIZED FREE ENERGY PREDICTED BY IDOCK:   -7.78 KCAL/MOL
REMARK 922        TOTAL FREE ENERGY PREDICTED BY IDOCK:   -9.51 KCAL/MOL
REMARK 923 INTER-LIGAND FREE ENERGY PREDICTED BY IDOCK:   -9.10 KCAL/MOL
REMARK 924 INTRA-LIGAND FREE ENERGY PREDICTED BY IDOCK:   -0.40 KCAL/MOL
REMARK 927      BINDING AFFINITY PREDICTED BY RF-SCORE:    0.00 PKD
ROOT
HETATM    1  O   UNL     1     -10.369  15.476  68.285  1.00  0.00    -0.229 OA 
HETATM    2  C   UNL     1     -10.483  16.209  67.125  1.00  0.00    -0.305 C  
HETATM    3  H   UNL     1      -9.912  15.761  69.068  1.00  0.00     0.000 HD 
HETATM    4  C   UNL     1     -11.130  15.805  66.016  1.00  0.00    -0.085 C  
HETATM    5  C   UNL     1      -9.212  18.033  68.314  1.00  0.00    -0.298 A  
HETATM    6  C   UNL     1     -11.186  16.704  64.835  1.00  0.00    -0.061 C  
HETATM    7  C   UNL     1      -9.997  19.837  66.333  1.00  0.00    -0.578 A  
HETATM    8  O   UNL     1     -10.918  18.048  65.040  1.00  0.00    -0.748 OA 
HETATM    9  O   UNL     1     -11.540  16.276  63.739  1.00  0.00    -0.952 OA 
HETATM   10  C   UNL     1     -10.287  18.478  66.219  1.00  0.00    -0.427 A  
HETATM   11  C   UNL     1      -9.303  20.293  67.452  1.00  0.00    -0.531 A  
HETATM   12  C   UNL     1      -8.886  19.388  68.428  1.00  0.00    -0.397 A  
HETATM   13  C   UNL     1      -9.950  17.570  67.217  1.00  0.00    -0.312 A  
ENDROOT
BRANCH   4  14
HETATM   14  C   UNL     1     -11.950  14.540  65.873  1.00  0.00    -0.315 C  
BRANCH  14  15
HETATM   15  C   UNL     1     -11.188  13.381  65.286  1.00  0.00    -0.305 C  
HETATM   16  C   UNL     1      -9.917  11.284  63.897  1.00  0.00    -0.321 A  
HETATM   17  H   UNL     1      -8.903  12.567  67.509  1.00  0.00     0.000 HD 
HETATM   18  C   UNL     1      -9.398  10.188  63.208  1.00  0.00    -0.332 A  
HETATM   19  C   UNL     1      -9.601  11.534  65.228  1.00  0.00    -0.244 A  
HETATM   20  O   UNL     1     -10.829  12.095  63.208  1.00  0.00    -0.415 OA 
HETATM   21  C   UNL     1     -11.577  13.033  63.893  1.00  0.00    -0.449 C  
HETATM   22  C   UNL     1     -10.177  12.716  65.879  1.00  0.00    -0.274 C  
HETATM   23  C   UNL     1      -8.572   9.294  63.882  1.00  0.00    -0.208 A  
HETATM   24  O   UNL     1     -12.523  13.599  63.350  1.00  0.00    -0.784 OA 
HETATM   25  O   UNL     1      -9.616  13.035  67.091  1.00  0.00    -0.217 OA 
HETATM   26  C   UNL     1      -8.272   9.505  65.229  1.00  0.00    -0.131 A  
HETATM   27  C   UNL     1      -8.775  10.630  65.893  1.00  0.00    -0.186 A  
ENDBRANCH  14  15
ENDBRANCH   4  14
TORSDOF 2
ENDMDL
MODEL        3
REMARK 921   NORMALIZED FREE ENERGY PREDICTED BY IDOCK:   -7.76 KCAL/MOL
REMARK 922        TOTAL FREE ENERGY PREDICTED BY IDOCK:   -9.48 KCAL/MOL
REMARK 923 INTER-LIGAND FREE ENERGY PREDICTED BY IDOCK:   -8.59 KCAL/MOL
REMARK 924 INTRA-LIGAND FREE ENERGY PREDICTED BY IDOCK:   -0.89 KCAL/MOL
REMARK 927      BINDING AFFINITY PREDICTED BY RF-SCORE:    0.00 PKD
ROOT
HETATM    1  O   UNL     1     -11.290  11.535  67.195  1.00  0.00    -0.328 OA 
HETATM    2  C   UNL     1     -11.304  11.760  65.837  1.00  0.00    -0.263 C  
HETATM    3  H   UNL     1     -10.843  10.815  67.624  1.00  0.00     0.000 HD 
HETATM    4  C   UNL     1     -11.937  12.780  65.228  1.00  0.00    -0.473 C  
HETATM    5  C   UNL     1      -9.805   9.744  65.625  1.00  0.00    -0.371 A  
HETATM    6  C   UNL     1     -11.859  12.911  63.750  1.00  0.00    -0.504 C  
HETATM    7  C   UNL     1      -9.179  10.512  63.015  1.00  0.00    -0.313 A  
HETATM    8  O   UNL     1     -10.844  12.227  63.099  1.00  0.00    -0.377 OA 
HETATM    9  O   UNL     1     -12.619  13.666  63.148  1.00  0.00    -0.792 OA 
HETATM   10  C   UNL     1     -10.149  11.195  63.750  1.00  0.00    -0.361 A  
HETATM   11  C   UNL     1      -8.520   9.432  63.597  1.00  0.00    -0.203 A  
HETATM   12  C   UNL     1      -8.852   9.030  64.891  1.00  0.00    -0.190 A  
HETATM   13  C   UNL     1     -10.440  10.861  65.068  1.00  0.00    -0.331 A  
ENDROOT
BRANCH   4  14
HETATM   14  C   UNL     1     -12.642  13.930  65.917  1.00  0.00    -0.498 C  
BRANCH  14  15
HETATM   15  C   UNL     1     -11.707  14.927  66.551  1.00  0.00    -0.204 C  
HETATM   16  C   UNL     1      -9.980  16.603  68.016  1.00  0.00    -0.258 A  
HETATM   17  H   UNL     1     -10.540  16.779  64.095  1.00  0.00     0.000 HD 
HETATM   18  C   UNL     1      -9.224  17.470  68.806  1.00  0.00    -0.227 A  
HETATM   19  C   UNL     1     -10.239  16.866  66.675  1.00  0.00    -0.312 A  
HETATM   20  O   UNL     1     -10.526  15.479  68.649  1.00  0.00    -0.227 OA 
HETATM   21  C   UNL     1     -11.489  14.723  68.008  1.00  0.00    -0.331 C  
HETATM   22  C   UNL     1     -11.030  15.898  65.908  1.00  0.00    -0.151 C  
HETATM   23  C   UNL     1      -8.750  18.655  68.249  1.00  0.00    -0.349 A  
HETATM   24  O   UNL     1     -12.127  13.870  68.621  1.00  0.00    -0.358 OA 
HETATM   25  O   UNL     1     -11.017  16.095  64.548  1.00  0.00    -0.645 OA 
HETATM   26  C   UNL     1      -9.030  18.955  66.915  1.00  0.00    -0.306 A  
HETATM   27  C   UNL     1      -9.761  18.056  66.130  1.00  0.00    -0.220 A  
ENDBRANCH  14  15
ENDBRANCH   4  14
TORSDOF 2
ENDMDL
MODEL        4
REMARK 921   NORMALIZED FREE ENERGY PREDICTED BY IDOCK:   -7.76 KCAL/MOL
REMARK 922        TOTAL FREE ENERGY PREDICTED BY IDOCK:   -9.48 KCAL/MOL
REMARK 923 INTER-LIGAND FREE ENERGY PREDICTED BY IDOCK:   -8.67 KCAL/MOL
REMARK 924 INTRA-LIGAND FREE ENERGY PREDICTED BY IDOCK:   -0.81 KCAL/MOL
REMARK 927      BINDING AFFINITY PREDICTED BY RF-SCORE:    0.00 PKD
ROOT
HETATM    1  O   UNL     1     -10.645  15.087  68.238  1.00  0.00    -0.239 OA 
HETATM    2  C   UNL     1     -10.718  15.797  67.060  1.00  0.00    -0.306 C  
HETATM    3  H   UNL     1     -10.164  15.359  69.010  1.00  0.00     0.000 HD 
HETATM    4  C   UNL     1     -11.399  15.412  65.966  1.00  0.00    -0.089 C  
HETATM    5  C   UNL     1      -9.315  17.558  68.194  1.00  0.00    -0.276 A  
HETATM    6  C   UNL     1     -11.403  16.284  64.763  1.00  0.00    -0.210 C  
HETATM    7  C   UNL     1      -9.988  19.363  66.174  1.00  0.00    -0.501 A  
HETATM    8  O   UNL     1     -11.041  17.611  64.932  1.00  0.00    -0.854 OA 
HETATM    9  O   UNL     1     -11.795  15.854  63.680  1.00  0.00    -0.561 OA 
HETATM   10  C   UNL     1     -10.372  18.024  66.096  1.00  0.00    -0.366 A  
HETATM   11  C   UNL     1      -9.255  19.797  67.277  1.00  0.00    -0.437 A  
HETATM   12  C   UNL     1      -8.895  18.890  68.272  1.00  0.00    -0.367 A  
HETATM   13  C   UNL     1     -10.092  17.120  67.114  1.00  0.00    -0.295 A  
ENDROOT
BRANCH   4  14
HETATM   14  C   UNL     1     -12.307  14.204  65.860  1.00  0.00    -0.486 C  
BRANCH  14  15
HETATM   15  C   UNL     1     -11.571  12.891  65.805  1.00  0.00    -0.411 C  
HETATM   16  C   UNL     1     -10.309  10.380  66.015  1.00  0.00    -0.192 A  
HETATM   17  H   UNL     1     -10.721  12.448  62.657  1.00  0.00     0.000 HD 
HETATM   18  C   UNL     1      -9.605   9.190  66.198  1.00  0.00    -0.333 A  
HETATM   19  C   UNL     1     -10.240  11.100  64.827  1.00  0.00    -0.365 A  
HETATM   20  O   UNL     1     -11.044  10.859  67.107  1.00  0.00    -0.283 OA 
HETATM   21  C   UNL     1     -11.549  12.145  67.092  1.00  0.00    -0.335 C  
HETATM   22  C   UNL     1     -11.022  12.336  64.707  1.00  0.00    -0.303 C  
HETATM   23  C   UNL     1      -8.775   8.730  65.180  1.00  0.00    -0.202 A  
HETATM   24  O   UNL     1     -12.008  12.651  68.114  1.00  0.00    -0.322 OA 
HETATM   25  O   UNL     1     -11.108  12.839  63.431  1.00  0.00    -0.408 OA 
HETATM   26  C   UNL     1      -8.663   9.457  63.994  1.00  0.00    -0.225 A  
HETATM   27  C   UNL     1      -9.404  10.630  63.816  1.00  0.00    -0.304 A  
ENDBRANCH  14  15
ENDBRANCH   4  14
TORSDOF 2
ENDMDL
MODEL        5
REMARK 921   NORMALIZED FREE ENERGY PREDICTED BY IDOCK:   -7.59 KCAL/MOL
REMARK 922        TOTAL FREE ENERGY PREDICTED BY IDOCK:   -9.29 KCAL/MOL
REMARK 923 INTER-LIGAND FREE ENERGY PREDICTED BY IDOCK:   -8.47 KCAL/MOL
REMARK 924 INTRA-LIGAND FREE ENERGY PREDICTED BY IDOCK:   -0.82 KCAL/MOL
REMARK 927      BINDING AFFINITY PREDICTED BY RF-SCORE:    0.00 PKD
ROOT
HETATM    1  O   UNL     1     -12.995   8.914  71.264  1.00  0.00    -0.438 OA 
HETATM    2  C   UNL     1     -11.650   9.018  70.988  1.00  0.00    -0.300 C  
HETATM    3  H   UNL     1     -13.375   8.332  71.911  1.00  0.00     0.000 HD 
HETATM    4  C   UNL     1     -11.111   9.843  70.072  1.00  0.00    -0.335 C  
HETATM    5  C   UNL     1     -11.283   7.319  72.813  1.00  0.00    -0.348 A  
HETATM    6  C   UNL     1      -9.637   9.863  69.885  1.00  0.00    -0.227 C  
HETATM    7  C   UNL     1      -8.569   7.974  72.845  1.00  0.00    -0.256 A  
HETATM    8  O   UNL     1      -8.855   9.337  70.900  1.00  0.00    -0.222 OA 
HETATM    9  O   UNL     1      -9.139  10.405  68.900  1.00  0.00    -0.155 OA 
HETATM   10  C   UNL     1      -9.425   8.515  71.886  1.00  0.00    -0.280 A  
HETATM   11  C   UNL     1      -9.081   7.093  73.795  1.00  0.00    -0.238 A  
HETATM   12  C   UNL     1     -10.431   6.744  73.762  1.00  0.00    -0.383 A  
HETATM   13  C   UNL     1     -10.789   8.242  71.883  1.00  0.00    -0.350 A  
ENDROOT
BRANCH   4  14
HETATM   14  C   UNL     1     -11.853  10.888  69.266  1.00  0.00    -0.395 C  
BRANCH  14  15
HETATM   15  C   UNL     1     -11.920  12.238  69.932  1.00  0.00    -0.377 C  
HETATM   16  C   UNL     1     -11.904  14.885  70.898  1.00  0.00    -0.321 A  
HETATM   17  H   UNL     1     -13.868  11.868  72.558  1.00  0.00     0.000 HD 
HETATM   18  C   UNL     1     -11.772  16.185  71.387  1.00  0.00    -0.506 A  
HETATM   19  C   UNL     1     -12.476  13.868  71.654  1.00  0.00    -0.337 A  
HETATM   20  O   UNL     1     -11.373  14.627  69.627  1.00  0.00    -0.259 OA 
HETATM   21  C   UNL     1     -11.231  13.325  69.187  1.00  0.00    -0.251 C  
HETATM   22  C   UNL     1     -12.592  12.531  71.063  1.00  0.00    -0.256 C  
HETATM   23  C   UNL     1     -12.187  16.465  72.686  1.00  0.00    -0.482 A  
HETATM   24  O   UNL     1     -10.579  13.072  68.176  1.00  0.00    -0.231 OA 
HETATM   25  O   UNL     1     -13.395  11.662  71.761  1.00  0.00    -0.399 OA 
HETATM   26  C   UNL     1     -12.730  15.450  73.476  1.00  0.00    -0.689 A  
HETATM   27  C   UNL     1     -12.886  14.161  72.954  1.00  0.00    -0.433 A  
ENDBRANCH  14  15
ENDBRANCH   4  14
TORSDOF 2
ENDMDL
MODEL        6
REMARK 921   NORMALIZED FREE ENERGY PREDICTED BY IDOCK:   -7.49 KCAL/MOL
REMARK 922        TOTAL FREE ENERGY PREDICTED BY IDOCK:   -9.18 KCAL/MOL
REMARK 923 INTER-LIGAND FREE ENERGY PREDICTED BY IDOCK:   -8.84 KCAL/MOL
REMARK 924 INTRA-LIGAND FREE ENERGY PREDICTED BY IDOCK:   -0.34 KCAL/MOL
REMARK 927      BINDING AFFINITY PREDICTED BY RF-SCORE:    0.00 PKD
ROOT
HETATM    1  O   UNL     1     -11.916  15.782  69.093  1.00  0.00    -0.454 OA 
HETATM    2  C   UNL     1     -11.231  15.957  67.911  1.00  0.00    -0.297 C  
HETATM    3  H   UNL     1     -11.845  16.348  69.853  1.00  0.00     0.000 HD 
HETATM    4  C   UNL     1     -11.330  15.155  66.835  1.00  0.00    -0.264 C  
HETATM    5  C   UNL     1     -10.258  18.041  68.940  1.00  0.00    -0.320 A  
HETATM    6  C   UNL     1     -10.541  15.468  65.615  1.00  0.00    -0.373 C  
HETATM    7  C   UNL     1      -9.419  18.871  66.410  1.00  0.00    -0.358 A  
HETATM    8  O   UNL     1     -10.043  16.755  65.487  1.00  0.00    -0.566 OA 
HETATM    9  O   UNL     1     -10.413  14.634  64.722  1.00  0.00    -0.418 OA 
HETATM   10  C   UNL     1      -9.985  17.611  66.600  1.00  0.00    -0.328 A  
HETATM   11  C   UNL     1      -9.272  19.722  67.504  1.00  0.00    -0.428 A  
HETATM   12  C   UNL     1      -9.665  19.297  68.773  1.00  0.00    -0.510 A  
HETATM   13  C   UNL     1     -10.455  17.197  67.841  1.00  0.00    -0.369 A  
ENDROOT
BRANCH   4  14
HETATM   14  C   UNL     1     -12.291  13.996  66.672  1.00  0.00    -0.408 C  
BRANCH  14  15
HETATM   15  C   UNL     1     -11.780  12.695  67.234  1.00  0.00    -0.435 C  
HETATM   16  C   UNL     1     -10.713  10.195  67.977  1.00  0.00    -0.260 A  
HETATM   17  H   UNL     1     -11.968  12.977  70.507  1.00  0.00     0.000 HD 
HETATM   18  C   UNL     1     -10.277   8.905  68.280  1.00  0.00    -0.239 A  
HETATM   19  C   UNL     1     -11.289  11.021  68.935  1.00  0.00    -0.346 A  
HETATM   20  O   UNL     1     -10.604  10.605  66.641  1.00  0.00    -0.243 OA 
HETATM   21  C   UNL     1     -11.245  11.753  66.215  1.00  0.00    -0.312 C  
HETATM   22  C   UNL     1     -11.708  12.371  68.541  1.00  0.00    -0.326 C  
HETATM   23  C   UNL     1     -10.463   8.413  69.569  1.00  0.00    -0.225 A  
HETATM   24  O   UNL     1     -11.337  12.012  65.017  1.00  0.00    -0.322 OA 
HETATM   25  O   UNL     1     -12.019  13.205  69.587  1.00  0.00    -0.310 OA 
HETATM   26  C   UNL     1     -11.072   9.213  70.536  1.00  0.00    -0.308 A  
HETATM   27  C   UNL     1     -11.471  10.516  70.221  1.00  0.00    -0.416 A  
ENDBRANCH  14  15
ENDBRANCH   4  14
TORSDOF 2
ENDMDL
MODEL        7
REMARK 921   NORMALIZED FREE ENERGY PREDICTED BY IDOCK:   -7.46 KCAL/MOL
REMARK 922        TOTAL FREE ENERGY PREDICTED BY IDOCK:   -9.15 KCAL/MOL
REMARK 923 INTER-LIGAND FREE ENERGY PREDICTED BY IDOCK:   -8.79 KCAL/MOL
REMARK 924 INTRA-LIGAND FREE ENERGY PREDICTED BY IDOCK:   -0.35 KCAL/MOL
REMARK 927      BINDING AFFINITY PREDICTED BY RF-SCORE:    0.00 PKD
ROOT
HETATM    1  O   UNL     1      -8.649  13.471  67.931  1.00  0.00    -0.159 OA 
HETATM    2  C   UNL     1      -8.959  14.472  67.038  1.00  0.00    -0.240 C  
HETATM    3  H   UNL     1      -7.819  13.382  68.384  1.00  0.00     0.000 HD 
HETATM    4  C   UNL     1     -10.134  14.598  66.395  1.00  0.00    -0.288 C  
HETATM    5  C   UNL     1      -6.670  15.416  67.511  1.00  0.00    -0.211 A  
HETATM    6  C   UNL     1     -10.340  15.737  65.465  1.00  0.00    -0.404 C  
HETATM    7  C   UNL     1      -7.441  17.821  66.321  1.00  0.00    -0.328 A  
HETATM    8  O   UNL     1      -9.485  16.822  65.581  1.00  0.00    -0.523 OA 
HETATM    9  O   UNL     1     -11.287  15.743  64.682  1.00  0.00    -0.432 OA 
HETATM   10  C   UNL     1      -8.279  16.706  66.293  1.00  0.00    -0.330 A  
HETATM   11  C   UNL     1      -6.202  17.724  66.951  1.00  0.00    -0.195 A  
HETATM   12  C   UNL     1      -5.805  16.515  67.521  1.00  0.00    -0.175 A  
HETATM   13  C   UNL     1      -7.937  15.515  66.923  1.00  0.00    -0.264 A  
ENDROOT
BRANCH   4  14
HETATM   14  C   UNL     1     -11.368  13.750  66.620  1.00  0.00    -0.340 C  
BRANCH  14  15
HETATM   15  C   UNL     1     -11.817  13.691  68.057  1.00  0.00    -0.397 C  
HETATM   16  C   UNL     1     -12.604  13.251  70.726  1.00  0.00    -0.280 A  
HETATM   17  H   UNL     1     -11.875  16.803  69.124  1.00  0.00     0.000 HD 
HETATM   18  C   UNL     1     -13.097  12.979  72.003  1.00  0.00    -0.481 A  
HETATM   19  C   UNL     1     -12.550  14.543  70.217  1.00  0.00    -0.378 A  
HETATM   20  O   UNL     1     -12.222  12.152  69.945  1.00  0.00    -0.251 OA 
HETATM   21  C   UNL     1     -11.975  12.314  68.595  1.00  0.00    -0.227 C  
HETATM   22  C   UNL     1     -12.005  14.749  68.871  1.00  0.00    -0.263 C  
HETATM   23  C   UNL     1     -13.589  14.027  72.776  1.00  0.00    -0.515 A  
HETATM   24  O   UNL     1     -11.848  11.338  67.859  1.00  0.00    -0.597 OA 
HETATM   25  O   UNL     1     -11.743  16.058  68.550  1.00  0.00    -0.375 OA 
HETATM   26  C   UNL     1     -13.578  15.328  72.270  1.00  0.00    -0.586 A  
HETATM   27  C   UNL     1     -13.047  15.584  71.000  1.00  0.00    -0.551 A  
ENDBRANCH  14  15
ENDBRANCH   4  14
TORSDOF 2
ENDMDL
MODEL        8
REMARK 921   NORMALIZED FREE ENERGY PREDICTED BY IDOCK:   -7.38 KCAL/MOL
REMARK 922        TOTAL FREE ENERGY PREDICTED BY IDOCK:   -9.05 KCAL/MOL
REMARK 923 INTER-LIGAND FREE ENERGY PREDICTED BY IDOCK:   -8.19 KCAL/MOL
REMARK 924 INTRA-LIGAND FREE ENERGY PREDICTED BY IDOCK:   -0.87 KCAL/MOL
REMARK 927      BINDING AFFINITY PREDICTED BY RF-SCORE:    0.00 PKD
ROOT
HETATM    1  O   UNL     1     -11.033  15.852  64.577  1.00  0.00    -0.786 OA 
HETATM    2  C   UNL     1     -11.011  15.671  65.942  1.00  0.00    -0.231 C  
HETATM    3  H   UNL     1     -10.597  16.557  64.113  1.00  0.00     0.000 HD 
HETATM    4  C   UNL     1     -11.628  14.672  66.599  1.00  0.00    -0.359 C  
HETATM    5  C   UNL     1      -9.507  17.691  66.048  1.00  0.00    -0.089 A  
HETATM    6  C   UNL     1     -11.512  14.589  68.078  1.00  0.00    -0.321 C  
HETATM    7  C   UNL     1      -8.814  17.008  68.665  1.00  0.00    -0.267 A  
HETATM    8  O   UNL     1     -10.481  15.293  68.680  1.00  0.00    -0.225 OA 
HETATM    9  O   UNL     1     -12.256  13.855  68.724  1.00  0.00    -0.348 OA 
HETATM   10  C   UNL     1      -9.802  16.303  67.978  1.00  0.00    -0.236 A  
HETATM   11  C   UNL     1      -8.170  18.069  68.031  1.00  0.00    -0.261 A  
HETATM   12  C   UNL     1      -8.536  18.428  66.734  1.00  0.00    -0.274 A  
HETATM   13  C   UNL     1     -10.128  16.594  66.658  1.00  0.00    -0.305 A  
ENDROOT
BRANCH   4  14
HETATM   14  C   UNL     1     -12.350  13.501  65.967  1.00  0.00    -0.486 C  
BRANCH  14  15
HETATM   15  C   UNL     1     -11.444  12.552  65.227  1.00  0.00    -0.374 C  
HETATM   16  C   UNL     1      -9.833  10.944  63.565  1.00  0.00    -0.359 A  
HETATM   17  H   UNL     1      -9.714  10.959  67.528  1.00  0.00     0.000 HD 
HETATM   18  C   UNL     1      -9.141  10.100  62.698  1.00  0.00    -0.305 A  
HETATM   19  C   UNL     1      -9.840  10.742  64.941  1.00  0.00    -0.350 A  
HETATM   20  O   UNL     1     -10.582  11.977  62.985  1.00  0.00    -0.304 OA 
HETATM   21  C   UNL     1     -11.492  12.685  63.746  1.00  0.00    -0.470 C  
HETATM   22  C   UNL     1     -10.580  11.683  65.788  1.00  0.00    -0.271 C  
HETATM   23  C   UNL     1      -8.470   8.996  63.218  1.00  0.00    -0.180 A  
HETATM   24  O   UNL     1     -12.301  13.441  63.214  1.00  0.00    -0.714 OA 
HETATM   25  O   UNL     1     -10.322  11.571  67.133  1.00  0.00    -0.206 OA 
HETATM   26  C   UNL     1      -8.494   8.754  64.592  1.00  0.00    -0.169 A  
HETATM   27  C   UNL     1      -9.166   9.632  65.449  1.00  0.00    -0.295 A  
ENDBRANCH  14  15
ENDBRANCH   4  14
TORSDOF 2
ENDMDL
MODEL        9
REMARK 921   NORMALIZED FREE ENERGY PREDICTED BY IDOCK:   -7.32 KCAL/MOL
REMARK 922        TOTAL FREE ENERGY PREDICTED BY IDOCK:   -8.98 KCAL/MOL
REMARK 923 INTER-LIGAND FREE ENERGY PREDICTED BY IDOCK:   -8.53 KCAL/MOL
REMARK 924 INTRA-LIGAND FREE ENERGY PREDICTED BY IDOCK:   -0.45 KCAL/MOL
REMARK 927      BINDING AFFINITY PREDICTED BY RF-SCORE:    0.00 PKD
ROOT
HETATM    1  O   UNL     1     -11.423  13.798  63.955  1.00  0.00    -0.602 OA 
HETATM    2  C   UNL     1     -10.831  13.044  64.943  1.00  0.00    -0.323 C  
HETATM    3  H   UNL     1     -11.290  13.676  63.022  1.00  0.00     0.000 HD 
HETATM    4  C   UNL     1     -11.018  13.216  66.264  1.00  0.00    -0.295 C  
HETATM    5  C   UNL     1      -9.764  11.704  63.093  1.00  0.00    -0.385 A  
HETATM    6  C   UNL     1     -10.323  12.320  67.224  1.00  0.00    -0.214 C  
HETATM    7  C   UNL     1      -9.116   9.713  64.939  1.00  0.00    -0.284 A  
HETATM    8  O   UNL     1      -9.826  11.121  66.737  1.00  0.00    -0.193 OA 
HETATM    9  O   UNL     1     -10.270  12.604  68.419  1.00  0.00    -0.230 OA 
HETATM   10  C   UNL     1      -9.675  10.921  65.355  1.00  0.00    -0.238 A  
HETATM   11  C   UNL     1      -8.878   9.505  63.582  1.00  0.00    -0.236 A  
HETATM   12  C   UNL     1      -9.176  10.510  62.663  1.00  0.00    -0.329 A  
HETATM   13  C   UNL     1     -10.052  11.906  64.448  1.00  0.00    -0.310 A  
ENDROOT
BRANCH   4  14
HETATM   14  C   UNL     1     -11.998  14.175  66.907  1.00  0.00    -0.479 C  
BRANCH  14  15
HETATM   15  C   UNL     1     -11.404  15.516  67.252  1.00  0.00    -0.167 C  
HETATM   16  C   UNL     1     -10.304  17.925  68.216  1.00  0.00    -0.383 A  
HETATM   17  H   UNL     1     -10.388  16.824  64.408  1.00  0.00     0.000 HD 
HETATM   18  C   UNL     1      -9.873  19.144  68.739  1.00  0.00    -0.502 A  
HETATM   19  C   UNL     1     -10.445  17.718  66.848  1.00  0.00    -0.308 A  
HETATM   20  O   UNL     1     -10.656  16.927  69.135  1.00  0.00    -0.325 OA 
HETATM   21  C   UNL     1     -11.332  15.800  68.710  1.00  0.00    -0.362 C  
HETATM   22  C   UNL     1     -10.890  16.402  66.376  1.00  0.00    -0.065 C  
HETATM   23  C   UNL     1      -9.615  20.200  67.869  1.00  0.00    -0.468 A  
HETATM   24  O   UNL     1     -11.830  15.024  69.522  1.00  0.00    -0.298 OA 
HETATM   25  O   UNL     1     -10.750  16.199  65.025  1.00  0.00    -0.558 OA 
HETATM   26  C   UNL     1      -9.784  20.025  66.495  1.00  0.00    -0.564 A  
HETATM   27  C   UNL     1     -10.185  18.784  65.988  1.00  0.00    -0.413 A  
ENDBRANCH  14  15
ENDBRANCH   4  14
TORSDOF 2
ENDMDL
MODEL       10
REMARK 921   NORMALIZED FREE ENERGY PREDICTED BY IDOCK:   -7.25 KCAL/MOL
REMARK 922        TOTAL FREE ENERGY PREDICTED BY IDOCK:   -8.90 KCAL/MOL
REMARK 923 INTER-LIGAND FREE ENERGY PREDICTED BY IDOCK:   -8.66 KCAL/MOL
REMARK 924 INTRA-LIGAND FREE ENERGY PREDICTED BY IDOCK:   -0.24 KCAL/MOL
REMARK 927      BINDING AFFINITY PREDICTED BY RF-SCORE:    0.00 PKD
ROOT
HETATM    1  O   UNL     1      -8.028  12.907  66.626  1.00  0.00    -0.396 OA 
HETATM    2  C   UNL     1      -9.374  12.772  66.885  1.00  0.00    -0.234 C  
HETATM    3  H   UNL     1      -7.338  12.412  67.053  1.00  0.00     0.000 HD 
HETATM    4  C   UNL     1     -10.351  13.473  66.282  1.00  0.00    -0.293 C  
HETATM    5  C   UNL     1      -8.740  10.955  68.513  1.00  0.00    -0.153 A  
HETATM    6  C   UNL     1     -11.767  13.218  66.650  1.00  0.00    -0.377 C  
HETATM    7  C   UNL     1     -11.401  10.113  68.573  1.00  0.00    -0.172 A  
HETATM    8  O   UNL     1     -12.057  12.028  67.299  1.00  0.00    -0.572 OA 
HETATM    9  O   UNL     1     -12.653  14.001  66.312  1.00  0.00    -0.451 OA 
HETATM   10  C   UNL     1     -11.031  11.270  67.888  1.00  0.00    -0.248 A  
HETATM   11  C   UNL     1     -10.424   9.374  69.237  1.00  0.00    -0.230 A  
HETATM   12  C   UNL     1      -9.099   9.809  69.230  1.00  0.00    -0.189 A  
HETATM   13  C   UNL     1      -9.705  11.680  67.802  1.00  0.00    -0.177 A  
ENDROOT
BRANCH   4  14
HETATM   14  C   UNL     1     -10.174  14.440  65.130  1.00  0.00    -0.420 C  
BRANCH  14  15
HETATM   15  C   UNL     1     -10.114  15.886  65.549  1.00  0.00    -0.353 C  
HETATM   16  C   UNL     1     -10.262  18.640  66.124  1.00  0.00    -0.416 A  
HETATM   17  H   UNL     1      -8.137  15.996  68.177  1.00  0.00     0.000 HD 
HETATM   18  C   UNL     1     -10.290  20.024  66.295  1.00  0.00    -0.570 A  
HETATM   19  C   UNL     1      -9.348  17.834  66.794  1.00  0.00    -0.286 A  
HETATM   20  O   UNL     1     -11.158  18.096  65.194  1.00  0.00    -0.540 OA 
HETATM   21  C   UNL     1     -11.015  16.785  64.780  1.00  0.00    -0.025 C  
HETATM   22  C   UNL     1      -9.392  16.384  66.572  1.00  0.00    -0.273 C  
HETATM   23  C   UNL     1      -9.348  20.623  67.128  1.00  0.00    -0.464 A  
HETATM   24  O   UNL     1     -11.651  16.358  63.819  1.00  0.00    -1.055 OA 
HETATM   25  O   UNL     1      -8.646  15.645  67.456  1.00  0.00    -0.162 OA 
HETATM   26  C   UNL     1      -8.399  19.836  67.780  1.00  0.00    -0.344 A  
HETATM   27  C   UNL     1      -8.409  18.446  67.623  1.00  0.00    -0.260 A  
ENDBRANCH  14  15
ENDBRANCH   4  14
TORSDOF 2
ENDMDL
MODEL       11
REMARK 921   NORMALIZED FREE ENERGY PREDICTED BY IDOCK:   -7.19 KCAL/MOL
REMARK 922        TOTAL FREE ENERGY PREDICTED BY IDOCK:   -8.84 KCAL/MOL
REMARK 923 INTER-LIGAND FREE ENERGY PREDICTED BY IDOCK:   -8.01 KCAL/MOL
REMARK 924 INTRA-LIGAND FREE ENERGY PREDICTED BY IDOCK:   -0.83 KCAL/MOL
REMARK 927      BINDING AFFINITY PREDICTED BY RF-SCORE:    0.00 PKD
ROOT
HETATM    1  O   UNL     1     -10.131  13.243  63.814  1.00  0.00    -0.712 OA 
HETATM    2  C   UNL     1     -10.401  12.537  64.965  1.00  0.00    -0.299 C  
HETATM    3  H   UNL     1      -9.500  12.985  63.152  1.00  0.00     0.000 HD 
HETATM    4  C   UNL     1     -11.294  12.902  65.904  1.00  0.00    -0.348 C  
HETATM    5  C   UNL     1      -8.741  10.827  64.145  1.00  0.00    -0.076 A  
HETATM    6  C   UNL     1     -11.495  12.038  67.096  1.00  0.00    -0.335 C  
HETATM    7  C   UNL     1      -9.721   9.009  66.024  1.00  0.00    -0.339 A  
HETATM    8  O   UNL     1     -11.058  10.726  67.017  1.00  0.00    -0.265 OA 
HETATM    9  O   UNL     1     -12.103  12.459  68.078  1.00  0.00    -0.398 OA 
HETATM   10  C   UNL     1     -10.163  10.332  66.008  1.00  0.00    -0.228 A  
HETATM   11  C   UNL     1      -8.775   8.597  65.088  1.00  0.00    -0.179 A  
HETATM   12  C   UNL     1      -8.265   9.512  64.167  1.00  0.00    -0.159 A  
HETATM   13  C   UNL     1      -9.727  11.240  65.050  1.00  0.00    -0.293 A  
ENDROOT
BRANCH   4  14
HETATM   14  C   UNL     1     -12.249  14.074  65.818  1.00  0.00    -0.475 C  
BRANCH  14  15
HETATM   15  C   UNL     1     -11.595  15.413  66.036  1.00  0.00     0.103 C  
HETATM   16  C   UNL     1     -10.436  17.981  66.120  1.00  0.00    -0.331 A  
HETATM   17  H   UNL     1     -11.266  15.752  69.292  1.00  0.00     0.000 HD 
HETATM   18  C   UNL     1      -9.770  19.206  66.093  1.00  0.00    -0.360 A  
HETATM   19  C   UNL     1     -10.518  17.212  67.276  1.00  0.00    -0.313 A  
HETATM   20  O   UNL     1     -10.970  17.520  64.909  1.00  0.00    -0.887 OA 
HETATM   21  C   UNL     1     -11.409  16.215  64.797  1.00  0.00    -0.249 C  
HETATM   22  C   UNL     1     -11.250  15.942  67.227  1.00  0.00    -0.094 C  
HETATM   23  C   UNL     1      -9.131  19.655  67.246  1.00  0.00    -0.396 A  
HETATM   24  O   UNL     1     -11.679  15.736  63.698  1.00  0.00    -0.329 OA 
HETATM   25  O   UNL     1     -11.508  15.379  68.453  1.00  0.00    -0.326 OA 
HETATM   26  C   UNL     1      -9.170  18.881  68.407  1.00  0.00    -0.390 A  
HETATM   27  C   UNL     1      -9.873  17.672  68.423  1.00  0.00    -0.334 A  
ENDBRANCH  14  15
ENDBRANCH   4  14
TORSDOF 2
ENDMDL
MODEL       12
REMARK 921   NORMALIZED FREE ENERGY PREDICTED BY IDOCK:   -7.17 KCAL/MOL
REMARK 922        TOTAL FREE ENERGY PREDICTED BY IDOCK:   -8.82 KCAL/MOL
REMARK 923 INTER-LIGAND FREE ENERGY PREDICTED BY IDOCK:   -8.34 KCAL/MOL
REMARK 924 INTRA-LIGAND FREE ENERGY PREDICTED BY IDOCK:   -0.48 KCAL/MOL
REMARK 927      BINDING AFFINITY PREDICTED BY RF-SCORE:    0.00 PKD
ROOT
HETATM    1  O   UNL     1      -8.068  14.706  66.894  1.00  0.00    -0.344 OA 
HETATM    2  C   UNL     1      -8.903  15.628  66.305  1.00  0.00    -0.329 C  
HETATM    3  H   UNL     1      -7.368  14.914  67.503  1.00  0.00     0.000 HD 
HETATM    4  C   UNL     1      -9.894  15.334  65.443  1.00  0.00    -0.318 C  
HETATM    5  C   UNL     1      -7.683  17.384  67.640  1.00  0.00    -0.203 A  
HETATM    6  C   UNL     1     -10.730  16.431  64.890  1.00  0.00    -0.191 C  
HETATM    7  C   UNL     1      -9.734  19.196  67.089  1.00  0.00    -0.393 A  
HETATM    8  O   UNL     1     -10.720  17.644  65.559  1.00  0.00    -0.565 OA 
HETATM    9  O   UNL     1     -11.463  16.232  63.924  1.00  0.00    -0.940 OA 
HETATM   10  C   UNL     1      -9.714  17.934  66.496  1.00  0.00    -0.329 A  
HETATM   11  C   UNL     1      -8.711  19.551  67.965  1.00  0.00    -0.369 A  
HETATM   12  C   UNL     1      -7.671  18.657  68.219  1.00  0.00    -0.321 A  
HETATM   13  C   UNL     1      -8.730  16.998  66.795  1.00  0.00    -0.272 A  
ENDROOT
BRANCH   4  14
HETATM   14  C   UNL     1     -10.356  13.945  65.056  1.00  0.00    -0.418 C  
BRANCH  14  15
HETATM   15  C   UNL     1     -10.628  13.043  66.231  1.00  0.00    -0.283 C  
HETATM   16  C   UNL     1     -11.455  11.464  68.414  1.00  0.00    -0.299 A  
HETATM   17  H   UNL     1      -7.994  11.092  66.517  1.00  0.00     0.000 HD 
HETATM   18  C   UNL     1     -11.873  10.788  69.560  1.00  0.00    -0.380 A  
HETATM   19  C   UNL     1     -10.152  11.373  67.939  1.00  0.00    -0.198 A  
HETATM   20  O   UNL     1     -12.393  12.298  67.791  1.00  0.00    -0.292 OA 
HETATM   21  C   UNL     1     -11.987  13.192  66.818  1.00  0.00    -0.373 C  
HETATM   22  C   UNL     1      -9.794  12.103  66.718  1.00  0.00    -0.206 C  
HETATM   23  C   UNL     1     -10.948  10.032  70.275  1.00  0.00    -0.377 A  
HETATM   24  O   UNL     1     -12.747  14.070  66.416  1.00  0.00    -0.369 OA 
HETATM   25  O   UNL     1      -8.582  11.754  66.174  1.00  0.00    -0.125 OA 
HETATM   26  C   UNL     1      -9.626   9.956  69.837  1.00  0.00    -0.265 A  
HETATM   27  C   UNL     1      -9.235  10.614  68.665  1.00  0.00    -0.181 A  
ENDBRANCH  14  15
ENDBRANCH   4  14
TORSDOF 2
ENDMDL
MODEL       13
REMARK 921   NORMALIZED FREE ENERGY PREDICTED BY IDOCK:   -7.14 KCAL/MOL
REMARK 922        TOTAL FREE ENERGY PREDICTED BY IDOCK:   -8.78 KCAL/MOL
REMARK 923 INTER-LIGAND FREE ENERGY PREDICTED BY IDOCK:   -7.98 KCAL/MOL
REMARK 924 INTRA-LIGAND FREE ENERGY PREDICTED BY IDOCK:   -0.80 KCAL/MOL
REMARK 927      BINDING AFFINITY PREDICTED BY RF-SCORE:    0.00 PKD
ROOT
HETATM    1  O   UNL     1      -8.275  12.976  66.459  1.00  0.00    -0.395 OA 
HETATM    2  C   UNL     1      -9.620  13.135  66.709  1.00  0.00    -0.249 C  
HETATM    3  H   UNL     1      -7.910  12.496  65.725  1.00  0.00     0.000 HD 
HETATM    4  C   UNL     1     -10.137  13.815  67.749  1.00  0.00    -0.245 C  
HETATM    5  C   UNL     1     -10.030  11.842  64.585  1.00  0.00    -0.275 A  
HETATM    6  C   UNL     1     -11.612  13.919  67.892  1.00  0.00    -0.342 C  
HETATM    7  C   UNL     1     -12.684  12.708  64.597  1.00  0.00    -0.458 A  
HETATM    8  O   UNL     1     -12.385  13.656  66.773  1.00  0.00    -0.387 OA 
HETATM    9  O   UNL     1     -12.113  14.306  68.946  1.00  0.00    -0.330 OA 
HETATM   10  C   UNL     1     -11.833  12.989  65.666  1.00  0.00    -0.399 A  
HETATM   11  C   UNL     1     -12.196  11.981  63.513  1.00  0.00    -0.653 A  
HETATM   12  C   UNL     1     -10.879  11.524  63.519  1.00  0.00    -0.473 A  
HETATM   13  C   UNL     1     -10.495  12.612  65.658  1.00  0.00    -0.298 A  
ENDROOT
BRANCH   4  14
HETATM   14  C   UNL     1      -9.356  14.628  68.759  1.00  0.00    -0.191 C  
BRANCH  14  15
HETATM   15  C   UNL     1      -8.910  15.973  68.247  1.00  0.00    -0.182 C  
HETATM   16  C   UNL     1      -8.308  18.620  67.492  1.00  0.00    -0.265 A  
HETATM   17  H   UNL     1      -6.089  15.448  66.637  1.00  0.00     0.000 HD 
HETATM   18  C   UNL     1      -8.119  19.932  67.057  1.00  0.00    -0.345 A  
HETATM   19  C   UNL     1      -7.561  17.562  66.988  1.00  0.00    -0.235 A  
HETATM   20  O   UNL     1      -9.336  18.399  68.419  1.00  0.00    -0.308 OA 
HETATM   21  C   UNL     1      -9.754  17.112  68.697  1.00  0.00    -0.293 C  
HETATM   22  C   UNL     1      -7.809  16.213  67.507  1.00  0.00    -0.147 C  
HETATM   23  C   UNL     1      -7.183  20.185  66.058  1.00  0.00    -0.312 A  
HETATM   24  O   UNL     1     -10.783  16.911  69.338  1.00  0.00    -0.335 OA 
HETATM   25  O   UNL     1      -6.864  15.279  67.159  1.00  0.00    -0.254 OA 
HETATM   26  C   UNL     1      -6.448  19.132  65.512  1.00  0.00    -0.303 A  
HETATM   27  C   UNL     1      -6.628  17.828  65.986  1.00  0.00    -0.305 A  
ENDBRANCH  14  15
ENDBRANCH   4  14
TORSDOF 2
ENDMDL
MODEL       14
REMARK 921   NORMALIZED FREE ENERGY PREDICTED BY IDOCK:   -7.14 KCAL/MOL
REMARK 922        TOTAL FREE ENERGY PREDICTED BY IDOCK:   -8.78 KCAL/MOL
REMARK 923 INTER-LIGAND FREE ENERGY PREDICTED BY IDOCK:   -8.09 KCAL/MOL
REMARK 924 INTRA-LIGAND FREE ENERGY PREDICTED BY IDOCK:   -0.69 KCAL/MOL
REMARK 927      BINDING AFFINITY PREDICTED BY RF-SCORE:    0.00 PKD
ROOT
HETATM    1  O   UNL     1      -9.699   9.863  70.449  1.00  0.00    -0.349 OA 
HETATM    2  C   UNL     1     -10.528   9.274  71.377  1.00  0.00    -0.338 C  
HETATM    3  H   UNL     1      -8.752   9.787  70.438  1.00  0.00     0.000 HD 
HETATM    4  C   UNL     1     -11.870   9.382  71.394  1.00  0.00    -0.447 C  
HETATM    5  C   UNL     1      -8.453   8.264  72.390  1.00  0.00    -0.252 A  
HETATM    6  C   UNL     1     -12.646   8.681  72.450  1.00  0.00    -0.362 C  
HETATM    7  C   UNL     1     -10.050   6.484  73.831  1.00  0.00    -0.329 A  
HETATM    8  O   UNL     1     -12.017   7.652  73.131  1.00  0.00    -0.017 OA 
HETATM    9  O   UNL     1     -13.827   8.958  72.645  1.00  0.00    -0.445 OA 
HETATM   10  C   UNL     1     -10.621   7.509  73.076  1.00  0.00    -0.368 A  
HETATM   11  C   UNL     1      -8.663   6.356  73.865  1.00  0.00    -0.134 A  
HETATM   12  C   UNL     1      -7.864   7.261  73.168  1.00  0.00    -0.114 A  
HETATM   13  C   UNL     1      -9.847   8.374  72.310  1.00  0.00    -0.383 A  
ENDROOT
BRANCH   4  14
HETATM   14  C   UNL     1     -12.723  10.056  70.341  1.00  0.00    -0.111 C  
BRANCH  14  15
HETATM   15  C   UNL     1     -12.406  11.515  70.139  1.00  0.00    -0.323 C  
HETATM   16  C   UNL     1     -11.751  14.165  69.441  1.00  0.00    -0.313 A  
HETATM   17  H   UNL     1     -13.457  13.062  72.846  1.00  0.00     0.000 HD 
HETATM   18  C   UNL     1     -11.309  15.440  69.086  1.00  0.00    -0.323 A  
HETATM   19  C   UNL     1     -12.179  13.867  70.730  1.00  0.00    -0.441 A  
HETATM   20  O   UNL     1     -11.686  13.172  68.455  1.00  0.00    -0.310 OA 
HETATM   21  C   UNL     1     -11.855  11.844  68.797  1.00  0.00    -0.313 C  
HETATM   22  C   UNL     1     -12.644  12.506  71.021  1.00  0.00    -0.256 C  
HETATM   23  C   UNL     1     -11.254  16.433  70.060  1.00  0.00    -0.266 A  
HETATM   24  O   UNL     1     -11.593  10.951  67.995  1.00  0.00    -0.464 OA 
HETATM   25  O   UNL     1     -13.289  12.364  72.225  1.00  0.00    -0.522 OA 
HETATM   26  C   UNL     1     -11.645  16.145  71.368  1.00  0.00    -0.495 A  
HETATM   27  C   UNL     1     -12.118  14.870  71.696  1.00  0.00    -0.415 A  
ENDBRANCH  14  15
ENDBRANCH   4  14
TORSDOF 2
ENDMDL
MODEL       15
REMARK 921   NORMALIZED FREE ENERGY PREDICTED BY IDOCK:   -7.06 KCAL/MOL
REMARK 922        TOTAL FREE ENERGY PREDICTED BY IDOCK:   -8.70 KCAL/MOL
REMARK 923 INTER-LIGAND FREE ENERGY PREDICTED BY IDOCK:   -8.15 KCAL/MOL
REMARK 924 INTRA-LIGAND FREE ENERGY PREDICTED BY IDOCK:   -0.55 KCAL/MOL
REMARK 927      BINDING AFFINITY PREDICTED BY RF-SCORE:    0.00 PKD
ROOT
HETATM    1  O   UNL     1     -12.767  13.249  68.835  1.00  0.00     0.235 OA 
HETATM    2  C   UNL     1     -12.076  14.333  69.330  1.00  0.00    -0.313 C  
HETATM    3  H   UNL     1     -13.248  12.622  69.362  1.00  0.00     0.000 HD 
HETATM    4  C   UNL     1     -11.394  15.221  68.584  1.00  0.00    -0.327 C  
HETATM    5  C   UNL     1     -12.886  13.634  71.613  1.00  0.00    -0.427 A  
HETATM    6  C   UNL     1     -10.702  16.355  69.249  1.00  0.00    -0.325 C  
HETATM    7  C   UNL     1     -12.158  16.138  72.611  1.00  0.00    -0.652 A  
HETATM    8  O   UNL     1     -11.093  16.677  70.539  1.00  0.00    -0.260 OA 
HETATM    9  O   UNL     1      -9.874  17.027  68.638  1.00  0.00    -0.263 OA 
HETATM   10  C   UNL     1     -11.847  15.771  71.302  1.00  0.00    -0.437 A  
HETATM   11  C   UNL     1     -12.838  15.236  73.427  1.00  0.00    -0.667 A  
HETATM   12  C   UNL     1     -13.177  13.975  72.938  1.00  0.00    -0.502 A  
HETATM   13  C   UNL     1     -12.245  14.550  70.769  1.00  0.00    -0.403 A  
ENDROOT
BRANCH   4  14
HETATM   14  C   UNL     1     -11.357  15.273  67.071  1.00  0.00    -0.230 C  
BRANCH  14  15
HETATM   15  C   UNL     1     -10.906  13.988  66.427  1.00  0.00    -0.299 C  
HETATM   16  C   UNL     1     -10.344  11.600  65.040  1.00  0.00    -0.281 A  
HETATM   17  H   UNL     1      -7.765  13.572  67.314  1.00  0.00     0.000 HD 
HETATM   18  C   UNL     1     -10.158  10.365  64.418  1.00  0.00    -0.342 A  
HETATM   19  C   UNL     1      -9.427  12.111  65.951  1.00  0.00    -0.187 A  
HETATM   20  O   UNL     1     -11.535  12.282  64.755  1.00  0.00    -0.313 OA 
HETATM   21  C   UNL     1     -11.910  13.370  65.519  1.00  0.00    -0.363 C  
HETATM   22  C   UNL     1      -9.688  13.425  66.551  1.00  0.00    -0.282 C  
HETATM   23  C   UNL     1      -9.043   9.601  64.751  1.00  0.00    -0.283 A  
HETATM   24  O   UNL     1     -13.039  13.845  65.423  1.00  0.00    -0.752 OA 
HETATM   25  O   UNL     1      -8.623  13.969  67.227  1.00  0.00    -0.197 OA 
HETATM   26  C   UNL     1      -8.129  10.079  65.691  1.00  0.00    -0.138 A  
HETATM   27  C   UNL     1      -8.316  11.336  66.277  1.00  0.00    -0.142 A  
ENDBRANCH  14  15
ENDBRANCH   4  14
TORSDOF 2
ENDMDL
MODEL       16
REMARK 921   NORMALIZED FREE ENERGY PREDICTED BY IDOCK:   -7.06 KCAL/MOL
REMARK 922        TOTAL FREE ENERGY PREDICTED BY IDOCK:   -8.70 KCAL/MOL
REMARK 923 INTER-LIGAND FREE ENERGY PREDICTED BY IDOCK:   -7.93 KCAL/MOL
REMARK 924 INTRA-LIGAND FREE ENERGY PREDICTED BY IDOCK:   -0.77 KCAL/MOL
REMARK 927      BINDING AFFINITY PREDICTED BY RF-SCORE:    0.00 PKD
ROOT
HETATM    1  O   UNL     1     -12.657  10.813  68.914  1.00  0.00    -0.735 OA 
HETATM    2  C   UNL     1     -11.384  10.605  68.431  1.00  0.00    -0.283 C  
HETATM    3  H   UNL     1     -12.983  10.493  69.747  1.00  0.00     0.000 HD 
HETATM    4  C   UNL     1     -10.922  11.058  67.252  1.00  0.00    -0.356 C  
HETATM    5  C   UNL     1     -10.909   9.397  70.592  1.00  0.00    -0.346 A  
HETATM    6  C   UNL     1      -9.518  10.771  66.859  1.00  0.00    -0.168 C  
HETATM    7  C   UNL     1      -8.174   9.551  70.049  1.00  0.00    -0.181 A  
HETATM    8  O   UNL     1      -8.636  10.395  67.860  1.00  0.00    -0.117 OA 
HETATM    9  O   UNL     1      -9.144  10.945  65.701  1.00  0.00    -0.192 OA 
HETATM   10  C   UNL     1      -9.116   9.969  69.109  1.00  0.00    -0.184 A  
HETATM   11  C   UNL     1      -8.612   9.049  71.273  1.00  0.00    -0.221 A  
HETATM   12  C   UNL     1      -9.978   8.945  71.533  1.00  0.00    -0.391 A  
HETATM   13  C   UNL     1     -10.480   9.948  69.377  1.00  0.00    -0.250 A  
ENDROOT
BRANCH   4  14
HETATM   14  C   UNL     1     -11.658  11.974  66.297  1.00  0.00    -0.378 C  
BRANCH  14  15
HETATM   15  C   UNL     1     -11.280  13.426  66.430  1.00  0.00    -0.323 C  
HETATM   16  C   UNL     1     -10.523  16.139  66.345  1.00  0.00    -0.301 A  
HETATM   17  H   UNL     1     -12.183  14.335  69.461  1.00  0.00     0.000 HD 
HETATM   18  C   UNL     1     -10.033  17.444  66.280  1.00  0.00    -0.306 A  
HETATM   19  C   UNL     1     -10.929  15.564  67.544  1.00  0.00    -0.316 A  
HETATM   20  O   UNL     1     -10.531  15.403  65.152  1.00  0.00    -0.392 OA 
HETATM   21  C   UNL     1     -10.751  14.040  65.182  1.00  0.00    -0.382 C  
HETATM   22  C   UNL     1     -11.447  14.192  67.527  1.00  0.00    -0.340 C  
HETATM   23  C   UNL     1      -9.905  18.178  67.456  1.00  0.00    -0.317 A  
HETATM   24  O   UNL     1     -10.553  13.350  64.184  1.00  0.00    -0.394 OA 
HETATM   25  O   UNL     1     -12.065  13.796  68.688  1.00  0.00    -0.359 OA 
HETATM   26  C   UNL     1     -10.272  17.606  68.675  1.00  0.00    -0.377 A  
HETATM   27  C   UNL     1     -10.794  16.309  68.714  1.00  0.00    -0.317 A  
ENDBRANCH  14  15
ENDBRANCH   4  14
TORSDOF 2
ENDMDL
MODEL       17
REMARK 921   NORMALIZED FREE ENERGY PREDICTED BY IDOCK:   -7.03 KCAL/MOL
REMARK 922        TOTAL FREE ENERGY PREDICTED BY IDOCK:   -8.66 KCAL/MOL
REMARK 923 INTER-LIGAND FREE ENERGY PREDICTED BY IDOCK:   -8.27 KCAL/MOL
REMARK 924 INTRA-LIGAND FREE ENERGY PREDICTED BY IDOCK:   -0.39 KCAL/MOL
REMARK 927      BINDING AFFINITY PREDICTED BY RF-SCORE:    0.00 PKD
ROOT
HETATM    1  O   UNL     1     -10.466  14.499  69.694  1.00  0.00    -0.420 OA 
HETATM    2  C   UNL     1     -10.879  13.409  68.962  1.00  0.00    -0.183 C  
HETATM    3  H   UNL     1     -10.775  14.720  70.565  1.00  0.00     0.000 HD 
HETATM    4  C   UNL     1     -10.444  13.097  67.727  1.00  0.00    -0.232 C  
HETATM    5  C   UNL     1     -12.302  12.785  70.947  1.00  0.00    -0.356 A  
HETATM    6  C   UNL     1     -10.966  11.879  67.054  1.00  0.00    -0.278 C  
HETATM    7  C   UNL     1     -12.635  10.229  69.876  1.00  0.00     0.019 A  
HETATM    8  O   UNL     1     -11.570  10.918  67.848  1.00  0.00    -0.497 OA 
HETATM    9  O   UNL     1     -10.787  11.705  65.851  1.00  0.00    -0.278 OA 
HETATM   10  C   UNL     1     -11.982  11.228  69.155  1.00  0.00    -0.336 A  
HETATM   11  C   UNL     1     -13.128  10.518  71.147  1.00  0.00    -0.450 A  
HETATM   12  C   UNL     1     -12.986  11.803  71.670  1.00  0.00    -0.467 A  
HETATM   13  C   UNL     1     -11.761  12.493  69.689  1.00  0.00    -0.372 A  
ENDROOT
BRANCH   4  14
HETATM   14  C   UNL     1      -9.341  13.802  66.967  1.00  0.00    -0.250 C  
BRANCH  14  15
HETATM   15  C   UNL     1      -9.584  15.275  66.762  1.00  0.00    -0.257 C  
HETATM   16  C   UNL     1     -10.255  17.939  66.139  1.00  0.00    -0.343 A  
HETATM   17  H   UNL     1      -8.209  16.795  69.336  1.00  0.00     0.000 HD 
HETATM   18  C   UNL     1     -10.524  19.244  65.725  1.00  0.00    -0.438 A  
HETATM   19  C   UNL     1      -9.383  17.665  67.186  1.00  0.00    -0.245 A  
HETATM   20  O   UNL     1     -10.856  16.904  65.410  1.00  0.00    -0.435 OA 
HETATM   21  C   UNL     1     -10.438  15.599  65.589  1.00  0.00    -0.382 C  
HETATM   22  C   UNL     1      -9.163  16.267  67.572  1.00  0.00    -0.205 C  
HETATM   23  C   UNL     1      -9.868  20.301  66.348  1.00  0.00    -0.502 A  
HETATM   24  O   UNL     1     -10.798  14.714  64.816  1.00  0.00    -0.399 OA 
HETATM   25  O   UNL     1      -8.505  16.096  68.766  1.00  0.00    -0.208 OA 
HETATM   26  C   UNL     1      -8.961  20.046  67.376  1.00  0.00    -0.440 A  
HETATM   27  C   UNL     1      -8.731  18.732  67.801  1.00  0.00    -0.309 A  
ENDBRANCH  14  15
ENDBRANCH   4  14
TORSDOF 2
ENDMDL
MODEL       18
REMARK 921   NORMALIZED FREE ENERGY PREDICTED BY IDOCK:   -6.99 KCAL/MOL
REMARK 922        TOTAL FREE ENERGY PREDICTED BY IDOCK:   -8.62 KCAL/MOL
REMARK 923 INTER-LIGAND FREE ENERGY PREDICTED BY IDOCK:   -8.48 KCAL/MOL
REMARK 924 INTRA-LIGAND FREE ENERGY PREDICTED BY IDOCK:   -0.14 KCAL/MOL
REMARK 927      BINDING AFFINITY PREDICTED BY RF-SCORE:    0.00 PKD
ROOT
HETATM    1  O   UNL     1      -8.300  14.952  66.520  1.00  0.00    -0.405 OA 
HETATM    2  C   UNL     1      -9.250  15.779  65.964  1.00  0.00    -0.344 C  
HETATM    3  H   UNL     1      -7.554  15.244  67.031  1.00  0.00     0.000 HD 
HETATM    4  C   UNL     1     -10.306  15.367  65.240  1.00  0.00    -0.420 C  
HETATM    5  C   UNL     1      -8.008  17.696  67.031  1.00  0.00    -0.242 A  
HETATM    6  C   UNL     1     -11.264  16.370  64.708  1.00  0.00    -0.212 C  
HETATM    7  C   UNL     1     -10.217  19.345  66.586  1.00  0.00    -0.533 A  
HETATM    8  O   UNL     1     -11.260  17.630  65.286  1.00  0.00    -0.233 OA 
HETATM    9  O   UNL     1     -12.082  16.058  63.845  1.00  0.00    -0.880 OA 
HETATM   10  C   UNL     1     -10.180  18.044  66.083  1.00  0.00    -0.363 A  
HETATM   11  C   UNL     1      -9.130  19.822  67.317  1.00  0.00    -0.413 A  
HETATM   12  C   UNL     1      -8.015  19.008  67.516  1.00  0.00    -0.276 A  
HETATM   13  C   UNL     1      -9.113  17.189  66.336  1.00  0.00    -0.285 A  
ENDROOT
BRANCH   4  14
HETATM   14  C   UNL     1     -10.718  13.929  65.003  1.00  0.00    -0.397 C  
BRANCH  14  15
HETATM   15  C   UNL     1     -10.768  13.094  66.256  1.00  0.00    -0.295 C  
HETATM   16  C   UNL     1     -10.642  11.329  68.449  1.00  0.00    -0.197 A  
HETATM   17  H   UNL     1     -12.318  14.921  68.512  1.00  0.00     0.000 HD 
HETATM   18  C   UNL     1     -10.642  10.373  69.465  1.00  0.00    -0.274 A  
HETATM   19  C   UNL     1     -11.409  12.486  68.526  1.00  0.00    -0.337 A  
HETATM   20  O   UNL     1      -9.880  11.043  67.308  1.00  0.00    -0.175 OA 
HETATM   21  C   UNL     1     -10.034  11.804  66.165  1.00  0.00    -0.226 C  
HETATM   22  C   UNL     1     -11.343  13.450  67.423  1.00  0.00    -0.309 C  
HETATM   23  C   UNL     1     -11.466  10.561  70.572  1.00  0.00    -0.433 A  
HETATM   24  O   UNL     1      -9.538  11.443  65.100  1.00  0.00    -0.230 OA 
HETATM   25  O   UNL     1     -11.913  14.671  67.690  1.00  0.00    -0.362 OA 
HETATM   26  C   UNL     1     -12.272  11.698  70.652  1.00  0.00    -0.461 A  
HETATM   27  C   UNL     1     -12.231  12.662  69.638  1.00  0.00    -0.177 A  
ENDBRANCH  14  15
ENDBRANCH   4  14
TORSDOF 2
ENDMDL
MODEL       19
REMARK 921   NORMALIZED FREE ENERGY PREDICTED BY IDOCK:   -6.99 KCAL/MOL
REMARK 922        TOTAL FREE ENERGY PREDICTED BY IDOCK:   -8.62 KCAL/MOL
REMARK 923 INTER-LIGAND FREE ENERGY PREDICTED BY IDOCK:   -7.80 KCAL/MOL
REMARK 924 INTRA-LIGAND FREE ENERGY PREDICTED BY IDOCK:   -0.82 KCAL/MOL
REMARK 927      BINDING AFFINITY PREDICTED BY RF-SCORE:    0.00 PKD
ROOT
HETATM    1  O   UNL     1     -10.796  12.368  67.457  1.00  0.00    -0.225 OA 
HETATM    2  C   UNL     1     -11.384  12.817  68.619  1.00  0.00    -0.294 C  
HETATM    3  H   UNL     1     -10.443  11.496  67.326  1.00  0.00     0.000 HD 
HETATM    4  C   UNL     1     -11.882  14.053  68.805  1.00  0.00    -0.396 C  
HETATM    5  C   UNL     1     -11.015  10.500  69.541  1.00  0.00    -0.312 A  
HETATM    6  C   UNL     1     -12.502  14.402  70.109  1.00  0.00    -0.339 C  
HETATM    7  C   UNL     1     -12.797  11.067  71.614  1.00  0.00    -0.540 A  
HETATM    8  O   UNL     1     -12.891  13.358  70.933  1.00  0.00    -0.284 OA 
HETATM    9  O   UNL     1     -12.734  15.574  70.398  1.00  0.00    -0.425 OA 
HETATM   10  C   UNL     1     -12.410  12.057  70.711  1.00  0.00    -0.308 A  
HETATM   11  C   UNL     1     -12.281   9.780  71.474  1.00  0.00    -0.493 A  
HETATM   12  C   UNL     1     -11.370   9.504  70.456  1.00  0.00    -0.343 A  
HETATM   13  C   UNL     1     -11.563  11.785  69.642  1.00  0.00    -0.393 A  
ENDROOT
BRANCH   4  14
HETATM   14  C   UNL     1     -12.005  15.133  67.750  1.00  0.00    -0.047 C  
BRANCH  14  15
HETATM   15  C   UNL     1     -10.702  15.815  67.420  1.00  0.00    -0.317 C  
HETATM   16  C   UNL     1      -8.291  16.945  66.498  1.00  0.00    -0.280 A  
HETATM   17  H   UNL     1     -10.184  18.010  69.816  1.00  0.00     0.000 HD 
HETATM   18  C   UNL     1      -7.048  17.391  66.049  1.00  0.00    -0.259 A  
HETATM   19  C   UNL     1      -8.775  17.264  67.763  1.00  0.00    -0.226 A  
HETATM   20  O   UNL     1      -9.012  16.103  65.642  1.00  0.00    -0.370 OA 
HETATM   21  C   UNL     1     -10.116  15.417  66.112  1.00  0.00    -0.305 C  
HETATM   22  C   UNL     1     -10.099  16.769  68.156  1.00  0.00    -0.282 C  
HETATM   23  C   UNL     1      -6.248  18.142  66.906  1.00  0.00    -0.192 A  
HETATM   24  O   UNL     1     -10.628  14.521  65.445  1.00  0.00    -0.322 OA 
HETATM   25  O   UNL     1     -10.609  17.338  69.297  1.00  0.00    -0.319 OA 
HETATM   26  C   UNL     1      -6.699  18.442  68.192  1.00  0.00    -0.226 A  
HETATM   27  C   UNL     1      -7.963  18.015  68.611  1.00  0.00    -0.303 A  
ENDBRANCH  14  15
ENDBRANCH   4  14
TORSDOF 2
ENDMDL
MODEL       20
REMARK 921   NORMALIZED FREE ENERGY PREDICTED BY IDOCK:   -6.97 KCAL/MOL
REMARK 922        TOTAL FREE ENERGY PREDICTED BY IDOCK:   -8.59 KCAL/MOL
REMARK 923 INTER-LIGAND FREE ENERGY PREDICTED BY IDOCK:   -7.72 KCAL/MOL
REMARK 924 INTRA-LIGAND FREE ENERGY PREDICTED BY IDOCK:   -0.87 KCAL/MOL
REMARK 927      BINDING AFFINITY PREDICTED BY RF-SCORE:    0.00 PKD
ROOT
HETATM    1  O   UNL     1     -10.260  12.640  68.858  1.00  0.00    -0.405 OA 
HETATM    2  C   UNL     1     -10.852  12.634  67.615  1.00  0.00    -0.221 C  
HETATM    3  H   UNL     1      -9.685  11.962  69.192  1.00  0.00     0.000 HD 
HETATM    4  C   UNL     1     -11.667  13.594  67.142  1.00  0.00    -0.418 C  
HETATM    5  C   UNL     1      -9.624  10.474  67.191  1.00  0.00    -0.194 A  
HETATM    6  C   UNL     1     -12.229  13.467  65.773  1.00  0.00    -0.458 C  
HETATM    7  C   UNL     1     -10.167  10.727  64.464  1.00  0.00    -0.428 A  
HETATM    8  O   UNL     1     -11.605  12.587  64.903  1.00  0.00    -0.317 OA 
HETATM    9  O   UNL     1     -13.161  14.182  65.410  1.00  0.00    -0.741 OA 
HETATM   10  C   UNL     1     -10.715  11.615  65.390  1.00  0.00    -0.287 A  
HETATM   11  C   UNL     1      -9.340   9.700  64.915  1.00  0.00    -0.306 A  
HETATM   12  C   UNL     1      -9.092   9.556  66.280  1.00  0.00    -0.202 A  
HETATM   13  C   UNL     1     -10.418  11.538  66.746  1.00  0.00    -0.275 A  
ENDROOT
BRANCH   4  14
HETATM   14  C   UNL     1     -11.988  14.907  67.825  1.00  0.00    -0.192 C  
BRANCH  14  15
HETATM   15  C   UNL     1     -10.819  15.853  67.910  1.00  0.00    -0.327 C  
HETATM   16  C   UNL     1      -8.573  17.491  68.373  1.00  0.00    -0.275 A  
HETATM   17  H   UNL     1     -10.397  17.062  64.879  1.00  0.00     0.000 HD 
HETATM   18  C   UNL     1      -7.529  18.362  68.685  1.00  0.00    -0.314 A  
HETATM   19  C   UNL     1      -9.244  17.551  67.157  1.00  0.00    -0.245 A  
HETATM   20  O   UNL     1      -8.964  16.584  69.368  1.00  0.00    -0.147 OA 
HETATM   21  C   UNL     1     -10.143  15.876  69.235  1.00  0.00    -0.249 C  
HETATM   22  C   UNL     1     -10.320  16.589  66.897  1.00  0.00    -0.300 C  
HETATM   23  C   UNL     1      -7.176  19.351  67.771  1.00  0.00    -0.284 A  
HETATM   24  O   UNL     1     -10.605  15.244  70.182  1.00  0.00    -0.287 OA 
HETATM   25  O   UNL     1     -10.748  16.543  65.593  1.00  0.00    -0.331 OA 
HETATM   26  C   UNL     1      -7.861  19.453  66.560  1.00  0.00    -0.300 A  
HETATM   27  C   UNL     1      -8.882  18.547  66.251  1.00  0.00    -0.221 A  
ENDBRANCH  14  15
ENDBRANCH   4  14
TORSDOF 2
ENDMDL
MODEL       21
REMARK 921   NORMALIZED FREE ENERGY PREDICTED BY IDOCK:   -6.96 KCAL/MOL
REMARK 922        TOTAL FREE ENERGY PREDICTED BY IDOCK:   -8.59 KCAL/MOL
REMARK 923 INTER-LIGAND FREE ENERGY PREDICTED BY IDOCK:   -7.72 KCAL/MOL
REMARK 924 INTRA-LIGAND FREE ENERGY PREDICTED BY IDOCK:   -0.86 KCAL/MOL
REMARK 927      BINDING AFFINITY PREDICTED BY RF-SCORE:    0.00 PKD
ROOT
HETATM    1  O   UNL     1     -10.008  13.298  65.092  1.00  0.00    -0.473 OA 
HETATM    2  C   UNL     1     -10.465  12.776  66.282  1.00  0.00    -0.257 C  
HETATM    3  H   UNL     1      -9.466  12.833  64.465  1.00  0.00     0.000 HD 
HETATM    4  C   UNL     1     -11.232  13.435  67.170  1.00  0.00    -0.325 C  
HETATM    5  C   UNL     1      -9.322  10.629  65.623  1.00  0.00    -0.239 A  
HETATM    6  C   UNL     1     -11.665  12.746  68.413  1.00  0.00    -0.339 C  
HETATM    7  C   UNL     1     -10.766   9.282  67.598  1.00  0.00    -0.276 A  
HETATM    8  O   UNL     1     -11.597  11.362  68.436  1.00  0.00    -0.279 OA 
HETATM    9  O   UNL     1     -12.144  13.385  69.348  1.00  0.00    -0.309 OA 
HETATM   10  C   UNL     1     -10.835  10.670  67.480  1.00  0.00    -0.296 A  
HETATM   11  C   UNL     1      -9.959   8.565  66.716  1.00  0.00    -0.351 A  
HETATM   12  C   UNL     1      -9.216   9.239  65.748  1.00  0.00    -0.283 A  
HETATM   13  C   UNL     1     -10.165  11.356  66.473  1.00  0.00    -0.259 A  
ENDROOT
BRANCH   4  14
HETATM   14  C   UNL     1     -11.836  14.810  66.979  1.00  0.00    -0.290 C  
BRANCH  14  15
HETATM   15  C   UNL     1     -10.826  15.927  66.984  1.00  0.00    -0.252 C  
HETATM   16  C   UNL     1      -9.028  18.075  66.674  1.00  0.00    -0.273 A  
HETATM   17  H   UNL     1      -9.970  16.375  70.129  1.00  0.00     0.000 HD 
HETATM   18  C   UNL     1      -8.070  19.063  66.446  1.00  0.00    -0.308 A  
HETATM   19  C   UNL     1      -9.150  17.436  67.903  1.00  0.00    -0.255 A  
HETATM   20  O   UNL     1      -9.827  17.701  65.585  1.00  0.00    -0.536 OA 
HETATM   21  C   UNL     1     -10.608  16.563  65.657  1.00  0.00    -0.304 C  
HETATM   22  C   UNL     1     -10.192  16.417  68.067  1.00  0.00    -0.264 C  
HETATM   23  C   UNL     1      -7.182  19.393  67.466  1.00  0.00    -0.247 A  
HETATM   24  O   UNL     1     -11.145  16.107  64.651  1.00  0.00    -0.598 OA 
HETATM   25  O   UNL     1     -10.417  16.030  69.366  1.00  0.00    -0.231 OA 
HETATM   26  C   UNL     1      -7.263  18.738  68.696  1.00  0.00    -0.330 A  
HETATM   27  C   UNL     1      -8.253  17.774  68.915  1.00  0.00    -0.147 A  
ENDBRANCH  14  15
ENDBRANCH   4  14
TORSDOF 2
ENDMDL
MODEL       22
REMARK 921   NORMALIZED FREE ENERGY PREDICTED BY IDOCK:   -6.94 KCAL/MOL
REMARK 922        TOTAL FREE ENERGY PREDICTED BY IDOCK:   -8.56 KCAL/MOL
REMARK 923 INTER-LIGAND FREE ENERGY PREDICTED BY IDOCK:   -8.52 KCAL/MOL
REMARK 924 INTRA-LIGAND FREE ENERGY PREDICTED BY IDOCK:   -0.04 KCAL/MOL
REMARK 927      BINDING AFFINITY PREDICTED BY RF-SCORE:    0.00 PKD
ROOT
HETATM    1  O   UNL     1     -12.302  14.340  67.280  1.00  0.00    -0.598 OA 
HETATM    2  C   UNL     1     -11.646  13.189  66.903  1.00  0.00    -0.368 C  
HETATM    3  H   UNL     1     -12.761  14.461  68.102  1.00  0.00     0.000 HD 
HETATM    4  C   UNL     1     -10.995  13.016  65.738  1.00  0.00    -0.299 C  
HETATM    5  C   UNL     1     -12.285  12.251  69.154  1.00  0.00    -0.075 A  
HETATM    6  C   UNL     1     -10.317  11.723  65.465  1.00  0.00    -0.262 C  
HETATM    7  C   UNL     1     -10.416  10.206  68.806  1.00  0.00    -0.223 A  
HETATM    8  O   UNL     1     -10.049  10.898  66.546  1.00  0.00    -0.207 OA 
HETATM    9  O   UNL     1      -9.939  11.442  64.330  1.00  0.00    -0.247 OA 
HETATM   10  C   UNL     1     -10.691  11.108  67.778  1.00  0.00    -0.222 A  
HETATM   11  C   UNL     1     -11.089  10.332  70.019  1.00  0.00    -0.373 A  
HETATM   12  C   UNL     1     -12.043  11.336  70.184  1.00  0.00    -0.448 A  
HETATM   13  C   UNL     1     -11.580  12.164  67.947  1.00  0.00    -0.413 A  
ENDROOT
BRANCH   4  14
HETATM   14  C   UNL     1     -10.755  14.077  64.685  1.00  0.00    -0.416 C  
BRANCH  14  15
HETATM   15  C   UNL     1     -10.235  15.379  65.237  1.00  0.00    -0.390 C  
HETATM   16  C   UNL     1      -9.526  17.960  66.119  1.00  0.00    -0.153 A  
HETATM   17  H   UNL     1      -7.924  14.582  67.439  1.00  0.00     0.000 HD 
HETATM   18  C   UNL     1      -9.144  19.263  66.438  1.00  0.00    -0.381 A  
HETATM   19  C   UNL     1      -8.779  16.855  66.513  1.00  0.00    -0.304 A  
HETATM   20  O   UNL     1     -10.669  17.809  65.322  1.00  0.00    -0.649 OA 
HETATM   21  C   UNL     1     -10.960  16.584  64.752  1.00  0.00    -0.177 C  
HETATM   22  C   UNL     1      -9.255  15.516  66.151  1.00  0.00    -0.344 C  
HETATM   23  C   UNL     1      -7.957  19.469  67.136  1.00  0.00    -0.298 A  
HETATM   24  O   UNL     1     -11.829  16.485  63.889  1.00  0.00    -1.059 OA 
HETATM   25  O   UNL     1      -8.615  14.485  66.795  1.00  0.00    -0.210 OA 
HETATM   26  C   UNL     1      -7.173  18.376  67.510  1.00  0.00    -0.211 A  
HETATM   27  C   UNL     1      -7.591  17.075  67.210  1.00  0.00    -0.192 A  
ENDBRANCH  14  15
ENDBRANCH   4  14
TORSDOF 2
ENDMDL
MODEL       23
REMARK 921   NORMALIZED FREE ENERGY PREDICTED BY IDOCK:   -6.93 KCAL/MOL
REMARK 922        TOTAL FREE ENERGY PREDICTED BY IDOCK:   -8.55 KCAL/MOL
REMARK 923 INTER-LIGAND FREE ENERGY PREDICTED BY IDOCK:   -8.25 KCAL/MOL
REMARK 924 INTRA-LIGAND FREE ENERGY PREDICTED BY IDOCK:   -0.31 KCAL/MOL
REMARK 927      BINDING AFFINITY PREDICTED BY RF-SCORE:    0.00 PKD
ROOT
HETATM    1  O   UNL     1     -12.276  12.140  68.379  1.00  0.00    -0.324 OA 
HETATM    2  C   UNL     1     -12.032  13.435  68.778  1.00  0.00    -0.324 C  
HETATM    3  H   UNL     1     -12.558  11.437  68.952  1.00  0.00     0.000 HD 
HETATM    4  C   UNL     1     -11.631  14.431  67.967  1.00  0.00    -0.357 C  
HETATM    5  C   UNL     1     -12.739  12.713  71.087  1.00  0.00    -0.347 A  
HETATM    6  C   UNL     1     -11.416  15.789  68.529  1.00  0.00    -0.379 C  
HETATM    7  C   UNL     1     -12.978  15.395  71.827  1.00  0.00    -0.509 A  
HETATM    8  O   UNL     1     -11.995  16.075  69.755  1.00  0.00    -0.297 OA 
HETATM    9  O   UNL     1     -10.817  16.646  67.883  1.00  0.00    -0.347 OA 
HETATM   10  C   UNL     1     -12.459  15.038  70.583  1.00  0.00    -0.365 A  
HETATM   11  C   UNL     1     -13.378  14.393  72.709  1.00  0.00    -0.606 A  
HETATM   12  C   UNL     1     -13.232  13.053  72.351  1.00  0.00    -0.487 A  
HETATM   13  C   UNL     1     -12.378  13.712  70.174  1.00  0.00    -0.372 A  
ENDROOT
BRANCH   4  14
HETATM   14  C   UNL     1     -11.493  14.353  66.461  1.00  0.00    -0.369 C  
BRANCH  14  15
HETATM   15  C   UNL     1     -10.808  13.103  65.974  1.00  0.00    -0.287 C  
HETATM   16  C   UNL     1      -9.790  10.724  64.858  1.00  0.00    -0.292 A  
HETATM   17  H   UNL     1      -7.736  13.226  67.147  1.00  0.00     0.000 HD 
HETATM   18  C   UNL     1      -9.375   9.486  64.368  1.00  0.00    -0.120 A  
HETATM   19  C   UNL     1      -9.043  11.434  65.791  1.00  0.00    -0.195 A  
HETATM   20  O   UNL     1     -11.033  11.199  64.417  1.00  0.00    -0.322 OA 
HETATM   21  C   UNL     1     -11.626  12.276  65.047  1.00  0.00    -0.343 C  
HETATM   22  C   UNL     1      -9.540  12.737  66.247  1.00  0.00    -0.242 C  
HETATM   23  C   UNL     1      -8.200   8.923  64.857  1.00  0.00    -0.161 A  
HETATM   24  O   UNL     1     -12.797  12.570  64.818  1.00  0.00    -0.755 OA 
HETATM   25  O   UNL     1      -8.630  13.484  66.955  1.00  0.00    -0.189 OA 
HETATM   26  C   UNL     1      -7.454   9.602  65.821  1.00  0.00    -0.100 A  
HETATM   27  C   UNL     1      -7.869  10.859  66.275  1.00  0.00    -0.158 A  
ENDBRANCH  14  15
ENDBRANCH   4  14
TORSDOF 2
ENDMDL
MODEL       24
REMARK 921   NORMALIZED FREE ENERGY PREDICTED BY IDOCK:   -6.91 KCAL/MOL
REMARK 922        TOTAL FREE ENERGY PREDICTED BY IDOCK:   -8.52 KCAL/MOL
REMARK 923 INTER-LIGAND FREE ENERGY PREDICTED BY IDOCK:   -8.30 KCAL/MOL
REMARK 924 INTRA-LIGAND FREE ENERGY PREDICTED BY IDOCK:   -0.23 KCAL/MOL
REMARK 927      BINDING AFFINITY PREDICTED BY RF-SCORE:    0.00 PKD
ROOT
HETATM    1  O   UNL     1     -11.969  15.806  68.284  1.00  0.00    -0.411 OA 
HETATM    2  C   UNL     1     -12.113  14.504  68.708  1.00  0.00    -0.221 C  
HETATM    3  H   UNL     1     -12.256  16.572  68.767  1.00  0.00     0.000 HD 
HETATM    4  C   UNL     1     -11.708  13.419  68.023  1.00  0.00    -0.391 C  
HETATM    5  C   UNL     1     -13.137  15.445  70.810  1.00  0.00    -0.479 A  
HETATM    6  C   UNL     1     -11.916  12.068  68.606  1.00  0.00    -0.235 C  
HETATM    7  C   UNL     1     -12.818  12.964  72.049  1.00  0.00    -0.279 A  
HETATM    8  O   UNL     1     -12.158  11.987  69.968  1.00  0.00    -0.310 OA 
HETATM    9  O   UNL     1     -11.793  11.061  67.911  1.00  0.00    -0.600 OA 
HETATM   10  C   UNL     1     -12.535  13.130  70.693  1.00  0.00    -0.286 A  
HETATM   11  C   UNL     1     -13.269  14.056  72.788  1.00  0.00    -0.580 A  
HETATM   12  C   UNL     1     -13.455  15.289  72.163  1.00  0.00    -0.546 A  
HETATM   13  C   UNL     1     -12.638  14.367  70.068  1.00  0.00    -0.283 A  
ENDROOT
BRANCH   4  14
HETATM   14  C   UNL     1     -10.914  13.423  66.734  1.00  0.00    -0.298 C  
BRANCH  14  15
HETATM   15  C   UNL     1      -9.838  14.476  66.683  1.00  0.00    -0.282 C  
HETATM   16  C   UNL     1      -8.031  16.618  66.386  1.00  0.00    -0.325 A  
HETATM   17  H   UNL     1      -7.683  13.697  69.045  1.00  0.00     0.000 HD 
HETATM   18  C   UNL     1      -7.118  17.639  66.122  1.00  0.00    -0.347 A  
HETATM   19  C   UNL     1      -7.721  15.553  67.224  1.00  0.00    -0.244 A  
HETATM   20  O   UNL     1      -9.260  16.674  65.715  1.00  0.00    -0.502 OA 
HETATM   21  C   UNL     1     -10.102  15.578  65.720  1.00  0.00    -0.360 C  
HETATM   22  C   UNL     1      -8.740  14.525  67.463  1.00  0.00    -0.188 C  
HETATM   23  C   UNL     1      -5.845  17.571  66.680  1.00  0.00    -0.226 A  
HETATM   24  O   UNL     1     -11.075  15.532  64.971  1.00  0.00    -0.388 OA 
HETATM   25  O   UNL     1      -8.456  13.663  68.494  1.00  0.00    -0.161 OA 
HETATM   26  C   UNL     1      -5.501  16.492  67.495  1.00  0.00    -0.170 A  
HETATM   27  C   UNL     1      -6.442  15.495  67.776  1.00  0.00    -0.186 A  
ENDBRANCH  14  15
ENDBRANCH   4  14
TORSDOF 2
ENDMDL
MODEL       25
REMARK 921   NORMALIZED FREE ENERGY PREDICTED BY IDOCK:   -6.88 KCAL/MOL
REMARK 922        TOTAL FREE ENERGY PREDICTED BY IDOCK:   -8.50 KCAL/MOL
REMARK 923 INTER-LIGAND FREE ENERGY PREDICTED BY IDOCK:   -7.68 KCAL/MOL
REMARK 924 INTRA-LIGAND FREE ENERGY PREDICTED BY IDOCK:   -0.82 KCAL/MOL
REMARK 927      BINDING AFFINITY PREDICTED BY RF-SCORE:    0.00 PKD
ROOT
HETATM    1  O   UNL     1     -10.408  10.538  66.677  1.00  0.00    -0.228 OA 
HETATM    2  C   UNL     1     -11.089  11.717  66.883  1.00  0.00    -0.308 C  
HETATM    3  H   UNL     1     -10.318  10.099  65.840  1.00  0.00     0.000 HD 
HETATM    4  C   UNL     1     -11.217  12.338  68.070  1.00  0.00    -0.321 C  
HETATM    5  C   UNL     1     -11.534  11.735  64.402  1.00  0.00    -0.349 A  
HETATM    6  C   UNL     1     -11.972  13.616  68.148  1.00  0.00    -0.355 C  
HETATM    7  C   UNL     1     -12.283  14.419  64.580  1.00  0.00    -0.483 A  
HETATM    8  O   UNL     1     -12.180  14.310  66.967  1.00  0.00    -0.424 OA 
HETATM    9  O   UNL     1     -12.320  14.071  69.235  1.00  0.00    -0.324 OA 
HETATM   10  C   UNL     1     -12.000  13.676  65.726  1.00  0.00    -0.395 A  
HETATM   11  C   UNL     1     -12.191  13.804  63.332  1.00  0.00    -0.123 A  
HETATM   12  C   UNL     1     -11.845  12.456  63.245  1.00  0.00    -0.491 A  
HETATM   13  C   UNL     1     -11.577  12.353  65.658  1.00  0.00    -0.441 A  
ENDROOT
BRANCH   4  14
HETATM   14  C   UNL     1     -10.542  11.936  69.364  1.00  0.00     0.068 C  
BRANCH  14  15
HETATM   15  C   UNL     1     -11.082  10.664  69.965  1.00  0.00    -0.359 C  
HETATM   16  C   UNL     1     -11.798   8.144  71.002  1.00  0.00    -0.260 A  
HETATM   17  H   UNL     1     -13.780  11.517  71.644  1.00  0.00     0.000 HD 
HETATM   18  C   UNL     1     -12.161   6.856  71.398  1.00  0.00    -0.408 A  
HETATM   19  C   UNL     1     -12.659   9.226  71.138  1.00  0.00    -0.324 A  
HETATM   20  O   UNL     1     -10.542   8.293  70.397  1.00  0.00    -0.215 OA 
HETATM   21  C   UNL     1     -10.222   9.470  69.748  1.00  0.00    -0.228 C  
HETATM   22  C   UNL     1     -12.198  10.552  70.712  1.00  0.00    -0.369 C  
HETATM   23  C   UNL     1     -13.438   6.639  71.906  1.00  0.00    -0.031 A  
HETATM   24  O   UNL     1      -9.222   9.542  69.037  1.00  0.00    -0.146 OA 
HETATM   25  O   UNL     1     -12.993  11.596  71.118  1.00  0.00    -0.328 OA 
HETATM   26  C   UNL     1     -14.332   7.705  72.017  1.00  0.00    -0.455 A  
HETATM   27  C   UNL     1     -13.936   8.995  71.646  1.00  0.00    -0.386 A  
ENDBRANCH  14  15
ENDBRANCH   4  14
TORSDOF 2
ENDMDL
MODEL       26
REMARK 921   NORMALIZED FREE ENERGY PREDICTED BY IDOCK:   -6.88 KCAL/MOL
REMARK 922        TOTAL FREE ENERGY PREDICTED BY IDOCK:   -8.50 KCAL/MOL
REMARK 923 INTER-LIGAND FREE ENERGY PREDICTED BY IDOCK:   -7.63 KCAL/MOL
REMARK 924 INTRA-LIGAND FREE ENERGY PREDICTED BY IDOCK:   -0.86 KCAL/MOL
REMARK 927      BINDING AFFINITY PREDICTED BY RF-SCORE:    0.00 PKD
ROOT
HETATM    1  O   UNL     1      -8.244  12.884  66.630  1.00  0.00    -0.410 OA 
HETATM    2  C   UNL     1      -9.597  13.032  66.837  1.00  0.00    -0.243 C  
HETATM    3  H   UNL     1      -7.852  12.428  65.894  1.00  0.00     0.000 HD 
HETATM    4  C   UNL     1     -10.154  13.678  67.878  1.00  0.00    -0.244 C  
HETATM    5  C   UNL     1      -9.927  11.805  64.660  1.00  0.00    -0.275 A  
HETATM    6  C   UNL     1     -11.633  13.774  67.973  1.00  0.00    -0.333 C  
HETATM    7  C   UNL     1     -12.583  12.664  64.605  1.00  0.00    -0.517 A  
HETATM    8  O   UNL     1     -12.365  13.544  66.819  1.00  0.00    -0.365 OA 
HETATM    9  O   UNL     1     -12.172  14.126  69.020  1.00  0.00    -0.332 OA 
HETATM   10  C   UNL     1     -11.772  12.914  65.712  1.00  0.00    -0.390 A  
HETATM   11  C   UNL     1     -12.055  11.972  63.517  1.00  0.00    -0.628 A  
HETATM   12  C   UNL     1     -10.737  11.519  63.556  1.00  0.00    -0.483 A  
HETATM   13  C   UNL     1     -10.433  12.540  65.740  1.00  0.00    -0.296 A  
ENDROOT
BRANCH   4  14
HETATM   14  C   UNL     1      -9.412  14.461  68.941  1.00  0.00    -0.107 C  
BRANCH  14  15
HETATM   15  C   UNL     1      -8.872  15.783  68.460  1.00  0.00    -0.193 C  
HETATM   16  C   UNL     1      -7.572  18.093  67.505  1.00  0.00    -0.214 A  
HETATM   17  H   UNL     1     -11.476  17.764  68.112  1.00  0.00     0.000 HD 
HETATM   18  C   UNL     1      -6.863  19.237  67.138  1.00  0.00    -0.206 A  
HETATM   19  C   UNL     1      -8.917  18.141  67.854  1.00  0.00    -0.273 A  
HETATM   20  O   UNL     1      -6.852  16.893  67.572  1.00  0.00    -0.132 OA 
HETATM   21  C   UNL     1      -7.413  15.782  68.172  1.00  0.00    -0.124 C  
HETATM   22  C   UNL     1      -9.597  16.892  68.214  1.00  0.00    -0.258 C  
HETATM   23  C   UNL     1      -7.508  20.470  67.161  1.00  0.00    -0.375 A  
HETATM   24  O   UNL     1      -6.727  14.794  68.428  1.00  0.00    -0.091 OA 
HETATM   25  O   UNL     1     -10.965  16.982  68.286  1.00  0.00    -0.365 OA 
HETATM   26  C   UNL     1      -8.848  20.546  67.543  1.00  0.00    -0.352 A  
HETATM   27  C   UNL     1      -9.551  19.382  67.874  1.00  0.00    -0.428 A  
ENDBRANCH  14  15
ENDBRANCH   4  14
TORSDOF 2
ENDMDL
MODEL       27
REMARK 921   NORMALIZED FREE ENERGY PREDICTED BY IDOCK:   -6.86 KCAL/MOL
REMARK 922        TOTAL FREE ENERGY PREDICTED BY IDOCK:   -8.47 KCAL/MOL
REMARK 923 INTER-LIGAND FREE ENERGY PREDICTED BY IDOCK:   -7.87 KCAL/MOL
REMARK 924 INTRA-LIGAND FREE ENERGY PREDICTED BY IDOCK:   -0.60 KCAL/MOL
REMARK 927      BINDING AFFINITY PREDICTED BY RF-SCORE:    0.00 PKD
ROOT
HETATM    1  O   UNL     1     -10.924  12.011  68.845  1.00  0.00    -0.221 OA 
HETATM    2  C   UNL     1     -11.818  11.889  69.885  1.00  0.00    -0.343 C  
HETATM    3  H   UNL     1     -10.670  12.831  68.438  1.00  0.00     0.000 HD 
HETATM    4  C   UNL     1     -12.179  10.728  70.462  1.00  0.00    -0.457 C  
HETATM    5  C   UNL     1     -11.990  14.404  69.854  1.00  0.00    -0.391 A  
HETATM    6  C   UNL     1     -13.148  10.742  71.588  1.00  0.00    -0.446 C  
HETATM    7  C   UNL     1     -13.207  14.328  72.365  1.00  0.00    -0.549 A  
HETATM    8  O   UNL     1     -13.345  11.944  72.249  1.00  0.00    -0.471 OA 
HETATM    9  O   UNL     1     -13.685   9.702  71.964  1.00  0.00    -0.379 OA 
HETATM   10  C   UNL     1     -12.925  13.153  71.670  1.00  0.00    -0.335 A  
HETATM   11  C   UNL     1     -12.877  15.554  71.791  1.00  0.00    -0.512 A  
HETATM   12  C   UNL     1     -12.294  15.593  70.524  1.00  0.00    -0.443 A  
HETATM   13  C   UNL     1     -12.274  13.165  70.442  1.00  0.00    -0.389 A  
ENDROOT
BRANCH   4  14
HETATM   14  C   UNL     1     -11.588   9.365  70.168  1.00  0.00    -0.117 C  
BRANCH  14  15
HETATM   15  C   UNL     1     -10.388   9.024  71.013  1.00  0.00    -0.348 C  
HETATM   16  C   UNL     1      -7.965   8.575  72.379  1.00  0.00    -0.060 A  
HETATM   17  H   UNL     1     -11.566   7.668  73.770  1.00  0.00     0.000 HD 
HETATM   18  C   UNL     1      -6.732   8.281  72.960  1.00  0.00    -0.116 A  
HETATM   19  C   UNL     1      -9.155   8.056  72.877  1.00  0.00    -0.313 A  
HETATM   20  O   UNL     1      -7.952   9.369  71.225  1.00  0.00    -0.328 OA 
HETATM   21  C   UNL     1      -9.091   9.486  70.451  1.00  0.00    -0.246 C  
HETATM   22  C   UNL     1     -10.414   8.424  72.219  1.00  0.00    -0.337 C  
HETATM   23  C   UNL     1      -6.684   7.409  74.044  1.00  0.00    -0.082 A  
HETATM   24  O   UNL     1      -9.041   9.999  69.335  1.00  0.00    -0.189 OA 
HETATM   25  O   UNL     1     -11.548   8.091  72.920  1.00  0.00    -0.397 OA 
HETATM   26  C   UNL     1      -7.863   6.848  74.536  1.00  0.00    -0.141 A  
HETATM   27  C   UNL     1      -9.094   7.183  73.962  1.00  0.00    -0.260 A  
ENDBRANCH  14  15
ENDBRANCH   4  14
TORSDOF 2
ENDMDL
MODEL       28
REMARK 921   NORMALIZED FREE ENERGY PREDICTED BY IDOCK:   -6.84 KCAL/MOL
REMARK 922        TOTAL FREE ENERGY PREDICTED BY IDOCK:   -8.45 KCAL/MOL
REMARK 923 INTER-LIGAND FREE ENERGY PREDICTED BY IDOCK:   -7.62 KCAL/MOL
REMARK 924 INTRA-LIGAND FREE ENERGY PREDICTED BY IDOCK:   -0.83 KCAL/MOL
REMARK 927      BINDING AFFINITY PREDICTED BY RF-SCORE:    0.00 PKD
ROOT
HETATM    1  O   UNL     1     -11.405  13.599  69.866  1.00  0.00    -0.449 OA 
HETATM    2  C   UNL     1     -11.560  13.046  68.614  1.00  0.00    -0.318 C  
HETATM    3  H   UNL     1     -11.249  13.107  70.663  1.00  0.00     0.000 HD 
HETATM    4  C   UNL     1     -11.782  13.742  67.484  1.00  0.00    -0.410 C  
HETATM    5  C   UNL     1     -11.155  10.808  69.700  1.00  0.00    -0.339 A  
HETATM    6  C   UNL     1     -11.918  13.017  66.194  1.00  0.00    -0.427 C  
HETATM    7  C   UNL     1     -10.731   9.687  67.179  1.00  0.00    -0.258 A  
HETATM    8  O   UNL     1     -11.437  11.719  66.134  1.00  0.00    -0.339 OA 
HETATM    9  O   UNL     1     -12.367  13.586  65.201  1.00  0.00    -0.402 OA 
HETATM   10  C   UNL     1     -11.158  11.008  67.313  1.00  0.00    -0.294 A  
HETATM   11  C   UNL     1     -10.518   8.921  68.324  1.00  0.00    -0.243 A  
HETATM   12  C   UNL     1     -10.756   9.472  69.582  1.00  0.00    -0.257 A  
HETATM   13  C   UNL     1     -11.327  11.601  68.559  1.00  0.00    -0.332 A  
ENDROOT
BRANCH   4  14
HETATM   14  C   UNL     1     -11.780  15.250  67.351  1.00  0.00    -0.120 C  
BRANCH  14  15
HETATM   15  C   UNL     1     -10.403  15.852  67.244  1.00  0.00    -0.293 C  
HETATM   16  C   UNL     1      -7.913  17.067  66.730  1.00  0.00    -0.239 A  
HETATM   17  H   UNL     1      -9.191  15.914  70.302  1.00  0.00     0.000 HD 
HETATM   18  C   UNL     1      -6.655  17.572  66.401  1.00  0.00    -0.290 A  
HETATM   19  C   UNL     1      -8.187  16.538  67.987  1.00  0.00    -0.172 A  
HETATM   20  O   UNL     1      -8.879  17.053  65.716  1.00  0.00    -0.523 OA 
HETATM   21  C   UNL     1     -10.049  16.339  65.883  1.00  0.00    -0.357 C  
HETATM   22  C   UNL     1      -9.539  16.039  68.261  1.00  0.00    -0.210 C  
HETATM   23  C   UNL     1      -5.631  17.509  67.342  1.00  0.00    -0.154 A  
HETATM   24  O   UNL     1     -10.806  16.142  64.935  1.00  0.00    -0.582 OA 
HETATM   25  O   UNL     1      -9.799  15.783  69.585  1.00  0.00    -0.276 OA 
HETATM   26  C   UNL     1      -5.875  16.949  68.596  1.00  0.00    -0.140 A  
HETATM   27  C   UNL     1      -7.153  16.478  68.920  1.00  0.00    -0.200 A  
ENDBRANCH  14  15
ENDBRANCH   4  14
TORSDOF 2
ENDMDL
MODEL       29
REMARK 921   NORMALIZED FREE ENERGY PREDICTED BY IDOCK:   -6.83 KCAL/MOL
REMARK 922        TOTAL FREE ENERGY PREDICTED BY IDOCK:   -8.44 KCAL/MOL
REMARK 923 INTER-LIGAND FREE ENERGY PREDICTED BY IDOCK:   -8.14 KCAL/MOL
REMARK 924 INTRA-LIGAND FREE ENERGY PREDICTED BY IDOCK:   -0.30 KCAL/MOL
REMARK 927      BINDING AFFINITY PREDICTED BY RF-SCORE:    0.00 PKD
ROOT
HETATM    1  O   UNL     1     -11.644  15.910  68.350  1.00  0.00    -0.371 OA 
HETATM    2  C   UNL     1     -11.908  14.590  68.639  1.00  0.00    -0.320 C  
HETATM    3  H   UNL     1     -11.896  16.648  68.892  1.00  0.00     0.000 HD 
HETATM    4  C   UNL     1     -11.551  13.544  67.871  1.00  0.00    -0.377 C  
HETATM    5  C   UNL     1     -12.965  15.410  70.775  1.00  0.00    -0.510 A  
HETATM    6  C   UNL     1     -11.891  12.166  68.310  1.00  0.00    -0.301 C  
HETATM    7  C   UNL     1     -12.898  12.806  71.781  1.00  0.00    -0.342 A  
HETATM    8  O   UNL     1     -12.208  11.978  69.646  1.00  0.00    -0.235 OA 
HETATM    9  O   UNL     1     -11.809  11.222  67.527  1.00  0.00    -0.613 OA 
HETATM   10  C   UNL     1     -12.534  13.075  70.462  1.00  0.00    -0.231 A  
HETATM   11  C   UNL     1     -13.303  13.857  72.602  1.00  0.00    -0.640 A  
HETATM   12  C   UNL     1     -13.363  15.154  72.092  1.00  0.00    -0.501 A  
HETATM   13  C   UNL     1     -12.511  14.369  69.955  1.00  0.00    -0.353 A  
ENDROOT
BRANCH   4  14
HETATM   14  C   UNL     1     -10.694  13.605  66.624  1.00  0.00    -0.280 C  
BRANCH  14  15
HETATM   15  C   UNL     1      -9.475  14.479  66.763  1.00  0.00    -0.284 C  
HETATM   16  C   UNL     1      -7.039  15.842  67.143  1.00  0.00    -0.204 A  
HETATM   17  H   UNL     1     -10.131  17.236  65.091  1.00  0.00     0.000 HD 
HETATM   18  C   UNL     1      -5.854  16.511  67.454  1.00  0.00    -0.187 A  
HETATM   19  C   UNL     1      -8.121  16.494  66.562  1.00  0.00    -0.341 A  
HETATM   20  O   UNL     1      -7.119  14.490  67.502  1.00  0.00    -0.175 OA 
HETATM   21  C   UNL     1      -8.335  13.835  67.468  1.00  0.00    -0.192 C  
HETATM   22  C   UNL     1      -9.327  15.718  66.252  1.00  0.00    -0.325 C  
HETATM   23  C   UNL     1      -5.766  17.879  67.215  1.00  0.00    -0.154 A  
HETATM   24  O   UNL     1      -8.463  12.723  67.976  1.00  0.00    -0.159 OA 
HETATM   25  O   UNL     1     -10.236  16.364  65.451  1.00  0.00    -0.546 OA 
HETATM   26  C   UNL     1      -6.854  18.560  66.666  1.00  0.00    -0.221 A  
HETATM   27  C   UNL     1      -8.021  17.864  66.330  1.00  0.00    -0.279 A  
ENDBRANCH  14  15
ENDBRANCH   4  14
TORSDOF 2
ENDMDL
MODEL       30
REMARK 921   NORMALIZED FREE ENERGY PREDICTED BY IDOCK:   -6.83 KCAL/MOL
REMARK 922        TOTAL FREE ENERGY PREDICTED BY IDOCK:   -8.44 KCAL/MOL
REMARK 923 INTER-LIGAND FREE ENERGY PREDICTED BY IDOCK:   -7.64 KCAL/MOL
REMARK 924 INTRA-LIGAND FREE ENERGY PREDICTED BY IDOCK:   -0.80 KCAL/MOL
REMARK 927      BINDING AFFINITY PREDICTED BY RF-SCORE:    0.00 PKD
ROOT
HETATM    1  O   UNL     1     -11.660  16.688  68.333  1.00  0.00    -0.170 OA 
HETATM    2  C   UNL     1     -10.300  16.776  68.530  1.00  0.00    -0.316 C  
HETATM    3  H   UNL     1     -12.220  17.408  68.066  1.00  0.00     0.000 HD 
HETATM    4  C   UNL     1      -9.507  15.757  68.908  1.00  0.00    -0.229 C  
HETATM    5  C   UNL     1     -10.490  19.187  67.819  1.00  0.00    -0.512 A  
HETATM    6  C   UNL     1      -8.048  15.988  69.072  1.00  0.00    -0.226 C  
HETATM    7  C   UNL     1      -7.720  19.282  67.485  1.00  0.00    -0.278 A  
HETATM    8  O   UNL     1      -7.506  17.113  68.469  1.00  0.00    -0.215 OA 
HETATM    9  O   UNL     1      -7.345  15.163  69.651  1.00  0.00    -0.195 OA 
HETATM   10  C   UNL     1      -8.337  18.156  68.030  1.00  0.00    -0.261 A  
HETATM   11  C   UNL     1      -8.502  20.371  67.107  1.00  0.00    -0.393 A  
HETATM   12  C   UNL     1      -9.883  20.335  67.300  1.00  0.00    -0.593 A  
HETATM   13  C   UNL     1      -9.719  18.068  68.158  1.00  0.00    -0.323 A  
ENDROOT
BRANCH   4  14
HETATM   14  C   UNL     1      -9.927  14.311  69.066  1.00  0.00    -0.104 C  
BRANCH  14  15
HETATM   15  C   UNL     1     -10.117  13.583  67.761  1.00  0.00    -0.236 C  
HETATM   16  C   UNL     1     -10.191  12.051  65.397  1.00  0.00    -0.263 A  
HETATM   17  H   UNL     1     -13.150  14.331  66.727  1.00  0.00     0.000 HD 
HETATM   18  C   UNL     1     -10.131  11.358  64.188  1.00  0.00    -0.358 A  
HETATM   19  C   UNL     1     -11.211  12.954  65.678  1.00  0.00    -0.325 A  
HETATM   20  O   UNL     1      -9.140  11.847  66.301  1.00  0.00    -0.213 OA 
HETATM   21  C   UNL     1      -8.993  12.681  67.392  1.00  0.00    -0.190 C  
HETATM   22  C   UNL     1     -11.213  13.632  66.979  1.00  0.00    -0.312 C  
HETATM   23  C   UNL     1     -11.094  11.609  63.215  1.00  0.00    -0.333 A  
HETATM   24  O   UNL     1      -7.968  12.652  68.070  1.00  0.00    -0.132 OA 
HETATM   25  O   UNL     1     -12.377  14.296  67.279  1.00  0.00    -0.337 OA 
HETATM   26  C   UNL     1     -12.105  12.539  63.461  1.00  0.00    -0.653 A  
HETATM   27  C   UNL     1     -12.168  13.197  64.694  1.00  0.00    -0.471 A  
ENDBRANCH  14  15
ENDBRANCH   4  14
TORSDOF 2
ENDMDL
MODEL       31
REMARK 921   NORMALIZED FREE ENERGY PREDICTED BY IDOCK:   -6.79 KCAL/MOL
REMARK 922        TOTAL FREE ENERGY PREDICTED BY IDOCK:   -8.40 KCAL/MOL
REMARK 923 INTER-LIGAND FREE ENERGY PREDICTED BY IDOCK:   -7.50 KCAL/MOL
REMARK 924 INTRA-LIGAND FREE ENERGY PREDICTED BY IDOCK:   -0.89 KCAL/MOL
REMARK 927      BINDING AFFINITY PREDICTED BY RF-SCORE:    0.00 PKD
ROOT
HETATM    1  O   UNL     1      -8.029  12.853  66.625  1.00  0.00    -0.396 OA 
HETATM    2  C   UNL     1      -9.287  13.394  66.478  1.00  0.00    -0.215 C  
HETATM    3  H   UNL     1      -7.232  13.354  66.753  1.00  0.00     0.000 HD 
HETATM    4  C   UNL     1     -10.416  12.686  66.296  1.00  0.00    -0.270 C  
HETATM    5  C   UNL     1      -8.207  15.649  66.800  1.00  0.00    -0.300 A  
HETATM    6  C   UNL     1     -11.713  13.400  66.164  1.00  0.00    -0.368 C  
HETATM    7  C   UNL     1     -10.727  16.768  67.238  1.00  0.00    -0.213 A  
HETATM    8  O   UNL     1     -11.772  14.710  66.609  1.00  0.00    -0.372 OA 
HETATM    9  O   UNL     1     -12.710  12.812  65.750  1.00  0.00    -0.493 OA 
HETATM   10  C   UNL     1     -10.592  15.436  66.846  1.00  0.00    -0.309 A  
HETATM   11  C   UNL     1      -9.583  17.545  67.409  1.00  0.00    -0.265 A  
HETATM   12  C   UNL     1      -8.326  16.995  67.163  1.00  0.00    -0.213 A  
HETATM   13  C   UNL     1      -9.346  14.845  66.671  1.00  0.00    -0.291 A  
ENDROOT
BRANCH   4  14
HETATM   14  C   UNL     1     -10.540  11.178  66.344  1.00  0.00    -0.315 C  
BRANCH  14  15
HETATM   15  C   UNL     1     -10.365  10.593  67.721  1.00  0.00    -0.239 C  
HETATM   16  C   UNL     1      -9.711   9.465  70.219  1.00  0.00    -0.246 A  
HETATM   17  H   UNL     1     -13.148  11.242  69.352  1.00  0.00     0.000 HD 
HETATM   18  C   UNL     1      -9.373   8.798  71.397  1.00  0.00    -0.328 A  
HETATM   19  C   UNL     1     -11.007   9.901  69.966  1.00  0.00    -0.338 A  
HETATM   20  O   UNL     1      -8.698   9.623  69.264  1.00  0.00    -0.138 OA 
HETATM   21  C   UNL     1      -9.012  10.032  67.983  1.00  0.00    -0.128 C  
HETATM   22  C   UNL     1     -11.280  10.609  68.710  1.00  0.00    -0.279 C  
HETATM   23  C   UNL     1     -10.370   8.523  72.330  1.00  0.00    -0.402 A  
HETATM   24  O   UNL     1      -8.177   9.972  67.083  1.00  0.00    -0.117 OA 
HETATM   25  O   UNL     1     -12.503  11.231  68.655  1.00  0.00    -0.442 OA 
HETATM   26  C   UNL     1     -11.684   8.920  72.079  1.00  0.00    -0.438 A  
HETATM   27  C   UNL     1     -11.996   9.618  70.907  1.00  0.00    -0.391 A  
ENDBRANCH  14  15
ENDBRANCH   4  14
TORSDOF 2
ENDMDL
MODEL       32
REMARK 921   NORMALIZED FREE ENERGY PREDICTED BY IDOCK:   -6.75 KCAL/MOL
REMARK 922        TOTAL FREE ENERGY PREDICTED BY IDOCK:   -8.35 KCAL/MOL
REMARK 923 INTER-LIGAND FREE ENERGY PREDICTED BY IDOCK:   -8.01 KCAL/MOL
REMARK 924 INTRA-LIGAND FREE ENERGY PREDICTED BY IDOCK:   -0.34 KCAL/MOL
REMARK 927      BINDING AFFINITY PREDICTED BY RF-SCORE:    0.00 PKD
ROOT
HETATM    1  O   UNL     1      -9.007  16.451  69.214  1.00  0.00    -0.229 OA 
HETATM    2  C   UNL     1      -9.165  17.190  68.063  1.00  0.00    -0.250 C  
HETATM    3  H   UNL     1      -8.336  16.600  69.869  1.00  0.00     0.000 HD 
HETATM    4  C   UNL     1     -10.115  16.979  67.133  1.00  0.00    -0.292 C  
HETATM    5  C   UNL     1      -7.233  18.597  68.863  1.00  0.00    -0.311 A  
HETATM    6  C   UNL     1     -10.178  17.863  65.941  1.00  0.00    -0.224 C  
HETATM    7  C   UNL     1      -7.910  20.552  66.988  1.00  0.00    -0.345 A  
HETATM    8  O   UNL     1      -9.526  19.084  66.011  1.00  0.00    -0.457 OA 
HETATM    9  O   UNL     1     -10.858  17.550  64.965  1.00  0.00    -0.727 OA 
HETATM   10  C   UNL     1      -8.568  19.323  67.011  1.00  0.00    -0.285 A  
HETATM   11  C   UNL     1      -6.899  20.800  67.915  1.00  0.00    -0.322 A  
HETATM   12  C   UNL     1      -6.542  19.813  68.833  1.00  0.00    -0.352 A  
HETATM   13  C   UNL     1      -8.282  18.355  67.968  1.00  0.00    -0.286 A  
ENDROOT
BRANCH   4  14
HETATM   14  C   UNL     1     -11.253  15.986  67.231  1.00  0.00    -0.041 C  
BRANCH  14  15
HETATM   15  C   UNL     1     -10.928  14.627  66.667  1.00  0.00    -0.323 C  
HETATM   16  C   UNL     1     -10.239  11.997  65.926  1.00  0.00    -0.232 A  
HETATM   17  H   UNL     1     -12.149  14.588  63.612  1.00  0.00     0.000 HD 
HETATM   18  C   UNL     1      -9.780  10.726  65.580  1.00  0.00    -0.290 A  
HETATM   19  C   UNL     1     -10.746  12.880  64.979  1.00  0.00    -0.326 A  
HETATM   20  O   UNL     1     -10.110  12.376  67.269  1.00  0.00    -0.207 OA 
HETATM   21  C   UNL     1     -10.296  13.694  67.638  1.00  0.00    -0.239 C  
HETATM   22  C   UNL     1     -11.223  14.194  65.425  1.00  0.00    -0.325 C  
HETATM   23  C   UNL     1      -9.788  10.345  64.241  1.00  0.00    -0.388 A  
HETATM   24  O   UNL     1      -9.982  14.082  68.761  1.00  0.00    -0.224 OA 
HETATM   25  O   UNL     1     -11.941  14.893  64.487  1.00  0.00    -0.447 OA 
HETATM   26  C   UNL     1     -10.258  11.230  63.270  1.00  0.00    -0.417 A  
HETATM   27  C   UNL     1     -10.747  12.487  63.642  1.00  0.00    -0.469 A  
ENDBRANCH  14  15
ENDBRANCH   4  14
TORSDOF 2
ENDMDL
MODEL       33
REMARK 921   NORMALIZED FREE ENERGY PREDICTED BY IDOCK:   -6.72 KCAL/MOL
REMARK 922        TOTAL FREE ENERGY PREDICTED BY IDOCK:   -8.31 KCAL/MOL
REMARK 923 INTER-LIGAND FREE ENERGY PREDICTED BY IDOCK:   -8.94 KCAL/MOL
REMARK 924 INTRA-LIGAND FREE ENERGY PREDICTED BY IDOCK:    0.63 KCAL/MOL
REMARK 927      BINDING AFFINITY PREDICTED BY RF-SCORE:    0.00 PKD
ROOT
HETATM    1  O   UNL     1     -11.343  15.334  68.078  1.00  0.00    -0.318 OA 
HETATM    2  C   UNL     1     -11.503  14.009  67.740  1.00  0.00    -0.322 C  
HETATM    3  H   UNL     1     -11.597  15.719  68.909  1.00  0.00     0.000 HD 
HETATM    4  C   UNL     1     -11.145  13.463  66.564  1.00  0.00    -0.312 C  
HETATM    5  C   UNL     1     -12.434  13.670  70.058  1.00  0.00    -0.267 A  
HETATM    6  C   UNL     1     -11.363  12.011  66.335  1.00  0.00    -0.354 C  
HETATM    7  C   UNL     1     -12.128  10.912  69.753  1.00  0.00    -0.409 A  
HETATM    8  O   UNL     1     -11.561  11.209  67.448  1.00  0.00    -0.522 OA 
HETATM    9  O   UNL     1     -11.286  11.537  65.204  1.00  0.00    -0.245 OA 
HETATM   10  C   UNL     1     -11.887  11.781  68.689  1.00  0.00    -0.310 A  
HETATM   11  C   UNL     1     -12.530  11.434  70.981  1.00  0.00    -0.486 A  
HETATM   12  C   UNL     1     -12.709  12.809  71.126  1.00  0.00    -0.355 A  
HETATM   13  C   UNL     1     -11.984  13.161  68.833  1.00  0.00    -0.317 A  
ENDROOT
BRANCH   4  14
HETATM   14  C   UNL     1     -10.395  14.160  65.448  1.00  0.00    -0.384 C  
BRANCH  14  15
HETATM   15  C   UNL     1      -9.856  15.515  65.828  1.00  0.00    -0.392 C  
HETATM   16  C   UNL     1      -8.581  17.886  66.660  1.00  0.00    -0.262 A  
HETATM   17  H   UNL     1     -11.764  17.719  64.302  1.00  0.00     0.000 HD 
HETATM   18  C   UNL     1      -7.974  19.025  67.188  1.00  0.00    -0.271 A  
HETATM   19  C   UNL     1      -9.794  17.945  65.983  1.00  0.00    -0.180 A  
HETATM   20  O   UNL     1      -7.946  16.660  66.896  1.00  0.00    -0.176 OA 
HETATM   21  C   UNL     1      -8.608  15.475  66.637  1.00  0.00    -0.290 C  
HETATM   22  C   UNL     1     -10.361  16.704  65.444  1.00  0.00    -0.190 C  
HETATM   23  C   UNL     1      -8.620  20.253  67.073  1.00  0.00    -0.398 A  
HETATM   24  O   UNL     1      -8.155  14.403  67.032  1.00  0.00    -0.177 OA 
HETATM   25  O   UNL     1     -11.408  16.882  64.573  1.00  0.00    -1.006 OA 
HETATM   26  C   UNL     1      -9.856  20.328  66.429  1.00  0.00    -0.502 A  
HETATM   27  C   UNL     1     -10.432  19.180  65.876  1.00  0.00    -0.500 A  
ENDBRANCH  14  15
ENDBRANCH   4  14
TORSDOF 2
ENDMDL
MODEL       34
REMARK 921   NORMALIZED FREE ENERGY PREDICTED BY IDOCK:   -6.66 KCAL/MOL
REMARK 922        TOTAL FREE ENERGY PREDICTED BY IDOCK:   -8.24 KCAL/MOL
REMARK 923 INTER-LIGAND FREE ENERGY PREDICTED BY IDOCK:   -7.37 KCAL/MOL
REMARK 924 INTRA-LIGAND FREE ENERGY PREDICTED BY IDOCK:   -0.87 KCAL/MOL
REMARK 927      BINDING AFFINITY PREDICTED BY RF-SCORE:    0.00 PKD
ROOT
HETATM    1  O   UNL     1      -9.631  14.551  65.452  1.00  0.00    -0.525 OA 
HETATM    2  C   UNL     1      -9.908  15.281  66.585  1.00  0.00    -0.250 C  
HETATM    3  H   UNL     1      -8.857  14.657  64.910  1.00  0.00     0.000 HD 
HETATM    4  C   UNL     1     -11.004  15.132  67.352  1.00  0.00    -0.314 C  
HETATM    5  C   UNL     1      -7.696  16.432  66.221  1.00  0.00    -0.144 A  
HETATM    6  C   UNL     1     -11.173  15.982  68.559  1.00  0.00    -0.374 C  
HETATM    7  C   UNL     1      -7.807  17.421  68.830  1.00  0.00    -0.250 A  
HETATM    8  O   UNL     1     -10.045  16.611  69.062  1.00  0.00    -0.262 OA 
HETATM    9  O   UNL     1     -12.259  16.050  69.129  1.00  0.00    -0.221 OA 
HETATM   10  C   UNL     1      -8.884  16.726  68.280  1.00  0.00    -0.228 A  
HETATM   11  C   UNL     1      -6.664  17.624  68.059  1.00  0.00    -0.187 A  
HETATM   12  C   UNL     1      -6.619  17.155  66.746  1.00  0.00    -0.257 A  
HETATM   13  C   UNL     1      -8.831  16.181  67.002  1.00  0.00    -0.231 A  
ENDROOT
BRANCH   4  14
HETATM   14  C   UNL     1     -12.065  14.063  67.192  1.00  0.00    -0.436 C  
BRANCH  14  15
HETATM   15  C   UNL     1     -11.641  12.703  67.681  1.00  0.00    -0.414 C  
HETATM   16  C   UNL     1     -10.735  10.103  68.283  1.00  0.00    -0.238 A  
HETATM   17  H   UNL     1     -11.864  12.798  70.962  1.00  0.00     0.000 HD 
HETATM   18  C   UNL     1     -10.381   8.774  68.512  1.00  0.00    -0.231 A  
HETATM   19  C   UNL     1     -11.277  10.904  69.282  1.00  0.00    -0.327 A  
HETATM   20  O   UNL     1     -10.581  10.586  66.976  1.00  0.00    -0.240 OA 
HETATM   21  C   UNL     1     -11.146  11.793  66.613  1.00  0.00    -0.310 C  
HETATM   22  C   UNL     1     -11.609  12.297  68.966  1.00  0.00    -0.316 C  
HETATM   23  C   UNL     1     -10.615   8.217  69.766  1.00  0.00    -0.228 A  
HETATM   24  O   UNL     1     -11.204  12.129  65.432  1.00  0.00    -0.314 OA 
HETATM   25  O   UNL     1     -11.886  13.084  70.057  1.00  0.00    -0.322 OA 
HETATM   26  C   UNL     1     -11.192   8.992  70.773  1.00  0.00    -0.329 A  
HETATM   27  C   UNL     1     -11.508  10.334  70.533  1.00  0.00    -0.427 A  
ENDBRANCH  14  15
ENDBRANCH   4  14
TORSDOF 2
ENDMDL
MODEL       35
REMARK 921   NORMALIZED FREE ENERGY PREDICTED BY IDOCK:   -6.65 KCAL/MOL
REMARK 922        TOTAL FREE ENERGY PREDICTED BY IDOCK:   -8.24 KCAL/MOL
REMARK 923 INTER-LIGAND FREE ENERGY PREDICTED BY IDOCK:   -7.81 KCAL/MOL
REMARK 924 INTRA-LIGAND FREE ENERGY PREDICTED BY IDOCK:   -0.43 KCAL/MOL
REMARK 927      BINDING AFFINITY PREDICTED BY RF-SCORE:    0.00 PKD
ROOT
HETATM    1  O   UNL     1      -9.759  10.071  70.296  1.00  0.00    -0.375 OA 
HETATM    2  C   UNL     1     -10.556   9.502  71.264  1.00  0.00    -0.288 C  
HETATM    3  H   UNL     1      -8.817   9.968  70.236  1.00  0.00     0.000 HD 
HETATM    4  C   UNL     1     -11.891   9.647  71.350  1.00  0.00    -0.484 C  
HETATM    5  C   UNL     1      -8.461   8.428  72.165  1.00  0.00    -0.245 A  
HETATM    6  C   UNL     1     -12.632   8.965  72.442  1.00  0.00    -0.353 C  
HETATM    7  C   UNL     1     -10.033   6.688  73.681  1.00  0.00    -0.270 A  
HETATM    8  O   UNL     1     -11.999   7.914  73.087  1.00  0.00    -0.161 OA 
HETATM    9  O   UNL     1     -13.793   9.274  72.699  1.00  0.00    -0.449 OA 
HETATM   10  C   UNL     1     -10.611   7.732  72.959  1.00  0.00    -0.379 A  
HETATM   11  C   UNL     1      -8.650   6.520  73.643  1.00  0.00    -0.133 A  
HETATM   12  C   UNL     1      -7.862   7.406  72.909  1.00  0.00    -0.114 A  
HETATM   13  C   UNL     1      -9.854   8.579  72.158  1.00  0.00    -0.388 A  
ENDROOT
BRANCH   4  14
HETATM   14  C   UNL     1     -12.778  10.351  70.344  1.00  0.00    -0.289 C  
BRANCH  14  15
HETATM   15  C   UNL     1     -12.382  11.779  70.074  1.00  0.00    -0.233 C  
HETATM   16  C   UNL     1     -11.732  14.514  69.884  1.00  0.00    -0.299 A  
HETATM   17  H   UNL     1     -10.723  11.745  67.232  1.00  0.00     0.000 HD 
HETATM   18  C   UNL     1     -11.532  15.891  69.792  1.00  0.00    -0.342 A  
HETATM   19  C   UNL     1     -11.487  13.661  68.814  1.00  0.00    -0.346 A  
HETATM   20  O   UNL     1     -12.255  14.026  71.089  1.00  0.00    -0.343 OA 
HETATM   21  C   UNL     1     -12.721  12.728  71.167  1.00  0.00    -0.263 C  
HETATM   22  C   UNL     1     -11.707  12.222  68.994  1.00  0.00    -0.324 C  
HETATM   23  C   UNL     1     -11.116  16.436  68.580  1.00  0.00    -0.352 A  
HETATM   24  O   UNL     1     -13.370  12.352  72.140  1.00  0.00    -0.528 OA 
HETATM   25  O   UNL     1     -11.198  11.433  67.992  1.00  0.00    -0.236 OA 
HETATM   26  C   UNL     1     -10.900  15.602  67.483  1.00  0.00    -0.316 A  
HETATM   27  C   UNL     1     -11.072  14.219  67.605  1.00  0.00    -0.305 A  
ENDBRANCH  14  15
ENDBRANCH   4  14
TORSDOF 2
ENDMDL
MODEL       36
REMARK 921   NORMALIZED FREE ENERGY PREDICTED BY IDOCK:   -6.65 KCAL/MOL
REMARK 922        TOTAL FREE ENERGY PREDICTED BY IDOCK:   -8.24 KCAL/MOL
REMARK 923 INTER-LIGAND FREE ENERGY PREDICTED BY IDOCK:   -7.69 KCAL/MOL
REMARK 924 INTRA-LIGAND FREE ENERGY PREDICTED BY IDOCK:   -0.55 KCAL/MOL
REMARK 927      BINDING AFFINITY PREDICTED BY RF-SCORE:    0.00 PKD
ROOT
HETATM    1  O   UNL     1     -10.822  16.975  69.449  1.00  0.00    -0.346 OA 
HETATM    2  C   UNL     1     -10.289  16.715  68.206  1.00  0.00    -0.304 C  
HETATM    3  H   UNL     1     -10.472  17.601  70.072  1.00  0.00     0.000 HD 
HETATM    4  C   UNL     1     -10.784  15.829  67.323  1.00  0.00    -0.313 C  
HETATM    5  C   UNL     1      -8.573  18.488  68.721  1.00  0.00    -0.266 A  
HETATM    6  C   UNL     1     -10.113  15.655  66.009  1.00  0.00    -0.333 C  
HETATM    7  C   UNL     1      -7.874  18.563  66.019  1.00  0.00    -0.182 A  
HETATM    8  O   UNL     1      -9.257  16.660  65.588  1.00  0.00    -0.491 OA 
HETATM    9  O   UNL     1     -10.381  14.692  65.293  1.00  0.00    -0.349 OA 
HETATM   10  C   UNL     1      -8.777  17.615  66.500  1.00  0.00    -0.263 A  
HETATM   11  C   UNL     1      -7.314  19.480  66.906  1.00  0.00    -0.240 A  
HETATM   12  C   UNL     1      -7.642  19.425  68.261  1.00  0.00    -0.345 A  
HETATM   13  C   UNL     1      -9.177  17.592  67.831  1.00  0.00    -0.265 A  
ENDROOT
BRANCH   4  14
HETATM   14  C   UNL     1     -12.075  15.051  67.469  1.00  0.00     0.065 C  
BRANCH  14  15
HETATM   15  C   UNL     1     -11.922  13.747  68.209  1.00  0.00    -0.392 C  
HETATM   16  C   UNL     1     -11.759  11.471  69.862  1.00  0.00    -0.343 A  
HETATM   17  H   UNL     1     -11.350  11.456  65.918  1.00  0.00     0.000 HD 
HETATM   18  C   UNL     1     -11.584  10.400  70.738  1.00  0.00    -0.450 A  
HETATM   19  C   UNL     1     -11.422  11.384  68.516  1.00  0.00    -0.361 A  
HETATM   20  O   UNL     1     -12.233  12.670  70.410  1.00  0.00    -0.349 OA 
HETATM   21  C   UNL     1     -12.185  13.836  69.670  1.00  0.00    -0.305 C  
HETATM   22  C   UNL     1     -11.650  12.549  67.655  1.00  0.00    -0.355 C  
HETATM   23  C   UNL     1     -11.016   9.221  70.262  1.00  0.00    -0.286 A  
HETATM   24  O   UNL     1     -12.395  14.925  70.201  1.00  0.00    -0.316 OA 
HETATM   25  O   UNL     1     -11.542  12.300  66.308  1.00  0.00    -0.366 OA 
HETATM   26  C   UNL     1     -10.636   9.125  68.923  1.00  0.00    -0.214 A  
HETATM   27  C   UNL     1     -10.852  10.199  68.052  1.00  0.00    -0.320 A  
ENDBRANCH  14  15
ENDBRANCH   4  14
TORSDOF 2
ENDMDL
MODEL       37
REMARK 921   NORMALIZED FREE ENERGY PREDICTED BY IDOCK:   -6.64 KCAL/MOL
REMARK 922        TOTAL FREE ENERGY PREDICTED BY IDOCK:   -8.22 KCAL/MOL
REMARK 923 INTER-LIGAND FREE ENERGY PREDICTED BY IDOCK:   -7.40 KCAL/MOL
REMARK 924 INTRA-LIGAND FREE ENERGY PREDICTED BY IDOCK:   -0.83 KCAL/MOL
REMARK 927      BINDING AFFINITY PREDICTED BY RF-SCORE:    0.00 PKD
ROOT
HETATM    1  O   UNL     1     -11.056  13.219  68.395  1.00  0.00    -0.245 OA 
HETATM    2  C   UNL     1     -10.496  12.395  67.444  1.00  0.00    -0.215 C  
HETATM    3  H   UNL     1     -11.672  13.919  68.215  1.00  0.00     0.000 HD 
HETATM    4  C   UNL     1      -9.623  11.404  67.698  1.00  0.00    -0.176 C  
HETATM    5  C   UNL     1     -11.891  13.632  65.747  1.00  0.00    -0.397 A  
HETATM    6  C   UNL     1      -9.105  10.581  66.574  1.00  0.00    -0.157 C  
HETATM    7  C   UNL     1     -11.396  11.603  63.895  1.00  0.00    -0.457 A  
HETATM    8  O   UNL     1      -9.814  10.602  65.384  1.00  0.00    -0.230 OA 
HETATM    9  O   UNL     1      -8.131   9.847  66.733  1.00  0.00    -0.115 OA 
HETATM   10  C   UNL     1     -10.762  11.610  65.137  1.00  0.00    -0.296 A  
HETATM   11  C   UNL     1     -12.286  12.628  63.580  1.00  0.00    -0.638 A  
HETATM   12  C   UNL     1     -12.512  13.657  64.494  1.00  0.00    -0.335 A  
HETATM   13  C   UNL     1     -11.031  12.582  66.093  1.00  0.00    -0.318 A  
ENDROOT
BRANCH   4  14
HETATM   14  C   UNL     1      -9.190  10.926  69.068  1.00  0.00    -0.128 C  
BRANCH  14  15
HETATM   15  C   UNL     1     -10.173   9.998  69.731  1.00  0.00    -0.286 C  
HETATM   16  C   UNL     1     -11.782   8.020  70.932  1.00  0.00    -0.251 A  
HETATM   17  H   UNL     1     -12.519  11.915  71.015  1.00  0.00     0.000 HD 
HETATM   18  C   UNL     1     -12.592   6.992  71.413  1.00  0.00    -0.428 A  
HETATM   19  C   UNL     1     -12.225   9.337  70.865  1.00  0.00    -0.264 A  
HETATM   20  O   UNL     1     -10.514   7.661  70.454  1.00  0.00    -0.212 OA 
HETATM   21  C   UNL     1      -9.765   8.568  69.730  1.00  0.00    -0.179 C  
HETATM   22  C   UNL     1     -11.308  10.364  70.360  1.00  0.00    -0.337 C  
HETATM   23  C   UNL     1     -13.897   7.283  71.800  1.00  0.00    -0.420 A  
HETATM   24  O   UNL     1      -8.756   8.208  69.127  1.00  0.00    -0.138 OA 
HETATM   25  O   UNL     1     -11.720  11.657  70.571  1.00  0.00    -0.292 OA 
HETATM   26  C   UNL     1     -14.374   8.591  71.706  1.00  0.00    -0.522 A  
HETATM   27  C   UNL     1     -13.535   9.614  71.253  1.00  0.00    -0.359 A  
ENDBRANCH  14  15
ENDBRANCH   4  14
TORSDOF 2
ENDMDL
MODEL       38
REMARK 921   NORMALIZED FREE ENERGY PREDICTED BY IDOCK:   -6.64 KCAL/MOL
REMARK 922        TOTAL FREE ENERGY PREDICTED BY IDOCK:   -8.22 KCAL/MOL
REMARK 923 INTER-LIGAND FREE ENERGY PREDICTED BY IDOCK:   -7.52 KCAL/MOL
REMARK 924 INTRA-LIGAND FREE ENERGY PREDICTED BY IDOCK:   -0.70 KCAL/MOL
REMARK 927      BINDING AFFINITY PREDICTED BY RF-SCORE:    0.00 PKD
ROOT
HETATM    1  O   UNL     1      -8.420   9.645  70.429  1.00  0.00    -0.191 OA 
HETATM    2  C   UNL     1      -9.138   8.966  71.388  1.00  0.00    -0.248 C  
HETATM    3  H   UNL     1      -7.474   9.730  70.414  1.00  0.00     0.000 HD 
HETATM    4  C   UNL     1     -10.478   8.847  71.411  1.00  0.00    -0.375 C  
HETATM    5  C   UNL     1      -6.921   8.363  72.425  1.00  0.00    -0.108 A  
HETATM    6  C   UNL     1     -11.124   8.072  72.502  1.00  0.00    -0.375 C  
HETATM    7  C   UNL     1      -8.194   6.403  73.953  1.00  0.00    -0.111 A  
HETATM    8  O   UNL     1     -10.330   7.192  73.220  1.00  0.00    -0.255 OA 
HETATM    9  O   UNL     1     -12.335   8.154  72.695  1.00  0.00    -0.300 OA 
HETATM   10  C   UNL     1      -8.930   7.284  73.159  1.00  0.00    -0.144 A  
HETATM   11  C   UNL     1      -6.805   6.512  73.980  1.00  0.00    -0.077 A  
HETATM   12  C   UNL     1      -6.171   7.508  73.240  1.00  0.00    -0.060 A  
HETATM   13  C   UNL     1      -8.313   8.234  72.352  1.00  0.00    -0.231 A  
ENDROOT
BRANCH   4  14
HETATM   14  C   UNL     1     -11.434   9.322  70.337  1.00  0.00    -0.255 C  
BRANCH  14  15
HETATM   15  C   UNL     1     -11.774  10.787  70.428  1.00  0.00    -0.445 C  
HETATM   16  C   UNL     1     -12.228  13.566  70.318  1.00  0.00    -0.347 A  
HETATM   17  H   UNL     1     -14.179  11.031  72.660  1.00  0.00     0.000 HD 
HETATM   18  C   UNL     1     -12.333  14.957  70.297  1.00  0.00    -0.393 A  
HETATM   19  C   UNL     1     -12.839  12.796  71.301  1.00  0.00    -0.355 A  
HETATM   20  O   UNL     1     -11.421  12.975  69.337  1.00  0.00    -0.273 OA 
HETATM   21  C   UNL     1     -11.059  11.646  69.447  1.00  0.00    -0.206 C  
HETATM   22  C   UNL     1     -12.693  11.337  71.246  1.00  0.00    -0.405 C  
HETATM   23  C   UNL     1     -13.036  15.598  71.314  1.00  0.00    -0.542 A  
HETATM   24  O   UNL     1     -10.189  11.171  68.720  1.00  0.00    -0.195 OA 
HETATM   25  O   UNL     1     -13.532  10.644  72.084  1.00  0.00    -0.373 OA 
HETATM   26  C   UNL     1     -13.626  14.847  72.331  1.00  0.00    -0.554 A  
HETATM   27  C   UNL     1     -13.538  13.450  72.314  1.00  0.00    -0.703 A  
ENDBRANCH  14  15
ENDBRANCH   4  14
TORSDOF 2
ENDMDL
MODEL       39
REMARK 921   NORMALIZED FREE ENERGY PREDICTED BY IDOCK:   -6.63 KCAL/MOL
REMARK 922        TOTAL FREE ENERGY PREDICTED BY IDOCK:   -8.21 KCAL/MOL
REMARK 923 INTER-LIGAND FREE ENERGY PREDICTED BY IDOCK:   -7.79 KCAL/MOL
REMARK 924 INTRA-LIGAND FREE ENERGY PREDICTED BY IDOCK:   -0.42 KCAL/MOL
REMARK 927      BINDING AFFINITY PREDICTED BY RF-SCORE:    0.00 PKD
ROOT
HETATM    1  O   UNL     1      -9.574  12.852  64.902  1.00  0.00    -0.496 OA 
HETATM    2  C   UNL     1     -10.015  11.958  65.851  1.00  0.00    -0.234 C  
HETATM    3  H   UNL     1      -8.830  12.715  64.327  1.00  0.00     0.000 HD 
HETATM    4  C   UNL     1     -11.068  12.152  66.666  1.00  0.00    -0.353 C  
HETATM    5  C   UNL     1      -8.181  10.420  65.058  1.00  0.00    -0.152 A  
HETATM    6  C   UNL     1     -11.443  11.094  67.640  1.00  0.00    -0.250 C  
HETATM    7  C   UNL     1      -9.410   8.302  66.400  1.00  0.00    -0.274 A  
HETATM    8  O   UNL     1     -10.955   9.817  67.419  1.00  0.00    -0.259 OA 
HETATM    9  O   UNL     1     -12.225  11.337  68.557  1.00  0.00    -0.588 OA 
HETATM   10  C   UNL     1      -9.887   9.606  66.531  1.00  0.00    -0.235 A  
HETATM   11  C   UNL     1      -8.302   8.061  65.589  1.00  0.00    -0.146 A  
HETATM   12  C   UNL     1      -7.672   9.123  64.941  1.00  0.00    -0.110 A  
HETATM   13  C   UNL     1      -9.322  10.667  65.833  1.00  0.00    -0.224 A  
ENDROOT
BRANCH   4  14
HETATM   14  C   UNL     1     -12.033  13.318  66.613  1.00  0.00    -0.446 C  
BRANCH  14  15
HETATM   15  C   UNL     1     -11.441  14.623  67.078  1.00  0.00    -0.379 C  
HETATM   16  C   UNL     1     -10.382  16.952  68.259  1.00  0.00    -0.335 A  
HETATM   17  H   UNL     1     -10.086  16.011  64.419  1.00  0.00     0.000 HD 
HETATM   18  C   UNL     1      -9.975  18.133  68.878  1.00  0.00    -0.352 A  
HETATM   19  C   UNL     1     -10.380  16.806  66.876  1.00  0.00    -0.294 A  
HETATM   20  O   UNL     1     -10.860  15.930  69.091  1.00  0.00    -0.232 OA 
HETATM   21  C   UNL     1     -11.518  14.844  68.546  1.00  0.00    -0.315 C  
HETATM   22  C   UNL     1     -10.810  15.527  66.302  1.00  0.00    -0.283 C  
HETATM   23  C   UNL     1      -9.593  19.215  68.089  1.00  0.00    -0.411 A  
HETATM   24  O   UNL     1     -12.124  14.053  69.265  1.00  0.00    -0.333 OA 
HETATM   25  O   UNL     1     -10.531  15.374  64.966  1.00  0.00    -0.406 OA 
HETATM   26  C   UNL     1      -9.619  19.102  66.698  1.00  0.00    -0.394 A  
HETATM   27  C   UNL     1      -9.998  17.897  66.097  1.00  0.00    -0.288 A  
ENDBRANCH  14  15
ENDBRANCH   4  14
TORSDOF 2
ENDMDL
MODEL       40
REMARK 921   NORMALIZED FREE ENERGY PREDICTED BY IDOCK:   -6.62 KCAL/MOL
REMARK 922        TOTAL FREE ENERGY PREDICTED BY IDOCK:   -8.20 KCAL/MOL
REMARK 923 INTER-LIGAND FREE ENERGY PREDICTED BY IDOCK:   -7.69 KCAL/MOL
REMARK 924 INTRA-LIGAND FREE ENERGY PREDICTED BY IDOCK:   -0.51 KCAL/MOL
REMARK 927      BINDING AFFINITY PREDICTED BY RF-SCORE:    0.00 PKD
ROOT
HETATM    1  O   UNL     1     -10.691  15.659  64.543  1.00  0.00    -0.706 OA 
HETATM    2  C   UNL     1     -10.812  15.559  65.912  1.00  0.00    -0.313 C  
HETATM    3  H   UNL     1     -10.191  16.325  64.087  1.00  0.00     0.000 HD 
HETATM    4  C   UNL     1     -11.521  14.615  66.558  1.00  0.00    -0.354 C  
HETATM    5  C   UNL     1      -9.270  17.547  66.057  1.00  0.00    -0.071 A  
HETATM    6  C   UNL     1     -11.556  14.618  68.043  1.00  0.00    -0.340 C  
HETATM    7  C   UNL     1      -8.863  17.005  68.765  1.00  0.00    -0.244 A  
HETATM    8  O   UNL     1     -10.572  15.332  68.707  1.00  0.00    -0.227 OA 
HETATM    9  O   UNL     1     -12.383  13.940  68.650  1.00  0.00    -0.278 OA 
HETATM   10  C   UNL     1      -9.797  16.283  68.022  1.00  0.00    -0.236 A  
HETATM   11  C   UNL     1      -8.129  18.011  68.141  1.00  0.00    -0.276 A  
HETATM   12  C   UNL     1      -8.352  18.301  66.795  1.00  0.00    -0.269 A  
HETATM   13  C   UNL     1      -9.980  16.502  66.661  1.00  0.00    -0.284 A  
ENDROOT
BRANCH   4  14
HETATM   14  C   UNL     1     -12.209  13.425  65.923  1.00  0.00    -0.502 C  
BRANCH  14  15
HETATM   15  C   UNL     1     -11.350  12.190  65.850  1.00  0.00    -0.407 C  
HETATM   16  C   UNL     1      -9.604  10.016  65.443  1.00  0.00    -0.279 A  
HETATM   17  H   UNL     1     -11.764  10.619  68.712  1.00  0.00     0.000 HD 
HETATM   18  C   UNL     1      -8.808   8.911  65.142  1.00  0.00    -0.209 A  
HETATM   19  C   UNL     1     -10.448  10.037  66.547  1.00  0.00    -0.223 A  
HETATM   20  O   UNL     1      -9.566  11.091  64.544  1.00  0.00    -0.228 OA 
HETATM   21  C   UNL     1     -10.507  12.098  64.629  1.00  0.00    -0.299 C  
HETATM   22  C   UNL     1     -11.242  11.244  66.804  1.00  0.00    -0.195 C  
HETATM   23  C   UNL     1      -8.892   7.778  65.946  1.00  0.00    -0.176 A  
HETATM   24  O   UNL     1     -10.620  12.929  63.729  1.00  0.00    -0.390 OA 
HETATM   25  O   UNL     1     -11.840  11.286  68.040  1.00  0.00    -0.578 OA 
HETATM   26  C   UNL     1      -9.760   7.764  67.038  1.00  0.00    -0.259 A  
HETATM   27  C   UNL     1     -10.524   8.896  67.343  1.00  0.00    -0.347 A  
ENDBRANCH  14  15
ENDBRANCH   4  14
TORSDOF 2
ENDMDL
MODEL       41
REMARK 921   NORMALIZED FREE ENERGY PREDICTED BY IDOCK:   -6.61 KCAL/MOL
REMARK 922        TOTAL FREE ENERGY PREDICTED BY IDOCK:   -8.20 KCAL/MOL
REMARK 923 INTER-LIGAND FREE ENERGY PREDICTED BY IDOCK:   -7.42 KCAL/MOL
REMARK 924 INTRA-LIGAND FREE ENERGY PREDICTED BY IDOCK:   -0.77 KCAL/MOL
REMARK 927      BINDING AFFINITY PREDICTED BY RF-SCORE:    0.00 PKD
ROOT
HETATM    1  O   UNL     1      -9.518  10.052  69.289  1.00  0.00    -0.191 OA 
HETATM    2  C   UNL     1     -10.282   9.738  70.390  1.00  0.00    -0.281 C  
HETATM    3  H   UNL     1      -8.598   9.840  69.185  1.00  0.00     0.000 HD 
HETATM    4  C   UNL     1     -11.586  10.039  70.538  1.00  0.00    -0.403 C  
HETATM    5  C   UNL     1      -8.231   8.608  71.322  1.00  0.00    -0.194 A  
HETATM    6  C   UNL     1     -12.294   9.628  71.778  1.00  0.00    -0.392 C  
HETATM    7  C   UNL     1      -9.829   7.319  73.214  1.00  0.00    -0.302 A  
HETATM    8  O   UNL     1     -11.712   8.635  72.550  1.00  0.00    -0.361 OA 
HETATM    9  O   UNL     1     -13.396  10.098  72.054  1.00  0.00    -0.434 OA 
HETATM   10  C   UNL     1     -10.364   8.286  72.364  1.00  0.00    -0.332 A  
HETATM   11  C   UNL     1      -8.476   6.999  73.114  1.00  0.00    -0.136 A  
HETATM   12  C   UNL     1      -7.672   7.663  72.188  1.00  0.00    -0.099 A  
HETATM   13  C   UNL     1      -9.599   8.904  71.381  1.00  0.00    -0.359 A  
ENDROOT
BRANCH   4  14
HETATM   14  C   UNL     1     -12.482  10.659  69.487  1.00  0.00    -0.036 C  
BRANCH  14  15
HETATM   15  C   UNL     1     -12.075  12.052  69.082  1.00  0.00    -0.241 C  
HETATM   16  C   UNL     1     -11.288  14.536  68.010  1.00  0.00    -0.306 A  
HETATM   17  H   UNL     1     -12.764  13.991  71.649  1.00  0.00     0.000 HD 
HETATM   18  C   UNL     1     -10.785  15.718  67.466  1.00  0.00    -0.317 A  
HETATM   19  C   UNL     1     -11.622  14.429  69.356  1.00  0.00    -0.349 A  
HETATM   20  O   UNL     1     -11.385  13.432  67.153  1.00  0.00    -0.291 OA 
HETATM   21  C   UNL     1     -11.622  12.173  67.670  1.00  0.00    -0.343 C  
HETATM   22  C   UNL     1     -12.159  13.156  69.849  1.00  0.00    -0.287 C  
HETATM   23  C   UNL     1     -10.570  16.810  68.301  1.00  0.00    -0.352 A  
HETATM   24  O   UNL     1     -11.500  11.172  66.967  1.00  0.00    -0.442 OA 
HETATM   25  O   UNL     1     -12.705  13.213  71.109  1.00  0.00    -0.355 OA 
HETATM   26  C   UNL     1     -10.863  16.713  69.662  1.00  0.00    -0.282 A  
HETATM   27  C   UNL     1     -11.400  15.529  70.182  1.00  0.00    -0.339 A  
ENDBRANCH  14  15
ENDBRANCH   4  14
TORSDOF 2
ENDMDL
MODEL       42
REMARK 921   NORMALIZED FREE ENERGY PREDICTED BY IDOCK:   -6.60 KCAL/MOL
REMARK 922        TOTAL FREE ENERGY PREDICTED BY IDOCK:   -8.18 KCAL/MOL
REMARK 923 INTER-LIGAND FREE ENERGY PREDICTED BY IDOCK:   -7.60 KCAL/MOL
REMARK 924 INTRA-LIGAND FREE ENERGY PREDICTED BY IDOCK:   -0.58 KCAL/MOL
REMARK 927      BINDING AFFINITY PREDICTED BY RF-SCORE:    0.00 PKD
ROOT
HETATM    1  O   UNL     1     -10.533  16.468  65.274  1.00  0.00    -0.590 OA 
HETATM    2  C   UNL     1     -10.353  16.484  66.639  1.00  0.00    -0.298 C  
HETATM    3  H   UNL     1     -10.083  17.034  64.658  1.00  0.00     0.000 HD 
HETATM    4  C   UNL     1     -10.991  15.682  67.512  1.00  0.00    -0.309 C  
HETATM    5  C   UNL     1      -8.624  18.276  66.254  1.00  0.00    -0.208 A  
HETATM    6  C   UNL     1     -10.692  15.798  68.963  1.00  0.00    -0.235 C  
HETATM    7  C   UNL     1      -7.677  17.889  68.852  1.00  0.00    -0.206 A  
HETATM    8  O   UNL     1      -9.516  16.434  69.326  1.00  0.00    -0.246 OA 
HETATM    9  O   UNL     1     -11.426  15.271  69.797  1.00  0.00    -0.269 OA 
HETATM   10  C   UNL     1      -8.822  17.233  68.401  1.00  0.00    -0.269 A  
HETATM   11  C   UNL     1      -7.003  18.751  67.989  1.00  0.00    -0.255 A  
HETATM   12  C   UNL     1      -7.492  18.966  66.701  1.00  0.00    -0.242 A  
HETATM   13  C   UNL     1      -9.282  17.372  67.096  1.00  0.00    -0.241 A  
ENDROOT
BRANCH   4  14
HETATM   14  C   UNL     1     -11.921  14.541  67.159  1.00  0.00    -0.373 C  
BRANCH  14  15
HETATM   15  C   UNL     1     -11.334  13.553  66.186  1.00  0.00    -0.325 C  
HETATM   16  C   UNL     1     -10.393  11.877  64.125  1.00  0.00    -0.336 A  
HETATM   17  H   UNL     1      -9.050  11.872  67.855  1.00  0.00     0.000 HD 
HETATM   18  C   UNL     1     -10.044  11.004  63.095  1.00  0.00    -0.350 A  
HETATM   19  C   UNL     1      -9.982  11.670  65.437  1.00  0.00    -0.287 A  
HETATM   20  O   UNL     1     -11.237  12.946  63.794  1.00  0.00    -0.408 OA 
HETATM   21  C   UNL     1     -11.833  13.693  64.792  1.00  0.00    -0.387 C  
HETATM   22  C   UNL     1     -10.379  12.642  66.461  1.00  0.00    -0.242 C  
HETATM   23  C   UNL     1      -9.296   9.868  63.394  1.00  0.00    -0.223 A  
HETATM   24  O   UNL     1     -12.731  14.489  64.528  1.00  0.00    -0.653 OA 
HETATM   25  O   UNL     1      -9.723  12.513  67.661  1.00  0.00    -0.188 OA 
HETATM   26  C   UNL     1      -8.904   9.622  64.710  1.00  0.00    -0.242 A  
HETATM   27  C   UNL     1      -9.236  10.528  65.724  1.00  0.00    -0.215 A  
ENDBRANCH  14  15
ENDBRANCH   4  14
TORSDOF 2
ENDMDL
MODEL       43
REMARK 921   NORMALIZED FREE ENERGY PREDICTED BY IDOCK:   -6.59 KCAL/MOL
REMARK 922        TOTAL FREE ENERGY PREDICTED BY IDOCK:   -8.17 KCAL/MOL
REMARK 923 INTER-LIGAND FREE ENERGY PREDICTED BY IDOCK:   -7.45 KCAL/MOL
REMARK 924 INTRA-LIGAND FREE ENERGY PREDICTED BY IDOCK:   -0.73 KCAL/MOL
REMARK 927      BINDING AFFINITY PREDICTED BY RF-SCORE:    0.00 PKD
ROOT
HETATM    1  O   UNL     1     -11.098  15.472  64.560  1.00  0.00    -0.653 OA 
HETATM    2  C   UNL     1     -11.108  15.415  65.936  1.00  0.00    -0.247 C  
HETATM    3  H   UNL     1     -10.666  16.144  64.045  1.00  0.00     0.000 HD 
HETATM    4  C   UNL     1     -11.721  14.465  66.665  1.00  0.00    -0.410 C  
HETATM    5  C   UNL     1      -9.650  17.471  65.896  1.00  0.00    -0.028 A  
HETATM    6  C   UNL     1     -11.640  14.518  68.148  1.00  0.00    -0.331 C  
HETATM    7  C   UNL     1      -9.010  17.042  68.579  1.00  0.00    -0.263 A  
HETATM    8  O   UNL     1     -10.640  15.296  68.709  1.00  0.00    -0.227 OA 
HETATM    9  O   UNL     1     -12.386  13.827  68.840  1.00  0.00    -0.291 OA 
HETATM   10  C   UNL     1      -9.965  16.255  67.935  1.00  0.00    -0.241 A  
HETATM   11  C   UNL     1      -8.373  18.056  67.867  1.00  0.00    -0.249 A  
HETATM   12  C   UNL     1      -8.713  18.289  66.535  1.00  0.00    -0.290 A  
HETATM   13  C   UNL     1     -10.263  16.419  66.587  1.00  0.00    -0.296 A  
ENDROOT
BRANCH   4  14
HETATM   14  C   UNL     1     -12.401  13.226  66.124  1.00  0.00    -0.423 C  
BRANCH  14  15
HETATM   15  C   UNL     1     -11.449  12.199  65.569  1.00  0.00    -0.394 C  
HETATM   16  C   UNL     1      -9.705  10.116  64.821  1.00  0.00    -0.322 A  
HETATM   17  H   UNL     1     -11.170  12.853  62.356  1.00  0.00     0.000 HD 
HETATM   18  C   UNL     1      -8.759   9.132  64.533  1.00  0.00    -0.192 A  
HETATM   19  C   UNL     1     -10.015  11.127  63.918  1.00  0.00    -0.381 A  
HETATM   20  O   UNL     1     -10.288  10.084  66.095  1.00  0.00    -0.224 OA 
HETATM   21  C   UNL     1     -11.027  11.161  66.546  1.00  0.00    -0.209 C  
HETATM   22  C   UNL     1     -11.031  12.117  64.290  1.00  0.00    -0.339 C  
HETATM   23  C   UNL     1      -8.074   9.185  63.322  1.00  0.00    -0.165 A  
HETATM   24  O   UNL     1     -11.364  11.240  67.725  1.00  0.00    -0.265 OA 
HETATM   25  O   UNL     1     -11.465  12.911  63.257  1.00  0.00    -0.448 OA 
HETATM   26  C   UNL     1      -8.344  10.212  62.417  1.00  0.00    -0.180 A  
HETATM   27  C   UNL     1      -9.320  11.170  62.710  1.00  0.00    -0.377 A  
ENDBRANCH  14  15
ENDBRANCH   4  14
TORSDOF 2
ENDMDL
MODEL       44
REMARK 921   NORMALIZED FREE ENERGY PREDICTED BY IDOCK:   -6.57 KCAL/MOL
REMARK 922        TOTAL FREE ENERGY PREDICTED BY IDOCK:   -8.14 KCAL/MOL
REMARK 923 INTER-LIGAND FREE ENERGY PREDICTED BY IDOCK:   -7.29 KCAL/MOL
REMARK 924 INTRA-LIGAND FREE ENERGY PREDICTED BY IDOCK:   -0.85 KCAL/MOL
REMARK 927      BINDING AFFINITY PREDICTED BY RF-SCORE:    0.00 PKD
ROOT
HETATM    1  O   UNL     1      -8.862  11.752  65.364  1.00  0.00    -0.403 OA 
HETATM    2  C   UNL     1      -9.513  11.168  66.428  1.00  0.00    -0.193 C  
HETATM    3  H   UNL     1      -7.991  11.519  65.064  1.00  0.00     0.000 HD 
HETATM    4  C   UNL     1     -10.746  11.498  66.855  1.00  0.00    -0.304 C  
HETATM    5  C   UNL     1      -7.500   9.669  66.662  1.00  0.00    -0.094 A  
HETATM    6  C   UNL     1     -11.335  10.776  68.012  1.00  0.00    -0.307 C  
HETATM    7  C   UNL     1      -8.982   7.975  68.313  1.00  0.00    -0.132 A  
HETATM    8  O   UNL     1     -10.776   9.557  68.360  1.00  0.00    -0.221 OA 
HETATM    9  O   UNL     1     -12.335  11.213  68.579  1.00  0.00    -0.561 OA 
HETATM   10  C   UNL     1      -9.509   9.191  67.877  1.00  0.00    -0.141 A  
HETATM   11  C   UNL     1      -7.697   7.609  67.919  1.00  0.00    -0.115 A  
HETATM   12  C   UNL     1      -6.946   8.468  67.117  1.00  0.00    -0.075 A  
HETATM   13  C   UNL     1      -8.808  10.026  67.014  1.00  0.00    -0.147 A  
ENDROOT
BRANCH   4  14
HETATM   14  C   UNL     1     -11.692  12.470  66.182  1.00  0.00    -0.466 C  
BRANCH  14  15
HETATM   15  C   UNL     1     -11.278  13.913  66.311  1.00  0.00    -0.310 C  
HETATM   16  C   UNL     1     -10.447  16.604  66.220  1.00  0.00    -0.268 A  
HETATM   17  H   UNL     1     -12.246  14.879  69.304  1.00  0.00     0.000 HD 
HETATM   18  C   UNL     1      -9.920  17.894  66.157  1.00  0.00    -0.288 A  
HETATM   19  C   UNL     1     -10.903  16.052  67.412  1.00  0.00    -0.277 A  
HETATM   20  O   UNL     1     -10.440  15.855  65.036  1.00  0.00    -0.518 OA 
HETATM   21  C   UNL     1     -10.697  14.498  65.073  1.00  0.00    -0.427 C  
HETATM   22  C   UNL     1     -11.458  14.694  67.394  1.00  0.00    -0.369 C  
HETATM   23  C   UNL     1      -9.808  18.638  67.328  1.00  0.00    -0.345 A  
HETATM   24  O   UNL     1     -10.489  13.792  64.088  1.00  0.00    -0.252 OA 
HETATM   25  O   UNL     1     -12.120  14.328  68.540  1.00  0.00    -0.329 OA 
HETATM   26  C   UNL     1     -10.225  18.089  68.541  1.00  0.00    -0.392 A  
HETATM   27  C   UNL     1     -10.783  16.806  68.578  1.00  0.00    -0.358 A  
ENDBRANCH  14  15
ENDBRANCH   4  14
TORSDOF 2
ENDMDL
MODEL       45
REMARK 921   NORMALIZED FREE ENERGY PREDICTED BY IDOCK:   -6.54 KCAL/MOL
REMARK 922        TOTAL FREE ENERGY PREDICTED BY IDOCK:   -8.11 KCAL/MOL
REMARK 923 INTER-LIGAND FREE ENERGY PREDICTED BY IDOCK:   -7.42 KCAL/MOL
REMARK 924 INTRA-LIGAND FREE ENERGY PREDICTED BY IDOCK:   -0.69 KCAL/MOL
REMARK 927      BINDING AFFINITY PREDICTED BY RF-SCORE:    0.00 PKD
ROOT
HETATM    1  O   UNL     1     -11.667  12.981  65.513  1.00  0.00    -0.333 OA 
HETATM    2  C   UNL     1     -10.395  13.026  66.039  1.00  0.00    -0.285 C  
HETATM    3  H   UNL     1     -12.039  12.240  65.050  1.00  0.00     0.000 HD 
HETATM    4  C   UNL     1      -9.867  14.076  66.694  1.00  0.00    -0.288 C  
HETATM    5  C   UNL     1     -10.125  10.652  65.236  1.00  0.00    -0.363 A  
HETATM    6  C   UNL     1      -8.481  13.985  67.222  1.00  0.00    -0.207 C  
HETATM    7  C   UNL     1      -7.870  10.384  66.859  1.00  0.00    -0.114 A  
HETATM    8  O   UNL     1      -7.930  12.722  67.364  1.00  0.00    -0.165 OA 
HETATM    9  O   UNL     1      -7.887  14.994  67.595  1.00  0.00    -0.139 OA 
HETATM   10  C   UNL     1      -8.509  11.616  66.719  1.00  0.00    -0.177 A  
HETATM   11  C   UNL     1      -8.367   9.278  66.174  1.00  0.00    -0.122 A  
HETATM   12  C   UNL     1      -9.477   9.417  65.341  1.00  0.00    -0.322 A  
HETATM   13  C   UNL     1      -9.663  11.761  65.956  1.00  0.00    -0.254 A  
ENDROOT
BRANCH   4  14
HETATM   14  C   UNL     1     -10.598  15.343  67.084  1.00  0.00    -0.305 C  
BRANCH  14  15
HETATM   15  C   UNL     1     -11.111  15.341  68.501  1.00  0.00    -0.284 C  
HETATM   16  C   UNL     1     -11.947  15.649  71.174  1.00  0.00    -0.409 A  
HETATM   17  H   UNL     1     -13.077  12.715  68.759  1.00  0.00     0.000 HD 
HETATM   18  C   UNL     1     -12.242  15.794  72.530  1.00  0.00    -0.570 A  
HETATM   19  C   UNL     1     -12.259  14.489  70.473  1.00  0.00    -0.399 A  
HETATM   20  O   UNL     1     -11.262  16.703  70.556  1.00  0.00    -0.250 OA 
HETATM   21  C   UNL     1     -10.709  16.529  69.301  1.00  0.00    -0.331 C  
HETATM   22  C   UNL     1     -11.930  14.419  69.045  1.00  0.00    -0.307 C  
HETATM   23  C   UNL     1     -12.826  14.732  73.214  1.00  0.00    -0.621 A  
HETATM   24  O   UNL     1      -9.931  17.359  68.837  1.00  0.00    -0.305 OA 
HETATM   25  O   UNL     1     -12.500  13.364  68.376  1.00  0.00    -0.041 OA 
HETATM   26  C   UNL     1     -13.113  13.545  72.538  1.00  0.00    -0.458 A  
HETATM   27  C   UNL     1     -12.842  13.432  71.170  1.00  0.00    -0.372 A  
ENDBRANCH  14  15
ENDBRANCH   4  14
TORSDOF 2
ENDMDL
MODEL       46
REMARK 921   NORMALIZED FREE ENERGY PREDICTED BY IDOCK:   -6.51 KCAL/MOL
REMARK 922        TOTAL FREE ENERGY PREDICTED BY IDOCK:   -8.09 KCAL/MOL
REMARK 923 INTER-LIGAND FREE ENERGY PREDICTED BY IDOCK:   -7.81 KCAL/MOL
REMARK 924 INTRA-LIGAND FREE ENERGY PREDICTED BY IDOCK:   -0.28 KCAL/MOL
REMARK 927      BINDING AFFINITY PREDICTED BY RF-SCORE:    0.00 PKD
ROOT
HETATM    1  O   UNL     1      -9.276  10.170  70.232  1.00  0.00    -0.366 OA 
HETATM    2  C   UNL     1      -9.921   9.064  69.725  1.00  0.00    -0.196 C  
HETATM    3  H   UNL     1      -9.285  10.435  71.144  1.00  0.00     0.000 HD 
HETATM    4  C   UNL     1      -9.909   8.688  68.433  1.00  0.00    -0.189 C  
HETATM    5  C   UNL     1     -10.645   8.569  72.088  1.00  0.00    -0.419 A  
HETATM    6  C   UNL     1     -10.640   7.462  68.022  1.00  0.00    -0.175 C  
HETATM    7  C   UNL     1     -11.348   5.983  71.306  1.00  0.00    -0.296 A  
HETATM    8  O   UNL     1     -10.976   6.554  69.013  1.00  0.00    -0.280 OA 
HETATM    9  O   UNL     1     -10.860   7.232  66.834  1.00  0.00    -0.355 OA 
HETATM   10  C   UNL     1     -10.943   6.930  70.366  1.00  0.00    -0.274 A  
HETATM   11  C   UNL     1     -11.403   6.340  72.652  1.00  0.00    -0.283 A  
HETATM   12  C   UNL     1     -11.079   7.640  73.039  1.00  0.00    -0.437 A  
HETATM   13  C   UNL     1     -10.540   8.208  70.739  1.00  0.00    -0.234 A  
ENDROOT
BRANCH   4  14
HETATM   14  C   UNL     1      -9.095   9.325  67.326  1.00  0.00    -0.143 C  
BRANCH  14  15
HETATM   15  C   UNL     1      -9.890  10.240  66.431  1.00  0.00    -0.272 C  
HETATM   16  C   UNL     1     -11.279  11.754  64.503  1.00  0.00    -0.305 A  
HETATM   17  H   UNL     1     -11.727  12.102  68.427  1.00  0.00     0.000 HD 
HETATM   18  C   UNL     1     -11.856  12.544  63.509  1.00  0.00    -0.616 A  
HETATM   19  C   UNL     1     -11.377  12.079  65.851  1.00  0.00    -0.391 A  
HETATM   20  O   UNL     1     -10.535  10.644  64.082  1.00  0.00    -0.336 OA 
HETATM   21  C   UNL     1      -9.726   9.972  64.978  1.00  0.00    -0.317 C  
HETATM   22  C   UNL     1     -10.755  11.190  66.838  1.00  0.00    -0.274 C  
HETATM   23  C   UNL     1     -12.514  13.716  63.871  1.00  0.00    -0.276 A  
HETATM   24  O   UNL     1      -8.913   9.138  64.585  1.00  0.00    -0.192 OA 
HETATM   25  O   UNL     1     -11.118  11.433  68.140  1.00  0.00    -0.211 OA 
HETATM   26  C   UNL     1     -12.592  14.080  65.216  1.00  0.00    -0.495 A  
HETATM   27  C   UNL     1     -12.037  13.256  66.201  1.00  0.00    -0.477 A  
ENDBRANCH  14  15
ENDBRANCH   4  14
TORSDOF 2
ENDMDL
MODEL       47
REMARK 921   NORMALIZED FREE ENERGY PREDICTED BY IDOCK:   -6.50 KCAL/MOL
REMARK 922        TOTAL FREE ENERGY PREDICTED BY IDOCK:   -8.07 KCAL/MOL
REMARK 923 INTER-LIGAND FREE ENERGY PREDICTED BY IDOCK:   -8.30 KCAL/MOL
REMARK 924 INTRA-LIGAND FREE ENERGY PREDICTED BY IDOCK:    0.23 KCAL/MOL
REMARK 927      BINDING AFFINITY PREDICTED BY RF-SCORE:    0.00 PKD
ROOT
HETATM    1  O   UNL     1     -12.559   6.812  70.309  1.00  0.00    -0.537 OA 
HETATM    2  C   UNL     1     -11.419   7.338  70.873  1.00  0.00    -0.292 C  
HETATM    3  H   UNL     1     -12.963   5.990  70.561  1.00  0.00     0.000 HD 
HETATM    4  C   UNL     1     -10.846   8.502  70.516  1.00  0.00    -0.252 C  
HETATM    5  C   UNL     1     -11.423   5.342  72.413  1.00  0.00    -0.212 A  
HETATM    6  C   UNL     1      -9.620   8.959  71.220  1.00  0.00    -0.278 C  
HETATM    7  C   UNL     1      -9.589   6.644  74.068  1.00  0.00    -0.257 A  
HETATM    8  O   UNL     1      -9.334   8.385  72.448  1.00  0.00    -0.242 OA 
HETATM    9  O   UNL     1      -8.938   9.872  70.759  1.00  0.00    -0.056 OA 
HETATM   10  C   UNL     1      -9.967   7.195  72.843  1.00  0.00    -0.197 A  
HETATM   11  C   UNL     1     -10.136   5.425  74.462  1.00  0.00    -0.291 A  
HETATM   12  C   UNL     1     -11.031   4.761  73.623  1.00  0.00    -0.391 A  
HETATM   13  C   UNL     1     -10.916   6.590  72.027  1.00  0.00    -0.283 A  
ENDROOT
BRANCH   4  14
HETATM   14  C   UNL     1     -11.405   9.504  69.528  1.00  0.00    -0.025 C  
BRANCH  14  15
HETATM   15  C   UNL     1     -11.949  10.755  70.167  1.00  0.00    -0.432 C  
HETATM   16  C   UNL     1     -13.117  12.892  71.585  1.00  0.00    -0.335 A  
HETATM   17  H   UNL     1     -10.283  13.262  68.836  1.00  0.00     0.000 HD 
HETATM   18  C   UNL     1     -13.804  13.914  72.239  1.00  0.00    -0.669 A  
HETATM   19  C   UNL     1     -12.263  13.145  70.517  1.00  0.00    -0.405 A  
HETATM   20  O   UNL     1     -13.372  11.581  72.009  1.00  0.00    -0.476 OA 
HETATM   21  C   UNL     1     -12.938  10.511  71.250  1.00  0.00    -0.433 C  
HETATM   22  C   UNL     1     -11.565  12.017  69.891  1.00  0.00    -0.238 C  
HETATM   23  C   UNL     1     -13.666  15.223  71.784  1.00  0.00    -0.605 A  
HETATM   24  O   UNL     1     -13.331   9.372  71.491  1.00  0.00    -0.364 OA 
HETATM   25  O   UNL     1     -10.554  12.373  69.031  1.00  0.00    -0.165 OA 
HETATM   26  C   UNL     1     -12.843  15.494  70.690  1.00  0.00    -0.466 A  
HETATM   27  C   UNL     1     -12.135  14.459  70.070  1.00  0.00    -0.401 A  
ENDBRANCH  14  15
ENDBRANCH   4  14
TORSDOF 2
ENDMDL
MODEL       48
REMARK 921   NORMALIZED FREE ENERGY PREDICTED BY IDOCK:   -6.50 KCAL/MOL
REMARK 922        TOTAL FREE ENERGY PREDICTED BY IDOCK:   -8.07 KCAL/MOL
REMARK 923 INTER-LIGAND FREE ENERGY PREDICTED BY IDOCK:   -7.35 KCAL/MOL
REMARK 924 INTRA-LIGAND FREE ENERGY PREDICTED BY IDOCK:   -0.72 KCAL/MOL
REMARK 927      BINDING AFFINITY PREDICTED BY RF-SCORE:    0.00 PKD
ROOT
HETATM    1  O   UNL     1     -11.406  17.185  68.575  1.00  0.00    -0.102 OA 
HETATM    2  C   UNL     1     -10.032  17.193  68.662  1.00  0.00    -0.313 C  
HETATM    3  H   UNL     1     -11.945  17.944  68.386  1.00  0.00     0.000 HD 
HETATM    4  C   UNL     1      -9.268  16.118  68.930  1.00  0.00    -0.234 C  
HETATM    5  C   UNL     1     -10.144  19.640  68.071  1.00  0.00    -0.555 A  
HETATM    6  C   UNL     1      -7.791  16.266  68.982  1.00  0.00    -0.235 C  
HETATM    7  C   UNL     1      -7.409  19.607  67.512  1.00  0.00    -0.284 A  
HETATM    8  O   UNL     1      -7.237  17.387  68.384  1.00  0.00    -0.204 OA 
HETATM    9  O   UNL     1      -7.090  15.379  69.466  1.00  0.00    -0.175 OA 
HETATM   10  C   UNL     1      -8.042  18.492  68.059  1.00  0.00    -0.271 A  
HETATM   11  C   UNL     1      -8.158  20.752  67.247  1.00  0.00    -0.248 A  
HETATM   12  C   UNL     1      -9.519  20.779  67.552  1.00  0.00    -0.419 A  
HETATM   13  C   UNL     1      -9.412  18.469  68.298  1.00  0.00    -0.360 A  
ENDROOT
BRANCH   4  14
HETATM   14  C   UNL     1      -9.754  14.690  69.062  1.00  0.00    -0.161 C  
BRANCH  14  15
HETATM   15  C   UNL     1     -10.408  14.149  67.817  1.00  0.00    -0.242 C  
HETATM   16  C   UNL     1     -11.921  13.246  65.619  1.00  0.00    -0.412 A  
HETATM   17  H   UNL     1      -7.965  13.482  65.716  1.00  0.00     0.000 HD 
HETATM   18  C   UNL     1     -12.715  12.710  64.605  1.00  0.00    -0.458 A  
HETATM   19  C   UNL     1     -10.536  13.119  65.614  1.00  0.00    -0.289 A  
HETATM   20  O   UNL     1     -12.584  13.867  66.685  1.00  0.00    -0.351 OA 
HETATM   21  C   UNL     1     -11.894  14.186  67.839  1.00  0.00    -0.370 C  
HETATM   22  C   UNL     1      -9.770  13.723  66.709  1.00  0.00    -0.275 C  
HETATM   23  C   UNL     1     -12.109  11.990  63.579  1.00  0.00    -0.628 A  
HETATM   24  O   UNL     1     -12.495  14.532  68.853  1.00  0.00    -0.118 OA 
HETATM   25  O   UNL     1      -8.414  13.782  66.497  1.00  0.00     0.056 OA 
HETATM   26  C   UNL     1     -10.724  11.819  63.575  1.00  0.00    -0.501 A  
HETATM   27  C   UNL     1      -9.942  12.394  64.582  1.00  0.00    -0.198 A  
ENDBRANCH  14  15
ENDBRANCH   4  14
TORSDOF 2
ENDMDL
MODEL       49
REMARK 921   NORMALIZED FREE ENERGY PREDICTED BY IDOCK:   -6.50 KCAL/MOL
REMARK 922        TOTAL FREE ENERGY PREDICTED BY IDOCK:   -8.07 KCAL/MOL
REMARK 923 INTER-LIGAND FREE ENERGY PREDICTED BY IDOCK:   -7.22 KCAL/MOL
REMARK 924 INTRA-LIGAND FREE ENERGY PREDICTED BY IDOCK:   -0.85 KCAL/MOL
REMARK 927      BINDING AFFINITY PREDICTED BY RF-SCORE:    0.00 PKD
ROOT
HETATM    1  O   UNL     1     -13.165  10.647  72.183  1.00  0.00    -0.561 OA 
HETATM    2  C   UNL     1     -12.476  11.430  71.284  1.00  0.00    -0.318 C  
HETATM    3  H   UNL     1     -13.732  10.976  72.870  1.00  0.00     0.000 HD 
HETATM    4  C   UNL     1     -11.671  10.964  70.311  1.00  0.00    -0.437 C  
HETATM    5  C   UNL     1     -13.562  13.417  72.390  1.00  0.00    -0.708 A  
HETATM    6  C   UNL     1     -10.997  11.924  69.399  1.00  0.00    -0.095 C  
HETATM    7  C   UNL     1     -12.816  15.005  70.218  1.00  0.00    -0.270 A  
HETATM    8  O   UNL     1     -11.507  13.210  69.330  1.00  0.00    -0.269 OA 
HETATM    9  O   UNL     1     -10.073  11.556  68.676  1.00  0.00    -0.209 OA 
HETATM   10  C   UNL     1     -12.386  13.682  70.320  1.00  0.00    -0.322 A  
HETATM   11  C   UNL     1     -13.626  15.535  71.220  1.00  0.00    -0.520 A  
HETATM   12  C   UNL     1     -13.976  14.751  72.319  1.00  0.00    -0.598 A  
HETATM   13  C   UNL     1     -12.787  12.858  71.366  1.00  0.00    -0.377 A  
ENDROOT
BRANCH   4  14
HETATM   14  C   UNL     1     -11.469   9.510  69.941  1.00  0.00    -0.100 C  
BRANCH  14  15
HETATM   15  C   UNL     1     -10.726   8.713  70.981  1.00  0.00    -0.284 C  
HETATM   16  C   UNL     1      -9.623   7.055  72.975  1.00  0.00    -0.154 A  
HETATM   17  H   UNL     1      -7.538   9.419  70.570  1.00  0.00     0.000 HD 
HETATM   18  C   UNL     1      -9.146   6.297  74.044  1.00  0.00    -0.144 A  
HETATM   19  C   UNL     1      -8.822   7.977  72.311  1.00  0.00    -0.224 A  
HETATM   20  O   UNL     1     -10.973   6.895  72.634  1.00  0.00    -0.244 OA 
HETATM   21  C   UNL     1     -11.580   7.787  71.772  1.00  0.00    -0.272 C  
HETATM   22  C   UNL     1      -9.394   8.725  71.186  1.00  0.00    -0.233 C  
HETATM   23  C   UNL     1      -7.842   6.498  74.489  1.00  0.00    -0.114 A  
HETATM   24  O   UNL     1     -12.801   7.790  71.629  1.00  0.00    -0.325 OA 
HETATM   25  O   UNL     1      -8.477   9.410  70.426  1.00  0.00    -0.184 OA 
HETATM   26  C   UNL     1      -7.033   7.445  73.860  1.00  0.00    -0.094 A  
HETATM   27  C   UNL     1      -7.520   8.171  72.767  1.00  0.00    -0.163 A  
ENDBRANCH  14  15
ENDBRANCH   4  14
TORSDOF 2
ENDMDL
MODEL       50
REMARK 921   NORMALIZED FREE ENERGY PREDICTED BY IDOCK:   -6.49 KCAL/MOL
REMARK 922        TOTAL FREE ENERGY PREDICTED BY IDOCK:   -8.06 KCAL/MOL
REMARK 923 INTER-LIGAND FREE ENERGY PREDICTED BY IDOCK:   -7.63 KCAL/MOL
REMARK 924 INTRA-LIGAND FREE ENERGY PREDICTED BY IDOCK:   -0.44 KCAL/MOL
REMARK 927      BINDING AFFINITY PREDICTED BY RF-SCORE:    0.00 PKD
ROOT
HETATM    1  O   UNL     1     -13.192  10.620  71.864  1.00  0.00    -0.461 OA 
HETATM    2  C   UNL     1     -12.456  11.492  71.093  1.00  0.00    -0.337 C  
HETATM    3  H   UNL     1     -13.789  10.875  72.557  1.00  0.00     0.000 HD 
HETATM    4  C   UNL     1     -11.609  11.130  70.112  1.00  0.00    -0.410 C  
HETATM    5  C   UNL     1     -13.580  13.353  72.367  1.00  0.00    -0.708 A  
HETATM    6  C   UNL     1     -10.885  12.179  69.348  1.00  0.00     0.027 C  
HETATM    7  C   UNL     1     -12.721  15.168  70.427  1.00  0.00    -0.378 A  
HETATM    8  O   UNL     1     -11.384  13.471  69.402  1.00  0.00    -0.260 OA 
HETATM    9  O   UNL     1      -9.931  11.884  68.631  1.00  0.00    -0.207 OA 
HETATM   10  C   UNL     1     -12.305  13.837  70.397  1.00  0.00    -0.353 A  
HETATM   11  C   UNL     1     -13.575  15.591  71.444  1.00  0.00    -0.561 A  
HETATM   12  C   UNL     1     -13.982  14.692  72.429  1.00  0.00    -0.578 A  
HETATM   13  C   UNL     1     -12.761  12.905  71.323  1.00  0.00    -0.371 A  
ENDROOT
BRANCH   4  14
HETATM   14  C   UNL     1     -11.399   9.725  69.588  1.00  0.00    -0.165 C  
BRANCH  14  15
HETATM   15  C   UNL     1     -10.942   8.744  70.637  1.00  0.00    -0.278 C  
HETATM   16  C   UNL     1      -9.801   7.084  72.608  1.00  0.00    -0.163 A  
HETATM   17  H   UNL     1     -13.620   7.061  71.544  1.00  0.00     0.000 HD 
HETATM   18  C   UNL     1      -9.161   6.219  73.495  1.00  0.00    -0.137 A  
HETATM   19  C   UNL     1     -11.108   6.871  72.185  1.00  0.00    -0.277 A  
HETATM   20  O   UNL     1      -9.046   8.153  72.105  1.00  0.00    -0.147 OA 
HETATM   21  C   UNL     1      -9.517   8.891  71.037  1.00  0.00    -0.252 C  
HETATM   22  C   UNL     1     -11.717   7.835  71.262  1.00  0.00    -0.288 C  
HETATM   23  C   UNL     1      -9.834   5.084  73.938  1.00  0.00    -0.172 A  
HETATM   24  O   UNL     1      -8.784   9.686  70.452  1.00  0.00    -0.221 OA 
HETATM   25  O   UNL     1     -13.075   7.701  71.104  1.00  0.00    -0.259 OA 
HETATM   26  C   UNL     1     -11.134   4.831  73.498  1.00  0.00    -0.412 A  
HETATM   27  C   UNL     1     -11.771   5.730  72.635  1.00  0.00    -0.256 A  
ENDBRANCH  14  15
ENDBRANCH   4  14
TORSDOF 2
ENDMDL
MODEL       51
REMARK 921   NORMALIZED FREE ENERGY PREDICTED BY IDOCK:   -6.49 KCAL/MOL
REMARK 922        TOTAL FREE ENERGY PREDICTED BY IDOCK:   -8.06 KCAL/MOL
REMARK 923 INTER-LIGAND FREE ENERGY PREDICTED BY IDOCK:   -7.26 KCAL/MOL
REMARK 924 INTRA-LIGAND FREE ENERGY PREDICTED BY IDOCK:   -0.80 KCAL/MOL
REMARK 927      BINDING AFFINITY PREDICTED BY RF-SCORE:    0.00 PKD
ROOT
HETATM    1  O   UNL     1     -10.886   8.360  72.615  1.00  0.00    -0.342 OA 
HETATM    2  C   UNL     1      -9.956   8.635  71.638  1.00  0.00    -0.282 C  
HETATM    3  H   UNL     1     -10.684   8.036  73.485  1.00  0.00     0.000 HD 
HETATM    4  C   UNL     1     -10.243   9.094  70.406  1.00  0.00    -0.268 C  
HETATM    5  C   UNL     1      -8.196   7.988  73.322  1.00  0.00    -0.254 A  
HETATM    6  C   UNL     1      -9.136   9.360  69.450  1.00  0.00    -0.161 C  
HETATM    7  C   UNL     1      -6.251   9.180  71.711  1.00  0.00    -0.034 A  
HETATM    8  O   UNL     1      -7.859   9.497  69.970  1.00  0.00    -0.113 OA 
HETATM    9  O   UNL     1      -9.370   9.533  68.256  1.00  0.00    -0.133 OA 
HETATM   10  C   UNL     1      -7.570   9.063  71.274  1.00  0.00    -0.070 A  
HETATM   11  C   UNL     1      -5.906   8.690  72.970  1.00  0.00    -0.080 A  
HETATM   12  C   UNL     1      -6.871   8.070  73.763  1.00  0.00    -0.139 A  
HETATM   13  C   UNL     1      -8.565   8.519  72.079  1.00  0.00    -0.250 A  
ENDROOT
BRANCH   4  14
HETATM   14  C   UNL     1     -11.609   9.511  69.905  1.00  0.00    -0.026 C  
BRANCH  14  15
HETATM   15  C   UNL     1     -12.122  10.788  70.518  1.00  0.00    -0.459 C  
HETATM   16  C   UNL     1     -13.203  12.984  71.913  1.00  0.00    -0.430 A  
HETATM   17  H   UNL     1     -10.664  13.240  68.879  1.00  0.00     0.000 HD 
HETATM   18  C   UNL     1     -13.850  14.031  72.570  1.00  0.00    -0.610 A  
HETATM   19  C   UNL     1     -12.465  13.187  70.752  1.00  0.00    -0.389 A  
HETATM   20  O   UNL     1     -13.379  11.697  72.439  1.00  0.00    -0.314 OA 
HETATM   21  C   UNL     1     -12.993  10.591  71.707  1.00  0.00    -0.476 C  
HETATM   22  C   UNL     1     -11.801  12.037  70.129  1.00  0.00    -0.301 C  
HETATM   23  C   UNL     1     -13.793  15.311  72.025  1.00  0.00    -0.626 A  
HETATM   24  O   UNL     1     -13.330   9.461  72.054  1.00  0.00    -0.389 OA 
HETATM   25  O   UNL     1     -10.890  12.359  69.153  1.00  0.00    -0.197 OA 
HETATM   26  C   UNL     1     -13.089  15.530  70.840  1.00  0.00    -0.508 A  
HETATM   27  C   UNL     1     -12.417  14.473  70.216  1.00  0.00    -0.405 A  
ENDBRANCH  14  15
ENDBRANCH   4  14
TORSDOF 2
ENDMDL
MODEL       52
REMARK 921   NORMALIZED FREE ENERGY PREDICTED BY IDOCK:   -6.49 KCAL/MOL
REMARK 922        TOTAL FREE ENERGY PREDICTED BY IDOCK:   -8.06 KCAL/MOL
REMARK 923 INTER-LIGAND FREE ENERGY PREDICTED BY IDOCK:   -7.56 KCAL/MOL
REMARK 924 INTRA-LIGAND FREE ENERGY PREDICTED BY IDOCK:   -0.50 KCAL/MOL
REMARK 927      BINDING AFFINITY PREDICTED BY RF-SCORE:    0.00 PKD
ROOT
HETATM    1  O   UNL     1     -10.328  15.744  65.070  1.00  0.00    -0.468 OA 
HETATM    2  C   UNL     1     -10.403  16.048  66.411  1.00  0.00    -0.305 C  
HETATM    3  H   UNL     1      -9.737  16.155  64.450  1.00  0.00     0.000 HD 
HETATM    4  C   UNL     1     -11.240  15.467  67.290  1.00  0.00    -0.270 C  
HETATM    5  C   UNL     1      -8.523  17.678  66.007  1.00  0.00    -0.078 A  
HETATM    6  C   UNL     1     -11.206  15.884  68.716  1.00  0.00    -0.359 C  
HETATM    7  C   UNL     1      -8.098  17.835  68.762  1.00  0.00    -0.228 A  
HETATM    8  O   UNL     1     -10.080  16.557  69.161  1.00  0.00    -0.262 OA 
HETATM    9  O   UNL     1     -12.113  15.564  69.482  1.00  0.00    -0.344 OA 
HETATM   10  C   UNL     1      -9.179  17.123  68.243  1.00  0.00    -0.262 A  
HETATM   11  C   UNL     1      -7.223  18.476  67.887  1.00  0.00    -0.247 A  
HETATM   12  C   UNL     1      -7.451  18.422  66.512  1.00  0.00    -0.265 A  
HETATM   13  C   UNL     1      -9.381  16.989  66.874  1.00  0.00    -0.263 A  
ENDROOT
BRANCH   4  14
HETATM   14  C   UNL     1     -12.159  14.297  67.007  1.00  0.00    -0.424 C  
BRANCH  14  15
HETATM   15  C   UNL     1     -11.463  13.106  66.402  1.00  0.00    -0.374 C  
HETATM   16  C   UNL     1     -10.159  10.746  65.580  1.00  0.00    -0.274 A  
HETATM   17  H   UNL     1     -11.734  13.446  63.140  1.00  0.00     0.000 HD 
HETATM   18  C   UNL     1      -9.413   9.620  65.232  1.00  0.00    -0.342 A  
HETATM   19  C   UNL     1     -10.515  11.711  64.644  1.00  0.00    -0.354 A  
HETATM   20  O   UNL     1     -10.485  10.901  66.934  1.00  0.00    -0.228 OA 
HETATM   21  C   UNL     1     -10.987  12.104  67.393  1.00  0.00    -0.260 C  
HETATM   22  C   UNL     1     -11.313  12.860  65.085  1.00  0.00    -0.298 C  
HETATM   23  C   UNL     1      -8.975   9.477  63.919  1.00  0.00    -0.217 A  
HETATM   24  O   UNL     1     -11.078  12.327  68.598  1.00  0.00    -0.220 OA 
HETATM   25  O   UNL     1     -11.840  13.619  64.068  1.00  0.00    -0.420 OA 
HETATM   26  C   UNL     1      -9.289  10.452  62.972  1.00  0.00    -0.344 A  
HETATM   27  C   UNL     1     -10.067  11.558  63.333  1.00  0.00    -0.454 A  
ENDBRANCH  14  15
ENDBRANCH   4  14
TORSDOF 2
ENDMDL
MODEL       53
REMARK 921   NORMALIZED FREE ENERGY PREDICTED BY IDOCK:   -6.47 KCAL/MOL
REMARK 922        TOTAL FREE ENERGY PREDICTED BY IDOCK:   -8.04 KCAL/MOL
REMARK 923 INTER-LIGAND FREE ENERGY PREDICTED BY IDOCK:   -7.81 KCAL/MOL
REMARK 924 INTRA-LIGAND FREE ENERGY PREDICTED BY IDOCK:   -0.22 KCAL/MOL
REMARK 927      BINDING AFFINITY PREDICTED BY RF-SCORE:    0.00 PKD
ROOT
HETATM    1  O   UNL     1     -10.846  16.995  69.394  1.00  0.00    -0.346 OA 
HETATM    2  C   UNL     1     -10.155  16.741  68.230  1.00  0.00    -0.274 C  
HETATM    3  H   UNL     1     -10.564  17.594  70.075  1.00  0.00     0.000 HD 
HETATM    4  C   UNL     1     -10.554  15.892  67.265  1.00  0.00    -0.314 C  
HETATM    5  C   UNL     1      -8.469  18.440  69.020  1.00  0.00    -0.068 A  
HETATM    6  C   UNL     1      -9.715  15.722  66.050  1.00  0.00    -0.345 C  
HETATM    7  C   UNL     1      -7.403  18.546  66.442  1.00  0.00    -0.277 A  
HETATM    8  O   UNL     1      -8.776  16.704  65.777  1.00  0.00    -0.482 OA 
HETATM    9  O   UNL     1      -9.913  14.785  65.280  1.00  0.00    -0.361 OA 
HETATM   10  C   UNL     1      -8.394  17.621  66.770  1.00  0.00    -0.251 A  
HETATM   11  C   UNL     1      -6.941  19.424  67.420  1.00  0.00    -0.226 A  
HETATM   12  C   UNL     1      -7.454  19.352  68.715  1.00  0.00    -0.393 A  
HETATM   13  C   UNL     1      -8.975  17.585  68.033  1.00  0.00    -0.258 A  
ENDROOT
BRANCH   4  14
HETATM   14  C   UNL     1     -11.877  15.159  67.213  1.00  0.00    -0.072 C  
BRANCH  14  15
HETATM   15  C   UNL     1     -11.959  13.979  68.146  1.00  0.00    -0.382 C  
HETATM   16  C   UNL     1     -11.982  11.590  69.641  1.00  0.00    -0.339 A  
HETATM   17  H   UNL     1     -12.572  15.216  71.133  1.00  0.00     0.000 HD 
HETATM   18  C   UNL     1     -12.087  10.370  70.308  1.00  0.00    -0.370 A  
HETATM   19  C   UNL     1     -12.379  12.787  70.228  1.00  0.00    -0.277 A  
HETATM   20  O   UNL     1     -11.517  11.555  68.319  1.00  0.00    -0.250 OA 
HETATM   21  C   UNL     1     -11.632  12.673  67.515  1.00  0.00    -0.359 C  
HETATM   22  C   UNL     1     -12.223  14.031  69.467  1.00  0.00    -0.308 C  
HETATM   23  C   UNL     1     -12.643  10.340  71.583  1.00  0.00    -0.534 A  
HETATM   24  O   UNL     1     -11.428  12.598  66.305  1.00  0.00    -0.323 OA 
HETATM   25  O   UNL     1     -12.386  15.179  70.203  1.00  0.00    -0.331 OA 
HETATM   26  C   UNL     1     -13.082  11.525  72.177  1.00  0.00    -0.286 A  
HETATM   27  C   UNL     1     -12.936  12.744  71.505  1.00  0.00    -0.388 A  
ENDBRANCH  14  15
ENDBRANCH   4  14
TORSDOF 2
ENDMDL
MODEL       54
REMARK 921   NORMALIZED FREE ENERGY PREDICTED BY IDOCK:   -6.45 KCAL/MOL
REMARK 922        TOTAL FREE ENERGY PREDICTED BY IDOCK:   -8.01 KCAL/MOL
REMARK 923 INTER-LIGAND FREE ENERGY PREDICTED BY IDOCK:   -7.48 KCAL/MOL
REMARK 924 INTRA-LIGAND FREE ENERGY PREDICTED BY IDOCK:   -0.54 KCAL/MOL
REMARK 927      BINDING AFFINITY PREDICTED BY RF-SCORE:    0.00 PKD
ROOT
HETATM    1  O   UNL     1     -12.210  11.347  68.048  1.00  0.00    -0.607 OA 
HETATM    2  C   UNL     1     -11.407  11.388  66.930  1.00  0.00    -0.210 C  
HETATM    3  H   UNL     1     -12.168  10.684  68.726  1.00  0.00     0.000 HD 
HETATM    4  C   UNL     1     -11.468  12.328  65.969  1.00  0.00    -0.434 C  
HETATM    5  C   UNL     1     -10.262   9.337  67.845  1.00  0.00    -0.263 A  
HETATM    6  C   UNL     1     -10.529  12.258  64.819  1.00  0.00    -0.296 C  
HETATM    7  C   UNL     1      -8.162   9.737  66.050  1.00  0.00    -0.117 A  
HETATM    8  O   UNL     1      -9.394  11.476  64.964  1.00  0.00    -0.191 OA 
HETATM    9  O   UNL     1     -10.720  12.939  63.813  1.00  0.00    -0.397 OA 
HETATM   10  C   UNL     1      -9.309  10.528  65.998  1.00  0.00    -0.178 A  
HETATM   11  C   UNL     1      -8.071   8.733  67.012  1.00  0.00    -0.099 A  
HETATM   12  C   UNL     1      -9.132   8.515  67.890  1.00  0.00    -0.145 A  
HETATM   13  C   UNL     1     -10.345  10.380  66.913  1.00  0.00    -0.297 A  
ENDROOT
BRANCH   4  14
HETATM   14  C   UNL     1     -12.331  13.571  65.991  1.00  0.00    -0.486 C  
BRANCH  14  15
HETATM   15  C   UNL     1     -11.688  14.749  66.676  1.00  0.00    -0.293 C  
HETATM   16  C   UNL     1     -10.557  16.797  68.247  1.00  0.00    -0.352 A  
HETATM   17  H   UNL     1     -10.130  16.439  64.321  1.00  0.00     0.000 HD 
HETATM   18  C   UNL     1     -10.113  17.841  69.058  1.00  0.00    -0.294 A  
HETATM   19  C   UNL     1     -10.496  16.865  66.859  1.00  0.00    -0.271 A  
HETATM   20  O   UNL     1     -11.132  15.692  68.889  1.00  0.00    -0.253 OA 
HETATM   21  C   UNL     1     -11.824  14.747  68.157  1.00  0.00    -0.287 C  
HETATM   22  C   UNL     1     -10.970  15.719  66.076  1.00  0.00    -0.177 C  
HETATM   23  C   UNL     1      -9.633  19.004  68.462  1.00  0.00    -0.442 A  
HETATM   24  O   UNL     1     -12.508  13.895  68.719  1.00  0.00    -0.166 OA 
HETATM   25  O   UNL     1     -10.636  15.756  64.744  1.00  0.00    -0.504 OA 
HETATM   26  C   UNL     1      -9.598  19.108  67.071  1.00  0.00    -0.378 A  
HETATM   27  C   UNL     1     -10.016  18.036  66.275  1.00  0.00    -0.338 A  
ENDBRANCH  14  15
ENDBRANCH   4  14
TORSDOF 2
ENDMDL
MODEL       55
REMARK 921   NORMALIZED FREE ENERGY PREDICTED BY IDOCK:   -6.44 KCAL/MOL
REMARK 922        TOTAL FREE ENERGY PREDICTED BY IDOCK:   -8.01 KCAL/MOL
REMARK 923 INTER-LIGAND FREE ENERGY PREDICTED BY IDOCK:   -7.21 KCAL/MOL
REMARK 924 INTRA-LIGAND FREE ENERGY PREDICTED BY IDOCK:   -0.80 KCAL/MOL
REMARK 927      BINDING AFFINITY PREDICTED BY RF-SCORE:    0.00 PKD
ROOT
HETATM    1  O   UNL     1     -11.202  11.971  69.017  1.00  0.00    -0.229 OA 
HETATM    2  C   UNL     1     -12.030  11.862  70.112  1.00  0.00    -0.332 C  
HETATM    3  H   UNL     1     -10.972  12.786  68.586  1.00  0.00     0.000 HD 
HETATM    4  C   UNL     1     -12.356  10.708  70.722  1.00  0.00    -0.472 C  
HETATM    5  C   UNL     1     -12.201  14.376  70.063  1.00  0.00    -0.408 A  
HETATM    6  C   UNL     1     -13.254  10.736  71.906  1.00  0.00    -0.419 C  
HETATM    7  C   UNL     1     -13.263  14.331  72.644  1.00  0.00    -0.601 A  
HETATM    8  O   UNL     1     -13.410  11.945  72.564  1.00  0.00    -0.249 OA 
HETATM    9  O   UNL     1     -13.768   9.701  72.326  1.00  0.00    -0.417 OA 
HETATM   10  C   UNL     1     -13.025  13.147  71.947  1.00  0.00    -0.314 A  
HETATM   11  C   UNL     1     -12.967  15.550  72.037  1.00  0.00    -0.517 A  
HETATM   12  C   UNL     1     -12.463  15.574  70.737  1.00  0.00    -0.491 A  
HETATM   13  C   UNL     1     -12.450  13.144  70.681  1.00  0.00    -0.363 A  
ENDROOT
BRANCH   4  14
HETATM   14  C   UNL     1     -11.785   9.341  70.408  1.00  0.00    -0.157 C  
BRANCH  14  15
HETATM   15  C   UNL     1     -10.386   9.130  70.925  1.00  0.00    -0.349 C  
HETATM   16  C   UNL     1      -7.906   8.535  72.123  1.00  0.00    -0.082 A  
HETATM   17  H   UNL     1      -8.369  10.335  68.621  1.00  0.00     0.000 HD 
HETATM   18  C   UNL     1      -6.714   8.311  72.813  1.00  0.00    -0.109 A  
HETATM   19  C   UNL     1      -7.959   9.328  70.982  1.00  0.00    -0.115 A  
HETATM   20  O   UNL     1      -9.070   7.977  72.668  1.00  0.00    -0.179 OA 
HETATM   21  C   UNL     1     -10.310   8.365  72.198  1.00  0.00    -0.327 C  
HETATM   22  C   UNL     1      -9.248   9.503  70.305  1.00  0.00    -0.258 C  
HETATM   23  C   UNL     1      -5.549   8.933  72.371  1.00  0.00    -0.068 A  
HETATM   24  O   UNL     1     -11.335   8.051  72.799  1.00  0.00    -0.394 OA 
HETATM   25  O   UNL     1      -9.170  10.072  69.057  1.00  0.00    -0.158 OA 
HETATM   26  C   UNL     1      -5.588   9.762  71.249  1.00  0.00    -0.075 A  
HETATM   27  C   UNL     1      -6.786   9.946  70.552  1.00  0.00    -0.122 A  
ENDBRANCH  14  15
ENDBRANCH   4  14
TORSDOF 2
ENDMDL
MODEL       56
REMARK 921   NORMALIZED FREE ENERGY PREDICTED BY IDOCK:   -6.43 KCAL/MOL
REMARK 922        TOTAL FREE ENERGY PREDICTED BY IDOCK:   -8.00 KCAL/MOL
REMARK 923 INTER-LIGAND FREE ENERGY PREDICTED BY IDOCK:   -7.60 KCAL/MOL
REMARK 924 INTRA-LIGAND FREE ENERGY PREDICTED BY IDOCK:   -0.40 KCAL/MOL
REMARK 927      BINDING AFFINITY PREDICTED BY RF-SCORE:    0.00 PKD
ROOT
HETATM    1  O   UNL     1     -10.364  10.344  66.789  1.00  0.00    -0.223 OA 
HETATM    2  C   UNL     1     -11.029  11.534  66.982  1.00  0.00    -0.294 C  
HETATM    3  H   UNL     1     -10.298   9.884  65.961  1.00  0.00     0.000 HD 
HETATM    4  C   UNL     1     -11.124  12.186  68.155  1.00  0.00    -0.295 C  
HETATM    5  C   UNL     1     -11.531  11.496  64.512  1.00  0.00    -0.204 A  
HETATM    6  C   UNL     1     -11.864  13.472  68.218  1.00  0.00    -0.366 C  
HETATM    7  C   UNL     1     -12.249  14.191  64.640  1.00  0.00    -0.465 A  
HETATM    8  O   UNL     1     -12.093  14.140  67.026  1.00  0.00    -0.427 OA 
HETATM    9  O   UNL     1     -12.183  13.958  69.302  1.00  0.00    -0.346 OA 
HETATM   10  C   UNL     1     -11.948  13.474  65.797  1.00  0.00    -0.403 A  
HETATM   11  C   UNL     1     -12.192  13.546  63.406  1.00  0.00    -0.338 A  
HETATM   12  C   UNL     1     -11.861  12.192  63.344  1.00  0.00    -0.553 A  
HETATM   13  C   UNL     1     -11.539  12.146  65.752  1.00  0.00    -0.414 A  
ENDROOT
BRANCH   4  14
HETATM   14  C   UNL     1     -10.424  11.808  69.443  1.00  0.00     0.115 C  
BRANCH  14  15
HETATM   15  C   UNL     1     -10.939  10.538  70.069  1.00  0.00    -0.351 C  
HETATM   16  C   UNL     1     -12.173   8.341  71.329  1.00  0.00    -0.270 A  
HETATM   17  H   UNL     1      -8.991   8.123  68.975  1.00  0.00     0.000 HD 
HETATM   18  C   UNL     1     -12.761   7.309  72.061  1.00  0.00    -0.231 A  
HETATM   19  C   UNL     1     -10.958   8.179  70.673  1.00  0.00    -0.255 A  
HETATM   20  O   UNL     1     -12.830   9.579  71.335  1.00  0.00    -0.325 OA 
HETATM   21  C   UNL     1     -12.188  10.706  70.859  1.00  0.00    -0.395 C  
HETATM   22  C   UNL     1     -10.413   9.307  69.911  1.00  0.00    -0.227 C  
HETATM   23  C   UNL     1     -12.092   6.093  72.174  1.00  0.00    -0.263 A  
HETATM   24  O   UNL     1     -12.660  11.824  71.049  1.00  0.00    -0.374 OA 
HETATM   25  O   UNL     1      -9.361   8.990  69.087  1.00  0.00    -0.146 OA 
HETATM   26  C   UNL     1     -10.854   5.921  71.554  1.00  0.00    -0.325 A  
HETATM   27  C   UNL     1     -10.298   6.957  70.795  1.00  0.00    -0.223 A  
ENDBRANCH  14  15
ENDBRANCH   4  14
TORSDOF 2
ENDMDL
MODEL       57
REMARK 921   NORMALIZED FREE ENERGY PREDICTED BY IDOCK:   -6.43 KCAL/MOL
REMARK 922        TOTAL FREE ENERGY PREDICTED BY IDOCK:   -7.99 KCAL/MOL
REMARK 923 INTER-LIGAND FREE ENERGY PREDICTED BY IDOCK:   -7.56 KCAL/MOL
REMARK 924 INTRA-LIGAND FREE ENERGY PREDICTED BY IDOCK:   -0.43 KCAL/MOL
REMARK 927      BINDING AFFINITY PREDICTED BY RF-SCORE:    0.00 PKD
ROOT
HETATM    1  O   UNL     1     -12.534  14.532  67.741  1.00  0.00    -0.597 OA 
HETATM    2  C   UNL     1     -11.190  14.397  67.474  1.00  0.00    -0.315 C  
HETATM    3  H   UNL     1     -12.964  15.346  67.975  1.00  0.00     0.000 HD 
HETATM    4  C   UNL     1     -10.580  13.244  67.143  1.00  0.00    -0.259 C  
HETATM    5  C   UNL     1     -11.007  16.885  67.834  1.00  0.00    -0.251 A  
HETATM    6  C   UNL     1      -9.120  13.243  66.867  1.00  0.00    -0.232 C  
HETATM    7  C   UNL     1      -8.490  16.851  66.626  1.00  0.00    -0.285 A  
HETATM    8  O   UNL     1      -8.520  14.459  66.585  1.00  0.00    -0.121 OA 
HETATM    9  O   UNL     1      -8.495  12.186  66.813  1.00  0.00    -0.185 OA 
HETATM   10  C   UNL     1      -9.177  15.665  66.885  1.00  0.00    -0.236 A  
HETATM   11  C   UNL     1      -9.074  18.066  66.980  1.00  0.00    -0.259 A  
HETATM   12  C   UNL     1     -10.318  18.081  67.609  1.00  0.00    -0.397 A  
HETATM   13  C   UNL     1     -10.452  15.661  67.439  1.00  0.00    -0.291 A  
ENDROOT
BRANCH   4  14
HETATM   14  C   UNL     1     -11.262  11.918  66.881  1.00  0.00    -0.382 C  
BRANCH  14  15
HETATM   15  C   UNL     1     -11.244  10.978  68.059  1.00  0.00    -0.372 C  
HETATM   16  C   UNL     1     -11.010   9.025  70.076  1.00  0.00    -0.214 A  
HETATM   17  H   UNL     1     -12.538  12.648  70.581  1.00  0.00     0.000 HD 
HETATM   18  C   UNL     1     -10.965   7.985  71.005  1.00  0.00    -0.263 A  
HETATM   19  C   UNL     1     -11.723  10.194  70.314  1.00  0.00    -0.361 A  
HETATM   20  O   UNL     1     -10.353   8.817  68.856  1.00  0.00    -0.207 OA 
HETATM   21  C   UNL     1     -10.568   9.679  67.798  1.00  0.00    -0.264 C  
HETATM   22  C   UNL     1     -11.709  11.249  69.294  1.00  0.00    -0.334 C  
HETATM   23  C   UNL     1     -11.691   8.101  72.187  1.00  0.00    -0.418 A  
HETATM   24  O   UNL     1     -10.174   9.397  66.669  1.00  0.00    -0.252 OA 
HETATM   25  O   UNL     1     -12.210  12.458  69.711  1.00  0.00    -0.232 OA 
HETATM   26  C   UNL     1     -12.443   9.251  72.430  1.00  0.00    -0.307 A  
HETATM   27  C   UNL     1     -12.447  10.297  71.501  1.00  0.00    -0.524 A  
ENDBRANCH  14  15
ENDBRANCH   4  14
TORSDOF 2
ENDMDL
MODEL       58
REMARK 921   NORMALIZED FREE ENERGY PREDICTED BY IDOCK:   -6.43 KCAL/MOL
REMARK 922        TOTAL FREE ENERGY PREDICTED BY IDOCK:   -7.99 KCAL/MOL
REMARK 923 INTER-LIGAND FREE ENERGY PREDICTED BY IDOCK:   -7.27 KCAL/MOL
REMARK 924 INTRA-LIGAND FREE ENERGY PREDICTED BY IDOCK:   -0.72 KCAL/MOL
REMARK 927      BINDING AFFINITY PREDICTED BY RF-SCORE:    0.00 PKD
ROOT
HETATM    1  O   UNL     1     -12.238   8.204  70.604  1.00  0.00    -0.498 OA 
HETATM    2  C   UNL     1     -10.885   8.459  70.645  1.00  0.00    -0.231 C  
HETATM    3  H   UNL     1     -12.714   7.686  71.242  1.00  0.00     0.000 HD 
HETATM    4  C   UNL     1     -10.209   9.193  69.742  1.00  0.00    -0.219 C  
HETATM    5  C   UNL     1     -10.842   7.153  72.801  1.00  0.00    -0.337 A  
HETATM    6  C   UNL     1      -8.748   9.400  69.915  1.00  0.00    -0.197 C  
HETATM    7  C   UNL     1      -8.313   8.197  73.356  1.00  0.00    -0.282 A  
HETATM    8  O   UNL     1      -8.212   9.167  71.172  1.00  0.00    -0.240 OA 
HETATM    9  O   UNL     1      -8.066   9.841  68.993  1.00  0.00    -0.091 OA 
HETATM   10  C   UNL     1      -8.937   8.442  72.133  1.00  0.00    -0.223 A  
HETATM   11  C   UNL     1      -8.966   7.417  74.308  1.00  0.00    -0.242 A  
HETATM   12  C   UNL     1     -10.217   6.872  74.020  1.00  0.00    -0.384 A  
HETATM   13  C   UNL     1     -10.217   7.975  71.855  1.00  0.00    -0.275 A  
ENDROOT
BRANCH   4  14
HETATM   14  C   UNL     1     -10.815   9.972  68.594  1.00  0.00    -0.265 C  
BRANCH  14  15
HETATM   15  C   UNL     1     -11.106  11.414  68.920  1.00  0.00    -0.290 C  
HETATM   16  C   UNL     1     -11.499  14.186  69.240  1.00  0.00    -0.292 A  
HETATM   17  H   UNL     1     -13.231  11.373  71.432  1.00  0.00     0.000 HD 
HETATM   18  C   UNL     1     -11.572  15.568  69.419  1.00  0.00    -0.366 A  
HETATM   19  C   UNL     1     -12.012  13.295  70.175  1.00  0.00    -0.388 A  
HETATM   20  O   UNL     1     -10.825  13.727  68.100  1.00  0.00    -0.235 OA 
HETATM   21  C   UNL     1     -10.486  12.392  67.987  1.00  0.00    -0.217 C  
HETATM   22  C   UNL     1     -11.910  11.856  69.907  1.00  0.00    -0.343 C  
HETATM   23  C   UNL     1     -12.136  16.070  70.588  1.00  0.00    -0.259 A  
HETATM   24  O   UNL     1      -9.718  12.013  67.106  1.00  0.00    -0.193 OA 
HETATM   25  O   UNL     1     -12.664  11.062  70.737  1.00  0.00    -0.341 OA 
HETATM   26  C   UNL     1     -12.624  15.192  71.556  1.00  0.00    -0.425 A  
HETATM   27  C   UNL     1     -12.573  13.811  71.342  1.00  0.00    -0.433 A  
ENDBRANCH  14  15
ENDBRANCH   4  14
TORSDOF 2
ENDMDL
MODEL       59
REMARK 921   NORMALIZED FREE ENERGY PREDICTED BY IDOCK:   -6.40 KCAL/MOL
REMARK 922        TOTAL FREE ENERGY PREDICTED BY IDOCK:   -7.96 KCAL/MOL
REMARK 923 INTER-LIGAND FREE ENERGY PREDICTED BY IDOCK:   -8.10 KCAL/MOL
REMARK 924 INTRA-LIGAND FREE ENERGY PREDICTED BY IDOCK:    0.15 KCAL/MOL
REMARK 927      BINDING AFFINITY PREDICTED BY RF-SCORE:    0.00 PKD
ROOT
HETATM    1  O   UNL     1     -12.219  13.219  68.508  1.00  0.00    -0.272 OA 
HETATM    2  C   UNL     1     -11.730  14.325  69.167  1.00  0.00    -0.320 C  
HETATM    3  H   UNL     1     -12.734  12.529  68.909  1.00  0.00     0.000 HD 
HETATM    4  C   UNL     1     -10.999  15.302  68.600  1.00  0.00    -0.257 C  
HETATM    5  C   UNL     1     -12.888  13.442  71.225  1.00  0.00    -0.407 A  
HETATM    6  C   UNL     1     -10.545  16.449  69.429  1.00  0.00    -0.317 C  
HETATM    7  C   UNL     1     -12.579  15.936  72.441  1.00  0.00    -0.539 A  
HETATM    8  O   UNL     1     -11.197  16.669  70.632  1.00  0.00    -0.245 OA 
HETATM    9  O   UNL     1      -9.678  17.216  69.014  1.00  0.00    -0.264 OA 
HETATM   10  C   UNL     1     -11.999  15.666  71.201  1.00  0.00    -0.409 A  
HETATM   11  C   UNL     1     -13.319  14.941  73.076  1.00  0.00    -0.556 A  
HETATM   12  C   UNL     1     -13.450  13.686  72.482  1.00  0.00    -0.675 A  
HETATM   13  C   UNL     1     -12.182  14.449  70.555  1.00  0.00    -0.411 A  
ENDROOT
BRANCH   4  14
HETATM   14  C   UNL     1     -10.685  15.439  67.126  1.00  0.00    -0.314 C  
BRANCH  14  15
HETATM   15  C   UNL     1     -10.259  14.151  66.470  1.00  0.00    -0.278 C  
HETATM   16  C   UNL     1      -9.241  11.712  65.493  1.00  0.00    -0.099 A  
HETATM   17  H   UNL     1     -12.551  13.475  64.208  1.00  0.00     0.000 HD 
HETATM   18  C   UNL     1      -8.634  10.566  64.979  1.00  0.00    -0.184 A  
HETATM   19  C   UNL     1     -10.307  12.332  64.851  1.00  0.00    -0.319 A  
HETATM   20  O   UNL     1      -8.687  12.256  66.660  1.00  0.00    -0.192 OA 
HETATM   21  C   UNL     1      -9.060  13.518  67.081  1.00  0.00    -0.232 C  
HETATM   22  C   UNL     1     -10.901  13.525  65.464  1.00  0.00    -0.288 C  
HETATM   23  C   UNL     1      -9.079  10.051  63.765  1.00  0.00    -0.302 A  
HETATM   24  O   UNL     1      -8.437  14.092  67.971  1.00  0.00    -0.150 OA 
HETATM   25  O   UNL     1     -12.099  13.916  64.917  1.00  0.00    -0.375 OA 
HETATM   26  C   UNL     1     -10.124  10.679  63.085  1.00  0.00    -0.192 A  
HETATM   27  C   UNL     1     -10.742  11.807  63.636  1.00  0.00    -0.503 A  
ENDBRANCH  14  15
ENDBRANCH   4  14
TORSDOF 2
ENDMDL
MODEL       60
REMARK 921   NORMALIZED FREE ENERGY PREDICTED BY IDOCK:   -6.35 KCAL/MOL
REMARK 922        TOTAL FREE ENERGY PREDICTED BY IDOCK:   -7.90 KCAL/MOL
REMARK 923 INTER-LIGAND FREE ENERGY PREDICTED BY IDOCK:   -7.46 KCAL/MOL
REMARK 924 INTRA-LIGAND FREE ENERGY PREDICTED BY IDOCK:   -0.44 KCAL/MOL
REMARK 927      BINDING AFFINITY PREDICTED BY RF-SCORE:    0.00 PKD
ROOT
HETATM    1  O   UNL     1     -12.402  11.088  68.333  1.00  0.00    -0.762 OA 
HETATM    2  C   UNL     1     -11.891  12.304  67.937  1.00  0.00    -0.293 C  
HETATM    3  H   UNL     1     -12.644  10.862  69.223  1.00  0.00     0.000 HD 
HETATM    4  C   UNL     1     -11.548  12.625  66.677  1.00  0.00    -0.443 C  
HETATM    5  C   UNL     1     -12.148  13.038  70.335  1.00  0.00    -0.391 A  
HETATM    6  C   UNL     1     -11.019  13.983  66.387  1.00  0.00    -0.308 C  
HETATM    7  C   UNL     1     -11.826  15.693  69.533  1.00  0.00    -0.387 A  
HETATM    8  O   UNL     1     -11.256  14.976  67.323  1.00  0.00    -0.327 OA 
HETATM    9  O   UNL     1     -10.466  14.223  65.315  1.00  0.00    -0.340 OA 
HETATM   10  C   UNL     1     -11.661  14.645  68.627  1.00  0.00    -0.329 A  
HETATM   11  C   UNL     1     -12.153  15.402  70.856  1.00  0.00    -0.413 A  
HETATM   12  C   UNL     1     -12.286  14.075  71.263  1.00  0.00    -0.436 A  
HETATM   13  C   UNL     1     -11.866  13.319  68.992  1.00  0.00    -0.365 A  
ENDROOT
BRANCH   4  14
HETATM   14  C   UNL     1     -11.770  11.770  65.447  1.00  0.00    -0.117 C  
BRANCH  14  15
HETATM   15  C   UNL     1     -10.602  10.882  65.101  1.00  0.00    -0.268 C  
HETATM   16  C   UNL     1      -8.357   9.436  64.202  1.00  0.00    -0.168 A  
HETATM   17  H   UNL     1     -10.202   8.856  67.663  1.00  0.00     0.000 HD 
HETATM   18  C   UNL     1      -7.315   8.685  63.659  1.00  0.00    -0.104 A  
HETATM   19  C   UNL     1      -9.036   9.033  65.346  1.00  0.00    -0.250 A  
HETATM   20  O   UNL     1      -8.740  10.590  63.505  1.00  0.00    -0.176 OA 
HETATM   21  C   UNL     1      -9.918  11.236  63.829  1.00  0.00    -0.342 C  
HETATM   22  C   UNL     1     -10.112   9.885  65.864  1.00  0.00    -0.245 C  
HETATM   23  C   UNL     1      -6.970   7.475  64.255  1.00  0.00    -0.060 A  
HETATM   24  O   UNL     1     -10.373  12.114  63.099  1.00  0.00    -0.389 OA 
HETATM   25  O   UNL     1     -10.547   9.559  67.125  1.00  0.00    -0.257 OA 
HETATM   26  C   UNL     1      -7.662   7.034  65.382  1.00  0.00    -0.111 A  
HETATM   27  C   UNL     1      -8.682   7.819  65.932  1.00  0.00    -0.175 A  
ENDBRANCH  14  15
ENDBRANCH   4  14
TORSDOF 2
ENDMDL
MODEL       61
REMARK 921   NORMALIZED FREE ENERGY PREDICTED BY IDOCK:   -6.33 KCAL/MOL
REMARK 922        TOTAL FREE ENERGY PREDICTED BY IDOCK:   -7.88 KCAL/MOL
REMARK 923 INTER-LIGAND FREE ENERGY PREDICTED BY IDOCK:   -7.72 KCAL/MOL
REMARK 924 INTRA-LIGAND FREE ENERGY PREDICTED BY IDOCK:   -0.16 KCAL/MOL
REMARK 927      BINDING AFFINITY PREDICTED BY RF-SCORE:    0.00 PKD
ROOT
HETATM    1  O   UNL     1     -12.678  10.702  69.187  1.00  0.00    -0.685 OA 
HETATM    2  C   UNL     1     -11.389  10.677  68.704  1.00  0.00    -0.281 C  
HETATM    3  H   UNL     1     -12.986  10.218  69.945  1.00  0.00     0.000 HD 
HETATM    4  C   UNL     1     -10.953  11.363  67.631  1.00  0.00    -0.303 C  
HETATM    5  C   UNL     1     -10.840   9.146  70.629  1.00  0.00    -0.321 A  
HETATM    6  C   UNL     1      -9.528  11.254  67.224  1.00  0.00    -0.173 C  
HETATM    7  C   UNL     1      -8.121   9.595  70.181  1.00  0.00    -0.205 A  
HETATM    8  O   UNL     1      -8.628  10.774  68.163  1.00  0.00    -0.121 OA 
HETATM    9  O   UNL     1      -9.160  11.655  66.122  1.00  0.00    -0.213 OA 
HETATM   10  C   UNL     1      -9.085  10.100  69.308  1.00  0.00    -0.198 A  
HETATM   11  C   UNL     1      -8.529   8.854  71.288  1.00  0.00    -0.239 A  
HETATM   12  C   UNL     1      -9.886   8.606  71.497  1.00  0.00    -0.342 A  
HETATM   13  C   UNL     1     -10.445   9.932  69.539  1.00  0.00    -0.261 A  
ENDROOT
BRANCH   4  14
HETATM   14  C   UNL     1     -11.750  12.375  66.836  1.00  0.00    -0.432 C  
BRANCH  14  15
HETATM   15  C   UNL     1     -11.422  13.808  67.168  1.00  0.00    -0.365 C  
HETATM   16  C   UNL     1     -10.895  16.413  68.105  1.00  0.00    -0.346 A  
HETATM   17  H   UNL     1      -9.827  15.011  64.553  1.00  0.00     0.000 HD 
HETATM   18  C   UNL     1     -10.757  17.717  68.580  1.00  0.00    -0.193 A  
HETATM   19  C   UNL     1     -10.638  16.081  66.779  1.00  0.00    -0.297 A  
HETATM   20  O   UNL     1     -11.369  15.453  69.009  1.00  0.00    -0.275 OA 
HETATM   21  C   UNL     1     -11.777  14.214  68.554  1.00  0.00    -0.345 C  
HETATM   22  C   UNL     1     -10.792  14.684  66.360  1.00  0.00    -0.315 C  
HETATM   23  C   UNL     1     -10.392  18.726  67.693  1.00  0.00    -0.476 A  
HETATM   24  O   UNL     1     -12.388  13.444  69.292  1.00  0.00    -0.233 OA 
HETATM   25  O   UNL     1     -10.271  14.394  65.122  1.00  0.00    -0.383 OA 
HETATM   26  C   UNL     1     -10.165  18.421  66.350  1.00  0.00    -0.431 A  
HETATM   27  C   UNL     1     -10.275  17.100  65.901  1.00  0.00    -0.290 A  
ENDBRANCH  14  15
ENDBRANCH   4  14
TORSDOF 2
ENDMDL
MODEL       62
REMARK 921   NORMALIZED FREE ENERGY PREDICTED BY IDOCK:   -6.31 KCAL/MOL
REMARK 922        TOTAL FREE ENERGY PREDICTED BY IDOCK:   -7.86 KCAL/MOL
REMARK 923 INTER-LIGAND FREE ENERGY PREDICTED BY IDOCK:   -7.45 KCAL/MOL
REMARK 924 INTRA-LIGAND FREE ENERGY PREDICTED BY IDOCK:   -0.41 KCAL/MOL
REMARK 927      BINDING AFFINITY PREDICTED BY RF-SCORE:    0.00 PKD
ROOT
HETATM    1  O   UNL     1     -11.221  15.281  64.420  1.00  0.00    -0.653 OA 
HETATM    2  C   UNL     1     -10.563  14.566  65.395  1.00  0.00    -0.370 C  
HETATM    3  H   UNL     1     -11.403  14.967  63.542  1.00  0.00     0.000 HD 
HETATM    4  C   UNL     1     -10.305  15.010  66.639  1.00  0.00    -0.278 C  
HETATM    5  C   UNL     1     -10.446  12.672  63.735  1.00  0.00    -0.411 A  
HETATM    6  C   UNL     1      -9.595  14.125  67.598  1.00  0.00    -0.216 C  
HETATM    7  C   UNL     1      -9.781  10.926  65.810  1.00  0.00    -0.270 A  
HETATM    8  O   UNL     1      -9.568  12.768  67.320  1.00  0.00    -0.199 OA 
HETATM    9  O   UNL     1      -9.126  14.581  68.639  1.00  0.00    -0.189 OA 
HETATM   10  C   UNL     1      -9.884  12.298  66.034  1.00  0.00    -0.248 A  
HETATM   11  C   UNL     1     -10.012  10.427  64.529  1.00  0.00    -0.401 A  
HETATM   12  C   UNL     1     -10.316  11.302  63.487  1.00  0.00    -0.463 A  
HETATM   13  C   UNL     1     -10.263  13.180  65.028  1.00  0.00    -0.296 A  
ENDROOT
BRANCH   4  14
HETATM   14  C   UNL     1     -10.790  16.313  67.238  1.00  0.00    -0.216 C  
BRANCH  14  15
HETATM   15  C   UNL     1      -9.833  17.462  67.058  1.00  0.00    -0.286 C  
HETATM   16  C   UNL     1      -8.247  19.718  66.476  1.00  0.00    -0.335 A  
HETATM   17  H   UNL     1      -7.833  17.406  69.670  1.00  0.00     0.000 HD 
HETATM   18  C   UNL     1      -7.429  20.777  66.082  1.00  0.00     0.066 A  
HETATM   19  C   UNL     1      -7.903  18.873  67.525  1.00  0.00    -0.256 A  
HETATM   20  O   UNL     1      -9.408  19.497  65.723  1.00  0.00    -0.386 OA 
HETATM   21  C   UNL     1     -10.125  18.326  65.883  1.00  0.00    -0.160 C  
HETATM   22  C   UNL     1      -8.823  17.790  67.889  1.00  0.00    -0.251 C  
HETATM   23  C   UNL     1      -6.213  20.971  66.730  1.00  0.00    -0.360 A  
HETATM   24  O   UNL     1     -11.014  18.022  65.091  1.00  0.00    -0.645 OA 
HETATM   25  O   UNL     1      -8.544  17.176  69.085  1.00  0.00    -0.147 OA 
HETATM   26  C   UNL     1      -5.831  20.112  67.762  1.00  0.00    -0.224 A  
HETATM   27  C   UNL     1      -6.681  19.076  68.165  1.00  0.00    -0.256 A  
ENDBRANCH  14  15
ENDBRANCH   4  14
TORSDOF 2
ENDMDL
MODEL       63
REMARK 921   NORMALIZED FREE ENERGY PREDICTED BY IDOCK:   -6.29 KCAL/MOL
REMARK 922        TOTAL FREE ENERGY PREDICTED BY IDOCK:   -7.84 KCAL/MOL
REMARK 923 INTER-LIGAND FREE ENERGY PREDICTED BY IDOCK:   -6.99 KCAL/MOL
REMARK 924 INTRA-LIGAND FREE ENERGY PREDICTED BY IDOCK:   -0.85 KCAL/MOL
REMARK 927      BINDING AFFINITY PREDICTED BY RF-SCORE:    0.00 PKD
ROOT
HETATM    1  O   UNL     1     -10.563  11.069  70.014  1.00  0.00    -0.449 OA 
HETATM    2  C   UNL     1     -10.509   9.805  69.471  1.00  0.00    -0.232 C  
HETATM    3  H   UNL     1     -11.073  11.314  70.777  1.00  0.00     0.000 HD 
HETATM    4  C   UNL     1      -9.787   9.458  68.390  1.00  0.00    -0.177 C  
HETATM    5  C   UNL     1     -12.030   9.082  71.347  1.00  0.00    -0.400 A  
HETATM    6  C   UNL     1      -9.811   8.049  67.918  1.00  0.00    -0.167 C  
HETATM    7  C   UNL     1     -11.423   6.417  70.782  1.00  0.00    -0.415 A  
HETATM    8  O   UNL     1     -10.250   7.081  68.807  1.00  0.00    -0.165 OA 
HETATM    9  O   UNL     1      -9.375   7.755  66.806  1.00  0.00    -0.160 OA 
HETATM   10  C   UNL     1     -10.962   7.446  69.962  1.00  0.00    -0.248 A  
HETATM   11  C   UNL     1     -12.199   6.731  71.896  1.00  0.00    -0.377 A  
HETATM   12  C   UNL     1     -12.526   8.060  72.163  1.00  0.00    -0.335 A  
HETATM   13  C   UNL     1     -11.210   8.783  70.252  1.00  0.00    -0.212 A  
ENDROOT
BRANCH   4  14
HETATM   14  C   UNL     1      -8.812  10.345  67.647  1.00  0.00    -0.124 C  
BRANCH  14  15
HETATM   15  C   UNL     1      -9.469  11.433  66.839  1.00  0.00    -0.193 C  
HETATM   16  C   UNL     1     -10.540  13.686  65.527  1.00  0.00    -0.296 A  
HETATM   17  H   UNL     1     -10.731   9.962  64.180  1.00  0.00     0.000 HD 
HETATM   18  C   UNL     1     -11.140  14.819  64.978  1.00  0.00    -0.412 A  
HETATM   19  C   UNL     1     -10.819  12.406  65.060  1.00  0.00    -0.331 A  
HETATM   20  O   UNL     1      -9.686  13.884  66.620  1.00  0.00    -0.270 OA 
HETATM   21  C   UNL     1      -9.265  12.806  67.374  1.00  0.00    -0.193 C  
HETATM   22  C   UNL     1     -10.135  11.265  65.679  1.00  0.00    -0.247 C  
HETATM   23  C   UNL     1     -12.078  14.664  63.961  1.00  0.00    -0.229 A  
HETATM   24  O   UNL     1      -8.695  12.977  68.450  1.00  0.00    -0.172 OA 
HETATM   25  O   UNL     1     -10.261  10.080  64.996  1.00  0.00    -0.280 OA 
HETATM   26  C   UNL     1     -12.400  13.386  63.503  1.00  0.00    -0.398 A  
HETATM   27  C   UNL     1     -11.761  12.264  64.042  1.00  0.00    -0.506 A  
ENDBRANCH  14  15
ENDBRANCH   4  14
TORSDOF 2
ENDMDL
MODEL       64
REMARK 921   NORMALIZED FREE ENERGY PREDICTED BY IDOCK:   -6.25 KCAL/MOL
REMARK 922        TOTAL FREE ENERGY PREDICTED BY IDOCK:   -7.79 KCAL/MOL
REMARK 923 INTER-LIGAND FREE ENERGY PREDICTED BY IDOCK:   -6.98 KCAL/MOL
REMARK 924 INTRA-LIGAND FREE ENERGY PREDICTED BY IDOCK:   -0.80 KCAL/MOL
REMARK 927      BINDING AFFINITY PREDICTED BY RF-SCORE:    0.00 PKD
ROOT
HETATM    1  O   UNL     1     -11.569  10.868  67.645  1.00  0.00    -0.531 OA 
HETATM    2  C   UNL     1     -11.994  11.518  68.782  1.00  0.00    -0.271 C  
HETATM    3  H   UNL     1     -11.345  11.294  66.825  1.00  0.00     0.000 HD 
HETATM    4  C   UNL     1     -12.313  10.916  69.942  1.00  0.00    -0.354 C  
HETATM    5  C   UNL     1     -11.691  13.669  67.503  1.00  0.00    -0.406 A  
HETATM    6  C   UNL     1     -12.747  11.742  71.099  1.00  0.00    -0.305 C  
HETATM    7  C   UNL     1     -11.828  15.088  69.903  1.00  0.00    -0.362 A  
HETATM    8  O   UNL     1     -12.444  13.093  71.071  1.00  0.00    -0.370 OA 
HETATM    9  O   UNL     1     -13.280  11.219  72.076  1.00  0.00    -0.506 OA 
HETATM   10  C   UNL     1     -12.063  13.714  69.869  1.00  0.00    -0.341 A  
HETATM   11  C   UNL     1     -11.524  15.756  68.719  1.00  0.00    -0.391 A  
HETATM   12  C   UNL     1     -11.483  15.052  67.515  1.00  0.00    -0.339 A  
HETATM   13  C   UNL     1     -11.951  12.979  68.694  1.00  0.00    -0.298 A  
ENDROOT
BRANCH   4  14
HETATM   14  C   UNL     1     -12.149   9.444  70.258  1.00  0.00     0.088 C  
BRANCH  14  15
HETATM   15  C   UNL     1     -10.833   9.101  70.907  1.00  0.00    -0.345 C  
HETATM   16  C   UNL     1      -8.554   8.311  72.363  1.00  0.00    -0.206 A  
HETATM   17  H   UNL     1      -8.513   9.718  68.656  1.00  0.00     0.000 HD 
HETATM   18  C   UNL     1      -7.456   8.007  73.168  1.00  0.00    -0.171 A  
HETATM   19  C   UNL     1      -8.413   8.959  71.140  1.00  0.00    -0.250 A  
HETATM   20  O   UNL     1      -9.821   7.994  72.869  1.00  0.00    -0.253 OA 
HETATM   21  C   UNL     1     -10.956   8.494  72.259  1.00  0.00    -0.355 C  
HETATM   22  C   UNL     1      -9.615   9.231  70.345  1.00  0.00    -0.244 C  
HETATM   23  C   UNL     1      -6.185   8.399  72.757  1.00  0.00    -0.085 A  
HETATM   24  O   UNL     1     -12.053   8.404  72.806  1.00  0.00    -0.354 OA 
HETATM   25  O   UNL     1      -9.372   9.626  69.052  1.00  0.00    -0.148 OA 
HETATM   26  C   UNL     1      -6.026   9.082  71.551  1.00  0.00    -0.064 A  
HETATM   27  C   UNL     1      -7.136   9.347  70.741  1.00  0.00    -0.119 A  
ENDBRANCH  14  15
ENDBRANCH   4  14
TORSDOF 2
ENDMDL
MODEL       65
REMARK 921   NORMALIZED FREE ENERGY PREDICTED BY IDOCK:   -6.19 KCAL/MOL
REMARK 922        TOTAL FREE ENERGY PREDICTED BY IDOCK:   -7.73 KCAL/MOL
REMARK 923 INTER-LIGAND FREE ENERGY PREDICTED BY IDOCK:   -6.98 KCAL/MOL
REMARK 924 INTRA-LIGAND FREE ENERGY PREDICTED BY IDOCK:   -0.75 KCAL/MOL
REMARK 927      BINDING AFFINITY PREDICTED BY RF-SCORE:    0.00 PKD
ROOT
HETATM    1  O   UNL     1     -11.255   7.642  73.678  1.00  0.00    -0.537 OA 
HETATM    2  C   UNL     1     -10.704   7.042  72.568  1.00  0.00    -0.242 C  
HETATM    3  H   UNL     1     -10.841   7.696  74.532  1.00  0.00     0.000 HD 
HETATM    4  C   UNL     1     -11.291   6.965  71.360  1.00  0.00    -0.308 C  
HETATM    5  C   UNL     1      -8.676   6.581  73.992  1.00  0.00    -0.151 A  
HETATM    6  C   UNL     1     -10.575   6.298  70.242  1.00  0.00    -0.248 C  
HETATM    7  C   UNL     1      -7.212   6.015  71.683  1.00  0.00    -0.087 A  
HETATM    8  O   UNL     1      -9.206   6.128  70.367  1.00  0.00    -0.151 OA 
HETATM    9  O   UNL     1     -11.173   5.989  69.213  1.00  0.00    -0.384 OA 
HETATM   10  C   UNL     1      -8.584   6.256  71.621  1.00  0.00    -0.133 A  
HETATM   11  C   UNL     1      -6.570   6.056  72.920  1.00  0.00    -0.065 A  
HETATM   12  C   UNL     1      -7.306   6.311  74.076  1.00  0.00    -0.086 A  
HETATM   13  C   UNL     1      -9.323   6.589  72.750  1.00  0.00    -0.146 A  
ENDROOT
BRANCH   4  14
HETATM   14  C   UNL     1     -12.595   7.621  70.959  1.00  0.00    -0.177 C  
BRANCH  14  15
HETATM   15  C   UNL     1     -12.555   9.127  70.983  1.00  0.00    -0.211 C  
HETATM   16  C   UNL     1     -12.647  11.923  71.318  1.00  0.00    -0.277 A  
HETATM   17  H   UNL     1     -10.409  10.021  68.654  1.00  0.00     0.000 HD 
HETATM   18  C   UNL     1     -12.814  13.301  71.458  1.00  0.00    -0.419 A  
HETATM   19  C   UNL     1     -11.968  11.370  70.238  1.00  0.00    -0.460 A  
HETATM   20  O   UNL     1     -13.251  11.107  72.284  1.00  0.00    -0.413 OA 
HETATM   21  C   UNL     1     -13.354   9.745  72.074  1.00  0.00    -0.451 C  
HETATM   22  C   UNL     1     -11.822   9.912  70.169  1.00  0.00    -0.124 C  
HETATM   23  C   UNL     1     -12.325  14.147  70.467  1.00  0.00    -0.434 A  
HETATM   24  O   UNL     1     -14.060   9.050  72.801  1.00  0.00    -0.524 OA 
HETATM   25  O   UNL     1     -10.925   9.468  69.228  1.00  0.00    -0.219 OA 
HETATM   26  C   UNL     1     -11.672  13.611  69.356  1.00  0.00    -0.379 A  
HETATM   27  C   UNL     1     -11.485  12.228  69.251  1.00  0.00    -0.352 A  
ENDBRANCH  14  15
ENDBRANCH   4  14
TORSDOF 2
ENDMDL
MODEL       66
REMARK 921   NORMALIZED FREE ENERGY PREDICTED BY IDOCK:   -6.19 KCAL/MOL
REMARK 922        TOTAL FREE ENERGY PREDICTED BY IDOCK:   -7.72 KCAL/MOL
REMARK 923 INTER-LIGAND FREE ENERGY PREDICTED BY IDOCK:   -6.99 KCAL/MOL
REMARK 924 INTRA-LIGAND FREE ENERGY PREDICTED BY IDOCK:   -0.73 KCAL/MOL
REMARK 927      BINDING AFFINITY PREDICTED BY RF-SCORE:    0.00 PKD
ROOT
HETATM    1  O   UNL     1      -9.369  12.054  68.493  1.00  0.00    -0.276 OA 
HETATM    2  C   UNL     1      -9.678  11.708  67.197  1.00  0.00    -0.181 C  
HETATM    3  H   UNL     1      -9.657  12.847  68.929  1.00  0.00     0.000 HD 
HETATM    4  C   UNL     1      -9.270  10.585  66.578  1.00  0.00    -0.183 C  
HETATM    5  C   UNL     1     -11.043  13.824  67.102  1.00  0.00    -0.315 A  
HETATM    6  C   UNL     1      -9.689  10.330  65.176  1.00  0.00    -0.300 C  
HETATM    7  C   UNL     1     -12.294  12.886  64.788  1.00  0.00    -0.516 A  
HETATM    8  O   UNL     1     -10.775  11.041  64.692  1.00  0.00    -0.324 OA 
HETATM    9  O   UNL     1      -9.138   9.458  64.507  1.00  0.00    -0.222 OA 
HETATM   10  C   UNL     1     -11.233  12.187  65.363  1.00  0.00    -0.333 A  
HETATM   11  C   UNL     1     -12.729  14.070  65.381  1.00  0.00    -0.499 A  
HETATM   12  C   UNL     1     -12.086  14.554  66.520  1.00  0.00    -0.330 A  
HETATM   13  C   UNL     1     -10.629  12.609  66.543  1.00  0.00    -0.272 A  
ENDROOT
BRANCH   4  14
HETATM   14  C   UNL     1      -8.509   9.442  67.216  1.00  0.00    -0.125 C  
BRANCH  14  15
HETATM   15  C   UNL     1      -9.285   8.709  68.280  1.00  0.00    -0.140 C  
HETATM   16  C   UNL     1     -10.806   7.111  70.032  1.00  0.00    -0.254 A  
HETATM   17  H   UNL     1      -8.466  10.113  71.141  1.00  0.00     0.000 HD 
HETATM   18  C   UNL     1     -11.660   6.357  70.837  1.00  0.00    -0.393 A  
HETATM   19  C   UNL     1     -10.162   8.249  70.505  1.00  0.00    -0.213 A  
HETATM   20  O   UNL     1     -10.671   6.708  68.697  1.00  0.00    -0.215 OA 
HETATM   21  C   UNL     1     -10.060   7.542  67.780  1.00  0.00    -0.185 C  
HETATM   22  C   UNL     1      -9.268   8.979  69.600  1.00  0.00    -0.159 C  
HETATM   23  C   UNL     1     -11.910   6.778  72.140  1.00  0.00    -0.326 A  
HETATM   24  O   UNL     1     -10.121   7.303  66.576  1.00  0.00    -0.188 OA 
HETATM   25  O   UNL     1      -8.478   9.923  70.211  1.00  0.00    -0.178 OA 
HETATM   26  C   UNL     1     -11.303   7.939  72.623  1.00  0.00    -0.468 A  
HETATM   27  C   UNL     1     -10.422   8.662  71.810  1.00  0.00    -0.394 A  
ENDBRANCH  14  15
ENDBRANCH   4  14
TORSDOF 2
ENDMDL
MODEL       67
REMARK 921   NORMALIZED FREE ENERGY PREDICTED BY IDOCK:   -6.18 KCAL/MOL
REMARK 922        TOTAL FREE ENERGY PREDICTED BY IDOCK:   -7.71 KCAL/MOL
REMARK 923 INTER-LIGAND FREE ENERGY PREDICTED BY IDOCK:   -7.02 KCAL/MOL
REMARK 924 INTRA-LIGAND FREE ENERGY PREDICTED BY IDOCK:   -0.69 KCAL/MOL
REMARK 927      BINDING AFFINITY PREDICTED BY RF-SCORE:    0.00 PKD
ROOT
HETATM    1  O   UNL     1      -8.216  11.777  67.548  1.00  0.00    -0.137 OA 
HETATM    2  C   UNL     1      -9.366  12.069  66.849  1.00  0.00    -0.200 C  
HETATM    3  H   UNL     1      -7.550  11.160  67.269  1.00  0.00     0.000 HD 
HETATM    4  C   UNL     1     -10.311  12.942  67.244  1.00  0.00    -0.234 C  
HETATM    5  C   UNL     1      -8.531  10.480  65.079  1.00  0.00    -0.166 A  
HETATM    6  C   UNL     1     -11.500  13.170  66.383  1.00  0.00    -0.334 C  
HETATM    7  C   UNL     1     -10.408  11.519  63.293  1.00  0.00    -0.435 A  
HETATM    8  O   UNL     1     -11.415  12.784  65.055  1.00  0.00    -0.303 OA 
HETATM    9  O   UNL     1     -12.487  13.757  66.823  1.00  0.00    -0.366 OA 
HETATM   10  C   UNL     1     -10.399  11.910  64.631  1.00  0.00    -0.284 A  
HETATM   11  C   UNL     1      -9.465  10.594  62.849  1.00  0.00    -0.367 A  
HETATM   12  C   UNL     1      -8.546  10.053  63.747  1.00  0.00    -0.202 A  
HETATM   13  C   UNL     1      -9.443  11.444  65.526  1.00  0.00    -0.251 A  
ENDROOT
BRANCH   4  14
HETATM   14  C   UNL     1     -10.234  13.852  68.451  1.00  0.00    -0.243 C  
BRANCH  14  15
HETATM   15  C   UNL     1      -9.870  15.276  68.121  1.00  0.00    -0.217 C  
HETATM   16  C   UNL     1      -9.446  18.030  67.701  1.00  0.00    -0.264 A  
HETATM   17  H   UNL     1      -6.922  15.154  66.664  1.00  0.00     0.000 HD 
HETATM   18  C   UNL     1      -9.340  19.394  67.426  1.00  0.00    -0.388 A  
HETATM   19  C   UNL     1      -8.584  17.096  67.139  1.00  0.00    -0.221 A  
HETATM   20  O   UNL     1     -10.506  17.628  68.525  1.00  0.00    -0.359 OA 
HETATM   21  C   UNL     1     -10.832  16.290  68.631  1.00  0.00    -0.322 C  
HETATM   22  C   UNL     1      -8.751  15.682  67.490  1.00  0.00    -0.177 C  
HETATM   23  C   UNL     1      -8.369  19.830  66.528  1.00  0.00    -0.373 A  
HETATM   24  O   UNL     1     -11.878  15.940  69.173  1.00  0.00    -0.389 OA 
HETATM   25  O   UNL     1      -7.711  14.868  67.109  1.00  0.00    -0.202 OA 
HETATM   26  C   UNL     1      -7.517  18.905  65.924  1.00  0.00    -0.242 A  
HETATM   27  C   UNL     1      -7.617  17.545  66.240  1.00  0.00    -0.343 A  
ENDBRANCH  14  15
ENDBRANCH   4  14
TORSDOF 2
ENDMDL
MODEL       68
REMARK 921   NORMALIZED FREE ENERGY PREDICTED BY IDOCK:   -6.15 KCAL/MOL
REMARK 922        TOTAL FREE ENERGY PREDICTED BY IDOCK:   -7.68 KCAL/MOL
REMARK 923 INTER-LIGAND FREE ENERGY PREDICTED BY IDOCK:   -7.85 KCAL/MOL
REMARK 924 INTRA-LIGAND FREE ENERGY PREDICTED BY IDOCK:    0.17 KCAL/MOL
REMARK 927      BINDING AFFINITY PREDICTED BY RF-SCORE:    0.00 PKD
ROOT
HETATM    1  O   UNL     1     -10.993  12.309  67.554  1.00  0.00    -0.234 OA 
HETATM    2  C   UNL     1     -11.293  13.377  68.370  1.00  0.00    -0.294 C  
HETATM    3  H   UNL     1     -11.063  11.395  67.804  1.00  0.00     0.000 HD 
HETATM    4  C   UNL     1     -11.193  14.671  68.017  1.00  0.00    -0.307 C  
HETATM    5  C   UNL     1     -11.955  11.682  70.115  1.00  0.00    -0.441 A  
HETATM    6  C   UNL     1     -11.562  15.726  68.996  1.00  0.00    -0.400 C  
HETATM    7  C   UNL     1     -13.251  13.698  71.548  1.00  0.00    -0.409 A  
HETATM    8  O   UNL     1     -12.347  15.352  70.076  1.00  0.00    -0.359 OA 
HETATM    9  O   UNL     1     -11.248  16.898  68.802  1.00  0.00    -0.228 OA 
HETATM   10  C   UNL     1     -12.492  13.997  70.416  1.00  0.00    -0.350 A  
HETATM   11  C   UNL     1     -13.356  12.372  71.965  1.00  0.00    -0.511 A  
HETATM   12  C   UNL     1     -12.686  11.369  71.266  1.00  0.00    -0.498 A  
HETATM   13  C   UNL     1     -11.880  13.004  69.659  1.00  0.00    -0.385 A  
ENDROOT
BRANCH   4  14
HETATM   14  C   UNL     1     -10.857  15.196  66.637  1.00  0.00    -0.318 C  
BRANCH  14  15
HETATM   15  C   UNL     1      -9.550  15.942  66.568  1.00  0.00    -0.291 C  
HETATM   16  C   UNL     1      -6.956  17.037  66.472  1.00  0.00    -0.256 A  
HETATM   17  H   UNL     1     -10.287  18.989  65.571  1.00  0.00     0.000 HD 
HETATM   18  C   UNL     1      -5.662  17.554  66.545  1.00  0.00    -0.234 A  
HETATM   19  C   UNL     1      -8.067  17.857  66.311  1.00  0.00    -0.266 A  
HETATM   20  O   UNL     1      -7.098  15.652  66.632  1.00  0.00    -0.144 OA 
HETATM   21  C   UNL     1      -8.350  15.103  66.832  1.00  0.00    -0.232 C  
HETATM   22  C   UNL     1      -9.394  17.236  66.228  1.00  0.00    -0.223 C  
HETATM   23  C   UNL     1      -5.479  18.933  66.499  1.00  0.00    -0.169 A  
HETATM   24  O   UNL     1      -8.473  13.932  67.183  1.00  0.00    -0.203 OA 
HETATM   25  O   UNL     1     -10.397  18.077  65.810  1.00  0.00    -0.583 OA 
HETATM   26  C   UNL     1      -6.585  19.776  66.375  1.00  0.00    -0.202 A  
HETATM   27  C   UNL     1      -7.872  19.236  66.269  1.00  0.00    -0.311 A  
ENDBRANCH  14  15
ENDBRANCH   4  14
TORSDOF 2
ENDMDL
MODEL       69
REMARK 921   NORMALIZED FREE ENERGY PREDICTED BY IDOCK:   -6.10 KCAL/MOL
REMARK 922        TOTAL FREE ENERGY PREDICTED BY IDOCK:   -7.62 KCAL/MOL
REMARK 923 INTER-LIGAND FREE ENERGY PREDICTED BY IDOCK:   -7.41 KCAL/MOL
REMARK 924 INTRA-LIGAND FREE ENERGY PREDICTED BY IDOCK:   -0.22 KCAL/MOL
REMARK 927      BINDING AFFINITY PREDICTED BY RF-SCORE:    0.00 PKD
ROOT
HETATM    1  O   UNL     1     -10.886  15.424  69.213  1.00  0.00    -0.227 OA 
HETATM    2  C   UNL     1     -10.678  15.748  67.892  1.00  0.00    -0.302 C  
HETATM    3  H   UNL     1     -10.744  16.010  69.948  1.00  0.00     0.000 HD 
HETATM    4  C   UNL     1     -10.878  14.919  66.851  1.00  0.00    -0.319 C  
HETATM    5  C   UNL     1     -10.053  18.054  68.697  1.00  0.00    -0.401 A  
HETATM    6  C   UNL     1     -10.625  15.405  65.470  1.00  0.00    -0.383 C  
HETATM    7  C   UNL     1     -10.304  19.009  66.085  1.00  0.00    -0.537 A  
HETATM    8  O   UNL     1     -10.569  16.775  65.273  1.00  0.00    -0.621 OA 
HETATM    9  O   UNL     1     -10.553  14.613  64.532  1.00  0.00    -0.318 OA 
HETATM   10  C   UNL     1     -10.409  17.646  66.363  1.00  0.00    -0.345 A  
HETATM   11  C   UNL     1     -10.068  19.900  67.131  1.00  0.00    -0.573 A  
HETATM   12  C   UNL     1      -9.914  19.420  68.431  1.00  0.00    -0.527 A  
HETATM   13  C   UNL     1     -10.338  17.154  67.662  1.00  0.00    -0.344 A  
ENDROOT
BRANCH   4  14
HETATM   14  C   UNL     1     -11.480  13.531  66.921  1.00  0.00    -0.374 C  
BRANCH  14  15
HETATM   15  C   UNL     1     -10.633  12.534  67.668  1.00  0.00    -0.234 C  
HETATM   16  C   UNL     1      -9.335  10.507  69.133  1.00  0.00    -0.187 A  
HETATM   17  H   UNL     1      -7.515  13.182  66.842  1.00  0.00     0.000 HD 
HETATM   18  C   UNL     1      -8.743   9.553  69.960  1.00  0.00    -0.242 A  
HETATM   19  C   UNL     1      -8.593  11.502  68.507  1.00  0.00    -0.140 A  
HETATM   20  O   UNL     1     -10.730  10.461  69.006  1.00  0.00    -0.200 OA 
HETATM   21  C   UNL     1     -11.408  11.515  68.424  1.00  0.00    -0.279 C  
HETATM   22  C   UNL     1      -9.288  12.460  67.640  1.00  0.00    -0.188 C  
HETATM   23  C   UNL     1      -7.374   9.623  70.202  1.00  0.00    -0.141 A  
HETATM   24  O   UNL     1     -12.633  11.589  68.495  1.00  0.00    -0.142 OA 
HETATM   25  O   UNL     1      -8.462  13.235  66.862  1.00  0.00    -0.166 OA 
HETATM   26  C   UNL     1      -6.616  10.636  69.614  1.00  0.00    -0.106 A  
HETATM   27  C   UNL     1      -7.223  11.563  68.759  1.00  0.00    -0.112 A  
ENDBRANCH  14  15
ENDBRANCH   4  14
TORSDOF 2
ENDMDL
MODEL       70
REMARK 921   NORMALIZED FREE ENERGY PREDICTED BY IDOCK:   -6.09 KCAL/MOL
REMARK 922        TOTAL FREE ENERGY PREDICTED BY IDOCK:   -7.61 KCAL/MOL
REMARK 923 INTER-LIGAND FREE ENERGY PREDICTED BY IDOCK:   -6.77 KCAL/MOL
REMARK 924 INTRA-LIGAND FREE ENERGY PREDICTED BY IDOCK:   -0.84 KCAL/MOL
REMARK 927      BINDING AFFINITY PREDICTED BY RF-SCORE:    0.00 PKD
ROOT
HETATM    1  O   UNL     1     -10.187  11.475  66.458  1.00  0.00    -0.207 OA 
HETATM    2  C   UNL     1      -9.234  12.455  66.622  1.00  0.00    -0.218 C  
HETATM    3  H   UNL     1     -10.010  10.542  66.425  1.00  0.00     0.000 HD 
HETATM    4  C   UNL     1      -9.485  13.776  66.669  1.00  0.00    -0.289 C  
HETATM    5  C   UNL     1      -7.544  10.593  66.791  1.00  0.00    -0.120 A  
HETATM    6  C   UNL     1      -8.359  14.727  66.863  1.00  0.00    -0.151 C  
HETATM    7  C   UNL     1      -5.691  12.402  67.835  1.00  0.00    -0.086 A  
HETATM    8  O   UNL     1      -7.172  14.220  67.368  1.00  0.00    -0.185 OA 
HETATM    9  O   UNL     1      -8.514  15.929  66.659  1.00  0.00    -0.233 OA 
HETATM   10  C   UNL     1      -6.929  12.837  67.364  1.00  0.00    -0.129 A  
HETATM   11  C   UNL     1      -5.379  11.045  67.778  1.00  0.00    -0.039 A  
HETATM   12  C   UNL     1      -6.293  10.145  67.231  1.00  0.00    -0.066 A  
HETATM   13  C   UNL     1      -7.886  11.948  66.887  1.00  0.00    -0.120 A  
ENDROOT
BRANCH   4  14
HETATM   14  C   UNL     1     -10.853  14.424  66.676  1.00  0.00    -0.304 C  
BRANCH  14  15
HETATM   15  C   UNL     1     -11.483  14.506  68.042  1.00  0.00    -0.345 C  
HETATM   16  C   UNL     1     -12.654  14.992  70.558  1.00  0.00    -0.369 A  
HETATM   17  H   UNL     1     -12.470  11.454  68.778  1.00  0.00     0.000 HD 
HETATM   18  C   UNL     1     -13.123  15.274  71.842  1.00  0.00    -0.482 A  
HETATM   19  C   UNL     1     -12.482  13.688  70.107  1.00  0.00    -0.305 A  
HETATM   20  O   UNL     1     -12.300  16.085  69.756  1.00  0.00    -0.206 OA 
HETATM   21  C   UNL     1     -11.591  15.885  68.587  1.00  0.00    -0.380 C  
HETATM   22  C   UNL     1     -11.999  13.474  68.739  1.00  0.00    -0.339 C  
HETATM   23  C   UNL     1     -13.387  14.221  72.713  1.00  0.00    -0.621 A  
HETATM   24  O   UNL     1     -11.091  16.834  67.987  1.00  0.00    -0.336 OA 
HETATM   25  O   UNL     1     -12.107  12.181  68.287  1.00  0.00    -0.407 OA 
HETATM   26  C   UNL     1     -13.186  12.905  72.293  1.00  0.00    -0.519 A  
HETATM   27  C   UNL     1     -12.748  12.643  70.990  1.00  0.00    -0.316 A  
ENDBRANCH  14  15
ENDBRANCH   4  14
TORSDOF 2
ENDMDL
MODEL       71
REMARK 921   NORMALIZED FREE ENERGY PREDICTED BY IDOCK:   -6.08 KCAL/MOL
REMARK 922        TOTAL FREE ENERGY PREDICTED BY IDOCK:   -7.60 KCAL/MOL
REMARK 923 INTER-LIGAND FREE ENERGY PREDICTED BY IDOCK:   -6.88 KCAL/MOL
REMARK 924 INTRA-LIGAND FREE ENERGY PREDICTED BY IDOCK:   -0.71 KCAL/MOL
REMARK 927      BINDING AFFINITY PREDICTED BY RF-SCORE:    0.00 PKD
ROOT
HETATM    1  O   UNL     1      -8.951  10.346  66.279  1.00  0.00    -0.150 OA 
HETATM    2  C   UNL     1     -10.011  11.126  66.683  1.00  0.00    -0.207 C  
HETATM    3  H   UNL     1      -8.770  10.093  65.382  1.00  0.00     0.000 HD 
HETATM    4  C   UNL     1     -10.268  11.483  67.955  1.00  0.00    -0.200 C  
HETATM    5  C   UNL     1     -10.634  11.301  64.247  1.00  0.00    -0.422 A  
HETATM    6  C   UNL     1     -11.444  12.341  68.249  1.00  0.00    -0.315 C  
HETATM    7  C   UNL     1     -12.334  13.430  64.859  1.00  0.00    -0.457 A  
HETATM    8  O   UNL     1     -11.999  13.051  67.197  1.00  0.00    -0.371 OA 
HETATM    9  O   UNL     1     -11.848  12.475  69.403  1.00  0.00    -0.305 OA 
HETATM   10  C   UNL     1     -11.694  12.710  65.868  1.00  0.00    -0.420 A  
HETATM   11  C   UNL     1     -12.118  13.074  63.529  1.00  0.00    -0.617 A  
HETATM   12  C   UNL     1     -11.291  11.993  63.224  1.00  0.00    -0.396 A  
HETATM   13  C   UNL     1     -10.805  11.680  65.584  1.00  0.00    -0.330 A  
ENDROOT
BRANCH   4  14
HETATM   14  C   UNL     1      -9.385  11.206  69.154  1.00  0.00     0.019 C  
BRANCH  14  15
HETATM   15  C   UNL     1      -9.554   9.824  69.730  1.00  0.00    -0.256 C  
HETATM   16  C   UNL     1      -9.566   7.171  70.678  1.00  0.00    -0.165 A  
HETATM   17  H   UNL     1     -12.120   9.995  71.783  1.00  0.00     0.000 HD 
HETATM   18  C   UNL     1      -9.588   5.821  71.029  1.00  0.00    -0.203 A  
HETATM   19  C   UNL     1     -10.613   8.030  70.991  1.00  0.00    -0.239 A  
HETATM   20  O   UNL     1      -8.466   7.617  69.934  1.00  0.00    -0.133 OA 
HETATM   21  C   UNL     1      -8.495   8.859  69.331  1.00  0.00    -0.124 C  
HETATM   22  C   UNL     1     -10.509   9.440  70.600  1.00  0.00    -0.290 C  
HETATM   23  C   UNL     1     -10.709   5.307  71.675  1.00  0.00    -0.227 A  
HETATM   24  O   UNL     1      -7.639   9.178  68.508  1.00  0.00    -0.084 OA 
HETATM   25  O   UNL     1     -11.447  10.266  71.170  1.00  0.00    -0.341 OA 
HETATM   26  C   UNL     1     -11.787   6.145  71.966  1.00  0.00    -0.336 A  
HETATM   27  C   UNL     1     -11.731   7.503  71.637  1.00  0.00    -0.313 A  
ENDBRANCH  14  15
ENDBRANCH   4  14
TORSDOF 2
ENDMDL
MODEL       72
REMARK 921   NORMALIZED FREE ENERGY PREDICTED BY IDOCK:   -6.07 KCAL/MOL
REMARK 922        TOTAL FREE ENERGY PREDICTED BY IDOCK:   -7.58 KCAL/MOL
REMARK 923 INTER-LIGAND FREE ENERGY PREDICTED BY IDOCK:   -7.17 KCAL/MOL
REMARK 924 INTRA-LIGAND FREE ENERGY PREDICTED BY IDOCK:   -0.41 KCAL/MOL
REMARK 927      BINDING AFFINITY PREDICTED BY RF-SCORE:    0.00 PKD
ROOT
HETATM    1  O   UNL     1     -10.215  11.222  69.550  1.00  0.00    -0.437 OA 
HETATM    2  C   UNL     1     -11.289  11.008  70.384  1.00  0.00    -0.132 C  
HETATM    3  H   UNL     1     -10.064  12.015  69.049  1.00  0.00     0.000 HD 
HETATM    4  C   UNL     1     -11.504   9.885  71.094  1.00  0.00    -0.459 C  
HETATM    5  C   UNL     1     -12.027  13.349  69.814  1.00  0.00    -0.396 A  
HETATM    6  C   UNL     1     -12.702   9.791  71.968  1.00  0.00    -0.376 C  
HETATM    7  C   UNL     1     -13.789  13.296  71.979  1.00  0.00    -0.452 A  
HETATM    8  O   UNL     1     -13.334  10.973  72.318  1.00  0.00    -0.390 OA 
HETATM    9  O   UNL     1     -13.059   8.707  72.425  1.00  0.00    -0.373 OA 
HETATM   10  C   UNL     1     -13.074  12.157  71.609  1.00  0.00    -0.310 A  
HETATM   11  C   UNL     1     -13.618  14.473  71.252  1.00  0.00    -0.423 A  
HETATM   12  C   UNL     1     -12.759  14.492  70.153  1.00  0.00    -0.264 A  
HETATM   13  C   UNL     1     -12.155  12.175  70.566  1.00  0.00    -0.383 A  
ENDROOT
BRANCH   4  14
HETATM   14  C   UNL     1     -10.557   8.708  71.210  1.00  0.00    -0.308 C  
BRANCH  14  15
HETATM   15  C   UNL     1     -10.434   7.898  69.946  1.00  0.00    -0.229 C  
HETATM   16  C   UNL     1     -10.493   6.238  67.670  1.00  0.00    -0.230 A  
HETATM   17  H   UNL     1      -8.029   9.299  68.191  1.00  0.00     0.000 HD 
HETATM   18  C   UNL     1     -10.498   5.321  66.619  1.00  0.00    -0.345 A  
HETATM   19  C   UNL     1      -9.472   7.168  67.830  1.00  0.00    -0.135 A  
HETATM   20  O   UNL     1     -11.534   6.142  68.602  1.00  0.00    -0.223 OA 
HETATM   21  C   UNL     1     -11.459   6.831  69.798  1.00  0.00    -0.263 C  
HETATM   22  C   UNL     1      -9.547   8.109  68.953  1.00  0.00    -0.153 C  
HETATM   23  C   UNL     1      -9.429   5.307  65.727  1.00  0.00    -0.132 A  
HETATM   24  O   UNL     1     -12.251   6.596  70.708  1.00  0.00    -0.378 OA 
HETATM   25  O   UNL     1      -8.654   9.151  68.890  1.00  0.00    -0.127 OA 
HETATM   26  C   UNL     1      -8.376   6.207  65.891  1.00  0.00    -0.140 A  
HETATM   27  C   UNL     1      -8.407   7.142  66.932  1.00  0.00    -0.118 A  
ENDBRANCH  14  15
ENDBRANCH   4  14
TORSDOF 2
ENDMDL
MODEL       73
REMARK 921   NORMALIZED FREE ENERGY PREDICTED BY IDOCK:   -6.06 KCAL/MOL
REMARK 922        TOTAL FREE ENERGY PREDICTED BY IDOCK:   -7.58 KCAL/MOL
REMARK 923 INTER-LIGAND FREE ENERGY PREDICTED BY IDOCK:   -6.84 KCAL/MOL
REMARK 924 INTRA-LIGAND FREE ENERGY PREDICTED BY IDOCK:   -0.74 KCAL/MOL
REMARK 927      BINDING AFFINITY PREDICTED BY RF-SCORE:    0.00 PKD
ROOT
HETATM    1  O   UNL     1      -9.153  12.218  68.589  1.00  0.00    -0.356 OA 
HETATM    2  C   UNL     1      -9.496  11.699  67.360  1.00  0.00    -0.167 C  
HETATM    3  H   UNL     1      -9.440  13.059  68.925  1.00  0.00     0.000 HD 
HETATM    4  C   UNL     1      -9.090  10.508  66.884  1.00  0.00    -0.161 C  
HETATM    5  C   UNL     1     -10.896  13.769  67.028  1.00  0.00    -0.288 A  
HETATM    6  C   UNL     1      -9.547  10.064  65.542  1.00  0.00    -0.266 C  
HETATM    7  C   UNL     1     -12.201  12.517  64.902  1.00  0.00    -0.534 A  
HETATM    8  O   UNL     1     -10.658  10.692  65.002  1.00  0.00    -0.255 OA 
HETATM    9  O   UNL     1      -9.004   9.117  64.978  1.00  0.00    -0.201 OA 
HETATM   10  C   UNL     1     -11.113  11.913  65.530  1.00  0.00    -0.304 A  
HETATM   11  C   UNL     1     -12.636  13.764  65.345  1.00  0.00    -0.534 A  
HETATM   12  C   UNL     1     -11.967  14.403  66.389  1.00  0.00    -0.402 A  
HETATM   13  C   UNL     1     -10.480  12.495  66.623  1.00  0.00    -0.252 A  
ENDROOT
BRANCH   4  14
HETATM   14  C   UNL     1      -8.293   9.469  67.644  1.00  0.00    -0.125 C  
BRANCH  14  15
HETATM   15  C   UNL     1      -8.966   8.981  68.900  1.00  0.00    -0.140 C  
HETATM   16  C   UNL     1     -10.032   8.289  71.415  1.00  0.00    -0.194 A  
HETATM   17  H   UNL     1     -11.538   7.178  67.920  1.00  0.00     0.000 HD 
HETATM   18  C   UNL     1     -10.451   7.893  72.685  1.00  0.00    -0.384 A  
HETATM   19  C   UNL     1     -10.530   7.700  70.259  1.00  0.00    -0.224 A  
HETATM   20  O   UNL     1      -9.033   9.270  71.352  1.00  0.00    -0.311 OA 
HETATM   21  C   UNL     1      -8.387   9.525  70.158  1.00  0.00    -0.192 C  
HETATM   22  C   UNL     1     -10.050   8.183  68.959  1.00  0.00    -0.205 C  
HETATM   23  C   UNL     1     -11.362   6.848  72.802  1.00  0.00    -0.237 A  
HETATM   24  O   UNL     1      -7.374  10.221  70.128  1.00  0.00    -0.160 OA 
HETATM   25  O   UNL     1     -10.774   7.741  67.879  1.00  0.00    -0.187 OA 
HETATM   26  C   UNL     1     -11.847   6.218  71.655  1.00  0.00    -0.315 A  
HETATM   27  C   UNL     1     -11.440   6.653  70.389  1.00  0.00    -0.444 A  
ENDBRANCH  14  15
ENDBRANCH   4  14
TORSDOF 2
ENDMDL
MODEL       74
REMARK 921   NORMALIZED FREE ENERGY PREDICTED BY IDOCK:   -6.06 KCAL/MOL
REMARK 922        TOTAL FREE ENERGY PREDICTED BY IDOCK:   -7.58 KCAL/MOL
REMARK 923 INTER-LIGAND FREE ENERGY PREDICTED BY IDOCK:   -6.73 KCAL/MOL
REMARK 924 INTRA-LIGAND FREE ENERGY PREDICTED BY IDOCK:   -0.84 KCAL/MOL
REMARK 927      BINDING AFFINITY PREDICTED BY RF-SCORE:    0.00 PKD
ROOT
HETATM    1  O   UNL     1     -12.242  11.925  68.325  1.00  0.00    -0.447 OA 
HETATM    2  C   UNL     1     -11.041  11.262  68.441  1.00  0.00    -0.240 C  
HETATM    3  H   UNL     1     -12.992  11.798  68.894  1.00  0.00     0.000 HD 
HETATM    4  C   UNL     1      -9.978  11.441  67.636  1.00  0.00    -0.196 C  
HETATM    5  C   UNL     1     -12.018  10.128  70.468  1.00  0.00    -0.400 A  
HETATM    6  C   UNL     1      -8.735  10.665  67.883  1.00  0.00    -0.127 C  
HETATM    7  C   UNL     1      -9.457   9.302  71.213  1.00  0.00    -0.245 A  
HETATM    8  O   UNL     1      -8.578  10.088  69.132  1.00  0.00    -0.135 OA 
HETATM    9  O   UNL     1      -7.849  10.615  67.032  1.00  0.00    -0.111 OA 
HETATM   10  C   UNL     1      -9.678   9.944  69.994  1.00  0.00    -0.227 A  
HETATM   11  C   UNL     1     -10.536   9.070  72.064  1.00  0.00    -0.321 A  
HETATM   12  C   UNL     1     -11.820   9.457  71.680  1.00  0.00    -0.464 A  
HETATM   13  C   UNL     1     -10.935  10.408  69.626  1.00  0.00    -0.325 A  
ENDROOT
BRANCH   4  14
HETATM   14  C   UNL     1      -9.854  12.480  66.541  1.00  0.00    -0.251 C  
BRANCH  14  15
HETATM   15  C   UNL     1      -9.745  13.894  67.049  1.00  0.00    -0.250 C  
HETATM   16  C   UNL     1      -9.877  16.547  67.989  1.00  0.00    -0.240 A  
HETATM   17  H   UNL     1      -6.628  14.274  68.034  1.00  0.00     0.000 HD 
HETATM   18  C   UNL     1      -9.976  17.893  68.340  1.00  0.00    -0.367 A  
HETATM   19  C   UNL     1      -8.649  15.902  67.884  1.00  0.00    -0.164 A  
HETATM   20  O   UNL     1     -11.070  15.880  67.682  1.00  0.00    -0.323 OA 
HETATM   21  C   UNL     1     -11.033  14.637  67.080  1.00  0.00    -0.316 C  
HETATM   22  C   UNL     1      -8.629  14.480  67.525  1.00  0.00    -0.189 C  
HETATM   23  C   UNL     1      -8.812  18.627  68.550  1.00  0.00    -0.361 A  
HETATM   24  O   UNL     1     -12.054  14.135  66.614  1.00  0.00    -0.429 OA 
HETATM   25  O   UNL     1      -7.415  13.861  67.699  1.00  0.00    -0.148 OA 
HETATM   26  C   UNL     1      -7.568  18.008  68.414  1.00  0.00    -0.288 A  
HETATM   27  C   UNL     1      -7.490  16.648  68.095  1.00  0.00    -0.170 A  
ENDBRANCH  14  15
ENDBRANCH   4  14
TORSDOF 2
ENDMDL
MODEL       75
REMARK 921   NORMALIZED FREE ENERGY PREDICTED BY IDOCK:   -6.05 KCAL/MOL
REMARK 922        TOTAL FREE ENERGY PREDICTED BY IDOCK:   -7.57 KCAL/MOL
REMARK 923 INTER-LIGAND FREE ENERGY PREDICTED BY IDOCK:   -7.13 KCAL/MOL
REMARK 924 INTRA-LIGAND FREE ENERGY PREDICTED BY IDOCK:   -0.43 KCAL/MOL
REMARK 927      BINDING AFFINITY PREDICTED BY RF-SCORE:    0.00 PKD
ROOT
HETATM    1  O   UNL     1     -10.098  10.360  66.606  1.00  0.00    -0.208 OA 
HETATM    2  C   UNL     1      -9.354  11.516  66.697  1.00  0.00    -0.189 C  
HETATM    3  H   UNL     1      -9.737   9.484  66.543  1.00  0.00     0.000 HD 
HETATM    4  C   UNL     1      -9.864  12.758  66.785  1.00  0.00    -0.242 C  
HETATM    5  C   UNL     1      -7.310  10.040  66.685  1.00  0.00    -0.103 A  
HETATM    6  C   UNL     1      -8.943  13.919  66.891  1.00  0.00    -0.222 C  
HETATM    7  C   UNL     1      -5.778  12.195  67.583  1.00  0.00    -0.101 A  
HETATM    8  O   UNL     1      -7.637  13.669  67.278  1.00  0.00    -0.152 OA 
HETATM    9  O   UNL     1      -9.358  15.064  66.719  1.00  0.00    -0.223 OA 
HETATM   10  C   UNL     1      -7.118  12.364  67.233  1.00  0.00    -0.128 A  
HETATM   11  C   UNL     1      -5.203  10.930  67.478  1.00  0.00    -0.037 A  
HETATM   12  C   UNL     1      -5.960   9.859  67.003  1.00  0.00    -0.051 A  
HETATM   13  C   UNL     1      -7.912  11.296  66.832  1.00  0.00    -0.155 A  
ENDROOT
BRANCH   4  14
HETATM   14  C   UNL     1     -11.329  13.112  66.926  1.00  0.00    -0.355 C  
BRANCH  14  15
HETATM   15  C   UNL     1     -11.779  13.296  68.352  1.00  0.00    -0.389 C  
HETATM   16  C   UNL     1     -12.586  13.306  71.052  1.00  0.00    -0.324 A  
HETATM   17  H   UNL     1     -11.680  16.533  68.934  1.00  0.00     0.000 HD 
HETATM   18  C   UNL     1     -13.091  13.256  72.351  1.00  0.00    -0.443 A  
HETATM   19  C   UNL     1     -12.467  14.502  70.353  1.00  0.00    -0.407 A  
HETATM   20  O   UNL     1     -12.260  12.083  70.449  1.00  0.00    -0.334 OA 
HETATM   21  C   UNL     1     -12.006  12.026  69.093  1.00  0.00    -0.268 C  
HETATM   22  C   UNL     1     -11.913  14.472  68.995  1.00  0.00    -0.299 C  
HETATM   23  C   UNL     1     -13.529  14.433  72.953  1.00  0.00    -0.516 A  
HETATM   24  O   UNL     1     -11.928  10.944  68.514  1.00  0.00    -0.520 OA 
HETATM   25  O   UNL     1     -11.586  15.704  68.481  1.00  0.00    -0.360 OA 
HETATM   26  C   UNL     1     -13.453  15.639  72.255  1.00  0.00    -0.586 A  
HETATM   27  C   UNL     1     -12.911  15.672  70.966  1.00  0.00    -0.521 A  
ENDBRANCH  14  15
ENDBRANCH   4  14
TORSDOF 2
ENDMDL
MODEL       76
REMARK 921   NORMALIZED FREE ENERGY PREDICTED BY IDOCK:   -6.03 KCAL/MOL
REMARK 922        TOTAL FREE ENERGY PREDICTED BY IDOCK:   -7.54 KCAL/MOL
REMARK 923 INTER-LIGAND FREE ENERGY PREDICTED BY IDOCK:   -6.92 KCAL/MOL
REMARK 924 INTRA-LIGAND FREE ENERGY PREDICTED BY IDOCK:   -0.62 KCAL/MOL
REMARK 927      BINDING AFFINITY PREDICTED BY RF-SCORE:    0.00 PKD
ROOT
HETATM    1  O   UNL     1     -11.979   9.756  70.666  1.00  0.00    -0.277 OA 
HETATM    2  C   UNL     1     -10.911   8.966  70.303  1.00  0.00    -0.239 C  
HETATM    3  H   UNL     1     -12.738   9.456  71.152  1.00  0.00     0.000 HD 
HETATM    4  C   UNL     1      -9.835   9.390  69.614  1.00  0.00    -0.205 C  
HETATM    5  C   UNL     1     -12.065   7.082  71.516  1.00  0.00    -0.392 A  
HETATM    6  C   UNL     1      -8.745   8.431  69.299  1.00  0.00    -0.138 C  
HETATM    7  C   UNL     1      -9.684   5.625  71.470  1.00  0.00    -0.200 A  
HETATM    8  O   UNL     1      -8.687   7.260  70.038  1.00  0.00    -0.139 OA 
HETATM    9  O   UNL     1      -7.884   8.714  68.468  1.00  0.00    -0.104 OA 
HETATM   10  C   UNL     1      -9.793   6.841  70.796  1.00  0.00    -0.183 A  
HETATM   11  C   UNL     1     -10.784   5.135  72.171  1.00  0.00    -0.252 A  
HETATM   12  C   UNL     1     -11.982   5.849  72.170  1.00  0.00    -0.191 A  
HETATM   13  C   UNL     1     -10.952   7.607  70.847  1.00  0.00    -0.261 A  
ENDROOT
BRANCH   4  14
HETATM   14  C   UNL     1      -9.536  10.821  69.221  1.00  0.00    -0.103 C  
BRANCH  14  15
HETATM   15  C   UNL     1     -10.233  11.268  67.962  1.00  0.00    -0.201 C  
HETATM   16  C   UNL     1     -11.754  12.262  65.809  1.00  0.00    -0.385 A  
HETATM   17  H   UNL     1      -8.185  10.567  65.484  1.00  0.00     0.000 HD 
HETATM   18  C   UNL     1     -12.596  12.674  64.776  1.00  0.00    -0.530 A  
HETATM   19  C   UNL     1     -10.600  11.526  65.568  1.00  0.00    -0.334 A  
HETATM   20  O   UNL     1     -12.155  12.568  67.117  1.00  0.00    -0.504 OA 
HETATM   21  C   UNL     1     -11.521  11.975  68.192  1.00  0.00    -0.322 C  
HETATM   22  C   UNL     1      -9.758  11.143  66.707  1.00  0.00    -0.193 C  
HETATM   23  C   UNL     1     -12.296  12.302  63.469  1.00  0.00    -0.670 A  
HETATM   24  O   UNL     1     -11.991  12.064  69.324  1.00  0.00    -0.302 OA 
HETATM   25  O   UNL     1      -8.520  10.655  66.368  1.00  0.00    -0.141 OA 
HETATM   26  C   UNL     1     -11.162  11.532  63.209  1.00  0.00    -0.239 A  
HETATM   27  C   UNL     1     -10.312  11.158  64.255  1.00  0.00    -0.413 A  
ENDBRANCH  14  15
ENDBRANCH   4  14
TORSDOF 2
ENDMDL
MODEL       77
REMARK 921   NORMALIZED FREE ENERGY PREDICTED BY IDOCK:   -6.00 KCAL/MOL
REMARK 922        TOTAL FREE ENERGY PREDICTED BY IDOCK:   -7.51 KCAL/MOL
REMARK 923 INTER-LIGAND FREE ENERGY PREDICTED BY IDOCK:   -7.07 KCAL/MOL
REMARK 924 INTRA-LIGAND FREE ENERGY PREDICTED BY IDOCK:   -0.44 KCAL/MOL
REMARK 927      BINDING AFFINITY PREDICTED BY RF-SCORE:    0.00 PKD
ROOT
HETATM    1  O   UNL     1     -12.274  12.390  69.138  1.00  0.00    -0.191 OA 
HETATM    2  C   UNL     1     -11.659  13.564  69.508  1.00  0.00    -0.294 C  
HETATM    3  H   UNL     1     -12.886  11.901  69.677  1.00  0.00     0.000 HD 
HETATM    4  C   UNL     1     -10.793  14.257  68.746  1.00  0.00    -0.265 C  
HETATM    5  C   UNL     1     -12.971  13.416  71.655  1.00  0.00    -0.445 A  
HETATM    6  C   UNL     1     -10.210  15.520  69.266  1.00  0.00    -0.252 C  
HETATM    7  C   UNL     1     -12.363  16.090  72.184  1.00  0.00    -0.557 A  
HETATM    8  O   UNL     1     -10.854  16.134  70.328  1.00  0.00    -0.330 OA 
HETATM    9  O   UNL     1      -9.240  16.036  68.714  1.00  0.00    -0.201 OA 
HETATM   10  C   UNL     1     -11.795  15.427  71.096  1.00  0.00    -0.371 A  
HETATM   11  C   UNL     1     -13.242  15.400  73.016  1.00  0.00    -0.638 A  
HETATM   12  C   UNL     1     -13.524  14.057  72.769  1.00  0.00    -0.576 A  
HETATM   13  C   UNL     1     -12.123  14.112  70.785  1.00  0.00    -0.419 A  
ENDROOT
BRANCH   4  14
HETATM   14  C   UNL     1     -10.429  13.951  67.308  1.00  0.00    -0.271 C  
BRANCH  14  15
HETATM   15  C   UNL     1      -9.658  12.669  67.132  1.00  0.00    -0.207 C  
HETATM   16  C   UNL     1      -7.948  10.439  66.923  1.00  0.00    -0.114 A  
HETATM   17  H   UNL     1     -11.895  10.325  66.562  1.00  0.00     0.000 HD 
HETATM   18  C   UNL     1      -7.047   9.393  66.725  1.00  0.00    -0.082 A  
HETATM   19  C   UNL     1      -9.296  10.320  66.601  1.00  0.00    -0.192 A  
HETATM   20  O   UNL     1      -7.426  11.647  67.404  1.00  0.00    -0.118 OA 
HETATM   21  C   UNL     1      -8.196  12.794  67.377  1.00  0.00    -0.186 C  
HETATM   22  C   UNL     1     -10.184  11.460  66.853  1.00  0.00    -0.219 C  
HETATM   23  C   UNL     1      -7.499   8.209  66.150  1.00  0.00    -0.078 A  
HETATM   24  O   UNL     1      -7.691  13.893  67.593  1.00  0.00    -0.154 OA 
HETATM   25  O   UNL     1     -11.524  11.177  66.759  1.00  0.00    -0.380 OA 
HETATM   26  C   UNL     1      -8.840   8.082  65.785  1.00  0.00    -0.170 A  
HETATM   27  C   UNL     1      -9.735   9.130  66.024  1.00  0.00    -0.358 A  
ENDBRANCH  14  15
ENDBRANCH   4  14
TORSDOF 2
ENDMDL
MODEL       78
REMARK 921   NORMALIZED FREE ENERGY PREDICTED BY IDOCK:   -5.99 KCAL/MOL
REMARK 922        TOTAL FREE ENERGY PREDICTED BY IDOCK:   -7.50 KCAL/MOL
REMARK 923 INTER-LIGAND FREE ENERGY PREDICTED BY IDOCK:   -7.15 KCAL/MOL
REMARK 924 INTRA-LIGAND FREE ENERGY PREDICTED BY IDOCK:   -0.36 KCAL/MOL
REMARK 927      BINDING AFFINITY PREDICTED BY RF-SCORE:    0.00 PKD
ROOT
HETATM    1  O   UNL     1      -9.050   9.945  70.689  1.00  0.00    -0.319 OA 
HETATM    2  C   UNL     1      -9.645   8.854  71.283  1.00  0.00    -0.278 C  
HETATM    3  H   UNL     1      -8.137  10.190  70.789  1.00  0.00     0.000 HD 
HETATM    4  C   UNL     1     -10.937   8.508  71.143  1.00  0.00    -0.306 C  
HETATM    5  C   UNL     1      -7.378   8.309  72.240  1.00  0.00    -0.131 A  
HETATM    6  C   UNL     1     -11.447   7.295  71.833  1.00  0.00    -0.267 C  
HETATM    7  C   UNL     1      -8.286   5.745  72.869  1.00  0.00    -0.119 A  
HETATM    8  O   UNL     1     -10.516   6.366  72.269  1.00  0.00    -0.192 OA 
HETATM    9  O   UNL     1     -12.656   7.093  71.933  1.00  0.00    -0.323 OA 
HETATM   10  C   UNL     1      -9.158   6.712  72.369  1.00  0.00    -0.135 A  
HETATM   11  C   UNL     1      -6.944   6.072  73.057  1.00  0.00    -0.080 A  
HETATM   12  C   UNL     1      -6.496   7.361  72.770  1.00  0.00    -0.059 A  
HETATM   13  C   UNL     1      -8.718   7.978  72.002  1.00  0.00    -0.197 A  
ENDROOT
BRANCH   4  14
HETATM   14  C   UNL     1     -11.942   9.166  70.221  1.00  0.00     0.118 C  
BRANCH  14  15
HETATM   15  C   UNL     1     -12.259  10.594  70.581  1.00  0.00    -0.459 C  
HETATM   16  C   UNL     1     -12.998  13.141  71.532  1.00  0.00    -0.321 A  
HETATM   17  H   UNL     1     -10.478  12.468  68.546  1.00  0.00     0.000 HD 
HETATM   18  C   UNL     1     -13.481  14.373  71.974  1.00  0.00    -0.490 A  
HETATM   19  C   UNL     1     -12.250  13.020  70.366  1.00  0.00    -0.386 A  
HETATM   20  O   UNL     1     -13.353  12.012  72.281  1.00  0.00    -0.485 OA 
HETATM   21  C   UNL     1     -13.138  10.746  71.771  1.00  0.00    -0.468 C  
HETATM   22  C   UNL     1     -11.765  11.692  69.975  1.00  0.00    -0.321 C  
HETATM   23  C   UNL     1     -13.245  15.509  71.206  1.00  0.00    -0.588 A  
HETATM   24  O   UNL     1     -13.631   9.759  72.313  1.00  0.00    -0.425 OA 
HETATM   25  O   UNL     1     -10.826  11.695  68.973  1.00  0.00    -0.209 OA 
HETATM   26  C   UNL     1     -12.528  15.403  70.013  1.00  0.00    -0.316 A  
HETATM   27  C   UNL     1     -12.022  14.165  69.604  1.00  0.00    -0.389 A  
ENDBRANCH  14  15
ENDBRANCH   4  14
TORSDOF 2
ENDMDL
MODEL       79
REMARK 921   NORMALIZED FREE ENERGY PREDICTED BY IDOCK:   -5.98 KCAL/MOL
REMARK 922        TOTAL FREE ENERGY PREDICTED BY IDOCK:   -7.49 KCAL/MOL
REMARK 923 INTER-LIGAND FREE ENERGY PREDICTED BY IDOCK:   -6.65 KCAL/MOL
REMARK 924 INTRA-LIGAND FREE ENERGY PREDICTED BY IDOCK:   -0.84 KCAL/MOL
REMARK 927      BINDING AFFINITY PREDICTED BY RF-SCORE:    0.00 PKD
ROOT
HETATM    1  O   UNL     1     -10.704  13.990  69.916  1.00  0.00    -0.444 OA 
HETATM    2  C   UNL     1     -10.516  13.912  68.554  1.00  0.00    -0.250 C  
HETATM    3  H   UNL     1     -10.315  14.645  70.484  1.00  0.00     0.000 HD 
HETATM    4  C   UNL     1     -11.066  12.985  67.749  1.00  0.00    -0.291 C  
HETATM    5  C   UNL     1      -9.101  15.987  68.769  1.00  0.00    -0.222 A  
HETATM    6  C   UNL     1     -10.787  13.025  66.291  1.00  0.00    -0.278 C  
HETATM    7  C   UNL     1      -9.247  16.345  66.003  1.00  0.00    -0.328 A  
HETATM    8  O   UNL     1     -10.301  14.211  65.763  1.00  0.00    -0.300 OA 
HETATM    9  O   UNL     1     -11.060  12.064  65.575  1.00  0.00    -0.297 OA 
HETATM   10  C   UNL     1      -9.770  15.201  66.607  1.00  0.00    -0.258 A  
HETATM   11  C   UNL     1      -8.642  17.317  66.798  1.00  0.00    -0.275 A  
HETATM   12  C   UNL     1      -8.544  17.125  68.176  1.00  0.00    -0.232 A  
HETATM   13  C   UNL     1      -9.753  15.026  67.986  1.00  0.00    -0.213 A  
ENDROOT
BRANCH   4  14
HETATM   14  C   UNL     1     -12.083  11.940  68.158  1.00  0.00    -0.035 C  
BRANCH  14  15
HETATM   15  C   UNL     1     -11.540  10.893  69.096  1.00  0.00    -0.389 C  
HETATM   16  C   UNL     1     -10.729   9.066  71.082  1.00  0.00    -0.288 A  
HETATM   17  H   UNL     1      -9.882   8.757  67.221  1.00  0.00     0.000 HD 
HETATM   18  C   UNL     1     -10.268   8.257  72.120  1.00  0.00    -0.355 A  
HETATM   19  C   UNL     1     -10.227   8.963  69.789  1.00  0.00    -0.207 A  
HETATM   20  O   UNL     1     -11.680  10.042  71.410  1.00  0.00    -0.367 OA 
HETATM   21  C   UNL     1     -11.987  11.041  70.507  1.00  0.00    -0.379 C  
HETATM   22  C   UNL     1     -10.774   9.840  68.749  1.00  0.00    -0.215 C  
HETATM   23  C   UNL     1      -9.247   7.346  71.867  1.00  0.00    -0.151 A  
HETATM   24  O   UNL     1     -12.652  12.015  70.851  1.00  0.00    -0.336 OA 
HETATM   25  O   UNL     1     -10.421   9.499  67.466  1.00  0.00    -0.241 OA 
HETATM   26  C   UNL     1      -8.704   7.251  70.585  1.00  0.00    -0.147 A  
HETATM   27  C   UNL     1      -9.203   8.048  69.549  1.00  0.00    -0.152 A  
ENDBRANCH  14  15
ENDBRANCH   4  14
TORSDOF 2
ENDMDL
MODEL       80
REMARK 921   NORMALIZED FREE ENERGY PREDICTED BY IDOCK:   -5.98 KCAL/MOL
REMARK 922        TOTAL FREE ENERGY PREDICTED BY IDOCK:   -7.49 KCAL/MOL
REMARK 923 INTER-LIGAND FREE ENERGY PREDICTED BY IDOCK:   -6.70 KCAL/MOL
REMARK 924 INTRA-LIGAND FREE ENERGY PREDICTED BY IDOCK:   -0.79 KCAL/MOL
REMARK 927      BINDING AFFINITY PREDICTED BY RF-SCORE:    0.00 PKD
ROOT
HETATM    1  O   UNL     1     -10.180   7.645  67.505  1.00  0.00    -0.187 OA 
HETATM    2  C   UNL     1      -9.708   8.280  68.632  1.00  0.00    -0.156 C  
HETATM    3  H   UNL     1     -10.843   6.965  67.500  1.00  0.00     0.000 HD 
HETATM    4  C   UNL     1      -8.767   9.243  68.640  1.00  0.00    -0.132 C  
HETATM    5  C   UNL     1     -11.355   6.891  69.940  1.00  0.00    -0.321 A  
HETATM    6  C   UNL     1      -8.358   9.853  69.931  1.00  0.00    -0.183 C  
HETATM    7  C   UNL     1     -11.007   8.585  72.132  1.00  0.00    -0.427 A  
HETATM    8  O   UNL     1      -9.210   9.697  71.013  1.00  0.00    -0.175 OA 
HETATM    9  O   UNL     1      -7.341  10.540  70.003  1.00  0.00    -0.154 OA 
HETATM   10  C   UNL     1     -10.224   8.725  70.987  1.00  0.00    -0.237 A  
HETATM   11  C   UNL     1     -11.973   7.581  72.176  1.00  0.00    -0.323 A  
HETATM   12  C   UNL     1     -12.128   6.717  71.093  1.00  0.00    -0.422 A  
HETATM   13  C   UNL     1     -10.414   7.926  69.865  1.00  0.00    -0.229 A  
ENDROOT
BRANCH   4  14
HETATM   14  C   UNL     1      -8.146   9.892  67.421  1.00  0.00    -0.113 C  
BRANCH  14  15
HETATM   15  C   UNL     1      -9.130  10.638  66.558  1.00  0.00    -0.179 C  
HETATM   16  C   UNL     1     -10.975  11.759  64.747  1.00  0.00    -0.303 A  
HETATM   17  H   UNL     1     -10.082  13.257  68.307  1.00  0.00     0.000 HD 
HETATM   18  C   UNL     1     -11.794  12.324  63.769  1.00  0.00    -0.587 A  
HETATM   19  C   UNL     1     -10.602  12.460  65.888  1.00  0.00    -0.289 A  
HETATM   20  O   UNL     1     -10.485  10.470  64.500  1.00  0.00    -0.310 OA 
HETATM   21  C   UNL     1      -9.472   9.952  65.283  1.00  0.00    -0.268 C  
HETATM   22  C   UNL     1      -9.750  11.791  66.878  1.00  0.00    -0.198 C  
HETATM   23  C   UNL     1     -12.218  13.641  63.918  1.00  0.00    -0.429 A  
HETATM   24  O   UNL     1      -8.889   8.921  64.954  1.00  0.00    -0.186 OA 
HETATM   25  O   UNL     1      -9.646  12.444  68.082  1.00  0.00    -0.208 OA 
HETATM   26  C   UNL     1     -11.825  14.374  65.038  1.00  0.00    -0.400 A  
HETATM   27  C   UNL     1     -11.031  13.779  66.025  1.00  0.00    -0.284 A  
ENDBRANCH  14  15
ENDBRANCH   4  14
TORSDOF 2
ENDMDL
MODEL       81
REMARK 921   NORMALIZED FREE ENERGY PREDICTED BY IDOCK:   -5.92 KCAL/MOL
REMARK 922        TOTAL FREE ENERGY PREDICTED BY IDOCK:   -7.42 KCAL/MOL
REMARK 923 INTER-LIGAND FREE ENERGY PREDICTED BY IDOCK:   -7.17 KCAL/MOL
REMARK 924 INTRA-LIGAND FREE ENERGY PREDICTED BY IDOCK:   -0.25 KCAL/MOL
REMARK 927      BINDING AFFINITY PREDICTED BY RF-SCORE:    0.00 PKD
ROOT
HETATM    1  O   UNL     1     -11.345  12.611  67.641  1.00  0.00    -0.271 OA 
HETATM    2  C   UNL     1     -11.552  13.236  68.851  1.00  0.00    -0.314 C  
HETATM    3  H   UNL     1     -11.380  11.673  67.500  1.00  0.00     0.000 HD 
HETATM    4  C   UNL     1     -11.502  14.565  69.052  1.00  0.00    -0.318 C  
HETATM    5  C   UNL     1     -11.993  10.945  69.805  1.00  0.00    -0.423 A  
HETATM    6  C   UNL     1     -11.759  15.108  70.411  1.00  0.00    -0.293 C  
HETATM    7  C   UNL     1     -13.122  12.129  72.067  1.00  0.00    -0.462 A  
HETATM    8  O   UNL     1     -12.409  14.286  71.318  1.00  0.00    -0.331 OA 
HETATM    9  O   UNL     1     -11.477  16.274  70.683  1.00  0.00    -0.377 OA 
HETATM   10  C   UNL     1     -12.504  12.904  71.085  1.00  0.00    -0.249 A  
HETATM   11  C   UNL     1     -13.169  10.745  71.911  1.00  0.00    -0.524 A  
HETATM   12  C   UNL     1     -12.581  10.151  70.795  1.00  0.00    -0.406 A  
HETATM   13  C   UNL     1     -11.981  12.340  69.927  1.00  0.00    -0.377 A  
ENDROOT
BRANCH   4  14
HETATM   14  C   UNL     1     -11.335  15.624  67.983  1.00  0.00    -0.324 C  
BRANCH  14  15
HETATM   15  C   UNL     1      -9.965  16.250  67.951  1.00  0.00    -0.241 C  
HETATM   16  C   UNL     1      -7.558  17.714  67.942  1.00  0.00    -0.210 A  
HETATM   17  H   UNL     1      -7.819  13.762  68.130  1.00  0.00     0.000 HD 
HETATM   18  C   UNL     1      -6.401  18.485  67.828  1.00  0.00    -0.198 A  
HETATM   19  C   UNL     1      -7.534  16.329  67.828  1.00  0.00    -0.150 A  
HETATM   20  O   UNL     1      -8.766  18.403  68.115  1.00  0.00    -0.285 OA 
HETATM   21  C   UNL     1      -9.969  17.737  67.975  1.00  0.00    -0.333 C  
HETATM   22  C   UNL     1      -8.792  15.588  67.975  1.00  0.00    -0.165 C  
HETATM   23  C   UNL     1      -5.192  17.853  67.549  1.00  0.00    -0.138 A  
HETATM   24  O   UNL     1     -11.027  18.359  67.912  1.00  0.00    -0.289 OA 
HETATM   25  O   UNL     1      -8.645  14.229  68.112  1.00  0.00    -0.156 OA 
HETATM   26  C   UNL     1      -5.152  16.467  67.394  1.00  0.00    -0.155 A  
HETATM   27  C   UNL     1      -6.317  15.709  67.547  1.00  0.00    -0.181 A  
ENDBRANCH  14  15
ENDBRANCH   4  14
TORSDOF 2
ENDMDL
MODEL       82
REMARK 921   NORMALIZED FREE ENERGY PREDICTED BY IDOCK:   -5.90 KCAL/MOL
REMARK 922        TOTAL FREE ENERGY PREDICTED BY IDOCK:   -7.40 KCAL/MOL
REMARK 923 INTER-LIGAND FREE ENERGY PREDICTED BY IDOCK:   -7.03 KCAL/MOL
REMARK 924 INTRA-LIGAND FREE ENERGY PREDICTED BY IDOCK:   -0.37 KCAL/MOL
REMARK 927      BINDING AFFINITY PREDICTED BY RF-SCORE:    0.00 PKD
ROOT
HETATM    1  O   UNL     1     -11.411  11.817  64.078  1.00  0.00    -0.366 OA 
HETATM    2  C   UNL     1     -10.428  11.378  64.936  1.00  0.00    -0.305 C  
HETATM    3  H   UNL     1     -11.443  11.635  63.146  1.00  0.00     0.000 HD 
HETATM    4  C   UNL     1     -10.383  11.635  66.256  1.00  0.00    -0.273 C  
HETATM    5  C   UNL     1      -9.411  10.202  62.952  1.00  0.00    -0.320 A  
HETATM    6  C   UNL     1      -9.266  11.087  67.069  1.00  0.00    -0.153 C  
HETATM    7  C   UNL     1      -7.823   8.697  64.687  1.00  0.00    -0.129 A  
HETATM    8  O   UNL     1      -8.541  10.035  66.535  1.00  0.00    -0.125 OA 
HETATM    9  O   UNL     1      -9.057  11.505  68.206  1.00  0.00    -0.173 OA 
HETATM   10  C   UNL     1      -8.624   9.734  65.166  1.00  0.00    -0.158 A  
HETATM   11  C   UNL     1      -7.818   8.417  63.322  1.00  0.00    -0.151 A  
HETATM   12  C   UNL     1      -8.589   9.186  62.452  1.00  0.00    -0.226 A  
HETATM   13  C   UNL     1      -9.460  10.463  64.327  1.00  0.00    -0.349 A  
ENDROOT
BRANCH   4  14
HETATM   14  C   UNL     1     -11.452  12.339  67.064  1.00  0.00    -0.419 C  
BRANCH  14  15
HETATM   15  C   UNL     1     -11.131  13.777  67.381  1.00  0.00    -0.312 C  
HETATM   16  C   UNL     1     -10.537  16.375  68.297  1.00  0.00    -0.318 A  
HETATM   17  H   UNL     1     -10.275  15.173  64.527  1.00  0.00     0.000 HD 
HETATM   18  C   UNL     1     -10.359  17.667  68.791  1.00  0.00    -0.348 A  
HETATM   19  C   UNL     1     -10.586  16.108  66.933  1.00  0.00    -0.283 A  
HETATM   20  O   UNL     1     -10.729  15.355  69.238  1.00  0.00    -0.226 OA 
HETATM   21  C   UNL     1     -11.167  14.109  68.830  1.00  0.00    -0.267 C  
HETATM   22  C   UNL     1     -10.761  14.720  66.492  1.00  0.00    -0.319 C  
HETATM   23  C   UNL     1     -10.272  18.729  67.894  1.00  0.00    -0.448 A  
HETATM   24  O   UNL     1     -11.541  13.276  69.652  1.00  0.00    -0.285 OA 
HETATM   25  O   UNL     1     -10.536  14.509  65.153  1.00  0.00    -0.356 OA 
HETATM   26  C   UNL     1     -10.356  18.488  66.523  1.00  0.00    -0.447 A  
HETATM   27  C   UNL     1     -10.499  17.180  66.046  1.00  0.00    -0.271 A  
ENDBRANCH  14  15
ENDBRANCH   4  14
TORSDOF 2
ENDMDL
MODEL       83
REMARK 921   NORMALIZED FREE ENERGY PREDICTED BY IDOCK:   -5.89 KCAL/MOL
REMARK 922        TOTAL FREE ENERGY PREDICTED BY IDOCK:   -7.39 KCAL/MOL
REMARK 923 INTER-LIGAND FREE ENERGY PREDICTED BY IDOCK:   -7.87 KCAL/MOL
REMARK 924 INTRA-LIGAND FREE ENERGY PREDICTED BY IDOCK:    0.48 KCAL/MOL
REMARK 927      BINDING AFFINITY PREDICTED BY RF-SCORE:    0.00 PKD
ROOT
HETATM    1  O   UNL     1     -11.700  14.153  64.254  1.00  0.00    -0.511 OA 
HETATM    2  C   UNL     1     -10.600  13.769  64.987  1.00  0.00    -0.389 C  
HETATM    3  H   UNL     1     -12.008  13.722  63.465  1.00  0.00     0.000 HD 
HETATM    4  C   UNL     1     -10.164  14.380  66.104  1.00  0.00    -0.317 C  
HETATM    5  C   UNL     1     -10.342  11.869  63.351  1.00  0.00    -0.481 A  
HETATM    6  C   UNL     1      -8.966  13.851  66.806  1.00  0.00    -0.188 C  
HETATM    7  C   UNL     1      -8.593  10.609  65.125  1.00  0.00    -0.173 A  
HETATM    8  O   UNL     1      -8.578  12.551  66.521  1.00  0.00    -0.112 OA 
HETATM    9  O   UNL     1      -8.399  14.520  67.667  1.00  0.00    -0.155 OA 
HETATM   10  C   UNL     1      -9.070  11.895  65.381  1.00  0.00     0.140 A  
HETATM   11  C   UNL     1      -8.997   9.952  63.964  1.00  0.00    -0.276 A  
HETATM   12  C   UNL     1      -9.848  10.592  63.064  1.00  0.00    -0.318 A  
HETATM   13  C   UNL     1      -9.981  12.521  64.537  1.00  0.00    -0.195 A  
ENDROOT
BRANCH   4  14
HETATM   14  C   UNL     1     -10.859  15.513  66.830  1.00  0.00    -0.301 C  
BRANCH  14  15
HETATM   15  C   UNL     1     -11.362  15.143  68.201  1.00  0.00    -0.345 C  
HETATM   16  C   UNL     1     -12.399  14.158  70.629  1.00  0.00    -0.365 A  
HETATM   17  H   UNL     1     -10.131  17.389  70.266  1.00  0.00     0.000 HD 
HETATM   18  C   UNL     1     -13.026  13.685  71.782  1.00  0.00    -0.441 A  
HETATM   19  C   UNL     1     -11.768  15.396  70.589  1.00  0.00    -0.373 A  
HETATM   20  O   UNL     1     -12.487  13.356  69.483  1.00  0.00    -0.175 OA 
HETATM   21  C   UNL     1     -12.125  13.867  68.251  1.00  0.00    -0.287 C  
HETATM   22  C   UNL     1     -11.119  15.816  69.342  1.00  0.00    -0.314 C  
HETATM   23  C   UNL     1     -13.058  14.493  72.915  1.00  0.00    -0.614 A  
HETATM   24  O   UNL     1     -12.392  13.259  67.217  1.00  0.00    -0.262 OA 
HETATM   25  O   UNL     1     -10.303  16.915  69.461  1.00  0.00    -0.273 OA 
HETATM   26  C   UNL     1     -12.463  15.754  72.885  1.00  0.00    -0.566 A  
HETATM   27  C   UNL     1     -11.809  16.196  71.730  1.00  0.00    -0.581 A  
ENDBRANCH  14  15
ENDBRANCH   4  14
TORSDOF 2
ENDMDL
MODEL       84
REMARK 921   NORMALIZED FREE ENERGY PREDICTED BY IDOCK:   -5.89 KCAL/MOL
REMARK 922        TOTAL FREE ENERGY PREDICTED BY IDOCK:   -7.38 KCAL/MOL
REMARK 923 INTER-LIGAND FREE ENERGY PREDICTED BY IDOCK:   -7.00 KCAL/MOL
REMARK 924 INTRA-LIGAND FREE ENERGY PREDICTED BY IDOCK:   -0.39 KCAL/MOL
REMARK 927      BINDING AFFINITY PREDICTED BY RF-SCORE:    0.00 PKD
ROOT
HETATM    1  O   UNL     1     -10.240  11.199  69.842  1.00  0.00    -0.372 OA 
HETATM    2  C   UNL     1     -10.401   9.929  69.335  1.00  0.00    -0.222 C  
HETATM    3  H   UNL     1     -10.598  11.507  70.666  1.00  0.00     0.000 HD 
HETATM    4  C   UNL     1      -9.895   9.493  68.167  1.00  0.00    -0.177 C  
HETATM    5  C   UNL     1     -11.678   9.397  71.442  1.00  0.00    -0.448 A  
HETATM    6  C   UNL     1     -10.137   8.089  67.745  1.00  0.00    -0.195 C  
HETATM    7  C   UNL     1     -11.443   6.675  70.870  1.00  0.00    -0.401 A  
HETATM    8  O   UNL     1     -10.529   7.185  68.719  1.00  0.00    -0.194 OA 
HETATM    9  O   UNL     1      -9.912   7.735  66.589  1.00  0.00    -0.238 OA 
HETATM   10  C   UNL     1     -11.012   7.638  69.958  1.00  0.00    -0.228 A  
HETATM   11  C   UNL     1     -12.000   7.084  72.080  1.00  0.00    -0.334 A  
HETATM   12  C   UNL     1     -12.144   8.444  72.354  1.00  0.00    -0.443 A  
HETATM   13  C   UNL     1     -11.074   8.998  70.244  1.00  0.00    -0.263 A  
ENDROOT
BRANCH   4  14
HETATM   14  C   UNL     1      -8.961  10.262  67.257  1.00  0.00    -0.140 C  
BRANCH  14  15
HETATM   15  C   UNL     1      -9.592  11.470  66.614  1.00  0.00    -0.215 C  
HETATM   16  C   UNL     1     -10.911  13.515  65.193  1.00  0.00    -0.320 A  
HETATM   17  H   UNL     1      -9.145  13.964  68.714  1.00  0.00     0.000 HD 
HETATM   18  C   UNL     1     -11.484  14.507  64.397  1.00  0.00    -0.282 A  
HETATM   19  C   UNL     1     -10.171  13.819  66.330  1.00  0.00    -0.292 A  
HETATM   20  O   UNL     1     -11.059  12.190  64.762  1.00  0.00    -0.299 OA 
HETATM   21  C   UNL     1     -10.309  11.185  65.343  1.00  0.00    -0.271 C  
HETATM   22  C   UNL     1      -9.613  12.718  67.123  1.00  0.00    -0.219 C  
HETATM   23  C   UNL     1     -11.274  15.843  64.726  1.00  0.00    -0.364 A  
HETATM   24  O   UNL     1     -10.268  10.063  64.842  1.00  0.00    -0.261 OA 
HETATM   25  O   UNL     1      -9.130  13.085  68.356  1.00  0.00    -0.191 OA 
HETATM   26  C   UNL     1     -10.503  16.171  65.842  1.00  0.00    -0.366 A  
HETATM   27  C   UNL     1      -9.966  15.161  66.647  1.00  0.00    -0.261 A  
ENDBRANCH  14  15
ENDBRANCH   4  14
TORSDOF 2
ENDMDL
MODEL       85
REMARK 921   NORMALIZED FREE ENERGY PREDICTED BY IDOCK:   -5.88 KCAL/MOL
REMARK 922        TOTAL FREE ENERGY PREDICTED BY IDOCK:   -7.38 KCAL/MOL
REMARK 923 INTER-LIGAND FREE ENERGY PREDICTED BY IDOCK:   -6.55 KCAL/MOL
REMARK 924 INTRA-LIGAND FREE ENERGY PREDICTED BY IDOCK:   -0.83 KCAL/MOL
REMARK 927      BINDING AFFINITY PREDICTED BY RF-SCORE:    0.00 PKD
ROOT
HETATM    1  O   UNL     1     -11.875  13.650  67.919  1.00  0.00    -0.339 OA 
HETATM    2  C   UNL     1     -11.019  12.817  67.234  1.00  0.00    -0.262 C  
HETATM    3  H   UNL     1     -12.520  14.220  67.517  1.00  0.00     0.000 HD 
HETATM    4  C   UNL     1     -10.106  12.010  67.803  1.00  0.00    -0.199 C  
HETATM    5  C   UNL     1     -12.150  13.614  65.126  1.00  0.00    -0.426 A  
HETATM    6  C   UNL     1      -9.253  11.150  66.942  1.00  0.00    -0.169 C  
HETATM    7  C   UNL     1     -11.006  11.482  63.734  1.00  0.00    -0.485 A  
HETATM    8  O   UNL     1      -9.678  10.921  65.643  1.00  0.00    -0.208 OA 
HETATM    9  O   UNL     1      -8.253  10.601  67.400  1.00  0.00    -0.114 OA 
HETATM   10  C   UNL     1     -10.667  11.733  65.063  1.00  0.00    -0.292 A  
HETATM   11  C   UNL     1     -11.926  12.312  63.098  1.00  0.00    -0.342 A  
HETATM   12  C   UNL     1     -12.477  13.394  63.784  1.00  0.00    -0.318 A  
HETATM   13  C   UNL     1     -11.262  12.758  65.791  1.00  0.00    -0.341 A  
ENDROOT
BRANCH   4  14
HETATM   14  C   UNL     1      -9.929  11.770  69.287  1.00  0.00     0.279 C  
BRANCH  14  15
HETATM   15  C   UNL     1     -10.967  10.858  69.887  1.00  0.00    -0.266 C  
HETATM   16  C   UNL     1     -13.100   9.427  71.046  1.00  0.00    -0.151 A  
HETATM   17  H   UNL     1      -9.978   7.789  69.232  1.00  0.00     0.000 HD 
HETATM   18  C   UNL     1     -14.126   8.772  71.727  1.00  0.00    -0.468 A  
HETATM   19  C   UNL     1     -11.969   8.755  70.596  1.00  0.00    -0.078 A  
HETATM   20  O   UNL     1     -13.225  10.814  70.887  1.00  0.00    -0.278 OA 
HETATM   21  C   UNL     1     -12.144  11.562  70.463  1.00  0.00    -0.378 C  
HETATM   22  C   UNL     1     -10.940   9.511  69.874  1.00  0.00    -0.238 C  
HETATM   23  C   UNL     1     -13.997   7.414  72.003  1.00  0.00    -0.282 A  
HETATM   24  O   UNL     1     -12.170  12.790  70.521  1.00  0.00    -0.368 OA 
HETATM   25  O   UNL     1      -9.997   8.739  69.241  1.00  0.00    -0.183 OA 
HETATM   26  C   UNL     1     -12.854   6.728  71.593  1.00  0.00    -0.328 A  
HETATM   27  C   UNL     1     -11.851   7.395  70.880  1.00  0.00    -0.320 A  
ENDBRANCH  14  15
ENDBRANCH   4  14
TORSDOF 2
ENDMDL
MODEL       86
REMARK 921   NORMALIZED FREE ENERGY PREDICTED BY IDOCK:   -5.86 KCAL/MOL
REMARK 922        TOTAL FREE ENERGY PREDICTED BY IDOCK:   -7.35 KCAL/MOL
REMARK 923 INTER-LIGAND FREE ENERGY PREDICTED BY IDOCK:   -7.39 KCAL/MOL
REMARK 924 INTRA-LIGAND FREE ENERGY PREDICTED BY IDOCK:    0.04 KCAL/MOL
REMARK 927      BINDING AFFINITY PREDICTED BY RF-SCORE:    0.00 PKD
ROOT
HETATM    1  O   UNL     1     -12.089   7.087  70.146  1.00  0.00    -0.606 OA 
HETATM    2  C   UNL     1     -10.929   7.652  70.626  1.00  0.00    -0.249 C  
HETATM    3  H   UNL     1     -12.524   6.331  70.523  1.00  0.00     0.000 HD 
HETATM    4  C   UNL     1     -10.311   8.722  70.092  1.00  0.00    -0.225 C  
HETATM    5  C   UNL     1     -11.010   5.928  72.463  1.00  0.00    -0.307 A  
HETATM    6  C   UNL     1      -9.068   9.237  70.721  1.00  0.00    -0.244 C  
HETATM    7  C   UNL     1      -9.127   7.405  73.901  1.00  0.00    -0.298 A  
HETATM    8  O   UNL     1      -8.804   8.856  72.026  1.00  0.00    -0.367 OA 
HETATM    9  O   UNL     1      -8.351  10.038  70.124  1.00  0.00    -0.177 OA 
HETATM   10  C   UNL     1      -9.483   7.769  72.602  1.00  0.00    -0.193 A  
HETATM   11  C   UNL     1      -9.721   6.286  74.481  1.00  0.00    -0.309 A  
HETATM   12  C   UNL     1     -10.640   5.532  73.753  1.00  0.00    -0.316 A  
HETATM   13  C   UNL     1     -10.455   7.078  71.887  1.00  0.00    -0.223 A  
ENDROOT
BRANCH   4  14
HETATM   14  C   UNL     1     -10.831   9.574  68.953  1.00  0.00    -0.177 C  
BRANCH  14  15
HETATM   15  C   UNL     1     -11.240  10.963  69.368  1.00  0.00    -0.335 C  
HETATM   16  C   UNL     1     -12.193  13.414  70.382  1.00  0.00    -0.345 A  
HETATM   17  H   UNL     1      -9.206  13.023  67.804  1.00  0.00     0.000 HD 
HETATM   18  C   UNL     1     -12.775  14.598  70.834  1.00  0.00    -0.413 A  
HETATM   19  C   UNL     1     -11.264  13.399  69.348  1.00  0.00    -0.235 A  
HETATM   20  O   UNL     1     -12.634  12.222  70.972  1.00  0.00    -0.361 OA 
HETATM   21  C   UNL     1     -12.304  11.006  70.406  1.00  0.00    -0.356 C  
HETATM   22  C   UNL     1     -10.686  12.114  68.939  1.00  0.00    -0.175 C  
HETATM   23  C   UNL     1     -12.449  15.797  70.206  1.00  0.00    -0.291 A  
HETATM   24  O   UNL     1     -12.851   9.971  70.782  1.00  0.00    -0.321 OA 
HETATM   25  O   UNL     1      -9.597  12.212  68.106  1.00  0.00    -0.198 OA 
HETATM   26  C   UNL     1     -11.546  15.799  69.142  1.00  0.00    -0.399 A  
HETATM   27  C   UNL     1     -10.947  14.605  68.725  1.00  0.00    -0.268 A  
ENDBRANCH  14  15
ENDBRANCH   4  14
TORSDOF 2
ENDMDL
MODEL       87
REMARK 921   NORMALIZED FREE ENERGY PREDICTED BY IDOCK:   -5.86 KCAL/MOL
REMARK 922        TOTAL FREE ENERGY PREDICTED BY IDOCK:   -7.35 KCAL/MOL
REMARK 923 INTER-LIGAND FREE ENERGY PREDICTED BY IDOCK:   -6.64 KCAL/MOL
REMARK 924 INTRA-LIGAND FREE ENERGY PREDICTED BY IDOCK:   -0.71 KCAL/MOL
REMARK 927      BINDING AFFINITY PREDICTED BY RF-SCORE:    0.00 PKD
ROOT
HETATM    1  O   UNL     1      -9.339  11.947  63.066  1.00  0.00    -0.630 OA 
HETATM    2  C   UNL     1      -9.300  10.975  64.040  1.00  0.00    -0.207 C  
HETATM    3  H   UNL     1      -8.728  12.018  62.342  1.00  0.00     0.000 HD 
HETATM    4  C   UNL     1     -10.164  10.874  65.067  1.00  0.00    -0.367 C  
HETATM    5  C   UNL     1      -7.329  10.007  62.804  1.00  0.00    -0.132 A  
HETATM    6  C   UNL     1     -10.013   9.764  66.043  1.00  0.00    -0.272 C  
HETATM    7  C   UNL     1      -7.603   7.643  64.264  1.00  0.00    -0.108 A  
HETATM    8  O   UNL     1      -9.250   8.673  65.660  1.00  0.00    -0.200 OA 
HETATM    9  O   UNL     1     -10.615   9.787  67.114  1.00  0.00    -0.252 OA 
HETATM   10  C   UNL     1      -8.382   8.762  64.558  1.00  0.00    -0.162 A  
HETATM   11  C   UNL     1      -6.674   7.715  63.228  1.00  0.00    -0.062 A  
HETATM   12  C   UNL     1      -6.517   8.904  62.517  1.00  0.00    -0.095 A  
HETATM   13  C   UNL     1      -8.298   9.932  63.812  1.00  0.00    -0.168 A  
ENDROOT
BRANCH   4  14
HETATM   14  C   UNL     1     -11.402  11.721  65.276  1.00  0.00    -0.284 C  
BRANCH  14  15
HETATM   15  C   UNL     1     -11.111  13.177  65.531  1.00  0.00    -0.299 C  
HETATM   16  C   UNL     1     -10.768  15.965  65.748  1.00  0.00    -0.316 A  
HETATM   17  H   UNL     1      -9.628  13.313  68.466  1.00  0.00     0.000 HD 
HETATM   18  C   UNL     1     -10.532  17.340  65.751  1.00  0.00    -0.237 A  
HETATM   19  C   UNL     1     -10.172  15.114  66.671  1.00  0.00    -0.270 A  
HETATM   20  O   UNL     1     -11.588  15.463  64.729  1.00  0.00    -0.363 OA 
HETATM   21  C   UNL     1     -11.658  14.102  64.503  1.00  0.00    -0.389 C  
HETATM   22  C   UNL     1     -10.483  13.681  66.612  1.00  0.00    -0.272 C  
HETATM   23  C   UNL     1      -9.640  17.872  66.678  1.00  0.00    -0.311 A  
HETATM   24  O   UNL     1     -12.198  13.660  63.491  1.00  0.00    -0.618 OA 
HETATM   25  O   UNL     1     -10.070  12.958  67.704  1.00  0.00    -0.214 OA 
HETATM   26  C   UNL     1      -9.002  17.030  67.590  1.00  0.00    -0.221 A  
HETATM   27  C   UNL     1      -9.279  15.658  67.593  1.00  0.00    -0.193 A  
ENDBRANCH  14  15
ENDBRANCH   4  14
TORSDOF 2
ENDMDL
MODEL       88
REMARK 921   NORMALIZED FREE ENERGY PREDICTED BY IDOCK:   -5.85 KCAL/MOL
REMARK 922        TOTAL FREE ENERGY PREDICTED BY IDOCK:   -7.34 KCAL/MOL
REMARK 923 INTER-LIGAND FREE ENERGY PREDICTED BY IDOCK:   -7.21 KCAL/MOL
REMARK 924 INTRA-LIGAND FREE ENERGY PREDICTED BY IDOCK:   -0.13 KCAL/MOL
REMARK 927      BINDING AFFINITY PREDICTED BY RF-SCORE:    0.00 PKD
ROOT
HETATM    1  O   UNL     1     -12.277  10.964  68.367  1.00  0.00    -0.813 OA 
HETATM    2  C   UNL     1     -11.750  12.139  67.880  1.00  0.00    -0.336 C  
HETATM    3  H   UNL     1     -12.564  10.825  69.262  1.00  0.00     0.000 HD 
HETATM    4  C   UNL     1     -11.343  12.336  66.613  1.00  0.00    -0.398 C  
HETATM    5  C   UNL     1     -12.130  13.104  70.177  1.00  0.00    -0.392 A  
HETATM    6  C   UNL     1     -10.802  13.663  66.217  1.00  0.00    -0.282 C  
HETATM    7  C   UNL     1     -11.774  15.669  69.134  1.00  0.00    -0.402 A  
HETATM    8  O   UNL     1     -11.089  14.742  67.038  1.00  0.00    -0.316 OA 
HETATM    9  O   UNL     1     -10.196  13.800  65.157  1.00  0.00    -0.351 OA 
HETATM   10  C   UNL     1     -11.560  14.538  68.345  1.00  0.00    -0.326 A  
HETATM   11  C   UNL     1     -12.167  15.508  70.461  1.00  0.00    -0.444 A  
HETATM   12  C   UNL     1     -12.318  14.227  70.990  1.00  0.00    -0.431 A  
HETATM   13  C   UNL     1     -11.781  13.253  68.830  1.00  0.00    -0.366 A  
ENDROOT
BRANCH   4  14
HETATM   14  C   UNL     1     -11.499  11.362  65.464  1.00  0.00     0.031 C  
BRANCH  14  15
HETATM   15  C   UNL     1     -10.236  10.617  65.119  1.00  0.00    -0.368 C  
HETATM   16  C   UNL     1      -7.955   9.011  64.721  1.00  0.00    -0.129 A  
HETATM   17  H   UNL     1      -9.223  11.822  62.230  1.00  0.00     0.000 HD 
HETATM   18  C   UNL     1      -6.782   8.262  64.631  1.00  0.00    -0.068 A  
HETATM   19  C   UNL     1      -8.209  10.087  63.878  1.00  0.00    -0.159 A  
HETATM   20  O   UNL     1      -8.849   8.673  65.747  1.00  0.00    -0.172 OA 
HETATM   21  C   UNL     1      -9.893   9.520  66.063  1.00  0.00    -0.283 C  
HETATM   22  C   UNL     1      -9.473  10.816  64.026  1.00  0.00    -0.272 C  
HETATM   23  C   UNL     1      -5.816   8.627  63.698  1.00  0.00    -0.072 A  
HETATM   24  O   UNL     1     -10.552   9.349  67.086  1.00  0.00    -0.260 OA 
HETATM   25  O   UNL     1      -9.761  11.682  63.000  1.00  0.00    -0.396 OA 
HETATM   26  C   UNL     1      -6.034   9.726  62.867  1.00  0.00    -0.106 A  
HETATM   27  C   UNL     1      -7.232  10.444  62.949  1.00  0.00    -0.102 A  
ENDBRANCH  14  15
ENDBRANCH   4  14
TORSDOF 2
ENDMDL
MODEL       89
REMARK 921   NORMALIZED FREE ENERGY PREDICTED BY IDOCK:   -5.84 KCAL/MOL
REMARK 922        TOTAL FREE ENERGY PREDICTED BY IDOCK:   -7.34 KCAL/MOL
REMARK 923 INTER-LIGAND FREE ENERGY PREDICTED BY IDOCK:   -7.09 KCAL/MOL
REMARK 924 INTRA-LIGAND FREE ENERGY PREDICTED BY IDOCK:   -0.25 KCAL/MOL
REMARK 927      BINDING AFFINITY PREDICTED BY RF-SCORE:    0.00 PKD
ROOT
HETATM    1  O   UNL     1     -11.446   6.310  68.694  1.00  0.00    -0.503 OA 
HETATM    2  C   UNL     1     -10.934   6.266  69.971  1.00  0.00    -0.358 C  
HETATM    3  H   UNL     1     -11.047   5.905  67.933  1.00  0.00     0.000 HD 
HETATM    4  C   UNL     1     -11.497   6.840  71.050  1.00  0.00    -0.372 C  
HETATM    5  C   UNL     1      -9.082   4.835  69.034  1.00  0.00    -0.157 A  
HETATM    6  C   UNL     1     -10.842   6.703  72.376  1.00  0.00    -0.235 C  
HETATM    7  C   UNL     1      -8.377   4.088  71.630  1.00  0.00    -0.095 A  
HETATM    8  O   UNL     1      -9.907   5.692  72.529  1.00  0.00    -0.161 OA 
HETATM    9  O   UNL     1     -11.184   7.414  73.319  1.00  0.00    -0.324 OA 
HETATM   10  C   UNL     1      -9.353   5.058  71.404  1.00  0.00    -0.149 A  
HETATM   11  C   UNL     1      -7.747   3.490  70.540  1.00  0.00    -0.043 A  
HETATM   12  C   UNL     1      -8.079   3.883  69.244  1.00  0.00    -0.062 A  
HETATM   13  C   UNL     1      -9.756   5.409  70.120  1.00  0.00    -0.252 A  
ENDROOT
BRANCH   4  14
HETATM   14  C   UNL     1     -12.846   7.526  71.092  1.00  0.00    -0.264 C  
BRANCH  14  15
HETATM   15  C   UNL     1     -12.766   9.030  71.120  1.00  0.00    -0.242 C  
HETATM   16  C   UNL     1     -12.792  11.828  71.456  1.00  0.00    -0.345 A  
HETATM   17  H   UNL     1     -10.527   9.868  68.858  1.00  0.00     0.000 HD 
HETATM   18  C   UNL     1     -12.925  13.210  71.594  1.00  0.00    -0.429 A  
HETATM   19  C   UNL     1     -12.096  11.258  70.396  1.00  0.00    -0.474 A  
HETATM   20  O   UNL     1     -13.446  11.028  72.402  1.00  0.00    -0.216 OA 
HETATM   21  C   UNL     1     -13.579   9.670  72.188  1.00  0.00    -0.389 C  
HETATM   22  C   UNL     1     -11.988   9.796  70.329  1.00  0.00    -0.090 C  
HETATM   23  C   UNL     1     -12.383  14.043  70.619  1.00  0.00    -0.446 A  
HETATM   24  O   UNL     1     -14.326   8.993  72.892  1.00  0.00    -0.550 OA 
HETATM   25  O   UNL     1     -11.076   9.329  69.415  1.00  0.00    -0.170 OA 
HETATM   26  C   UNL     1     -11.713  13.490  69.527  1.00  0.00    -0.382 A  
HETATM   27  C   UNL     1     -11.560  12.103  69.426  1.00  0.00    -0.381 A  
ENDBRANCH  14  15
ENDBRANCH   4  14
TORSDOF 2
ENDMDL
MODEL       90
REMARK 921   NORMALIZED FREE ENERGY PREDICTED BY IDOCK:   -5.84 KCAL/MOL
REMARK 922        TOTAL FREE ENERGY PREDICTED BY IDOCK:   -7.33 KCAL/MOL
REMARK 923 INTER-LIGAND FREE ENERGY PREDICTED BY IDOCK:   -6.49 KCAL/MOL
REMARK 924 INTRA-LIGAND FREE ENERGY PREDICTED BY IDOCK:   -0.84 KCAL/MOL
REMARK 927      BINDING AFFINITY PREDICTED BY RF-SCORE:    0.00 PKD
ROOT
HETATM    1  O   UNL     1      -7.382   8.567  68.180  1.00  0.00    -0.088 OA 
HETATM    2  C   UNL     1      -8.539   8.067  68.736  1.00  0.00    -0.128 C  
HETATM    3  H   UNL     1      -6.694   8.042  67.790  1.00  0.00     0.000 HD 
HETATM    4  C   UNL     1      -9.514   8.811  69.290  1.00  0.00    -0.161 C  
HETATM    5  C   UNL     1      -7.718   5.783  68.055  1.00  0.00    -0.096 A  
HETATM    6  C   UNL     1     -10.719   8.140  69.843  1.00  0.00    -0.241 C  
HETATM    7  C   UNL     1     -10.282   4.762  68.476  1.00  0.00    -0.054 A  
HETATM    8  O   UNL     1     -10.975   6.841  69.433  1.00  0.00    -0.258 OA 
HETATM    9  O   UNL     1     -11.497   8.753  70.571  1.00  0.00    -0.262 OA 
HETATM   10  C   UNL     1      -9.972   6.080  68.811  1.00  0.00    -0.150 A  
HETATM   11  C   UNL     1      -9.292   3.949  67.927  1.00  0.00    -0.227 A  
HETATM   12  C   UNL     1      -8.004   4.450  67.743  1.00  0.00    -0.088 A  
HETATM   13  C   UNL     1      -8.716   6.624  68.563  1.00  0.00    -0.123 A  
ENDROOT
BRANCH   4  14
HETATM   14  C   UNL     1      -9.587  10.323  69.298  1.00  0.00    -0.239 C  
BRANCH  14  15
HETATM   15  C   UNL     1     -10.222  10.910  68.064  1.00  0.00    -0.202 C  
HETATM   16  C   UNL     1     -11.639  12.142  65.963  1.00  0.00    -0.358 A  
HETATM   17  H   UNL     1      -8.032  10.529  65.638  1.00  0.00     0.000 HD 
HETATM   18  C   UNL     1     -12.430  12.667  64.941  1.00  0.00    -0.564 A  
HETATM   19  C   UNL     1     -10.462  11.450  65.701  1.00  0.00    -0.316 A  
HETATM   20  O   UNL     1     -12.115  12.285  67.273  1.00  0.00    -0.548 OA 
HETATM   21  C   UNL     1     -11.531  11.574  68.304  1.00  0.00    -0.299 C  
HETATM   22  C   UNL     1      -9.678  10.940  66.831  1.00  0.00    -0.181 C  
HETATM   23  C   UNL     1     -12.054  12.457  63.617  1.00  0.00    -0.648 A  
HETATM   24  O   UNL     1     -12.063  11.523  69.411  1.00  0.00    -0.312 OA 
HETATM   25  O   UNL     1      -8.415  10.508  66.506  1.00  0.00    -0.133 OA 
HETATM   26  C   UNL     1     -10.896  11.733  63.331  1.00  0.00    -0.460 A  
HETATM   27  C   UNL     1     -10.097  11.244  64.372  1.00  0.00    -0.357 A  
ENDBRANCH  14  15
ENDBRANCH   4  14
TORSDOF 2
ENDMDL
MODEL       91
REMARK 921   NORMALIZED FREE ENERGY PREDICTED BY IDOCK:   -5.83 KCAL/MOL
REMARK 922        TOTAL FREE ENERGY PREDICTED BY IDOCK:   -7.32 KCAL/MOL
REMARK 923 INTER-LIGAND FREE ENERGY PREDICTED BY IDOCK:   -6.88 KCAL/MOL
REMARK 924 INTRA-LIGAND FREE ENERGY PREDICTED BY IDOCK:   -0.44 KCAL/MOL
REMARK 927      BINDING AFFINITY PREDICTED BY RF-SCORE:    0.00 PKD
ROOT
HETATM    1  O   UNL     1     -11.796  10.647  68.197  1.00  0.00    -0.748 OA 
HETATM    2  C   UNL     1     -11.063  10.605  67.033  1.00  0.00    -0.145 C  
HETATM    3  H   UNL     1     -12.336  11.377  68.475  1.00  0.00     0.000 HD 
HETATM    4  C   UNL     1     -10.297   9.570  66.639  1.00  0.00    -0.280 C  
HETATM    5  C   UNL     1     -12.008  12.883  66.515  1.00  0.00    -0.447 A  
HETATM    6  C   UNL     1      -9.566   9.653  65.348  1.00  0.00    -0.291 C  
HETATM    7  C   UNL     1     -11.172  12.602  63.866  1.00  0.00    -0.497 A  
HETATM    8  O   UNL     1      -9.991  10.600  64.430  1.00  0.00    -0.304 OA 
HETATM    9  O   UNL     1      -8.674   8.850  65.082  1.00  0.00    -0.178 OA 
HETATM   10  C   UNL     1     -10.830  11.654  64.829  1.00  0.00    -0.308 A  
HETATM   11  C   UNL     1     -11.939  13.704  64.238  1.00  0.00    -0.488 A  
HETATM   12  C   UNL     1     -12.333  13.859  65.567  1.00  0.00    -0.506 A  
HETATM   13  C   UNL     1     -11.278  11.747  66.143  1.00  0.00    -0.363 A  
ENDROOT
BRANCH   4  14
HETATM   14  C   UNL     1     -10.194   8.225  67.326  1.00  0.00    -0.344 C  
BRANCH  14  15
HETATM   15  C   UNL     1      -9.552   8.282  68.688  1.00  0.00    -0.152 C  
HETATM   16  C   UNL     1      -8.060   8.433  71.073  1.00  0.00    -0.119 A  
HETATM   17  H   UNL     1     -12.016   8.573  70.849  1.00  0.00     0.000 HD 
HETATM   18  C   UNL     1      -7.275   8.395  72.226  1.00  0.00    -0.119 A  
HETATM   19  C   UNL     1      -9.444   8.310  71.121  1.00  0.00    -0.206 A  
HETATM   20  O   UNL     1      -7.387   8.536  69.848  1.00  0.00    -0.054 OA 
HETATM   21  C   UNL     1      -8.065   8.318  68.665  1.00  0.00    -0.120 C  
HETATM   22  C   UNL     1     -10.200   8.374  69.865  1.00  0.00    -0.201 C  
HETATM   23  C   UNL     1      -7.890   8.187  73.457  1.00  0.00    -0.235 A  
HETATM   24  O   UNL     1      -7.455   8.195  67.605  1.00  0.00    -0.091 OA 
HETATM   25  O   UNL     1     -11.559   8.509  70.019  1.00  0.00    -0.022 OA 
HETATM   26  C   UNL     1      -9.274   8.024  73.523  1.00  0.00    -0.312 A  
HETATM   27  C   UNL     1     -10.047   8.099  72.359  1.00  0.00    -0.355 A  
ENDBRANCH  14  15
ENDBRANCH   4  14
TORSDOF 2
ENDMDL
MODEL       92
REMARK 921   NORMALIZED FREE ENERGY PREDICTED BY IDOCK:   -5.82 KCAL/MOL
REMARK 922        TOTAL FREE ENERGY PREDICTED BY IDOCK:   -7.31 KCAL/MOL
REMARK 923 INTER-LIGAND FREE ENERGY PREDICTED BY IDOCK:   -6.94 KCAL/MOL
REMARK 924 INTRA-LIGAND FREE ENERGY PREDICTED BY IDOCK:   -0.37 KCAL/MOL
REMARK 927      BINDING AFFINITY PREDICTED BY RF-SCORE:    0.00 PKD
ROOT
HETATM    1  O   UNL     1     -10.332  11.526  67.763  1.00  0.00    -0.177 OA 
HETATM    2  C   UNL     1     -11.003  11.547  68.965  1.00  0.00    -0.234 C  
HETATM    3  H   UNL     1      -9.783  10.813  67.458  1.00  0.00     0.000 HD 
HETATM    4  C   UNL     1     -11.781  12.556  69.398  1.00  0.00    -0.383 C  
HETATM    5  C   UNL     1     -10.085   9.234  69.365  1.00  0.00    -0.200 A  
HETATM    6  C   UNL     1     -12.459  12.443  70.715  1.00  0.00    -0.267 C  
HETATM    7  C   UNL     1     -11.937   8.880  71.424  1.00  0.00    -0.374 A  
HETATM    8  O   UNL     1     -12.581  11.178  71.267  1.00  0.00    -0.387 OA 
HETATM    9  O   UNL     1     -12.962  13.431  71.247  1.00  0.00    -0.334 OA 
HETATM   10  C   UNL     1     -11.803  10.112  70.784  1.00  0.00    -0.351 A  
HETATM   11  C   UNL     1     -11.129   7.816  71.026  1.00  0.00    -0.273 A  
HETATM   12  C   UNL     1     -10.184   8.001  70.017  1.00  0.00    -0.205 A  
HETATM   13  C   UNL     1     -10.924  10.297  69.723  1.00  0.00    -0.338 A  
ENDROOT
BRANCH   4  14
HETATM   14  C   UNL     1     -12.166  13.788  68.606  1.00  0.00    -0.202 C  
BRANCH  14  15
HETATM   15  C   UNL     1     -11.051  14.790  68.455  1.00  0.00    -0.275 C  
HETATM   16  C   UNL     1      -9.036  16.759  68.489  1.00  0.00    -0.244 A  
HETATM   17  H   UNL     1      -9.431  13.952  65.717  1.00  0.00     0.000 HD 
HETATM   18  C   UNL     1      -8.129  17.819  68.501  1.00  0.00    -0.297 A  
HETATM   19  C   UNL     1      -9.192  15.937  67.379  1.00  0.00    -0.207 A  
HETATM   20  O   UNL     1      -9.837  16.594  69.626  1.00  0.00    -0.113 OA 
HETATM   21  C   UNL     1     -10.926  15.744  69.589  1.00  0.00    -0.306 C  
HETATM   22  C   UNL     1     -10.156  14.834  67.449  1.00  0.00    -0.231 C  
HETATM   23  C   UNL     1      -7.387  18.089  67.355  1.00  0.00    -0.215 A  
HETATM   24  O   UNL     1     -11.755  15.747  70.497  1.00  0.00    -0.320 OA 
HETATM   25  O   UNL     1     -10.061  13.921  66.426  1.00  0.00    -0.279 OA 
HETATM   26  C   UNL     1      -7.555  17.299  66.217  1.00  0.00    -0.360 A  
HETATM   27  C   UNL     1      -8.444  16.219  66.236  1.00  0.00    -0.369 A  
ENDBRANCH  14  15
ENDBRANCH   4  14
TORSDOF 2
ENDMDL
MODEL       93
REMARK 921   NORMALIZED FREE ENERGY PREDICTED BY IDOCK:   -5.82 KCAL/MOL
REMARK 922        TOTAL FREE ENERGY PREDICTED BY IDOCK:   -7.31 KCAL/MOL
REMARK 923 INTER-LIGAND FREE ENERGY PREDICTED BY IDOCK:   -6.96 KCAL/MOL
REMARK 924 INTRA-LIGAND FREE ENERGY PREDICTED BY IDOCK:   -0.35 KCAL/MOL
REMARK 927      BINDING AFFINITY PREDICTED BY RF-SCORE:    0.00 PKD
ROOT
HETATM    1  O   UNL     1     -11.107  15.365  66.021  1.00  0.00    -0.313 OA 
HETATM    2  C   UNL     1     -11.054  15.952  67.265  1.00  0.00    -0.172 C  
HETATM    3  H   UNL     1     -10.988  15.822  65.197  1.00  0.00     0.000 HD 
HETATM    4  C   UNL     1     -11.225  15.305  68.433  1.00  0.00    -0.314 C  
HETATM    5  C   UNL     1     -10.522  18.109  66.076  1.00  0.00    -0.346 A  
HETATM    6  C   UNL     1     -11.129  16.061  69.708  1.00  0.00    -0.337 C  
HETATM    7  C   UNL     1      -9.688  19.214  68.501  1.00  0.00    -0.467 A  
HETATM    8  O   UNL     1     -10.498  17.295  69.676  1.00  0.00    -0.219 OA 
HETATM    9  O   UNL     1     -11.523  15.564  70.761  1.00  0.00    -0.300 OA 
HETATM   10  C   UNL     1     -10.276  17.950  68.453  1.00  0.00    -0.394 A  
HETATM   11  C   UNL     1      -9.520  19.930  67.317  1.00  0.00    -0.487 A  
HETATM   12  C   UNL     1      -9.962  19.391  66.110  1.00  0.00    -0.501 A  
HETATM   13  C   UNL     1     -10.653  17.360  67.252  1.00  0.00    -0.284 A  
ENDROOT
BRANCH   4  14
HETATM   14  C   UNL     1     -11.380  13.809  68.608  1.00  0.00    -0.321 C  
BRANCH  14  15
HETATM   15  C   UNL     1     -10.355  12.996  67.860  1.00  0.00    -0.233 C  
HETATM   16  C   UNL     1      -8.694  11.366  66.272  1.00  0.00    -0.173 A  
HETATM   17  H   UNL     1      -7.416  14.124  68.817  1.00  0.00     0.000 HD 
HETATM   18  C   UNL     1      -7.923  10.461  65.542  1.00  0.00    -0.153 A  
HETATM   19  C   UNL     1      -8.143  12.173  67.261  1.00  0.00    -0.176 A  
HETATM   20  O   UNL     1     -10.071  11.384  66.011  1.00  0.00    -0.218 OA 
HETATM   21  C   UNL     1     -10.928  12.054  66.862  1.00  0.00    -0.281 C  
HETATM   22  C   UNL     1      -9.017  13.110  67.974  1.00  0.00    -0.195 C  
HETATM   23  C   UNL     1      -6.569  10.330  65.840  1.00  0.00    -0.113 A  
HETATM   24  O   UNL     1     -12.145  11.906  66.771  1.00  0.00    -0.593 OA 
HETATM   25  O   UNL     1      -8.359  14.044  68.737  1.00  0.00    -0.135 OA 
HETATM   26  C   UNL     1      -6.004  11.104  66.854  1.00  0.00    -0.103 A  
HETATM   27  C   UNL     1      -6.787  12.031  67.551  1.00  0.00    -0.128 A  
ENDBRANCH  14  15
ENDBRANCH   4  14
TORSDOF 2
ENDMDL
MODEL       94
REMARK 921   NORMALIZED FREE ENERGY PREDICTED BY IDOCK:   -5.81 KCAL/MOL
REMARK 922        TOTAL FREE ENERGY PREDICTED BY IDOCK:   -7.30 KCAL/MOL
REMARK 923 INTER-LIGAND FREE ENERGY PREDICTED BY IDOCK:   -7.25 KCAL/MOL
REMARK 924 INTRA-LIGAND FREE ENERGY PREDICTED BY IDOCK:   -0.05 KCAL/MOL
REMARK 927      BINDING AFFINITY PREDICTED BY RF-SCORE:    0.00 PKD
ROOT
HETATM    1  O   UNL     1     -10.594  12.921  65.982  1.00  0.00    -0.264 OA 
HETATM    2  C   UNL     1     -10.867  13.559  67.171  1.00  0.00    -0.284 C  
HETATM    3  H   UNL     1     -10.116  13.304  65.255  1.00  0.00     0.000 HD 
HETATM    4  C   UNL     1     -11.544  13.018  68.200  1.00  0.00    -0.379 C  
HETATM    5  C   UNL     1      -9.573  15.521  66.259  1.00  0.00    -0.338 A  
HETATM    6  C   UNL     1     -11.757  13.817  69.435  1.00  0.00    -0.325 C  
HETATM    7  C   UNL     1      -9.440  16.598  68.831  1.00  0.00    -0.251 A  
HETATM    8  O   UNL     1     -10.941  14.919  69.635  1.00  0.00    -0.262 OA 
HETATM    9  O   UNL     1     -12.574  13.456  70.280  1.00  0.00    -0.229 OA 
HETATM   10  C   UNL     1     -10.195  15.455  68.572  1.00  0.00    -0.219 A  
HETATM   11  C   UNL     1      -8.747  17.207  67.787  1.00  0.00    -0.220 A  
HETATM   12  C   UNL     1      -8.836  16.686  66.497  1.00  0.00    -0.314 A  
HETATM   13  C   UNL     1     -10.235  14.873  67.310  1.00  0.00    -0.241 A  
ENDROOT
BRANCH   4  14
HETATM   14  C   UNL     1     -12.020  11.584  68.299  1.00  0.00    -0.239 C  
BRANCH  14  15
HETATM   15  C   UNL     1     -11.271  10.760  69.314  1.00  0.00    -0.333 C  
HETATM   16  C   UNL     1      -9.592   9.302  71.045  1.00  0.00    -0.259 A  
HETATM   17  H   UNL     1     -13.405  10.136  71.740  1.00  0.00     0.000 HD 
HETATM   18  C   UNL     1      -8.744   8.499  71.808  1.00  0.00    -0.266 A  
HETATM   19  C   UNL     1     -10.956   9.383  71.298  1.00  0.00    -0.440 A  
HETATM   20  O   UNL     1      -9.018   9.981  69.961  1.00  0.00    -0.195 OA 
HETATM   21  C   UNL     1      -9.826  10.579  69.013  1.00  0.00    -0.212 C  
HETATM   22  C   UNL     1     -11.778  10.261  70.459  1.00  0.00    -0.331 C  
HETATM   23  C   UNL     1      -9.286   7.722  72.829  1.00  0.00    -0.252 A  
HETATM   24  O   UNL     1      -9.353  10.991  67.955  1.00  0.00    -0.154 OA 
HETATM   25  O   UNL     1     -13.047  10.487  70.933  1.00  0.00    -0.379 OA 
HETATM   26  C   UNL     1     -10.659   7.760  73.076  1.00  0.00    -0.441 A  
HETATM   27  C   UNL     1     -11.486   8.599  72.321  1.00  0.00    -0.423 A  
ENDBRANCH  14  15
ENDBRANCH   4  14
TORSDOF 2
ENDMDL
MODEL       95
REMARK 921   NORMALIZED FREE ENERGY PREDICTED BY IDOCK:   -5.80 KCAL/MOL
REMARK 922        TOTAL FREE ENERGY PREDICTED BY IDOCK:   -7.29 KCAL/MOL
REMARK 923 INTER-LIGAND FREE ENERGY PREDICTED BY IDOCK:   -6.60 KCAL/MOL
REMARK 924 INTRA-LIGAND FREE ENERGY PREDICTED BY IDOCK:   -0.69 KCAL/MOL
REMARK 927      BINDING AFFINITY PREDICTED BY RF-SCORE:    0.00 PKD
ROOT
HETATM    1  O   UNL     1      -7.790  13.566  67.049  1.00  0.00    -0.370 OA 
HETATM    2  C   UNL     1      -9.071  14.057  66.935  1.00  0.00    -0.248 C  
HETATM    3  H   UNL     1      -7.027  14.083  67.278  1.00  0.00     0.000 HD 
HETATM    4  C   UNL     1     -10.153  13.325  66.610  1.00  0.00    -0.266 C  
HETATM    5  C   UNL     1      -8.131  16.292  67.622  1.00  0.00    -0.161 A  
HETATM    6  C   UNL     1     -11.483  13.982  66.534  1.00  0.00    -0.357 C  
HETATM    7  C   UNL     1     -10.722  17.202  68.124  1.00  0.00    -0.366 A  
HETATM    8  O   UNL     1     -11.630  15.208  67.163  1.00  0.00    -0.311 OA 
HETATM    9  O   UNL     1     -12.434  13.412  66.003  1.00  0.00    -0.420 OA 
HETATM   10  C   UNL     1     -10.501  15.951  67.547  1.00  0.00    -0.298 A  
HETATM   11  C   UNL     1      -9.630  18.004  68.449  1.00  0.00    -0.338 A  
HETATM   12  C   UNL     1      -8.337  17.562  68.173  1.00  0.00    -0.249 A  
HETATM   13  C   UNL     1      -9.219  15.458  67.335  1.00  0.00    -0.204 A  
ENDROOT
BRANCH   4  14
HETATM   14  C   UNL     1     -10.192  11.822  66.433  1.00  0.00    -0.248 C  
BRANCH  14  15
HETATM   15  C   UNL     1      -9.919  11.050  67.697  1.00  0.00    -0.196 C  
HETATM   16  C   UNL     1      -9.742   9.588  70.100  1.00  0.00    -0.246 A  
HETATM   17  H   UNL     1      -6.724  10.269  67.621  1.00  0.00     0.000 HD 
HETATM   18  C   UNL     1      -9.693   8.967  71.348  1.00  0.00    -0.370 A  
HETATM   19  C   UNL     1      -8.589   9.921  69.397  1.00  0.00    -0.180 A  
HETATM   20  O   UNL     1     -11.010   9.924  69.606  1.00  0.00    -0.233 OA 
HETATM   21  C   UNL     1     -11.128  10.765  68.516  1.00  0.00    -0.262 C  
HETATM   22  C   UNL     1      -8.725  10.560  68.084  1.00  0.00    -0.130 C  
HETATM   23  C   UNL     1      -8.454   8.710  71.928  1.00  0.00    -0.210 A  
HETATM   24  O   UNL     1     -12.219  11.236  68.203  1.00  0.00    -0.622 OA 
HETATM   25  O   UNL     1      -7.565  10.614  67.349  1.00  0.00    -0.093 OA 
HETATM   26  C   UNL     1      -7.285   9.070  71.256  1.00  0.00    -0.093 A  
HETATM   27  C   UNL     1      -7.355   9.660  69.990  1.00  0.00    -0.130 A  
ENDBRANCH  14  15
ENDBRANCH   4  14
TORSDOF 2
ENDMDL
MODEL       96
REMARK 921   NORMALIZED FREE ENERGY PREDICTED BY IDOCK:   -5.79 KCAL/MOL
REMARK 922        TOTAL FREE ENERGY PREDICTED BY IDOCK:   -7.28 KCAL/MOL
REMARK 923 INTER-LIGAND FREE ENERGY PREDICTED BY IDOCK:   -6.95 KCAL/MOL
REMARK 924 INTRA-LIGAND FREE ENERGY PREDICTED BY IDOCK:   -0.33 KCAL/MOL
REMARK 927      BINDING AFFINITY PREDICTED BY RF-SCORE:    0.00 PKD
ROOT
HETATM    1  O   UNL     1      -8.983   9.950  66.431  1.00  0.00    -0.143 OA 
HETATM    2  C   UNL     1     -10.097  10.689  66.759  1.00  0.00    -0.224 C  
HETATM    3  H   UNL     1      -8.703   9.749  65.545  1.00  0.00     0.000 HD 
HETATM    4  C   UNL     1     -10.494  10.972  68.013  1.00  0.00    -0.219 C  
HETATM    5  C   UNL     1     -10.464  10.984  64.283  1.00  0.00    -0.427 A  
HETATM    6  C   UNL     1     -11.714  11.794  68.225  1.00  0.00    -0.310 C  
HETATM    7  C   UNL     1     -12.267  13.047  64.820  1.00  0.00    -0.487 A  
HETATM    8  O   UNL     1     -12.172  12.549  67.157  1.00  0.00    -0.474 OA 
HETATM    9  O   UNL     1     -12.240  11.858  69.334  1.00  0.00    -0.235 OA 
HETATM   10  C   UNL     1     -11.721  12.285  65.853  1.00  0.00    -0.389 A  
HETATM   11  C   UNL     1     -11.905  12.767  63.503  1.00  0.00    -0.618 A  
HETATM   12  C   UNL     1     -11.026  11.718  63.233  1.00  0.00    -0.387 A  
HETATM   13  C   UNL     1     -10.784  11.287  65.612  1.00  0.00    -0.279 A  
ENDROOT
BRANCH   4  14
HETATM   14  C   UNL     1      -9.737  10.647  69.283  1.00  0.00    -0.181 C  
BRANCH  14  15
HETATM   15  C   UNL     1      -9.987   9.256  69.804  1.00  0.00    -0.213 C  
HETATM   16  C   UNL     1     -10.711   6.786  70.951  1.00  0.00    -0.233 A  
HETATM   17  H   UNL     1      -8.161   7.242  67.950  1.00  0.00     0.000 HD 
HETATM   18  C   UNL     1     -11.026   5.607  71.627  1.00  0.00    -0.277 A  
HETATM   19  C   UNL     1      -9.675   6.850  70.026  1.00  0.00    -0.170 A  
HETATM   20  O   UNL     1     -11.446   7.929  71.291  1.00  0.00    -0.256 OA 
HETATM   21  C   UNL     1     -11.026   9.175  70.865  1.00  0.00    -0.282 C  
HETATM   22  C   UNL     1      -9.416   8.124  69.346  1.00  0.00    -0.162 C  
HETATM   23  C   UNL     1     -10.254   4.470  71.401  1.00  0.00    -0.183 A  
HETATM   24  O   UNL     1     -11.530  10.197  71.324  1.00  0.00    -0.353 OA 
HETATM   25  O   UNL     1      -8.564   8.039  68.272  1.00  0.00    -0.129 OA 
HETATM   26  C   UNL     1      -9.186   4.523  70.505  1.00  0.00    -0.190 A  
HETATM   27  C   UNL     1      -8.908   5.706  69.811  1.00  0.00    -0.130 A  
ENDBRANCH  14  15
ENDBRANCH   4  14
TORSDOF 2
ENDMDL
MODEL       97
REMARK 921   NORMALIZED FREE ENERGY PREDICTED BY IDOCK:   -5.79 KCAL/MOL
REMARK 922        TOTAL FREE ENERGY PREDICTED BY IDOCK:   -7.28 KCAL/MOL
REMARK 923 INTER-LIGAND FREE ENERGY PREDICTED BY IDOCK:   -7.31 KCAL/MOL
REMARK 924 INTRA-LIGAND FREE ENERGY PREDICTED BY IDOCK:    0.04 KCAL/MOL
REMARK 927      BINDING AFFINITY PREDICTED BY RF-SCORE:    0.00 PKD
ROOT
HETATM    1  O   UNL     1      -8.254  11.591  67.386  1.00  0.00    -0.136 OA 
HETATM    2  C   UNL     1      -9.497  12.014  67.798  1.00  0.00    -0.190 C  
HETATM    3  H   UNL     1      -7.755  10.889  67.789  1.00  0.00     0.000 HD 
HETATM    4  C   UNL     1     -10.203  13.008  67.228  1.00  0.00    -0.239 C  
HETATM    5  C   UNL     1      -9.393  10.192  69.537  1.00  0.00    -0.230 A  
HETATM    6  C   UNL     1     -11.543  13.355  67.768  1.00  0.00    -0.340 C  
HETATM    7  C   UNL     1     -12.137  10.476  69.966  1.00  0.00    -0.351 A  
HETATM    8  O   UNL     1     -12.175  12.416  68.568  1.00  0.00    -0.186 OA 
HETATM    9  O   UNL     1     -12.097  14.403  67.442  1.00  0.00    -0.397 OA 
HETATM   10  C   UNL     1     -11.449  11.350  69.125  1.00  0.00    -0.299 A  
HETATM   11  C   UNL     1     -11.437   9.451  70.600  1.00  0.00    -0.344 A  
HETATM   12  C   UNL     1     -10.062   9.326  70.408  1.00  0.00    -0.287 A  
HETATM   13  C   UNL     1     -10.093  11.197  68.857  1.00  0.00    -0.199 A  
ENDROOT
BRANCH   4  14
HETATM   14  C   UNL     1      -9.830  13.757  65.966  1.00  0.00    -0.298 C  
BRANCH  14  15
HETATM   15  C   UNL     1      -9.451  15.196  66.200  1.00  0.00    -0.354 C  
HETATM   16  C   UNL     1      -8.447  17.772  66.743  1.00  0.00    -0.248 A  
HETATM   17  H   UNL     1     -11.759  17.003  64.704  1.00  0.00     0.000 HD 
HETATM   18  C   UNL     1      -7.959  19.020  67.133  1.00  0.00    -0.271 A  
HETATM   19  C   UNL     1      -9.708  17.618  66.178  1.00  0.00    -0.228 A  
HETATM   20  O   UNL     1      -7.633  16.661  67.005  1.00  0.00    -0.162 OA 
HETATM   21  C   UNL     1      -8.148  15.384  66.891  1.00  0.00    -0.224 C  
HETATM   22  C   UNL     1     -10.142  16.275  65.781  1.00  0.00    -0.347 C  
HETATM   23  C   UNL     1      -8.774  20.140  66.991  1.00  0.00    -0.420 A  
HETATM   24  O   UNL     1      -7.522  14.416  67.316  1.00  0.00    -0.183 OA 
HETATM   25  O   UNL     1     -11.272  16.243  65.000  1.00  0.00    -0.292 OA 
HETATM   26  C   UNL     1     -10.057  20.002  66.460  1.00  0.00    -0.606 A  
HETATM   27  C   UNL     1     -10.515  18.747  66.043  1.00  0.00    -0.483 A  
ENDBRANCH  14  15
ENDBRANCH   4  14
TORSDOF 2
ENDMDL
MODEL       98
REMARK 921   NORMALIZED FREE ENERGY PREDICTED BY IDOCK:   -5.78 KCAL/MOL
REMARK 922        TOTAL FREE ENERGY PREDICTED BY IDOCK:   -7.26 KCAL/MOL
REMARK 923 INTER-LIGAND FREE ENERGY PREDICTED BY IDOCK:   -6.52 KCAL/MOL
REMARK 924 INTRA-LIGAND FREE ENERGY PREDICTED BY IDOCK:   -0.75 KCAL/MOL
REMARK 927      BINDING AFFINITY PREDICTED BY RF-SCORE:    0.00 PKD
ROOT
HETATM    1  O   UNL     1     -12.298  10.948  68.528  1.00  0.00    -0.807 OA 
HETATM    2  C   UNL     1     -11.154  10.199  68.691  1.00  0.00    -0.205 C  
HETATM    3  H   UNL     1     -13.028  10.968  69.136  1.00  0.00     0.000 HD 
HETATM    4  C   UNL     1     -10.120  10.170  67.830  1.00  0.00    -0.207 C  
HETATM    5  C   UNL     1     -12.125   9.444  70.891  1.00  0.00    -0.327 A  
HETATM    6  C   UNL     1      -8.938   9.324  68.137  1.00  0.00    -0.128 C  
HETATM    7  C   UNL     1      -9.611   8.496  71.649  1.00  0.00    -0.319 A  
HETATM    8  O   UNL     1      -8.770   8.909  69.448  1.00  0.00    -0.136 OA 
HETATM    9  O   UNL     1      -8.102   9.078  67.269  1.00  0.00    -0.103 OA 
HETATM   10  C   UNL     1      -9.834   8.984  70.362  1.00  0.00    -0.202 A  
HETATM   11  C   UNL     1     -10.662   8.482  72.563  1.00  0.00    -0.303 A  
HETATM   12  C   UNL     1     -11.925   8.929  72.176  1.00  0.00    -0.419 A  
HETATM   13  C   UNL     1     -11.064   9.508  69.979  1.00  0.00    -0.268 A  
ENDROOT
BRANCH   4  14
HETATM   14  C   UNL     1      -9.961  11.035  66.598  1.00  0.00    -0.249 C  
BRANCH  14  15
HETATM   15  C   UNL     1      -9.741  12.494  66.900  1.00  0.00    -0.232 C  
HETATM   16  C   UNL     1      -9.002  15.165  67.410  1.00  0.00    -0.183 A  
HETATM   17  H   UNL     1     -12.720  13.891  66.890  1.00  0.00     0.000 HD 
HETATM   18  C   UNL     1      -8.585  16.447  67.770  1.00  0.00    -0.172 A  
HETATM   19  C   UNL     1     -10.342  14.795  67.424  1.00  0.00    -0.242 A  
HETATM   20  O   UNL     1      -8.001  14.236  67.094  1.00  0.00    -0.185 OA 
HETATM   21  C   UNL     1      -8.311  12.894  66.985  1.00  0.00    -0.107 C  
HETATM   22  C   UNL     1     -10.701  13.432  67.018  1.00  0.00    -0.268 C  
HETATM   23  C   UNL     1      -9.534  17.373  68.195  1.00  0.00    -0.288 A  
HETATM   24  O   UNL     1      -7.422  12.048  66.920  1.00  0.00    -0.131 OA 
HETATM   25  O   UNL     1     -12.043  13.230  66.807  1.00  0.00    -0.384 OA 
HETATM   26  C   UNL     1     -10.880  17.011  68.251  1.00  0.00    -0.341 A  
HETATM   27  C   UNL     1     -11.282  15.731  67.853  1.00  0.00    -0.313 A  
ENDBRANCH  14  15
ENDBRANCH   4  14
TORSDOF 2
ENDMDL
MODEL       99
REMARK 921   NORMALIZED FREE ENERGY PREDICTED BY IDOCK:   -5.75 KCAL/MOL
REMARK 922        TOTAL FREE ENERGY PREDICTED BY IDOCK:   -7.23 KCAL/MOL
REMARK 923 INTER-LIGAND FREE ENERGY PREDICTED BY IDOCK:   -6.99 KCAL/MOL
REMARK 924 INTRA-LIGAND FREE ENERGY PREDICTED BY IDOCK:   -0.24 KCAL/MOL
REMARK 927      BINDING AFFINITY PREDICTED BY RF-SCORE:    0.00 PKD
ROOT
HETATM    1  O   UNL     1     -13.226   9.605  70.636  1.00  0.00    -0.581 OA 
HETATM    2  C   UNL     1     -11.852   9.693  70.677  1.00  0.00    -0.256 C  
HETATM    3  H   UNL     1     -13.785  10.094  70.044  1.00  0.00     0.000 HD 
HETATM    4  C   UNL     1     -11.059   9.001  71.515  1.00  0.00    -0.419 C  
HETATM    5  C   UNL     1     -12.033  11.315  68.757  1.00  0.00    -0.350 A  
HETATM    6  C   UNL     1      -9.586   9.184  71.444  1.00  0.00    -0.246 C  
HETATM    7  C   UNL     1      -9.298  11.018  68.278  1.00  0.00    -0.172 A  
HETATM    8  O   UNL     1      -9.064   9.747  70.291  1.00  0.00    -0.237 OA 
HETATM    9  O   UNL     1      -8.860   8.770  72.346  1.00  0.00    -0.391 OA 
HETATM   10  C   UNL     1      -9.900  10.428  69.390  1.00  0.00    -0.213 A  
HETATM   11  C   UNL     1     -10.079  11.768  67.401  1.00  0.00    -0.212 A  
HETATM   12  C   UNL     1     -11.439  11.940  67.655  1.00  0.00    -0.387 A  
HETATM   13  C   UNL     1     -11.268  10.520  69.620  1.00  0.00    -0.342 A  
ENDROOT
BRANCH   4  14
HETATM   14  C   UNL     1     -11.504   7.917  72.474  1.00  0.00    -0.455 C  
BRANCH  14  15
HETATM   15  C   UNL     1     -10.907   6.564  72.187  1.00  0.00    -0.264 C  
HETATM   16  C   UNL     1      -9.757   4.000  71.982  1.00  0.00    -0.165 A  
HETATM   17  H   UNL     1     -11.542   5.938  69.019  1.00  0.00     0.000 HD 
HETATM   18  C   UNL     1      -9.080   2.782  71.914  1.00  0.00    -0.148 A  
HETATM   19  C   UNL     1     -10.196   4.663  70.841  1.00  0.00    -0.213 A  
HETATM   20  O   UNL     1      -9.923   4.566  73.253  1.00  0.00    -0.135 OA 
HETATM   21  C   UNL     1     -10.344   5.876  73.378  1.00  0.00    -0.231 C  
HETATM   22  C   UNL     1     -10.914   5.932  70.996  1.00  0.00    -0.266 C  
HETATM   23  C   UNL     1      -8.797   2.233  70.666  1.00  0.00    -0.133 A  
HETATM   24  O   UNL     1     -10.291   6.450  74.464  1.00  0.00    -0.329 OA 
HETATM   25  O   UNL     1     -11.537   6.383  69.858  1.00  0.00    -0.429 OA 
HETATM   26  C   UNL     1      -9.196   2.900  69.508  1.00  0.00    -0.211 A  
HETATM   27  C   UNL     1      -9.905   4.103  69.598  1.00  0.00    -0.208 A  
ENDBRANCH  14  15
ENDBRANCH   4  14
TORSDOF 2
ENDMDL
MODEL      100
REMARK 921   NORMALIZED FREE ENERGY PREDICTED BY IDOCK:   -5.73 KCAL/MOL
REMARK 922        TOTAL FREE ENERGY PREDICTED BY IDOCK:   -7.21 KCAL/MOL
REMARK 923 INTER-LIGAND FREE ENERGY PREDICTED BY IDOCK:   -6.41 KCAL/MOL
REMARK 924 INTRA-LIGAND FREE ENERGY PREDICTED BY IDOCK:   -0.80 KCAL/MOL
REMARK 927      BINDING AFFINITY PREDICTED BY RF-SCORE:    0.00 PKD
ROOT
HETATM    1  O   UNL     1     -11.065  13.609  66.606  1.00  0.00    -0.299 OA 
HETATM    2  C   UNL     1      -9.820  13.082  66.867  1.00  0.00    -0.240 C  
HETATM    3  H   UNL     1     -11.615  13.368  65.870  1.00  0.00     0.000 HD 
HETATM    4  C   UNL     1      -9.040  13.423  67.909  1.00  0.00    -0.208 C  
HETATM    5  C   UNL     1     -10.162  11.621  64.842  1.00  0.00    -0.315 A  
HETATM    6  C   UNL     1      -7.719  12.765  68.079  1.00  0.00    -0.137 C  
HETATM    7  C   UNL     1      -8.038  10.011  65.673  1.00  0.00    -0.138 A  
HETATM    8  O   UNL     1      -7.504  11.575  67.403  1.00  0.00    -0.111 OA 
HETATM    9  O   UNL     1      -6.886  13.224  68.858  1.00  0.00    -0.098 OA 
HETATM   10  C   UNL     1      -8.347  11.193  66.345  1.00  0.00    -0.167 A  
HETATM   11  C   UNL     1      -8.803   9.636  64.570  1.00  0.00    -0.257 A  
HETATM   12  C   UNL     1      -9.846  10.454  64.138  1.00  0.00    -0.379 A  
HETATM   13  C   UNL     1      -9.431  11.984  65.980  1.00  0.00    -0.229 A  
ENDROOT
BRANCH   4  14
HETATM   14  C   UNL     1      -9.425  14.344  69.048  1.00  0.00    -0.042 C  
BRANCH  14  15
HETATM   15  C   UNL     1      -9.588  15.785  68.640  1.00  0.00    -0.207 C  
HETATM   16  C   UNL     1     -10.223  18.436  67.926  1.00  0.00    -0.381 A  
HETATM   17  H   UNL     1      -6.563  17.079  68.621  1.00  0.00     0.000 HD 
HETATM   18  C   UNL     1     -10.587  19.703  67.469  1.00  0.00    -0.577 A  
HETATM   19  C   UNL     1      -8.896  18.022  67.970  1.00  0.00    -0.278 A  
HETATM   20  O   UNL     1     -11.262  17.566  68.283  1.00  0.00    -0.102 OA 
HETATM   21  C   UNL     1     -11.001  16.225  68.492  1.00  0.00    -0.345 C  
HETATM   22  C   UNL     1      -8.593  16.680  68.478  1.00  0.00    -0.234 C  
HETATM   23  C   UNL     1      -9.598  20.564  67.003  1.00  0.00    -0.540 A  
HETATM   24  O   UNL     1     -11.921  15.416  68.596  1.00  0.00    -0.319 OA 
HETATM   25  O   UNL     1      -7.264  16.449  68.735  1.00  0.00    -0.167 OA 
HETATM   26  C   UNL     1      -8.264  20.155  67.003  1.00  0.00    -0.374 A  
HETATM   27  C   UNL     1      -7.916  18.893  67.499  1.00  0.00    -0.264 A  
ENDBRANCH  14  15
ENDBRANCH   4  14
TORSDOF 2
ENDMDL
MODEL      101
REMARK 921   NORMALIZED FREE ENERGY PREDICTED BY IDOCK:   -5.63 KCAL/MOL
REMARK 922        TOTAL FREE ENERGY PREDICTED BY IDOCK:   -7.10 KCAL/MOL
REMARK 923 INTER-LIGAND FREE ENERGY PREDICTED BY IDOCK:   -6.27 KCAL/MOL
REMARK 924 INTRA-LIGAND FREE ENERGY PREDICTED BY IDOCK:   -0.83 KCAL/MOL
REMARK 927      BINDING AFFINITY PREDICTED BY RF-SCORE:    0.00 PKD
ROOT
HETATM    1  O   UNL     1     -11.165  12.751  68.300  1.00  0.00    -0.237 OA 
HETATM    2  C   UNL     1     -10.392  12.218  67.293  1.00  0.00    -0.214 C  
HETATM    3  H   UNL     1     -12.000  13.186  68.174  1.00  0.00     0.000 HD 
HETATM    4  C   UNL     1      -9.209  11.602  67.470  1.00  0.00    -0.172 C  
HETATM    5  C   UNL     1     -12.218  12.920  65.704  1.00  0.00    -0.519 A  
HETATM    6  C   UNL     1      -8.483  11.060  66.292  1.00  0.00    -0.165 C  
HETATM    7  C   UNL     1     -11.114  11.270  63.741  1.00  0.00    -0.313 A  
HETATM    8  O   UNL     1      -9.208  10.862  65.128  1.00  0.00    -0.204 OA 
HETATM    9  O   UNL     1      -7.304  10.724  66.384  1.00  0.00    -0.130 OA 
HETATM   10  C   UNL     1     -10.466  11.465  64.961  1.00  0.00    -0.303 A  
HETATM   11  C   UNL     1     -12.327  11.913  63.505  1.00  0.00    -0.603 A  
HETATM   12  C   UNL     1     -12.865  12.759  64.474  1.00  0.00    -0.323 A  
HETATM   13  C   UNL     1     -11.022  12.242  65.971  1.00  0.00    -0.327 A  
ENDROOT
BRANCH   4  14
HETATM   14  C   UNL     1      -8.567  11.269  68.801  1.00  0.00    -0.109 C  
BRANCH  14  15
HETATM   15  C   UNL     1      -9.092  10.007  69.434  1.00  0.00    -0.228 C  
HETATM   16  C   UNL     1      -9.768   7.517  70.567  1.00  0.00    -0.179 A  
HETATM   17  H   UNL     1     -11.971  10.804  70.814  1.00  0.00     0.000 HD 
HETATM   18  C   UNL     1     -10.098   6.237  71.013  1.00  0.00    -0.221 A  
HETATM   19  C   UNL     1     -10.693   8.555  70.557  1.00  0.00    -0.246 A  
HETATM   20  O   UNL     1      -8.473   7.701  70.064  1.00  0.00    -0.132 OA 
HETATM   21  C   UNL     1      -8.156   8.853  69.371  1.00  0.00    -0.105 C  
HETATM   22  C   UNL     1     -10.264   9.876  70.087  1.00  0.00    -0.273 C  
HETATM   23  C   UNL     1     -11.404   5.978  71.421  1.00  0.00    -0.301 A  
HETATM   24  O   UNL     1      -7.101   8.939  68.746  1.00  0.00    -0.065 OA 
HETATM   25  O   UNL     1     -11.146  10.895  70.354  1.00  0.00    -0.225 OA 
HETATM   26  C   UNL     1     -12.357   6.996  71.384  1.00  0.00    -0.419 A  
HETATM   27  C   UNL     1     -11.997   8.282  70.967  1.00  0.00    -0.260 A  
ENDBRANCH  14  15
ENDBRANCH   4  14
TORSDOF 2
ENDMDL
MODEL      102
REMARK 921   NORMALIZED FREE ENERGY PREDICTED BY IDOCK:   -5.63 KCAL/MOL
REMARK 922        TOTAL FREE ENERGY PREDICTED BY IDOCK:   -7.10 KCAL/MOL
REMARK 923 INTER-LIGAND FREE ENERGY PREDICTED BY IDOCK:   -6.53 KCAL/MOL
REMARK 924 INTRA-LIGAND FREE ENERGY PREDICTED BY IDOCK:   -0.57 KCAL/MOL
REMARK 927      BINDING AFFINITY PREDICTED BY RF-SCORE:    0.00 PKD
ROOT
HETATM    1  O   UNL     1      -9.703   9.506  69.312  1.00  0.00    -0.163 OA 
HETATM    2  C   UNL     1     -10.766  10.084  69.969  1.00  0.00    -0.299 C  
HETATM    3  H   UNL     1      -9.479   8.583  69.344  1.00  0.00     0.000 HD 
HETATM    4  C   UNL     1     -11.084  11.391  69.925  1.00  0.00    -0.134 C  
HETATM    5  C   UNL     1     -11.346   7.770  70.783  1.00  0.00    -0.291 A  
HETATM    6  C   UNL     1     -12.270  11.880  70.675  1.00  0.00    -0.331 C  
HETATM    7  C   UNL     1     -13.873   8.691  71.530  1.00  0.00    -0.384 A  
HETATM    8  O   UNL     1     -13.211  10.942  71.068  1.00  0.00    -0.270 OA 
HETATM    9  O   UNL     1     -12.439  13.083  70.861  1.00  0.00    -0.367 OA 
HETATM   10  C   UNL     1     -12.897   9.573  71.069  1.00  0.00    -0.221 A  
HETATM   11  C   UNL     1     -13.575   7.333  71.619  1.00  0.00    -0.435 A  
HETATM   12  C   UNL     1     -12.304   6.876  71.273  1.00  0.00    -0.422 A  
HETATM   13  C   UNL     1     -11.649   9.130  70.644  1.00  0.00    -0.282 A  
ENDROOT
BRANCH   4  14
HETATM   14  C   UNL     1     -10.422  12.441  69.058  1.00  0.00    -0.033 C  
BRANCH  14  15
HETATM   15  C   UNL     1     -10.403  12.099  67.591  1.00  0.00    -0.215 C  
HETATM   16  C   UNL     1     -10.641  11.656  64.818  1.00  0.00    -0.304 A  
HETATM   17  H   UNL     1      -7.500  10.658  67.023  1.00  0.00     0.000 HD 
HETATM   18  C   UNL     1     -10.858  11.368  63.471  1.00  0.00    -0.430 A  
HETATM   19  C   UNL     1      -9.577  11.106  65.526  1.00  0.00    -0.263 A  
HETATM   20  O   UNL     1     -11.581  12.478  65.453  1.00  0.00    -0.341 OA 
HETATM   21  C   UNL     1     -11.581  12.595  66.830  1.00  0.00    -0.374 C  
HETATM   22  C   UNL     1      -9.407  11.470  66.937  1.00  0.00    -0.181 C  
HETATM   23  C   UNL     1     -10.012  10.472  62.824  1.00  0.00    -0.048 A  
HETATM   24  O   UNL     1     -12.518  13.135  67.414  1.00  0.00    -0.150 OA 
HETATM   25  O   UNL     1      -8.202  11.101  67.484  1.00  0.00    -0.115 OA 
HETATM   26  C   UNL     1      -8.961   9.880  63.525  1.00  0.00    -0.277 A  
HETATM   27  C   UNL     1      -8.739  10.209  64.867  1.00  0.00    -0.198 A  
ENDBRANCH  14  15
ENDBRANCH   4  14
TORSDOF 2
ENDMDL
MODEL      103
REMARK 921   NORMALIZED FREE ENERGY PREDICTED BY IDOCK:   -5.63 KCAL/MOL
REMARK 922        TOTAL FREE ENERGY PREDICTED BY IDOCK:   -7.09 KCAL/MOL
REMARK 923 INTER-LIGAND FREE ENERGY PREDICTED BY IDOCK:   -6.24 KCAL/MOL
REMARK 924 INTRA-LIGAND FREE ENERGY PREDICTED BY IDOCK:   -0.86 KCAL/MOL
REMARK 927      BINDING AFFINITY PREDICTED BY RF-SCORE:    0.00 PKD
ROOT
HETATM    1  O   UNL     1     -10.749  10.972  64.927  1.00  0.00    -0.286 OA 
HETATM    2  C   UNL     1     -10.194  12.003  65.651  1.00  0.00    -0.252 C  
HETATM    3  H   UNL     1     -11.494  11.055  64.343  1.00  0.00     0.000 HD 
HETATM    4  C   UNL     1      -9.140  11.885  66.479  1.00  0.00    -0.211 C  
HETATM    5  C   UNL     1     -11.894  13.508  64.557  1.00  0.00    -0.442 A  
HETATM    6  C   UNL     1      -8.633  13.086  67.192  1.00  0.00    -0.195 C  
HETATM    7  C   UNL     1     -10.426  15.732  65.387  1.00  0.00    -0.438 A  
HETATM    8  O   UNL     1      -9.003  14.328  66.699  1.00  0.00    -0.245 OA 
HETATM    9  O   UNL     1      -7.850  12.972  68.132  1.00  0.00    -0.124 OA 
HETATM   10  C   UNL     1     -10.073  14.447  65.797  1.00  0.00    -0.340 A  
HETATM   11  C   UNL     1     -11.530  15.901  64.553  1.00  0.00    -0.287 A  
HETATM   12  C   UNL     1     -12.280  14.793  64.161  1.00  0.00    -0.321 A  
HETATM   13  C   UNL     1     -10.759  13.321  65.355  1.00  0.00    -0.308 A  
ENDROOT
BRANCH   4  14
HETATM   14  C   UNL     1      -8.294  10.645  66.674  1.00  0.00    -0.136 C  
BRANCH  14  15
HETATM   15  C   UNL     1      -8.996   9.538  67.417  1.00  0.00    -0.141 C  
HETATM   16  C   UNL     1     -10.296   7.294  68.519  1.00  0.00    -0.189 A  
HETATM   17  H   UNL     1      -8.854  10.341  70.605  1.00  0.00     0.000 HD 
HETATM   18  C   UNL     1     -11.039   6.214  68.995  1.00  0.00    -0.437 A  
HETATM   19  C   UNL     1      -9.990   8.388  69.320  1.00  0.00    -0.195 A  
HETATM   20  O   UNL     1      -9.921   7.261  67.169  1.00  0.00    -0.178 OA 
HETATM   21  C   UNL     1      -9.418   8.397  66.562  1.00  0.00    -0.220 C  
HETATM   22  C   UNL     1      -9.192   9.478  68.749  1.00  0.00    -0.140 C  
HETATM   23  C   UNL     1     -11.526   6.249  70.299  1.00  0.00    -0.428 A  
HETATM   24  O   UNL     1      -9.285   8.449  65.342  1.00  0.00    -0.074 OA 
HETATM   25  O   UNL     1      -8.715  10.383  69.667  1.00  0.00    -0.146 OA 
HETATM   26  C   UNL     1     -11.262   7.355  71.109  1.00  0.00    -0.279 A  
HETATM   27  C   UNL     1     -10.485   8.413  70.623  1.00  0.00    -0.227 A  
ENDBRANCH  14  15
ENDBRANCH   4  14
TORSDOF 2
ENDMDL
MODEL      104
REMARK 921   NORMALIZED FREE ENERGY PREDICTED BY IDOCK:   -5.62 KCAL/MOL
REMARK 922        TOTAL FREE ENERGY PREDICTED BY IDOCK:   -7.08 KCAL/MOL
REMARK 923 INTER-LIGAND FREE ENERGY PREDICTED BY IDOCK:   -7.03 KCAL/MOL
REMARK 924 INTRA-LIGAND FREE ENERGY PREDICTED BY IDOCK:   -0.05 KCAL/MOL
REMARK 927      BINDING AFFINITY PREDICTED BY RF-SCORE:    0.00 PKD
ROOT
HETATM    1  O   UNL     1     -11.033  12.133  65.051  1.00  0.00    -0.292 OA 
HETATM    2  C   UNL     1      -9.909  12.297  65.828  1.00  0.00    -0.244 C  
HETATM    3  H   UNL     1     -11.186  11.406  64.460  1.00  0.00     0.000 HD 
HETATM    4  C   UNL     1      -9.691  13.327  66.666  1.00  0.00    -0.270 C  
HETATM    5  C   UNL     1      -9.110  10.095  64.897  1.00  0.00    -0.256 A  
HETATM    6  C   UNL     1      -8.435  13.373  67.457  1.00  0.00    -0.192 C  
HETATM    7  C   UNL     1      -7.190   9.962  66.920  1.00  0.00    -0.090 A  
HETATM    8  O   UNL     1      -7.723  12.193  67.600  1.00  0.00    -0.127 OA 
HETATM    9  O   UNL     1      -8.093  14.406  68.029  1.00  0.00    -0.123 OA 
HETATM   10  C   UNL     1      -7.983  11.098  66.757  1.00  0.00    -0.156 A  
HETATM   11  C   UNL     1      -7.363   8.883  66.055  1.00  0.00    -0.090 A  
HETATM   12  C   UNL     1      -8.302   8.960  65.027  1.00  0.00    -0.174 A  
HETATM   13  C   UNL     1      -8.979  11.166  65.790  1.00  0.00    -0.207 A  
ENDROOT
BRANCH   4  14
HETATM   14  C   UNL     1     -10.679  14.424  67.005  1.00  0.00    -0.285 C  
BRANCH  14  15
HETATM   15  C   UNL     1     -11.264  14.313  68.389  1.00  0.00    -0.291 C  
HETATM   16  C   UNL     1     -12.446  13.790  70.893  1.00  0.00    -0.377 A  
HETATM   17  H   UNL     1     -10.157  16.919  70.064  1.00  0.00     0.000 HD 
HETATM   18  C   UNL     1     -13.141  13.536  72.075  1.00  0.00    -0.481 A  
HETATM   19  C   UNL     1     -11.812  15.005  70.658  1.00  0.00    -0.364 A  
HETATM   20  O   UNL     1     -12.466  12.787  69.915  1.00  0.00    -0.113 OA 
HETATM   21  C   UNL     1     -12.030  13.061  68.633  1.00  0.00    -0.263 C  
HETATM   22  C   UNL     1     -11.089  15.191  69.396  1.00  0.00    -0.276 C  
HETATM   23  C   UNL     1     -13.241  14.542  73.032  1.00  0.00    -0.575 A  
HETATM   24  O   UNL     1     -12.235  12.267  67.717  1.00  0.00    -0.425 OA 
HETATM   25  O   UNL     1     -10.281  16.301  69.354  1.00  0.00    -0.245 OA 
HETATM   26  C   UNL     1     -12.644  15.781  72.801  1.00  0.00    -0.547 A  
HETATM   27  C   UNL     1     -11.921  16.005  71.624  1.00  0.00    -0.569 A  
ENDBRANCH  14  15
ENDBRANCH   4  14
TORSDOF 2
ENDMDL
MODEL      105
REMARK 921   NORMALIZED FREE ENERGY PREDICTED BY IDOCK:   -5.59 KCAL/MOL
REMARK 922        TOTAL FREE ENERGY PREDICTED BY IDOCK:   -7.06 KCAL/MOL
REMARK 923 INTER-LIGAND FREE ENERGY PREDICTED BY IDOCK:   -6.66 KCAL/MOL
REMARK 924 INTRA-LIGAND FREE ENERGY PREDICTED BY IDOCK:   -0.40 KCAL/MOL
REMARK 927      BINDING AFFINITY PREDICTED BY RF-SCORE:    0.00 PKD
ROOT
HETATM    1  O   UNL     1     -13.104  10.679  70.612  1.00  0.00    -0.318 OA 
HETATM    2  C   UNL     1     -12.359  11.739  70.149  1.00  0.00    -0.195 C  
HETATM    3  H   UNL     1     -13.676  10.704  71.371  1.00  0.00     0.000 HD 
HETATM    4  C   UNL     1     -11.549  11.703  69.075  1.00  0.00    -0.379 C  
HETATM    5  C   UNL     1     -13.388  13.099  72.004  1.00  0.00    -0.587 A  
HETATM    6  C   UNL     1     -10.809  12.929  68.677  1.00  0.00    -0.258 C  
HETATM    7  C   UNL     1     -12.516  15.434  70.746  1.00  0.00    -0.476 A  
HETATM    8  O   UNL     1     -11.262  14.141  69.173  1.00  0.00    -0.252 OA 
HETATM    9  O   UNL     1      -9.883  12.866  67.870  1.00  0.00    -0.213 OA 
HETATM   10  C   UNL     1     -12.146  14.178  70.264  1.00  0.00    -0.342 A  
HETATM   11  C   UNL     1     -13.330  15.516  71.874  1.00  0.00    -0.569 A  
HETATM   12  C   UNL     1     -13.743  14.350  72.519  1.00  0.00    -0.589 A  
HETATM   13  C   UNL     1     -12.610  13.003  70.844  1.00  0.00    -0.364 A  
ENDROOT
BRANCH   4  14
HETATM   14  C   UNL     1     -11.399  10.547  68.109  1.00  0.00    -0.324 C  
BRANCH  14  15
HETATM   15  C   UNL     1     -10.318   9.569  68.490  1.00  0.00    -0.234 C  
HETATM   16  C   UNL     1      -8.109   7.885  68.966  1.00  0.00    -0.124 A  
HETATM   17  H   UNL     1     -11.287   8.190  71.317  1.00  0.00     0.000 HD 
HETATM   18  C   UNL     1      -7.041   6.997  69.092  1.00  0.00    -0.084 A  
HETATM   19  C   UNL     1      -9.249   7.783  69.755  1.00  0.00    -0.150 A  
HETATM   20  O   UNL     1      -8.015   8.854  67.958  1.00  0.00    -0.101 OA 
HETATM   21  C   UNL     1      -9.127   9.592  67.601  1.00  0.00    -0.131 C  
HETATM   22  C   UNL     1     -10.323   8.765  69.572  1.00  0.00    -0.213 C  
HETATM   23  C   UNL     1      -7.134   5.951  70.006  1.00  0.00    -0.071 A  
HETATM   24  O   UNL     1      -9.119  10.288  66.587  1.00  0.00    -0.142 OA 
HETATM   25  O   UNL     1     -11.283   8.757  70.555  1.00  0.00    -0.255 OA 
HETATM   26  C   UNL     1      -8.284   5.809  70.783  1.00  0.00    -0.123 A  
HETATM   27  C   UNL     1      -9.331   6.730  70.665  1.00  0.00    -0.162 A  
ENDBRANCH  14  15
ENDBRANCH   4  14
TORSDOF 2
ENDMDL
MODEL      106
REMARK 921   NORMALIZED FREE ENERGY PREDICTED BY IDOCK:   -5.57 KCAL/MOL
REMARK 922        TOTAL FREE ENERGY PREDICTED BY IDOCK:   -7.03 KCAL/MOL
REMARK 923 INTER-LIGAND FREE ENERGY PREDICTED BY IDOCK:   -6.69 KCAL/MOL
REMARK 924 INTRA-LIGAND FREE ENERGY PREDICTED BY IDOCK:   -0.33 KCAL/MOL
REMARK 927      BINDING AFFINITY PREDICTED BY RF-SCORE:    0.00 PKD
ROOT
HETATM    1  O   UNL     1      -8.223   9.188  67.120  1.00  0.00    -0.112 OA 
HETATM    2  C   UNL     1      -9.336   9.944  66.829  1.00  0.00    -0.151 C  
HETATM    3  H   UNL     1      -7.672   8.759  66.476  1.00  0.00     0.000 HD 
HETATM    4  C   UNL     1     -10.117  10.551  67.741  1.00  0.00    -0.205 C  
HETATM    5  C   UNL     1      -8.823   9.518  64.399  1.00  0.00    -0.251 A  
HETATM    6  C   UNL     1     -11.286  11.349  67.287  1.00  0.00    -0.304 C  
HETATM    7  C   UNL     1     -10.575  11.575  63.693  1.00  0.00    -0.491 A  
HETATM    8  O   UNL     1     -11.308  11.756  65.962  1.00  0.00    -0.330 OA 
HETATM    9  O   UNL     1     -12.152  11.700  68.085  1.00  0.00    -0.577 OA 
HETATM   10  C   UNL     1     -10.458  11.156  65.018  1.00  0.00    -0.293 A  
HETATM   11  C   UNL     1      -9.805  10.951  62.712  1.00  0.00    -0.255 A  
HETATM   12  C   UNL     1      -8.951   9.905  63.060  1.00  0.00    -0.273 A  
HETATM   13  C   UNL     1      -9.556  10.169  65.399  1.00  0.00    -0.325 A  
ENDROOT
BRANCH   4  14
HETATM   14  C   UNL     1      -9.857  10.626  69.231  1.00  0.00    -0.201 C  
BRANCH  14  15
HETATM   15  C   UNL     1     -10.353   9.428  69.998  1.00  0.00    -0.265 C  
HETATM   16  C   UNL     1     -11.568   7.359  71.476  1.00  0.00    -0.275 A  
HETATM   17  H   UNL     1      -8.197   7.011  69.419  1.00  0.00     0.000 HD 
HETATM   18  C   UNL     1     -12.158   6.407  72.307  1.00  0.00    -0.252 A  
HETATM   19  C   UNL     1     -10.297   7.183  70.941  1.00  0.00    -0.214 A  
HETATM   20  O   UNL     1     -12.288   8.540  71.250  1.00  0.00    -0.307 OA 
HETATM   21  C   UNL     1     -11.670   9.626  70.661  1.00  0.00    -0.280 C  
HETATM   22  C   UNL     1      -9.752   8.224  70.063  1.00  0.00    -0.176 C  
HETATM   23  C   UNL     1     -11.438   5.266  72.648  1.00  0.00    -0.270 A  
HETATM   24  O   UNL     1     -12.216  10.727  70.648  1.00  0.00    -0.314 OA 
HETATM   25  O   UNL     1      -8.620   7.860  69.374  1.00  0.00    -0.135 OA 
HETATM   26  C   UNL     1     -10.146   5.087  72.152  1.00  0.00    -0.252 A  
HETATM   27  C   UNL     1      -9.585   6.037  71.291  1.00  0.00    -0.189 A  
ENDBRANCH  14  15
ENDBRANCH   4  14
TORSDOF 2
ENDMDL
MODEL      107
REMARK 921   NORMALIZED FREE ENERGY PREDICTED BY IDOCK:   -5.56 KCAL/MOL
REMARK 922        TOTAL FREE ENERGY PREDICTED BY IDOCK:   -7.02 KCAL/MOL
REMARK 923 INTER-LIGAND FREE ENERGY PREDICTED BY IDOCK:   -6.14 KCAL/MOL
REMARK 924 INTRA-LIGAND FREE ENERGY PREDICTED BY IDOCK:   -0.89 KCAL/MOL
REMARK 927      BINDING AFFINITY PREDICTED BY RF-SCORE:    0.00 PKD
ROOT
HETATM    1  O   UNL     1      -9.025  19.512  65.467  1.00  0.00    -0.208 OA 
HETATM    2  C   UNL     1      -8.925  19.731  66.823  1.00  0.00    -0.359 C  
HETATM    3  H   UNL     1      -8.392  19.802  64.820  1.00  0.00     0.000 HD 
HETATM    4  C   UNL     1      -9.821  19.322  67.739  1.00  0.00    -0.431 C  
HETATM    5  C   UNL     1      -6.720  20.853  66.343  1.00  0.00    -0.271 A  
HETATM    6  C   UNL     1      -9.583  19.617  69.176  1.00  0.00    -0.252 C  
HETATM    7  C   UNL     1      -6.080  20.704  69.056  1.00  0.00    -0.339 A  
HETATM    8  O   UNL     1      -8.293  19.948  69.557  1.00  0.00     0.079 OA 
HETATM    9  O   UNL     1     -10.486  19.486  70.000  1.00  0.00     0.375 OA 
HETATM   10  C   UNL     1      -7.341  20.329  68.596  1.00  0.00    -0.043 A  
HETATM   11  C   UNL     1      -5.131  21.162  68.143  1.00  0.00    -0.290 A  
HETATM   12  C   UNL     1      -5.460  21.263  66.792  1.00  0.00    -0.325 A  
HETATM   13  C   UNL     1      -7.665  20.347  67.244  1.00  0.00    -0.372 A  
ENDROOT
BRANCH   4  14
HETATM   14  C   UNL     1     -11.029  18.448  67.477  1.00  0.00    -0.169 C  
BRANCH  14  15
HETATM   15  C   UNL     1     -10.689  17.016  67.154  1.00  0.00    -0.177 C  
HETATM   16  C   UNL     1     -10.047  14.434  66.227  1.00  0.00    -0.297 A  
HETATM   17  H   UNL     1      -9.913  15.591  70.017  1.00  0.00     0.000 HD 
HETATM   18  C   UNL     1      -9.845  13.149  65.724  1.00  0.00    -0.214 A  
HETATM   19  C   UNL     1     -10.141  14.684  67.592  1.00  0.00    -0.228 A  
HETATM   20  O   UNL     1     -10.216  15.464  65.292  1.00  0.00    -0.360 OA 
HETATM   21  C   UNL     1     -10.675  16.701  65.701  1.00  0.00    -0.214 C  
HETATM   22  C   UNL     1     -10.339  16.065  68.043  1.00  0.00    -0.266 C  
HETATM   23  C   UNL     1      -9.778  12.077  66.610  1.00  0.00    -0.221 A  
HETATM   24  O   UNL     1     -11.029  17.542  64.877  1.00  0.00    -0.887 OA 
HETATM   25  O   UNL     1     -10.159  16.261  69.391  1.00  0.00    -0.249 OA 
HETATM   26  C   UNL     1      -9.907  12.301  67.981  1.00  0.00    -0.204 A  
HETATM   27  C   UNL     1     -10.075  13.602  68.468  1.00  0.00    -0.219 A  
ENDBRANCH  14  15
ENDBRANCH   4  14
TORSDOF 2
ENDMDL
MODEL      108
REMARK 921   NORMALIZED FREE ENERGY PREDICTED BY IDOCK:   -5.56 KCAL/MOL
REMARK 922        TOTAL FREE ENERGY PREDICTED BY IDOCK:   -7.02 KCAL/MOL
REMARK 923 INTER-LIGAND FREE ENERGY PREDICTED BY IDOCK:   -6.20 KCAL/MOL
REMARK 924 INTRA-LIGAND FREE ENERGY PREDICTED BY IDOCK:   -0.82 KCAL/MOL
REMARK 927      BINDING AFFINITY PREDICTED BY RF-SCORE:    0.00 PKD
ROOT
HETATM    1  O   UNL     1     -12.036  10.766  68.546  1.00  0.00    -0.788 OA 
HETATM    2  C   UNL     1     -11.272  10.621  67.409  1.00  0.00    -0.205 C  
HETATM    3  H   UNL     1     -12.518  11.550  68.782  1.00  0.00     0.000 HD 
HETATM    4  C   UNL     1     -10.589   9.510  67.075  1.00  0.00    -0.271 C  
HETATM    5  C   UNL     1     -11.994  12.954  66.788  1.00  0.00    -0.418 A  
HETATM    6  C   UNL     1      -9.812   9.485  65.808  1.00  0.00    -0.293 C  
HETATM    7  C   UNL     1     -11.101  12.512  64.180  1.00  0.00    -0.426 A  
HETATM    8  O   UNL     1     -10.121  10.434  64.847  1.00  0.00    -0.322 OA 
HETATM    9  O   UNL     1      -8.987   8.598  65.599  1.00  0.00    -0.189 OA 
HETATM   10  C   UNL     1     -10.876  11.570  65.184  1.00  0.00    -0.265 A  
HETATM   11  C   UNL     1     -11.778  13.689  64.492  1.00  0.00    -0.429 A  
HETATM   12  C   UNL     1     -12.200  13.923  65.800  1.00  0.00    -0.488 A  
HETATM   13  C   UNL     1     -11.356  11.747  66.477  1.00  0.00    -0.370 A  
ENDROOT
BRANCH   4  14
HETATM   14  C   UNL     1     -10.629   8.185  67.806  1.00  0.00    -0.233 C  
BRANCH  14  15
HETATM   15  C   UNL     1      -9.840   8.172  69.089  1.00  0.00    -0.182 C  
HETATM   16  C   UNL     1      -8.661   8.125  71.649  1.00  0.00    -0.145 A  
HETATM   17  H   UNL     1      -6.698   7.706  68.229  1.00  0.00     0.000 HD 
HETATM   18  C   UNL     1      -8.122   8.216  72.932  1.00  0.00    -0.224 A  
HETATM   19  C   UNL     1      -7.862   8.150  70.511  1.00  0.00    -0.087 A  
HETATM   20  O   UNL     1     -10.058   8.070  71.547  1.00  0.00    -0.173 OA 
HETATM   21  C   UNL     1     -10.671   8.241  70.321  1.00  0.00    -0.235 C  
HETATM   22  C   UNL     1      -8.504   8.034  69.197  1.00  0.00    -0.136 C  
HETATM   23  C   UNL     1      -6.748   8.380  73.079  1.00  0.00    -0.106 A  
HETATM   24  O   UNL     1     -11.886   8.408  70.245  1.00  0.00    -0.018 OA 
HETATM   25  O   UNL     1      -7.640   7.804  68.154  1.00  0.00    -0.110 OA 
HETATM   26  C   UNL     1      -5.932   8.445  71.949  1.00  0.00    -0.048 A  
HETATM   27  C   UNL     1      -6.488   8.317  70.672  1.00  0.00    -0.036 A  
ENDBRANCH  14  15
ENDBRANCH   4  14
TORSDOF 2
ENDMDL
MODEL      109
REMARK 921   NORMALIZED FREE ENERGY PREDICTED BY IDOCK:   -5.56 KCAL/MOL
REMARK 922        TOTAL FREE ENERGY PREDICTED BY IDOCK:   -7.02 KCAL/MOL
REMARK 923 INTER-LIGAND FREE ENERGY PREDICTED BY IDOCK:   -6.70 KCAL/MOL
REMARK 924 INTRA-LIGAND FREE ENERGY PREDICTED BY IDOCK:   -0.32 KCAL/MOL
REMARK 927      BINDING AFFINITY PREDICTED BY RF-SCORE:    0.00 PKD
ROOT
HETATM    1  O   UNL     1      -8.929  12.921  68.029  1.00  0.00    -0.183 OA 
HETATM    2  C   UNL     1      -9.277  13.821  67.047  1.00  0.00    -0.251 C  
HETATM    3  H   UNL     1      -8.169  12.996  68.594  1.00  0.00     0.000 HD 
HETATM    4  C   UNL     1     -10.353  13.713  66.246  1.00  0.00    -0.293 C  
HETATM    5  C   UNL     1      -7.276  15.173  67.767  1.00  0.00    -0.185 A  
HETATM    6  C   UNL     1     -10.617  14.767  65.233  1.00  0.00    -0.395 C  
HETATM    7  C   UNL     1      -8.273  17.361  66.348  1.00  0.00    -0.306 A  
HETATM    8  O   UNL     1      -9.988  15.990  65.400  1.00  0.00    -0.445 OA 
HETATM    9  O   UNL     1     -11.431  14.577  64.331  1.00  0.00    -0.346 OA 
HETATM   10  C   UNL     1      -8.894  16.115  66.273  1.00  0.00    -0.336 A  
HETATM   11  C   UNL     1      -7.138  17.509  67.143  1.00  0.00    -0.198 A  
HETATM   12  C   UNL     1      -6.623  16.409  67.830  1.00  0.00    -0.158 A  
HETATM   13  C   UNL     1      -8.444  15.025  67.010  1.00  0.00    -0.258 A  
ENDROOT
BRANCH   4  14
HETATM   14  C   UNL     1     -11.441  12.666  66.351  1.00  0.00    -0.409 C  
BRANCH  14  15
HETATM   15  C   UNL     1     -10.924  11.255  66.458  1.00  0.00    -0.303 C  
HETATM   16  C   UNL     1      -9.836   8.658  66.347  1.00  0.00    -0.270 A  
HETATM   17  H   UNL     1     -11.194  10.419  69.629  1.00  0.00     0.000 HD 
HETATM   18  C   UNL     1      -9.388   7.344  66.211  1.00  0.00    -0.166 A  
HETATM   19  C   UNL     1     -10.447   9.111  67.510  1.00  0.00    -0.335 A  
HETATM   20  O   UNL     1      -9.702   9.495  65.230  1.00  0.00    -0.293 OA 
HETATM   21  C   UNL     1     -10.351  10.714  65.197  1.00  0.00    -0.261 C  
HETATM   22  C   UNL     1     -10.878  10.511  67.581  1.00  0.00    -0.300 C  
HETATM   23  C   UNL     1      -9.595   6.447  67.254  1.00  0.00    -0.143 A  
HETATM   24  O   UNL     1     -10.419  11.360  64.154  1.00  0.00    -0.306 OA 
HETATM   25  O   UNL     1     -11.226  10.943  68.838  1.00  0.00    -0.224 OA 
HETATM   26  C   UNL     1     -10.240   6.870  68.417  1.00  0.00    -0.191 A  
HETATM   27  C   UNL     1     -10.651   8.202  68.547  1.00  0.00    -0.142 A  
ENDBRANCH  14  15
ENDBRANCH   4  14
TORSDOF 2
ENDMDL
MODEL      110
REMARK 921   NORMALIZED FREE ENERGY PREDICTED BY IDOCK:   -5.54 KCAL/MOL
REMARK 922        TOTAL FREE ENERGY PREDICTED BY IDOCK:   -7.00 KCAL/MOL
REMARK 923 INTER-LIGAND FREE ENERGY PREDICTED BY IDOCK:   -6.61 KCAL/MOL
REMARK 924 INTRA-LIGAND FREE ENERGY PREDICTED BY IDOCK:   -0.39 KCAL/MOL
REMARK 927      BINDING AFFINITY PREDICTED BY RF-SCORE:    0.00 PKD
ROOT
HETATM    1  O   UNL     1     -10.653  10.014  67.962  1.00  0.00    -0.203 OA 
HETATM    2  C   UNL     1     -11.258  10.546  69.079  1.00  0.00    -0.259 C  
HETATM    3  H   UNL     1     -10.290   9.138  67.903  1.00  0.00     0.000 HD 
HETATM    4  C   UNL     1     -11.772  11.787  69.163  1.00  0.00    -0.388 C  
HETATM    5  C   UNL     1     -10.873   8.313  70.183  1.00  0.00    -0.237 A  
HETATM    6  C   UNL     1     -12.409  12.229  70.430  1.00  0.00    -0.228 C  
HETATM    7  C   UNL     1     -12.681   9.019  72.189  1.00  0.00    -0.470 A  
HETATM    8  O   UNL     1     -12.794  11.249  71.330  1.00  0.00    -0.406 OA 
HETATM    9  O   UNL     1     -12.656  13.417  70.624  1.00  0.00    -0.311 OA 
HETATM   10  C   UNL     1     -12.296   9.940  71.215  1.00  0.00    -0.381 A  
HETATM   11  C   UNL     1     -12.150   7.732  72.156  1.00  0.00    -0.346 A  
HETATM   12  C   UNL     1     -11.225   7.387  71.171  1.00  0.00    -0.279 A  
HETATM   13  C   UNL     1     -11.436   9.595  70.178  1.00  0.00    -0.238 A  
ENDROOT
BRANCH   4  14
HETATM   14  C   UNL     1     -11.896  12.779  68.026  1.00  0.00    -0.386 C  
BRANCH  14  15
HETATM   15  C   UNL     1     -10.732  13.729  67.914  1.00  0.00    -0.256 C  
HETATM   16  C   UNL     1      -8.431  15.295  67.473  1.00  0.00    -0.177 A  
HETATM   17  H   UNL     1     -11.626  16.465  69.509  1.00  0.00     0.000 HD 
HETATM   18  C   UNL     1      -7.228  15.981  67.313  1.00  0.00    -0.241 A  
HETATM   19  C   UNL     1      -9.417  15.732  68.350  1.00  0.00    -0.196 A  
HETATM   20  O   UNL     1      -8.583  14.101  66.755  1.00  0.00    -0.181 OA 
HETATM   21  C   UNL     1      -9.621  13.239  67.055  1.00  0.00    -0.243 C  
HETATM   22  C   UNL     1     -10.662  14.962  68.452  1.00  0.00    -0.245 C  
HETATM   23  C   UNL     1      -6.986  17.114  68.084  1.00  0.00    -0.178 A  
HETATM   24  O   UNL     1      -9.647  12.102  66.589  1.00  0.00    -0.208 OA 
HETATM   25  O   UNL     1     -11.675  15.595  69.130  1.00  0.00    -0.353 OA 
HETATM   26  C   UNL     1      -7.947  17.549  68.998  1.00  0.00    -0.094 A  
HETATM   27  C   UNL     1      -9.162  16.867  69.119  1.00  0.00    -0.105 A  
ENDBRANCH  14  15
ENDBRANCH   4  14
TORSDOF 2
ENDMDL
MODEL      111
REMARK 921   NORMALIZED FREE ENERGY PREDICTED BY IDOCK:   -5.53 KCAL/MOL
REMARK 922        TOTAL FREE ENERGY PREDICTED BY IDOCK:   -6.99 KCAL/MOL
REMARK 923 INTER-LIGAND FREE ENERGY PREDICTED BY IDOCK:   -7.74 KCAL/MOL
REMARK 924 INTRA-LIGAND FREE ENERGY PREDICTED BY IDOCK:    0.75 KCAL/MOL
REMARK 927      BINDING AFFINITY PREDICTED BY RF-SCORE:    0.00 PKD
ROOT
HETATM    1  O   UNL     1     -12.031  10.466  67.990  1.00  0.00    -0.706 OA 
HETATM    2  C   UNL     1     -11.902  11.817  68.223  1.00  0.00    -0.271 C  
HETATM    3  H   UNL     1     -11.995  10.054  67.135  1.00  0.00     0.000 HD 
HETATM    4  C   UNL     1     -11.954  12.400  69.435  1.00  0.00    -0.319 C  
HETATM    5  C   UNL     1     -11.550  12.073  65.741  1.00  0.00    -0.353 A  
HETATM    6  C   UNL     1     -11.787  13.873  69.544  1.00  0.00    -0.329 C  
HETATM    7  C   UNL     1     -10.569  14.652  66.170  1.00  0.00    -0.314 A  
HETATM    8  O   UNL     1     -11.209  14.534  68.471  1.00  0.00    -0.244 OA 
HETATM    9  O   UNL     1     -12.077  14.460  70.584  1.00  0.00    -0.293 OA 
HETATM   10  C   UNL     1     -11.110  13.907  67.218  1.00  0.00    -0.299 A  
HETATM   11  C   UNL     1     -10.524  14.095  64.893  1.00  0.00    -0.461 A  
HETATM   12  C   UNL     1     -11.039  12.818  64.673  1.00  0.00    -0.349 A  
HETATM   13  C   UNL     1     -11.557  12.603  67.037  1.00  0.00    -0.431 A  
ENDROOT
BRANCH   4  14
HETATM   14  C   UNL     1     -12.037  11.685  70.766  1.00  0.00    -0.383 C  
BRANCH  14  15
HETATM   15  C   UNL     1     -11.595  10.245  70.715  1.00  0.00    -0.446 C  
HETATM   16  C   UNL     1     -11.089   7.473  70.687  1.00  0.00    -0.265 A  
HETATM   17  H   UNL     1      -8.575  10.260  69.409  1.00  0.00     0.000 HD 
HETATM   18  C   UNL     1     -10.854   6.103  70.796  1.00  0.00    -0.350 A  
HETATM   19  C   UNL     1     -10.073   8.373  70.385  1.00  0.00    -0.202 A  
HETATM   20  O   UNL     1     -12.390   7.920  70.959  1.00  0.00    -0.267 OA 
HETATM   21  C   UNL     1     -12.638   9.268  71.127  1.00  0.00    -0.257 C  
HETATM   22  C   UNL     1     -10.403   9.798  70.273  1.00  0.00    -0.291 C  
HETATM   23  C   UNL     1      -9.557   5.624  70.640  1.00  0.00    -0.213 A  
HETATM   24  O   UNL     1     -13.716   9.657  71.571  1.00  0.00    -0.330 OA 
HETATM   25  O   UNL     1      -9.415  10.575  69.720  1.00  0.00    -0.102 OA 
HETATM   26  C   UNL     1      -8.516   6.513  70.374  1.00  0.00    -0.131 A  
HETATM   27  C   UNL     1      -8.778   7.881  70.233  1.00  0.00    -0.138 A  
ENDBRANCH  14  15
ENDBRANCH   4  14
TORSDOF 2
ENDMDL
MODEL      112
REMARK 921   NORMALIZED FREE ENERGY PREDICTED BY IDOCK:   -5.53 KCAL/MOL
REMARK 922        TOTAL FREE ENERGY PREDICTED BY IDOCK:   -6.99 KCAL/MOL
REMARK 923 INTER-LIGAND FREE ENERGY PREDICTED BY IDOCK:   -6.13 KCAL/MOL
REMARK 924 INTRA-LIGAND FREE ENERGY PREDICTED BY IDOCK:   -0.86 KCAL/MOL
REMARK 927      BINDING AFFINITY PREDICTED BY RF-SCORE:    0.00 PKD
ROOT
HETATM    1  O   UNL     1     -11.805  12.097  68.122  1.00  0.00    -0.352 OA 
HETATM    2  C   UNL     1     -10.791  11.982  67.198  1.00  0.00    -0.253 C  
HETATM    3  H   UNL     1     -12.698  12.355  67.922  1.00  0.00     0.000 HD 
HETATM    4  C   UNL     1      -9.527  11.616  67.480  1.00  0.00    -0.173 C  
HETATM    5  C   UNL     1     -12.497  12.601  65.449  1.00  0.00    -0.421 A  
HETATM    6  C   UNL     1      -8.532  11.521  66.380  1.00  0.00    -0.138 C  
HETATM    7  C   UNL     1     -10.750  11.709  63.462  1.00  0.00    -0.495 A  
HETATM    8  O   UNL     1      -9.015  11.432  65.084  1.00  0.00    -0.109 OA 
HETATM    9  O   UNL     1      -7.331  11.440  66.629  1.00  0.00    -0.144 OA 
HETATM   10  C   UNL     1     -10.348  11.767  64.796  1.00  0.00    -0.288 A  
HETATM   11  C   UNL     1     -12.042  12.106  63.123  1.00  0.00    -0.351 A  
HETATM   12  C   UNL     1     -12.905  12.579  64.111  1.00  0.00    -0.333 A  
HETATM   13  C   UNL     1     -11.217  12.160  65.808  1.00  0.00    -0.384 A  
ENDROOT
BRANCH   4  14
HETATM   14  C   UNL     1      -9.013  11.146  68.824  1.00  0.00    -0.136 C  
BRANCH  14  15
HETATM   15  C   UNL     1      -9.416   9.737  69.174  1.00  0.00    -0.191 C  
HETATM   16  C   UNL     1     -10.447   7.235  69.960  1.00  0.00    -0.224 A  
HETATM   17  H   UNL     1      -7.357   7.764  67.532  1.00  0.00     0.000 HD 
HETATM   18  C   UNL     1     -10.933   6.030  70.466  1.00  0.00    -0.388 A  
HETATM   19  C   UNL     1      -9.252   7.308  69.252  1.00  0.00    -0.144 A  
HETATM   20  O   UNL     1     -11.185   8.391  70.250  1.00  0.00    -0.245 OA 
HETATM   21  C   UNL     1     -10.640   9.638  70.013  1.00  0.00    -0.260 C  
HETATM   22  C   UNL     1      -8.816   8.612  68.739  1.00  0.00    -0.139 C  
HETATM   23  C   UNL     1     -10.181   4.871  70.295  1.00  0.00    -0.299 A  
HETATM   24  O   UNL     1     -11.178  10.652  70.452  1.00  0.00    -0.304 OA 
HETATM   25  O   UNL     1      -7.780   8.557  67.838  1.00  0.00    -0.100 OA 
HETATM   26  C   UNL     1      -8.961   4.929  69.620  1.00  0.00    -0.137 A  
HETATM   27  C   UNL     1      -8.507   6.142  69.090  1.00  0.00    -0.119 A  
ENDBRANCH  14  15
ENDBRANCH   4  14
TORSDOF 2
ENDMDL
MODEL      113
REMARK 921   NORMALIZED FREE ENERGY PREDICTED BY IDOCK:   -5.48 KCAL/MOL
REMARK 922        TOTAL FREE ENERGY PREDICTED BY IDOCK:   -6.93 KCAL/MOL
REMARK 923 INTER-LIGAND FREE ENERGY PREDICTED BY IDOCK:   -6.34 KCAL/MOL
REMARK 924 INTRA-LIGAND FREE ENERGY PREDICTED BY IDOCK:   -0.60 KCAL/MOL
REMARK 927      BINDING AFFINITY PREDICTED BY RF-SCORE:    0.00 PKD
ROOT
HETATM    1  O   UNL     1      -9.528  11.620  67.300  1.00  0.00    -0.166 OA 
HETATM    2  C   UNL     1     -10.052  12.090  66.117  1.00  0.00    -0.226 C  
HETATM    3  H   UNL     1      -9.162  10.753  67.428  1.00  0.00     0.000 HD 
HETATM    4  C   UNL     1     -10.570  13.319  65.935  1.00  0.00    -0.288 C  
HETATM    5  C   UNL     1      -9.413   9.870  65.110  1.00  0.00    -0.338 A  
HETATM    6  C   UNL     1     -11.092  13.701  64.597  1.00  0.00    -0.381 C  
HETATM    7  C   UNL     1      -9.765  10.951  62.560  1.00  0.00    -0.171 A  
HETATM    8  O   UNL     1     -10.684  12.944  63.510  1.00  0.00    -0.307 OA 
HETATM    9  O   UNL     1     -11.791  14.703  64.461  1.00  0.00    -0.427 OA 
HETATM   10  C   UNL     1     -10.098  11.682  63.700  1.00  0.00    -0.402 A  
HETATM   11  C   UNL     1      -9.252   9.663  62.703  1.00  0.00    -0.203 A  
HETATM   12  C   UNL     1      -9.103   9.112  63.975  1.00  0.00     0.087 A  
HETATM   13  C   UNL     1      -9.884  11.182  64.980  1.00  0.00    -0.315 A  
ENDROOT
BRANCH   4  14
HETATM   14  C   UNL     1     -10.564  14.447  66.944  1.00  0.00    -0.278 C  
BRANCH  14  15
HETATM   15  C   UNL     1      -9.317  15.292  66.909  1.00  0.00    -0.255 C  
HETATM   16  C   UNL     1      -6.834  16.621  67.009  1.00  0.00    -0.209 A  
HETATM   17  H   UNL     1      -9.919  17.724  64.777  1.00  0.00     0.000 HD 
HETATM   18  C   UNL     1      -5.626  17.296  67.181  1.00  0.00    -0.182 A  
HETATM   19  C   UNL     1      -7.907  17.193  66.334  1.00  0.00    -0.352 A  
HETATM   20  O   UNL     1      -6.949  15.359  67.606  1.00  0.00    -0.150 OA 
HETATM   21  C   UNL     1      -8.184  14.748  67.705  1.00  0.00    -0.175 C  
HETATM   22  C   UNL     1      -9.140  16.413  66.182  1.00  0.00    -0.326 C  
HETATM   23  C   UNL     1      -5.501  18.596  66.698  1.00  0.00    -0.161 A  
HETATM   24  O   UNL     1      -8.337  13.750  68.406  1.00  0.00    -0.154 OA 
HETATM   25  O   UNL     1     -10.044  16.935  65.288  1.00  0.00    -0.577 OA 
HETATM   26  C   UNL     1      -6.577  19.202  66.049  1.00  0.00    -0.248 A  
HETATM   27  C   UNL     1      -7.770  18.495  65.857  1.00  0.00    -0.130 A  
ENDBRANCH  14  15
ENDBRANCH   4  14
TORSDOF 2
ENDMDL
MODEL      114
REMARK 921   NORMALIZED FREE ENERGY PREDICTED BY IDOCK:   -5.46 KCAL/MOL
REMARK 922        TOTAL FREE ENERGY PREDICTED BY IDOCK:   -6.91 KCAL/MOL
REMARK 923 INTER-LIGAND FREE ENERGY PREDICTED BY IDOCK:   -6.13 KCAL/MOL
REMARK 924 INTRA-LIGAND FREE ENERGY PREDICTED BY IDOCK:   -0.78 KCAL/MOL
REMARK 927      BINDING AFFINITY PREDICTED BY RF-SCORE:    0.00 PKD
ROOT
HETATM    1  O   UNL     1      -7.769  12.198  69.301  1.00  0.00    -0.333 OA 
HETATM    2  C   UNL     1      -8.240  10.962  68.917  1.00  0.00    -0.141 C  
HETATM    3  H   UNL     1      -6.971  12.348  69.794  1.00  0.00     0.000 HD 
HETATM    4  C   UNL     1      -9.371  10.750  68.219  1.00  0.00    -0.161 C  
HETATM    5  C   UNL     1      -6.173   9.992  69.984  1.00  0.00    -0.068 A  
HETATM    6  C   UNL     1      -9.756   9.361  67.858  1.00  0.00    -0.152 C  
HETATM    7  C   UNL     1      -6.645   7.583  68.654  1.00  0.00    -0.053 A  
HETATM    8  O   UNL     1      -8.770   8.388  67.909  1.00  0.00    -0.136 OA 
HETATM    9  O   UNL     1     -10.889   9.111  67.452  1.00  0.00    -0.243 OA 
HETATM   10  C   UNL     1      -7.568   8.627  68.596  1.00  0.00    -0.097 A  
HETATM   11  C   UNL     1      -5.474   7.752  69.391  1.00  0.00    -0.023 A  
HETATM   12  C   UNL     1      -5.251   8.945  70.078  1.00  0.00    -0.029 A  
HETATM   13  C   UNL     1      -7.331   9.852  69.209  1.00  0.00    -0.084 A  
ENDROOT
BRANCH   4  14
HETATM   14  C   UNL     1     -10.264  11.816  67.622  1.00  0.00    -0.216 C  
BRANCH  14  15
HETATM   15  C   UNL     1     -10.930  12.698  68.646  1.00  0.00    -0.292 C  
HETATM   16  C   UNL     1     -12.025  14.606  70.408  1.00  0.00    -0.311 A  
HETATM   17  H   UNL     1     -13.170  10.818  70.156  1.00  0.00     0.000 HD 
HETATM   18  C   UNL     1     -12.454  15.563  71.327  1.00  0.00    -0.486 A  
HETATM   19  C   UNL     1     -12.373  13.265  70.526  1.00  0.00    -0.389 A  
HETATM   20  O   UNL     1     -11.171  15.042  69.386  1.00  0.00    -0.254 OA 
HETATM   21  C   UNL     1     -10.502  14.122  68.602  1.00  0.00    -0.250 C  
HETATM   22  C   UNL     1     -11.895  12.321  69.509  1.00  0.00    -0.315 C  
HETATM   23  C   UNL     1     -13.216  15.160  72.420  1.00  0.00    -0.491 A  
HETATM   24  O   UNL     1      -9.596  14.478  67.852  1.00  0.00    -0.209 OA 
HETATM   25  O   UNL     1     -12.490  11.084  69.548  1.00  0.00    -0.293 OA 
HETATM   26  C   UNL     1     -13.545  13.813  72.577  1.00  0.00    -0.680 A  
HETATM   27  C   UNL     1     -13.135  12.873  71.625  1.00  0.00    -0.430 A  
ENDBRANCH  14  15
ENDBRANCH   4  14
TORSDOF 2
ENDMDL
MODEL      115
REMARK 921   NORMALIZED FREE ENERGY PREDICTED BY IDOCK:   -5.44 KCAL/MOL
REMARK 922        TOTAL FREE ENERGY PREDICTED BY IDOCK:   -6.88 KCAL/MOL
REMARK 923 INTER-LIGAND FREE ENERGY PREDICTED BY IDOCK:   -6.25 KCAL/MOL
REMARK 924 INTRA-LIGAND FREE ENERGY PREDICTED BY IDOCK:   -0.64 KCAL/MOL
REMARK 927      BINDING AFFINITY PREDICTED BY RF-SCORE:    0.00 PKD
ROOT
HETATM    1  O   UNL     1     -12.083  10.922  67.983  1.00  0.00    -0.780 OA 
HETATM    2  C   UNL     1     -10.975  11.710  67.767  1.00  0.00    -0.233 C  
HETATM    3  H   UNL     1     -12.950  11.092  67.633  1.00  0.00     0.000 HD 
HETATM    4  C   UNL     1      -9.748  11.471  68.263  1.00  0.00    -0.198 C  
HETATM    5  C   UNL     1     -12.449  13.147  66.312  1.00  0.00    -0.210 A  
HETATM    6  C   UNL     1      -8.635  12.401  67.941  1.00  0.00    -0.171 C  
HETATM    7  C   UNL     1     -10.172  14.362  65.246  1.00  0.00    -0.416 A  
HETATM    8  O   UNL     1      -8.799  13.243  66.853  1.00  0.00    -0.220 OA 
HETATM    9  O   UNL     1      -7.580  12.356  68.570  1.00  0.00    -0.123 OA 
HETATM   10  C   UNL     1     -10.073  13.457  66.303  1.00  0.00    -0.299 A  
HETATM   11  C   UNL     1     -11.428  14.661  64.722  1.00  0.00    -0.410 A  
HETATM   12  C   UNL     1     -12.568  14.075  65.272  1.00  0.00    -0.495 A  
HETATM   13  C   UNL     1     -11.188  12.803  66.815  1.00  0.00    -0.338 A  
ENDROOT
BRANCH   4  14
HETATM   14  C   UNL     1      -9.324  10.241  69.038  1.00  0.00    -0.195 C  
BRANCH  14  15
HETATM   15  C   UNL     1      -9.538   8.947  68.296  1.00  0.00    -0.159 C  
HETATM   16  C   UNL     1     -10.204   6.480  67.108  1.00  0.00    -0.198 A  
HETATM   17  H   UNL     1      -7.586   9.076  65.650  1.00  0.00     0.000 HD 
HETATM   18  C   UNL     1     -10.495   5.205  66.625  1.00  0.00    -0.328 A  
HETATM   19  C   UNL     1      -9.144   7.232  66.613  1.00  0.00    -0.181 A  
HETATM   20  O   UNL     1     -10.990   6.954  68.168  1.00  0.00    -0.207 OA 
HETATM   21  C   UNL     1     -10.604   8.081  68.867  1.00  0.00    -0.140 C  
HETATM   22  C   UNL     1      -8.912   8.571  67.163  1.00  0.00    -0.130 C  
HETATM   23  C   UNL     1      -9.676   4.648  65.647  1.00  0.00    -0.202 A  
HETATM   24  O   UNL     1     -11.157   8.386  69.921  1.00  0.00    -0.216 OA 
HETATM   25  O   UNL     1      -8.027   9.341  66.448  1.00  0.00    -0.106 OA 
HETATM   26  C   UNL     1      -8.585   5.370  65.162  1.00  0.00    -0.149 A  
HETATM   27  C   UNL     1      -8.330   6.662  65.635  1.00  0.00    -0.144 A  
ENDBRANCH  14  15
ENDBRANCH   4  14
TORSDOF 2
ENDMDL
MODEL      116
REMARK 921   NORMALIZED FREE ENERGY PREDICTED BY IDOCK:   -5.43 KCAL/MOL
REMARK 922        TOTAL FREE ENERGY PREDICTED BY IDOCK:   -6.88 KCAL/MOL
REMARK 923 INTER-LIGAND FREE ENERGY PREDICTED BY IDOCK:   -6.03 KCAL/MOL
REMARK 924 INTRA-LIGAND FREE ENERGY PREDICTED BY IDOCK:   -0.85 KCAL/MOL
REMARK 927      BINDING AFFINITY PREDICTED BY RF-SCORE:    0.00 PKD
ROOT
HETATM    1  O   UNL     1      -9.857  13.590  64.142  1.00  0.00    -0.727 OA 
HETATM    2  C   UNL     1     -10.283  13.425  65.441  1.00  0.00    -0.298 C  
HETATM    3  H   UNL     1      -9.409  14.359  63.810  1.00  0.00     0.000 HD 
HETATM    4  C   UNL     1     -10.918  12.336  65.913  1.00  0.00    -0.338 C  
HETATM    5  C   UNL     1      -9.263  15.679  65.920  1.00  0.00    -0.330 A  
HETATM    6  C   UNL     1     -11.312  12.284  67.345  1.00  0.00    -0.325 C  
HETATM    7  C   UNL     1      -9.424  15.145  68.656  1.00  0.00    -0.206 A  
HETATM    8  O   UNL     1     -10.686  13.162  68.215  1.00  0.00    -0.230 OA 
HETATM    9  O   UNL     1     -12.104  11.433  67.745  1.00  0.00    -0.637 OA 
HETATM   10  C   UNL     1      -9.981  14.272  67.721  1.00  0.00    -0.227 A  
HETATM   11  C   UNL     1      -8.782  16.299  68.211  1.00  0.00    -0.190 A  
HETATM   12  C   UNL     1      -8.727  16.580  66.846  1.00  0.00    -0.233 A  
HETATM   13  C   UNL     1      -9.869  14.493  66.353  1.00  0.00    -0.306 A  
ENDROOT
BRANCH   4  14
HETATM   14  C   UNL     1     -11.172  11.052  65.152  1.00  0.00     0.103 C  
BRANCH  14  15
HETATM   15  C   UNL     1      -9.950  10.186  64.990  1.00  0.00    -0.375 C  
HETATM   16  C   UNL     1      -7.600   8.744  64.410  1.00  0.00    -0.116 A  
HETATM   17  H   UNL     1      -9.600   8.558  67.828  1.00  0.00     0.000 HD 
HETATM   18  C   UNL     1      -6.498   7.979  64.028  1.00  0.00    -0.066 A  
HETATM   19  C   UNL     1      -8.321   8.470  65.567  1.00  0.00    -0.163 A  
HETATM   20  O   UNL     1      -7.995   9.770  63.540  1.00  0.00    -0.130 OA 
HETATM   21  C   UNL     1      -9.215  10.393  63.714  1.00  0.00    -0.269 C  
HETATM   22  C   UNL     1      -9.459   9.330  65.908  1.00  0.00    -0.259 C  
HETATM   23  C   UNL     1      -6.133   6.883  64.804  1.00  0.00    -0.036 A  
HETATM   24  O   UNL     1      -9.668  11.138  62.847  1.00  0.00    -0.324 OA 
HETATM   25  O   UNL     1      -9.946   9.161  67.181  1.00  0.00    -0.185 OA 
HETATM   26  C   UNL     1      -6.865   6.568  65.949  1.00  0.00    -0.053 A  
HETATM   27  C   UNL     1      -7.946   7.369  66.334  1.00  0.00    -0.108 A  
ENDBRANCH  14  15
ENDBRANCH   4  14
TORSDOF 2
ENDMDL
MODEL      117
REMARK 921   NORMALIZED FREE ENERGY PREDICTED BY IDOCK:   -5.42 KCAL/MOL
REMARK 922        TOTAL FREE ENERGY PREDICTED BY IDOCK:   -6.87 KCAL/MOL
REMARK 923 INTER-LIGAND FREE ENERGY PREDICTED BY IDOCK:   -6.06 KCAL/MOL
REMARK 924 INTRA-LIGAND FREE ENERGY PREDICTED BY IDOCK:   -0.81 KCAL/MOL
REMARK 927      BINDING AFFINITY PREDICTED BY RF-SCORE:    0.00 PKD
ROOT
HETATM    1  O   UNL     1     -10.900  13.036  65.870  1.00  0.00    -0.270 OA 
HETATM    2  C   UNL     1     -11.183  13.578  67.104  1.00  0.00    -0.305 C  
HETATM    3  H   UNL     1     -10.644  13.534  65.102  1.00  0.00     0.000 HD 
HETATM    4  C   UNL     1     -11.546  12.874  68.192  1.00  0.00    -0.378 C  
HETATM    5  C   UNL     1     -10.611  15.818  66.101  1.00  0.00    -0.318 A  
HETATM    6  C   UNL     1     -11.811  13.587  69.468  1.00  0.00    -0.334 C  
HETATM    7  C   UNL     1     -10.450  16.901  68.670  1.00  0.00    -0.352 A  
HETATM    8  O   UNL     1     -11.313  14.873  69.600  1.00  0.00    -0.255 OA 
HETATM    9  O   UNL     1     -12.381  13.016  70.397  1.00  0.00    -0.334 OA 
HETATM   10  C   UNL     1     -10.888  15.591  68.470  1.00  0.00    -0.272 A  
HETATM   11  C   UNL     1     -10.093  17.674  67.567  1.00  0.00    -0.337 A  
HETATM   12  C   UNL     1     -10.200  17.143  66.282  1.00  0.00    -0.340 A  
HETATM   13  C   UNL     1     -10.927  15.016  67.205  1.00  0.00    -0.329 A  
ENDROOT
BRANCH   4  14
HETATM   14  C   UNL     1     -11.591  11.364  68.303  1.00  0.00    -0.376 C  
BRANCH  14  15
HETATM   15  C   UNL     1     -10.334  10.756  68.869  1.00  0.00    -0.220 C  
HETATM   16  C   UNL     1      -8.181   9.472  70.155  1.00  0.00    -0.177 A  
HETATM   17  H   UNL     1      -7.978  11.276  66.631  1.00  0.00     0.000 HD 
HETATM   18  C   UNL     1      -7.131   8.915  70.886  1.00  0.00    -0.085 A  
HETATM   19  C   UNL     1      -7.960  10.228  69.009  1.00  0.00    -0.125 A  
HETATM   20  O   UNL     1      -9.475   9.291  70.662  1.00  0.00    -0.235 OA 
HETATM   21  C   UNL     1     -10.528  10.022  70.147  1.00  0.00    -0.284 C  
HETATM   22  C   UNL     1      -9.118  10.767  68.287  1.00  0.00    -0.157 C  
HETATM   23  C   UNL     1      -5.821   9.158  70.482  1.00  0.00    -0.038 A  
HETATM   24  O   UNL     1     -11.619  10.034  70.714  1.00  0.00    -0.304 OA 
HETATM   25  O   UNL     1      -8.835  11.268  67.040  1.00  0.00    -0.146 OA 
HETATM   26  C   UNL     1      -5.576   9.945  69.356  1.00  0.00    -0.034 A  
HETATM   27  C   UNL     1      -6.644  10.465  68.616  1.00  0.00    -0.052 A  
ENDBRANCH  14  15
ENDBRANCH   4  14
TORSDOF 2
ENDMDL
MODEL      118
REMARK 921   NORMALIZED FREE ENERGY PREDICTED BY IDOCK:   -5.42 KCAL/MOL
REMARK 922        TOTAL FREE ENERGY PREDICTED BY IDOCK:   -6.86 KCAL/MOL
REMARK 923 INTER-LIGAND FREE ENERGY PREDICTED BY IDOCK:   -6.64 KCAL/MOL
REMARK 924 INTRA-LIGAND FREE ENERGY PREDICTED BY IDOCK:   -0.23 KCAL/MOL
REMARK 927      BINDING AFFINITY PREDICTED BY RF-SCORE:    0.00 PKD
ROOT
HETATM    1  O   UNL     1      -9.323  12.078  63.476  1.00  0.00    -0.550 OA 
HETATM    2  C   UNL     1      -9.272  10.987  64.314  1.00  0.00    -0.152 C  
HETATM    3  H   UNL     1      -8.698  12.264  62.785  1.00  0.00     0.000 HD 
HETATM    4  C   UNL     1     -10.157  10.723  65.294  1.00  0.00    -0.353 C  
HETATM    5  C   UNL     1      -7.240  10.254  63.016  1.00  0.00    -0.125 A  
HETATM    6  C   UNL     1      -9.989   9.499  66.118  1.00  0.00    -0.272 C  
HETATM    7  C   UNL     1      -7.466   7.710  64.142  1.00  0.00    -0.102 A  
HETATM    8  O   UNL     1      -9.180   8.492  65.616  1.00  0.00    -0.178 OA 
HETATM    9  O   UNL     1     -10.617   9.360  67.166  1.00  0.00    -0.260 OA 
HETATM   10  C   UNL     1      -8.291   8.754  64.560  1.00  0.00    -0.162 A  
HETATM   11  C   UNL     1      -6.516   7.948  63.151  1.00  0.00    -0.072 A  
HETATM   12  C   UNL     1      -6.384   9.225  62.608  1.00  0.00    -0.093 A  
HETATM   13  C   UNL     1      -8.230  10.015  63.977  1.00  0.00    -0.156 A  
ENDROOT
BRANCH   4  14
HETATM   14  C   UNL     1     -11.428  11.495  65.579  1.00  0.00    -0.074 C  
BRANCH  14  15
HETATM   15  C   UNL     1     -11.246  12.636  66.546  1.00  0.00    -0.342 C  
HETATM   16  C   UNL     1     -10.976  14.548  68.598  1.00  0.00    -0.251 A  
HETATM   17  H   UNL     1      -9.857  15.077  64.832  1.00  0.00     0.000 HD 
HETATM   18  C   UNL     1     -10.966  15.489  69.627  1.00  0.00    -0.288 A  
HETATM   19  C   UNL     1     -10.719  14.898  67.277  1.00  0.00    -0.294 A  
HETATM   20  O   UNL     1     -11.322  13.234  68.941  1.00  0.00    -0.255 OA 
HETATM   21  C   UNL     1     -11.607  12.312  67.952  1.00  0.00    -0.354 C  
HETATM   22  C   UNL     1     -10.734  13.848  66.254  1.00  0.00    -0.285 C  
HETATM   23  C   UNL     1     -10.734  16.827  69.320  1.00  0.00    -0.324 A  
HETATM   24  O   UNL     1     -12.112  11.227  68.232  1.00  0.00    -0.619 OA 
HETATM   25  O   UNL     1     -10.218  14.223  65.037  1.00  0.00    -0.402 OA 
HETATM   26  C   UNL     1     -10.510  17.206  67.996  1.00  0.00    -0.369 A  
HETATM   27  C   UNL     1     -10.490  16.241  66.982  1.00  0.00    -0.306 A  
ENDBRANCH  14  15
ENDBRANCH   4  14
TORSDOF 2
ENDMDL
MODEL      119
REMARK 921   NORMALIZED FREE ENERGY PREDICTED BY IDOCK:   -5.41 KCAL/MOL
REMARK 922        TOTAL FREE ENERGY PREDICTED BY IDOCK:   -6.85 KCAL/MOL
REMARK 923 INTER-LIGAND FREE ENERGY PREDICTED BY IDOCK:   -6.41 KCAL/MOL
REMARK 924 INTRA-LIGAND FREE ENERGY PREDICTED BY IDOCK:   -0.45 KCAL/MOL
REMARK 927      BINDING AFFINITY PREDICTED BY RF-SCORE:    0.00 PKD
ROOT
HETATM    1  O   UNL     1      -7.964  12.685  68.378  1.00  0.00    -0.142 OA 
HETATM    2  C   UNL     1      -9.142  12.040  68.071  1.00  0.00    -0.188 C  
HETATM    3  H   UNL     1      -7.343  12.400  69.038  1.00  0.00     0.000 HD 
HETATM    4  C   UNL     1     -10.022  12.443  67.137  1.00  0.00    -0.211 C  
HETATM    5  C   UNL     1      -8.485  10.313  69.786  1.00  0.00    -0.082 A  
HETATM    6  C   UNL     1     -11.252  11.643  66.899  1.00  0.00    -0.313 C  
HETATM    7  C   UNL     1     -10.423   8.588  68.756  1.00  0.00    -0.208 A  
HETATM    8  O   UNL     1     -11.265  10.335  67.357  1.00  0.00    -0.274 OA 
HETATM    9  O   UNL     1     -12.184  12.108  66.246  1.00  0.00    -0.604 OA 
HETATM   10  C   UNL     1     -10.316   9.900  68.297  1.00  0.00    -0.201 A  
HETATM   11  C   UNL     1      -9.550   8.139  69.745  1.00  0.00    -0.171 A  
HETATM   12  C   UNL     1      -8.600   9.009  70.279  1.00  0.00    -0.193 A  
HETATM   13  C   UNL     1      -9.326  10.761  68.759  1.00  0.00    -0.186 A  
ENDROOT
BRANCH   4  14
HETATM   14  C   UNL     1      -9.833  13.592  66.170  1.00  0.00    -0.304 C  
BRANCH  14  15
HETATM   15  C   UNL     1      -9.731  14.940  66.835  1.00  0.00    -0.248 C  
HETATM   16  C   UNL     1      -9.868  17.430  68.147  1.00  0.00    -0.301 A  
HETATM   17  H   UNL     1      -6.516  15.577  67.123  1.00  0.00     0.000 HD 
HETATM   18  C   UNL     1     -10.000  18.704  68.699  1.00  0.00    -0.431 A  
HETATM   19  C   UNL     1      -8.650  16.955  67.673  1.00  0.00    -0.212 A  
HETATM   20  O   UNL     1     -11.035  16.664  68.030  1.00  0.00    -0.355 OA 
HETATM   21  C   UNL     1     -11.034  15.513  67.266  1.00  0.00    -0.303 C  
HETATM   22  C   UNL     1      -8.590  15.598  67.121  1.00  0.00    -0.210 C  
HETATM   23  C   UNL     1      -8.889  19.543  68.738  1.00  0.00    -0.354 A  
HETATM   24  O   UNL     1     -12.088  14.949  66.980  1.00  0.00    -0.230 OA 
HETATM   25  O   UNL     1      -7.320  15.114  66.922  1.00  0.00    -0.119 OA 
HETATM   26  C   UNL     1      -7.666  19.100  68.234  1.00  0.00    -0.350 A  
HETATM   27  C   UNL     1      -7.546  17.806  67.717  1.00  0.00    -0.213 A  
ENDBRANCH  14  15
ENDBRANCH   4  14
TORSDOF 2
ENDMDL
MODEL      120
REMARK 921   NORMALIZED FREE ENERGY PREDICTED BY IDOCK:   -5.40 KCAL/MOL
REMARK 922        TOTAL FREE ENERGY PREDICTED BY IDOCK:   -6.84 KCAL/MOL
REMARK 923 INTER-LIGAND FREE ENERGY PREDICTED BY IDOCK:   -6.88 KCAL/MOL
REMARK 924 INTRA-LIGAND FREE ENERGY PREDICTED BY IDOCK:    0.04 KCAL/MOL
REMARK 927      BINDING AFFINITY PREDICTED BY RF-SCORE:    0.00 PKD
ROOT
HETATM    1  O   UNL     1     -10.818  15.122  65.156  1.00  0.00    -0.365 OA 
HETATM    2  C   UNL     1     -11.121  15.331  66.483  1.00  0.00    -0.271 C  
HETATM    3  H   UNL     1     -10.462  15.778  64.569  1.00  0.00     0.000 HD 
HETATM    4  C   UNL     1     -11.627  14.403  67.316  1.00  0.00    -0.401 C  
HETATM    5  C   UNL     1     -10.248  17.675  66.174  1.00  0.00    -0.345 A  
HETATM    6  C   UNL     1     -11.896  14.761  68.732  1.00  0.00    -0.296 C  
HETATM    7  C   UNL     1     -10.139  17.976  68.947  1.00  0.00    -0.352 A  
HETATM    8  O   UNL     1     -11.272  15.890  69.238  1.00  0.00    -0.288 OA 
HETATM    9  O   UNL     1     -12.583  14.029  69.443  1.00  0.00    -0.193 OA 
HETATM   10  C   UNL     1     -10.700  16.836  68.371  1.00  0.00    -0.362 A  
HETATM   11  C   UNL     1      -9.630  18.975  68.120  1.00  0.00    -0.395 A  
HETATM   12  C   UNL     1      -9.710  18.838  66.735  1.00  0.00    -0.355 A  
HETATM   13  C   UNL     1     -10.719  16.643  66.995  1.00  0.00    -0.174 A  
ENDROOT
BRANCH   4  14
HETATM   14  C   UNL     1     -11.841  12.938  66.995  1.00  0.00    -0.437 C  
BRANCH  14  15
HETATM   15  C   UNL     1     -10.950  12.006  67.774  1.00  0.00    -0.279 C  
HETATM   16  C   UNL     1      -9.026  10.432  69.101  1.00  0.00    -0.179 A  
HETATM   17  H   UNL     1     -12.916  10.400  69.868  1.00  0.00     0.000 HD 
HETATM   18  C   UNL     1      -8.046   9.604  69.648  1.00  0.00    -0.143 A  
HETATM   19  C   UNL     1     -10.381  10.213  69.322  1.00  0.00    -0.242 A  
HETATM   20  O   UNL     1      -8.590  11.466  68.261  1.00  0.00    -0.143 OA 
HETATM   21  C   UNL     1      -9.499  12.156  67.483  1.00  0.00    -0.180 C  
HETATM   22  C   UNL     1     -11.351  11.138  68.724  1.00  0.00    -0.277 C  
HETATM   23  C   UNL     1      -8.435   8.501  70.402  1.00  0.00    -0.138 A  
HETATM   24  O   UNL     1      -9.117  12.912  66.593  1.00  0.00    -0.225 OA 
HETATM   25  O   UNL     1     -12.634  11.012  69.199  1.00  0.00    -0.378 OA 
HETATM   26  C   UNL     1      -9.791   8.241  70.605  1.00  0.00    -0.203 A  
HETATM   27  C   UNL     1     -10.758   9.104  70.077  1.00  0.00    -0.254 A  
ENDBRANCH  14  15
ENDBRANCH   4  14
TORSDOF 2
ENDMDL
MODEL      121
REMARK 921   NORMALIZED FREE ENERGY PREDICTED BY IDOCK:   -5.39 KCAL/MOL
REMARK 922        TOTAL FREE ENERGY PREDICTED BY IDOCK:   -6.83 KCAL/MOL
REMARK 923 INTER-LIGAND FREE ENERGY PREDICTED BY IDOCK:   -6.60 KCAL/MOL
REMARK 924 INTRA-LIGAND FREE ENERGY PREDICTED BY IDOCK:   -0.23 KCAL/MOL
REMARK 927      BINDING AFFINITY PREDICTED BY RF-SCORE:    0.00 PKD
ROOT
HETATM    1  O   UNL     1     -11.085   8.017  68.002  1.00  0.00    -0.453 OA 
HETATM    2  C   UNL     1     -10.234   8.417  69.008  1.00  0.00    -0.207 C  
HETATM    3  H   UNL     1     -11.752   7.346  68.086  1.00  0.00     0.000 HD 
HETATM    4  C   UNL     1      -9.289   9.367  68.889  1.00  0.00    -0.154 C  
HETATM    5  C   UNL     1     -11.441   6.778  70.495  1.00  0.00    -0.413 A  
HETATM    6  C   UNL     1      -8.445   9.710  70.063  1.00  0.00    -0.204 C  
HETATM    7  C   UNL     1     -10.298   7.999  72.730  1.00  0.00    -0.408 A  
HETATM    8  O   UNL     1      -8.904   9.331  71.315  1.00  0.00    -0.290 OA 
HETATM    9  O   UNL     1      -7.423  10.378  69.925  1.00  0.00    -0.158 OA 
HETATM   10  C   UNL     1      -9.925   8.374  71.440  1.00  0.00    -0.213 A  
HETATM   11  C   UNL     1     -11.252   6.998  72.898  1.00  0.00    -0.273 A  
HETATM   12  C   UNL     1     -11.803   6.368  71.782  1.00  0.00    -0.374 A  
HETATM   13  C   UNL     1     -10.518   7.815  70.313  1.00  0.00    -0.225 A  
ENDROOT
BRANCH   4  14
HETATM   14  C   UNL     1      -9.064  10.255  67.683  1.00  0.00    -0.144 C  
BRANCH  14  15
HETATM   15  C   UNL     1      -9.608  11.651  67.842  1.00  0.00    -0.180 C  
HETATM   16  C   UNL     1     -10.930  14.123  68.126  1.00  0.00    -0.249 A  
HETATM   17  H   UNL     1      -7.052  13.537  68.700  1.00  0.00     0.000 HD 
HETATM   18  C   UNL     1     -11.619  15.336  68.148  1.00  0.00    -0.344 A  
HETATM   19  C   UNL     1      -9.542  14.063  68.174  1.00  0.00    -0.220 A  
HETATM   20  O   UNL     1     -11.698  12.958  67.988  1.00  0.00    -0.321 OA 
HETATM   21  C   UNL     1     -11.084  11.755  67.699  1.00  0.00    -0.252 C  
HETATM   22  C   UNL     1      -8.893  12.748  68.162  1.00  0.00    -0.194 C  
HETATM   23  C   UNL     1     -10.895  16.525  68.175  1.00  0.00    -0.345 A  
HETATM   24  O   UNL     1     -11.749  10.775  67.368  1.00  0.00    -0.462 OA 
HETATM   25  O   UNL     1      -7.555  12.764  68.475  1.00  0.00    -0.126 OA 
HETATM   26  C   UNL     1      -9.500  16.488  68.186  1.00  0.00    -0.222 A  
HETATM   27  C   UNL     1      -8.829  15.260  68.199  1.00  0.00    -0.171 A  
ENDBRANCH  14  15
ENDBRANCH   4  14
TORSDOF 2
ENDMDL
MODEL      122
REMARK 921   NORMALIZED FREE ENERGY PREDICTED BY IDOCK:   -5.39 KCAL/MOL
REMARK 922        TOTAL FREE ENERGY PREDICTED BY IDOCK:   -6.83 KCAL/MOL
REMARK 923 INTER-LIGAND FREE ENERGY PREDICTED BY IDOCK:   -6.43 KCAL/MOL
REMARK 924 INTRA-LIGAND FREE ENERGY PREDICTED BY IDOCK:   -0.41 KCAL/MOL
REMARK 927      BINDING AFFINITY PREDICTED BY RF-SCORE:    0.00 PKD
ROOT
HETATM    1  O   UNL     1     -11.239  16.009  68.565  1.00  0.00    -0.338 OA 
HETATM    2  C   UNL     1     -11.663  14.752  68.934  1.00  0.00    -0.309 C  
HETATM    3  H   UNL     1     -11.352  16.796  69.084  1.00  0.00     0.000 HD 
HETATM    4  C   UNL     1     -11.504  13.635  68.200  1.00  0.00    -0.348 C  
HETATM    5  C   UNL     1     -12.456  15.799  71.086  1.00  0.00    -0.490 A  
HETATM    6  C   UNL     1     -12.000  12.338  68.726  1.00  0.00    -0.231 C  
HETATM    7  C   UNL     1     -12.682  13.256  72.214  1.00  0.00    -0.125 A  
HETATM    8  O   UNL     1     -12.253  12.252  70.086  1.00  0.00    -0.292 OA 
HETATM    9  O   UNL     1     -12.099  11.360  67.988  1.00  0.00    -0.629 OA 
HETATM   10  C   UNL     1     -12.371  13.416  70.864  1.00  0.00    -0.353 A  
HETATM   11  C   UNL     1     -12.884  14.386  73.004  1.00  0.00    -0.521 A  
HETATM   12  C   UNL     1     -12.799  15.656  72.434  1.00  0.00    -0.519 A  
HETATM   13  C   UNL     1     -12.204  14.673  70.293  1.00  0.00    -0.389 A  
ENDROOT
BRANCH   4  14
HETATM   14  C   UNL     1     -10.729  13.524  66.904  1.00  0.00    -0.274 C  
BRANCH  14  15
HETATM   15  C   UNL     1      -9.462  12.718  67.017  1.00  0.00    -0.233 C  
HETATM   16  C   UNL     1      -7.177  11.071  66.935  1.00  0.00    -0.133 A  
HETATM   17  H   UNL     1      -7.715  14.094  69.442  1.00  0.00     0.000 HD 
HETATM   18  C   UNL     1      -6.121  10.160  66.917  1.00  0.00    -0.056 A  
HETATM   19  C   UNL     1      -7.343  11.986  67.969  1.00  0.00    -0.102 A  
HETATM   20  O   UNL     1      -8.108  10.985  65.892  1.00  0.00    -0.150 OA 
HETATM   21  C   UNL     1      -9.307  11.667  65.976  1.00  0.00    -0.227 C  
HETATM   22  C   UNL     1      -8.471  12.922  67.907  1.00  0.00    -0.181 C  
HETATM   23  C   UNL     1      -5.230  10.135  67.986  1.00  0.00    -0.035 A  
HETATM   24  O   UNL     1     -10.216  11.439  65.180  1.00  0.00    -0.250 OA 
HETATM   25  O   UNL     1      -8.414  13.951  68.815  1.00  0.00    -0.118 OA 
HETATM   26  C   UNL     1      -5.400  11.019  69.052  1.00  0.00    -0.040 A  
HETATM   27  C   UNL     1      -6.445  11.949  69.034  1.00  0.00    -0.086 A  
ENDBRANCH  14  15
ENDBRANCH   4  14
TORSDOF 2
ENDMDL
MODEL      123
REMARK 921   NORMALIZED FREE ENERGY PREDICTED BY IDOCK:   -5.35 KCAL/MOL
REMARK 922        TOTAL FREE ENERGY PREDICTED BY IDOCK:   -6.79 KCAL/MOL
REMARK 923 INTER-LIGAND FREE ENERGY PREDICTED BY IDOCK:   -6.15 KCAL/MOL
REMARK 924 INTRA-LIGAND FREE ENERGY PREDICTED BY IDOCK:   -0.64 KCAL/MOL
REMARK 927      BINDING AFFINITY PREDICTED BY RF-SCORE:    0.00 PKD
ROOT
HETATM    1  O   UNL     1      -9.889  10.949  69.491  1.00  0.00    -0.425 OA 
HETATM    2  C   UNL     1     -11.011  10.857  70.284  1.00  0.00     0.016 C  
HETATM    3  H   UNL     1      -9.692  11.673  68.909  1.00  0.00     0.000 HD 
HETATM    4  C   UNL     1     -11.292   9.831  71.109  1.00  0.00    -0.459 C  
HETATM    5  C   UNL     1     -11.657  13.127  69.401  1.00  0.00    -0.360 A  
HETATM    6  C   UNL     1     -12.536   9.866  71.920  1.00  0.00    -0.381 C  
HETATM    7  C   UNL     1     -13.531  13.369  71.456  1.00  0.00    -0.288 A  
HETATM    8  O   UNL     1     -13.155  11.094  72.093  1.00  0.00    -0.463 OA 
HETATM    9  O   UNL     1     -12.946   8.852  72.482  1.00  0.00    -0.418 OA 
HETATM   10  C   UNL     1     -12.828  12.180  71.263  1.00  0.00    -0.250 A  
HETATM   11  C   UNL     1     -13.291  14.446  70.605  1.00  0.00    -0.107 A  
HETATM   12  C   UNL     1     -12.376  14.316  69.561  1.00  0.00    -0.272 A  
HETATM   13  C   UNL     1     -11.854  12.054  70.278  1.00  0.00    -0.356 A  
ENDROOT
BRANCH   4  14
HETATM   14  C   UNL     1     -10.384   8.659  71.415  1.00  0.00    -0.331 C  
BRANCH  14  15
HETATM   15  C   UNL     1      -9.964   7.877  70.197  1.00  0.00    -0.190 C  
HETATM   16  C   UNL     1      -8.867   6.531  67.978  1.00  0.00    -0.114 A  
HETATM   17  H   UNL     1     -12.491   5.904  69.458  1.00  0.00     0.000 HD 
HETATM   18  C   UNL     1      -8.313   5.976  66.825  1.00  0.00    -0.106 A  
HETATM   19  C   UNL     1     -10.209   6.366  68.303  1.00  0.00    -0.197 A  
HETATM   20  O   UNL     1      -8.026   7.324  68.770  1.00  0.00    -0.119 OA 
HETATM   21  C   UNL     1      -8.558   8.112  69.772  1.00  0.00    -0.133 C  
HETATM   22  C   UNL     1     -10.713   6.969  69.541  1.00  0.00    -0.241 C  
HETATM   23  C   UNL     1      -9.134   5.270  65.950  1.00  0.00    -0.159 A  
HETATM   24  O   UNL     1      -7.872   8.965  70.331  1.00  0.00    -0.078 OA 
HETATM   25  O   UNL     1     -11.963   6.544  69.920  1.00  0.00    -0.319 OA 
HETATM   26  C   UNL     1     -10.492   5.124  66.239  1.00  0.00    -0.341 A  
HETATM   27  C   UNL     1     -11.021   5.659  67.418  1.00  0.00    -0.056 A  
ENDBRANCH  14  15
ENDBRANCH   4  14
TORSDOF 2
ENDMDL
MODEL      124
REMARK 921   NORMALIZED FREE ENERGY PREDICTED BY IDOCK:   -5.33 KCAL/MOL
REMARK 922        TOTAL FREE ENERGY PREDICTED BY IDOCK:   -6.77 KCAL/MOL
REMARK 923 INTER-LIGAND FREE ENERGY PREDICTED BY IDOCK:   -5.95 KCAL/MOL
REMARK 924 INTRA-LIGAND FREE ENERGY PREDICTED BY IDOCK:   -0.82 KCAL/MOL
REMARK 927      BINDING AFFINITY PREDICTED BY RF-SCORE:    0.00 PKD
ROOT
HETATM    1  O   UNL     1      -7.402   7.556  68.941  1.00  0.00    -0.089 OA 
HETATM    2  C   UNL     1      -8.661   7.000  68.907  1.00  0.00    -0.131 C  
HETATM    3  H   UNL     1      -6.681   7.309  68.373  1.00  0.00     0.000 HD 
HETATM    4  C   UNL     1      -9.682   7.349  69.712  1.00  0.00    -0.170 C  
HETATM    5  C   UNL     1      -7.845   5.602  66.975  1.00  0.00    -0.101 A  
HETATM    6  C   UNL     1     -10.996   6.674  69.559  1.00  0.00    -0.313 C  
HETATM    7  C   UNL     1     -10.490   4.956  66.355  1.00  0.00    -0.325 A  
HETATM    8  O   UNL     1     -11.239   6.004  68.371  1.00  0.00    -0.287 OA 
HETATM    9  O   UNL     1     -11.860   6.784  70.427  1.00  0.00    -0.376 OA 
HETATM   10  C   UNL     1     -10.180   5.681  67.506  1.00  0.00    -0.202 A  
HETATM   11  C   UNL     1      -9.459   4.549  65.510  1.00  0.00    -0.175 A  
HETATM   12  C   UNL     1      -8.136   4.847  65.834  1.00  0.00    -0.108 A  
HETATM   13  C   UNL     1      -8.875   6.057  67.808  1.00  0.00    -0.106 A  
ENDROOT
BRANCH   4  14
HETATM   14  C   UNL     1      -9.681   8.489  70.709  1.00  0.00    -0.221 C  
BRANCH  14  15
HETATM   15  C   UNL     1     -10.186   9.793  70.147  1.00  0.00    -0.328 C  
HETATM   16  C   UNL     1     -11.351  12.231  69.349  1.00  0.00    -0.228 A  
HETATM   17  H   UNL     1      -7.956  10.757  67.928  1.00  0.00     0.000 HD 
HETATM   18  C   UNL     1     -12.027  13.373  68.920  1.00  0.00    -0.362 A  
HETATM   19  C   UNL     1     -10.256  11.721  68.660  1.00  0.00    -0.211 A  
HETATM   20  O   UNL     1     -11.862  11.576  70.478  1.00  0.00    -0.346 OA 
HETATM   21  C   UNL     1     -11.414  10.311  70.807  1.00  0.00    -0.351 C  
HETATM   22  C   UNL     1      -9.589  10.524  69.185  1.00  0.00    -0.199 C  
HETATM   23  C   UNL     1     -11.623  13.997  67.743  1.00  0.00    -0.378 A  
HETATM   24  O   UNL     1     -11.995   9.641  71.658  1.00  0.00    -0.371 OA 
HETATM   25  O   UNL     1      -8.376  10.242  68.606  1.00  0.00    -0.109 OA 
HETATM   26  C   UNL     1     -10.550  13.480  67.016  1.00  0.00    -0.269 A  
HETATM   27  C   UNL     1      -9.863  12.353  67.482  1.00  0.00    -0.194 A  
ENDBRANCH  14  15
ENDBRANCH   4  14
TORSDOF 2
ENDMDL
MODEL      125
REMARK 921   NORMALIZED FREE ENERGY PREDICTED BY IDOCK:   -5.33 KCAL/MOL
REMARK 922        TOTAL FREE ENERGY PREDICTED BY IDOCK:   -6.76 KCAL/MOL
REMARK 923 INTER-LIGAND FREE ENERGY PREDICTED BY IDOCK:   -6.85 KCAL/MOL
REMARK 924 INTRA-LIGAND FREE ENERGY PREDICTED BY IDOCK:    0.09 KCAL/MOL
REMARK 927      BINDING AFFINITY PREDICTED BY RF-SCORE:    0.00 PKD
ROOT
HETATM    1  O   UNL     1     -10.309  11.928  69.270  1.00  0.00    -0.423 OA 
HETATM    2  C   UNL     1     -11.290  11.418  70.090  1.00  0.00    -0.119 C  
HETATM    3  H   UNL     1     -10.253  12.833  68.984  1.00  0.00     0.000 HD 
HETATM    4  C   UNL     1     -11.369  10.137  70.495  1.00  0.00    -0.416 C  
HETATM    5  C   UNL     1     -12.225  13.756  70.200  1.00  0.00    -0.425 A  
HETATM    6  C   UNL     1     -12.479   9.722  71.393  1.00  0.00    -0.387 C  
HETATM    7  C   UNL     1     -13.785  13.004  72.390  1.00  0.00    -0.593 A  
HETATM    8  O   UNL     1     -13.153  10.718  72.080  1.00  0.00    -0.460 OA 
HETATM    9  O   UNL     1     -12.724   8.532  71.574  1.00  0.00    -0.313 OA 
HETATM   10  C   UNL     1     -13.033  12.062  71.688  1.00  0.00    -0.334 A  
HETATM   11  C   UNL     1     -13.755  14.337  71.984  1.00  0.00    -0.542 A  
HETATM   12  C   UNL     1     -12.998  14.708  70.874  1.00  0.00    -0.425 A  
HETATM   13  C   UNL     1     -12.211  12.422  70.627  1.00  0.00    -0.368 A  
ENDROOT
BRANCH   4  14
HETATM   14  C   UNL     1     -10.343   9.055  70.236  1.00  0.00    -0.243 C  
BRANCH  14  15
HETATM   15  C   UNL     1      -9.518   9.279  68.996  1.00  0.00    -0.155 C  
HETATM   16  C   UNL     1      -7.721   9.776  66.882  1.00  0.00    -0.098 A  
HETATM   17  H   UNL     1     -11.262   8.034  66.499  1.00  0.00     0.000 HD 
HETATM   18  C   UNL     1      -6.840  10.143  65.865  1.00  0.00    -0.115 A  
HETATM   19  C   UNL     1      -9.009   9.325  66.614  1.00  0.00    -0.165 A  
HETATM   20  O   UNL     1      -7.276   9.942  68.200  1.00  0.00    -0.077 OA 
HETATM   21  C   UNL     1      -8.169   9.852  69.250  1.00  0.00    -0.138 C  
HETATM   22  C   UNL     1      -9.871   8.945  67.739  1.00  0.00    -0.166 C  
HETATM   23  C   UNL     1      -7.275  10.097  64.543  1.00  0.00    -0.119 A  
HETATM   24  O   UNL     1      -7.843  10.201  70.383  1.00  0.00    -0.202 OA 
HETATM   25  O   UNL     1     -11.014   8.270  67.385  1.00  0.00    -0.127 OA 
HETATM   26  C   UNL     1      -8.576   9.682  64.255  1.00  0.00    -0.207 A  
HETATM   27  C   UNL     1      -9.433   9.286  65.287  1.00  0.00    -0.234 A  
ENDBRANCH  14  15
ENDBRANCH   4  14
TORSDOF 2
ENDMDL
MODEL      126
REMARK 921   NORMALIZED FREE ENERGY PREDICTED BY IDOCK:   -5.27 KCAL/MOL
REMARK 922        TOTAL FREE ENERGY PREDICTED BY IDOCK:   -6.70 KCAL/MOL
REMARK 923 INTER-LIGAND FREE ENERGY PREDICTED BY IDOCK:   -6.21 KCAL/MOL
REMARK 924 INTRA-LIGAND FREE ENERGY PREDICTED BY IDOCK:   -0.48 KCAL/MOL
REMARK 927      BINDING AFFINITY PREDICTED BY RF-SCORE:    0.00 PKD
ROOT
HETATM    1  O   UNL     1     -10.032   7.831  66.308  1.00  0.00    -0.447 OA 
HETATM    2  C   UNL     1      -9.232   7.947  67.422  1.00  0.00    -0.140 C  
HETATM    3  H   UNL     1     -10.837   7.329  66.264  1.00  0.00     0.000 HD 
HETATM    4  C   UNL     1      -8.091   8.657  67.484  1.00  0.00    -0.106 C  
HETATM    5  C   UNL     1     -10.934   6.529  68.624  1.00  0.00    -0.363 A  
HETATM    6  C   UNL     1      -7.329   8.707  68.758  1.00  0.00    -0.083 C  
HETATM    7  C   UNL     1      -9.804   7.282  71.064  1.00  0.00    -0.183 A  
HETATM    8  O   UNL     1      -7.998   8.354  69.919  1.00  0.00    -0.101 OA 
HETATM    9  O   UNL     1      -6.174   9.127  68.781  1.00  0.00    -0.044 OA 
HETATM   10  C   UNL     1      -9.215   7.654  69.856  1.00  0.00    -0.147 A  
HETATM   11  C   UNL     1     -10.971   6.521  71.045  1.00  0.00    -0.314 A  
HETATM   12  C   UNL     1     -11.520   6.120  69.827  1.00  0.00    -0.362 A  
HETATM   13  C   UNL     1      -9.787   7.333  68.630  1.00  0.00    -0.161 A  
ENDROOT
BRANCH   4  14
HETATM   14  C   UNL     1      -7.539   9.555  66.396  1.00  0.00    -0.097 C  
BRANCH  14  15
HETATM   15  C   UNL     1      -8.486  10.643  65.963  1.00  0.00    -0.165 C  
HETATM   16  C   UNL     1     -10.131  12.862  65.403  1.00  0.00    -0.251 A  
HETATM   17  H   UNL     1      -9.652   9.726  63.025  1.00  0.00     0.000 HD 
HETATM   18  C   UNL     1     -11.007  13.933  65.230  1.00  0.00    -0.331 A  
HETATM   19  C   UNL     1     -10.174  11.736  64.588  1.00  0.00    -0.326 A  
HETATM   20  O   UNL     1      -9.239  12.937  66.481  1.00  0.00    -0.235 OA 
HETATM   21  C   UNL     1      -8.529  11.819  66.873  1.00  0.00    -0.174 C  
HETATM   22  C   UNL     1      -9.208  10.657  64.825  1.00  0.00    -0.220 C  
HETATM   23  C   UNL     1     -11.983  13.857  64.240  1.00  0.00    -0.477 A  
HETATM   24  O   UNL     1      -7.910  11.808  67.934  1.00  0.00    -0.120 OA 
HETATM   25  O   UNL     1      -9.143   9.715  63.827  1.00  0.00    -0.241 OA 
HETATM   26  C   UNL     1     -12.067  12.721  63.435  1.00  0.00    -0.619 A  
HETATM   27  C   UNL     1     -11.157  11.671  63.602  1.00  0.00    -0.506 A  
ENDBRANCH  14  15
ENDBRANCH   4  14
TORSDOF 2
ENDMDL
MODEL      127
REMARK 921   NORMALIZED FREE ENERGY PREDICTED BY IDOCK:   -5.26 KCAL/MOL
REMARK 922        TOTAL FREE ENERGY PREDICTED BY IDOCK:   -6.68 KCAL/MOL
REMARK 923 INTER-LIGAND FREE ENERGY PREDICTED BY IDOCK:   -6.46 KCAL/MOL
REMARK 924 INTRA-LIGAND FREE ENERGY PREDICTED BY IDOCK:   -0.22 KCAL/MOL
REMARK 927      BINDING AFFINITY PREDICTED BY RF-SCORE:    0.00 PKD
ROOT
HETATM    1  O   UNL     1      -9.758   9.847  69.691  1.00  0.00    -0.204 OA 
HETATM    2  C   UNL     1     -10.918  10.348  70.239  1.00  0.00    -0.284 C  
HETATM    3  H   UNL     1      -9.277  10.245  68.975  1.00  0.00     0.000 HD 
HETATM    4  C   UNL     1     -11.599   9.786  71.254  1.00  0.00    -0.465 C  
HETATM    5  C   UNL     1     -10.690  12.270  68.623  1.00  0.00    -0.261 A  
HETATM    6  C   UNL     1     -12.834  10.441  71.756  1.00  0.00    -0.456 C  
HETATM    7  C   UNL     1     -12.567  13.709  70.107  1.00  0.00    -0.215 A  
HETATM    8  O   UNL     1     -13.026  11.776  71.438  1.00  0.00    -0.398 OA 
HETATM    9  O   UNL     1     -13.607   9.836  72.496  1.00  0.00    -0.356 OA 
HETATM   10  C   UNL     1     -12.281  12.378  70.411  1.00  0.00    -0.287 A  
HETATM   11  C   UNL     1     -11.905  14.321  69.044  1.00  0.00    -0.370 A  
HETATM   12  C   UNL     1     -10.988  13.594  68.286  1.00  0.00    -0.275 A  
HETATM   13  C   UNL     1     -11.314  11.659  69.718  1.00  0.00    -0.276 A  
ENDROOT
BRANCH   4  14
HETATM   14  C   UNL     1     -11.163   8.581  72.061  1.00  0.00    -0.418 C  
BRANCH  14  15
HETATM   15  C   UNL     1     -10.624   7.449  71.226  1.00  0.00    -0.231 C  
HETATM   16  C   UNL     1      -9.930   5.290  69.552  1.00  0.00    -0.227 A  
HETATM   17  H   UNL     1      -7.346   7.703  71.346  1.00  0.00     0.000 HD 
HETATM   18  C   UNL     1      -9.647   4.148  68.804  1.00  0.00    -0.210 A  
HETATM   19  C   UNL     1      -8.948   5.959  70.274  1.00  0.00    -0.152 A  
HETATM   20  O   UNL     1     -11.268   5.704  69.601  1.00  0.00    -0.267 OA 
HETATM   21  C   UNL     1     -11.666   6.657  70.519  1.00  0.00    -0.394 C  
HETATM   22  C   UNL     1      -9.323   7.163  71.025  1.00  0.00    -0.158 C  
HETATM   23  C   UNL     1      -8.353   3.637  68.811  1.00  0.00    -0.089 A  
HETATM   24  O   UNL     1     -12.859   6.876  70.719  1.00  0.00    -0.239 OA 
HETATM   25  O   UNL     1      -8.263   7.904  71.488  1.00  0.00    -0.099 OA 
HETATM   26  C   UNL     1      -7.360   4.271  69.559  1.00  0.00    -0.050 A  
HETATM   27  C   UNL     1      -7.656   5.436  70.276  1.00  0.00    -0.076 A  
ENDBRANCH  14  15
ENDBRANCH   4  14
TORSDOF 2
ENDMDL
MODEL      128
REMARK 921   NORMALIZED FREE ENERGY PREDICTED BY IDOCK:   -5.26 KCAL/MOL
REMARK 922        TOTAL FREE ENERGY PREDICTED BY IDOCK:   -6.68 KCAL/MOL
REMARK 923 INTER-LIGAND FREE ENERGY PREDICTED BY IDOCK:   -5.86 KCAL/MOL
REMARK 924 INTRA-LIGAND FREE ENERGY PREDICTED BY IDOCK:   -0.82 KCAL/MOL
REMARK 927      BINDING AFFINITY PREDICTED BY RF-SCORE:    0.00 PKD
ROOT
HETATM    1  O   UNL     1      -8.515  10.370  66.738  1.00  0.00    -0.123 OA 
HETATM    2  C   UNL     1      -8.988  10.131  68.009  1.00  0.00    -0.125 C  
HETATM    3  H   UNL     1      -7.653  10.126  66.422  1.00  0.00     0.000 HD 
HETATM    4  C   UNL     1     -10.208  10.477  68.458  1.00  0.00    -0.190 C  
HETATM    5  C   UNL     1      -6.790   8.984  68.464  1.00  0.00    -0.064 A  
HETATM    6  C   UNL     1     -10.594  10.146  69.854  1.00  0.00    -0.285 C  
HETATM    7  C   UNL     1      -7.892   7.833  70.757  1.00  0.00    -0.099 A  
HETATM    8  O   UNL     1      -9.857   9.173  70.509  1.00  0.00    -0.197 OA 
HETATM    9  O   UNL     1     -11.585  10.662  70.368  1.00  0.00    -0.306 OA 
HETATM   10  C   UNL     1      -8.604   8.775  70.015  1.00  0.00    -0.136 A  
HETATM   11  C   UNL     1      -6.612   7.468  70.343  1.00  0.00    -0.042 A  
HETATM   12  C   UNL     1      -6.051   8.063  69.214  1.00  0.00    -0.034 A  
HETATM   13  C   UNL     1      -8.095   9.323  68.843  1.00  0.00    -0.103 A  
ENDROOT
BRANCH   4  14
HETATM   14  C   UNL     1     -11.326  11.075  67.629  1.00  0.00    -0.355 C  
BRANCH  14  15
HETATM   15  C   UNL     1     -11.112  12.521  67.267  1.00  0.00    -0.319 C  
HETATM   16  C   UNL     1     -10.665  15.120  66.272  1.00  0.00    -0.320 A  
HETATM   17  H   UNL     1     -12.089  14.274  69.874  1.00  0.00     0.000 HD 
HETATM   18  C   UNL     1     -10.324  16.374  65.766  1.00  0.00    -0.388 A  
HETATM   19  C   UNL     1     -10.994  14.930  67.609  1.00  0.00    -0.300 A  
HETATM   20  O   UNL     1     -10.599  14.037  65.385  1.00  0.00    -0.306 OA 
HETATM   21  C   UNL     1     -10.665  12.743  65.865  1.00  0.00    -0.270 C  
HETATM   22  C   UNL     1     -11.356  13.582  68.062  1.00  0.00    -0.285 C  
HETATM   23  C   UNL     1     -10.271  17.462  66.633  1.00  0.00    -0.324 A  
HETATM   24  O   UNL     1     -10.398  11.790  65.137  1.00  0.00    -0.256 OA 
HETATM   25  O   UNL     1     -11.917  13.527  69.314  1.00  0.00    -0.315 OA 
HETATM   26  C   UNL     1     -10.562  17.287  67.986  1.00  0.00    -0.394 A  
HETATM   27  C   UNL     1     -10.936  16.027  68.467  1.00  0.00    -0.326 A  
ENDBRANCH  14  15
ENDBRANCH   4  14
TORSDOF 2
ENDMDL
MODEL      129
REMARK 921   NORMALIZED FREE ENERGY PREDICTED BY IDOCK:   -5.24 KCAL/MOL
REMARK 922        TOTAL FREE ENERGY PREDICTED BY IDOCK:   -6.67 KCAL/MOL
REMARK 923 INTER-LIGAND FREE ENERGY PREDICTED BY IDOCK:   -6.67 KCAL/MOL
REMARK 924 INTRA-LIGAND FREE ENERGY PREDICTED BY IDOCK:    0.00 KCAL/MOL
REMARK 927      BINDING AFFINITY PREDICTED BY RF-SCORE:    0.00 PKD
ROOT
HETATM    1  O   UNL     1     -12.634   9.294  70.482  1.00  0.00    -0.491 OA 
HETATM    2  C   UNL     1     -11.897  10.370  70.039  1.00  0.00    -0.273 C  
HETATM    3  H   UNL     1     -13.282   9.326  71.177  1.00  0.00     0.000 HD 
HETATM    4  C   UNL     1     -10.980  10.325  69.056  1.00  0.00    -0.274 C  
HETATM    5  C   UNL     1     -13.180  11.762  71.703  1.00  0.00    -0.368 A  
HETATM    6  C   UNL     1     -10.264  11.568  68.668  1.00  0.00    -0.208 C  
HETATM    7  C   UNL     1     -12.298  14.075  70.413  1.00  0.00    -0.429 A  
HETATM    8  O   UNL     1     -10.825  12.776  69.048  1.00  0.00    -0.225 OA 
HETATM    9  O   UNL     1      -9.257  11.516  67.964  1.00  0.00    -0.162 OA 
HETATM   10  C   UNL     1     -11.819  12.820  70.040  1.00  0.00    -0.281 A  
HETATM   11  C   UNL     1     -13.228  14.169  71.447  1.00  0.00    -0.418 A  
HETATM   12  C   UNL     1     -13.648  13.016  72.110  1.00  0.00    -0.618 A  
HETATM   13  C   UNL     1     -12.282  11.651  70.635  1.00  0.00    -0.461 A  
ENDROOT
BRANCH   4  14
HETATM   14  C   UNL     1     -10.673   9.132  68.176  1.00  0.00    -0.186 C  
BRANCH  14  15
HETATM   15  C   UNL     1     -10.265   7.898  68.939  1.00  0.00    -0.215 C  
HETATM   16  C   UNL     1      -9.614   5.416  70.102  1.00  0.00    -0.177 A  
HETATM   17  H   UNL     1      -8.423   8.947  71.456  1.00  0.00     0.000 HD 
HETATM   18  C   UNL     1      -9.414   4.168  70.692  1.00  0.00    -0.242 A  
HETATM   19  C   UNL     1      -9.297   6.600  70.758  1.00  0.00    -0.159 A  
HETATM   20  O   UNL     1     -10.213   5.431  68.835  1.00  0.00    -0.184 OA 
HETATM   21  C   UNL     1     -10.679   6.619  68.304  1.00  0.00    -0.257 C  
HETATM   22  C   UNL     1      -9.523   7.872  70.063  1.00  0.00    -0.157 C  
HETATM   23  C   UNL     1      -8.921   4.105  71.993  1.00  0.00    -0.151 A  
HETATM   24  O   UNL     1     -11.390   6.621  67.301  1.00  0.00    -0.324 OA 
HETATM   25  O   UNL     1      -8.946   8.965  70.663  1.00  0.00    -0.162 OA 
HETATM   26  C   UNL     1      -8.630   5.283  72.682  1.00  0.00    -0.117 A  
HETATM   27  C   UNL     1      -8.805   6.524  72.060  1.00  0.00    -0.133 A  
ENDBRANCH  14  15
ENDBRANCH   4  14
TORSDOF 2
ENDMDL
MODEL      130
REMARK 921   NORMALIZED FREE ENERGY PREDICTED BY IDOCK:   -5.24 KCAL/MOL
REMARK 922        TOTAL FREE ENERGY PREDICTED BY IDOCK:   -6.66 KCAL/MOL
REMARK 923 INTER-LIGAND FREE ENERGY PREDICTED BY IDOCK:   -6.40 KCAL/MOL
REMARK 924 INTRA-LIGAND FREE ENERGY PREDICTED BY IDOCK:   -0.26 KCAL/MOL
REMARK 927      BINDING AFFINITY PREDICTED BY RF-SCORE:    0.00 PKD
ROOT
HETATM    1  O   UNL     1      -7.289  13.158  66.728  1.00  0.00    -0.279 OA 
HETATM    2  C   UNL     1      -8.605  13.316  67.099  1.00  0.00    -0.193 C  
HETATM    3  H   UNL     1      -6.782  12.362  66.841  1.00  0.00     0.000 HD 
HETATM    4  C   UNL     1      -9.323  14.443  66.940  1.00  0.00    -0.269 C  
HETATM    5  C   UNL     1      -8.549  10.903  67.827  1.00  0.00    -0.128 A  
HETATM    6  C   UNL     1     -10.743  14.472  67.375  1.00  0.00    -0.282 C  
HETATM    7  C   UNL     1     -11.339  10.893  67.931  1.00  0.00    -0.380 A  
HETATM    8  O   UNL     1     -11.381  13.256  67.566  1.00  0.00    -0.270 OA 
HETATM    9  O   UNL     1     -11.344  15.540  67.478  1.00  0.00    -0.314 OA 
HETATM   10  C   UNL     1     -10.635  12.072  67.684  1.00  0.00    -0.210 A  
HETATM   11  C   UNL     1     -10.632   9.709  68.131  1.00  0.00    -0.273 A  
HETATM   12  C   UNL     1      -9.238   9.719  68.107  1.00  0.00    -0.132 A  
HETATM   13  C   UNL     1      -9.249  12.090  67.578  1.00  0.00    -0.180 A  
ENDROOT
BRANCH   4  14
HETATM   14  C   UNL     1      -8.869  15.695  66.220  1.00  0.00    -0.364 C  
BRANCH  14  15
HETATM   15  C   UNL     1      -8.302  16.752  67.131  1.00  0.00    -0.207 C  
HETATM   16  C   UNL     1      -7.482  18.932  68.717  1.00  0.00    -0.325 A  
HETATM   17  H   UNL     1      -6.221  15.199  69.152  1.00  0.00     0.000 HD 
HETATM   18  C   UNL     1      -7.035  20.065  69.398  1.00  0.00    -0.230 A  
HETATM   19  C   UNL     1      -6.845  17.702  68.835  1.00  0.00    -0.243 A  
HETATM   20  O   UNL     1      -8.571  19.099  67.851  1.00  0.00    -0.290 OA 
HETATM   21  C   UNL     1      -8.903  18.101  66.955  1.00  0.00    -0.267 C  
HETATM   22  C   UNL     1      -7.385  16.555  68.098  1.00  0.00    -0.160 C  
HETATM   23  C   UNL     1      -5.892  19.973  70.187  1.00  0.00    -0.356 A  
HETATM   24  O   UNL     1      -9.710  18.311  66.052  1.00  0.00    -0.498 OA 
HETATM   25  O   UNL     1      -6.867  15.338  68.470  1.00  0.00    -0.106 OA 
HETATM   26  C   UNL     1      -5.215  18.757  70.290  1.00  0.00    -0.215 A  
HETATM   27  C   UNL     1      -5.700  17.624  69.627  1.00  0.00    -0.231 A  
ENDBRANCH  14  15
ENDBRANCH   4  14
TORSDOF 2
ENDMDL
MODEL      131
REMARK 921   NORMALIZED FREE ENERGY PREDICTED BY IDOCK:   -5.23 KCAL/MOL
REMARK 922        TOTAL FREE ENERGY PREDICTED BY IDOCK:   -6.65 KCAL/MOL
REMARK 923 INTER-LIGAND FREE ENERGY PREDICTED BY IDOCK:   -6.20 KCAL/MOL
REMARK 924 INTRA-LIGAND FREE ENERGY PREDICTED BY IDOCK:   -0.45 KCAL/MOL
REMARK 927      BINDING AFFINITY PREDICTED BY RF-SCORE:    0.00 PKD
ROOT
HETATM    1  O   UNL     1     -11.358   5.955  70.535  1.00  0.00    -0.291 OA 
HETATM    2  C   UNL     1     -10.467   5.857  71.580  1.00  0.00    -0.233 C  
HETATM    3  H   UNL     1     -11.442   5.325  69.829  1.00  0.00     0.000 HD 
HETATM    4  C   UNL     1     -10.347   6.750  72.580  1.00  0.00    -0.222 C  
HETATM    5  C   UNL     1      -9.745   3.659  70.580  1.00  0.00    -0.210 A  
HETATM    6  C   UNL     1      -9.350   6.513  73.655  1.00  0.00    -0.139 C  
HETATM    7  C   UNL     1      -8.462   3.017  72.975  1.00  0.00    -0.080 A  
HETATM    8  O   UNL     1      -8.861   5.224  73.804  1.00  0.00    -0.119 OA 
HETATM    9  O   UNL     1      -9.040   7.415  74.431  1.00  0.00    -0.211 OA 
HETATM   10  C   UNL     1      -9.029   4.276  72.781  1.00  0.00    -0.106 A  
HETATM   11  C   UNL     1      -8.538   2.072  71.953  1.00  0.00    -0.081 A  
HETATM   12  C   UNL     1      -9.154   2.402  70.747  1.00  0.00    -0.182 A  
HETATM   13  C   UNL     1      -9.716   4.600  71.616  1.00  0.00    -0.235 A  
ENDROOT
BRANCH   4  14
HETATM   14  C   UNL     1     -11.238   7.952  72.813  1.00  0.00    -0.466 C  
BRANCH  14  15
HETATM   15  C   UNL     1     -11.254   8.932  71.669  1.00  0.00    -0.415 C  
HETATM   16  C   UNL     1     -11.613  10.795  69.586  1.00  0.00    -0.316 A  
HETATM   17  H   UNL     1      -8.105   9.636  71.024  1.00  0.00     0.000 HD 
HETATM   18  C   UNL     1     -11.850  11.628  68.492  1.00  0.00    -0.357 A  
HETATM   19  C   UNL     1     -10.341  10.324  69.891  1.00  0.00    -0.281 A  
HETATM   20  O   UNL     1     -12.728  10.397  70.335  1.00  0.00    -0.305 OA 
HETATM   21  C   UNL     1     -12.613   9.378  71.261  1.00  0.00    -0.325 C  
HETATM   22  C   UNL     1     -10.171   9.464  71.067  1.00  0.00    -0.299 C  
HETATM   23  C   UNL     1     -10.790  11.964  67.655  1.00  0.00    -0.271 A  
HETATM   24  O   UNL     1     -13.613   8.875  71.769  1.00  0.00    -0.371 OA 
HETATM   25  O   UNL     1      -8.867   9.261  71.448  1.00  0.00    -0.313 OA 
HETATM   26  C   UNL     1      -9.512  11.472  67.922  1.00  0.00    -0.178 A  
HETATM   27  C   UNL     1      -9.288  10.666  69.044  1.00  0.00    -0.191 A  
ENDBRANCH  14  15
ENDBRANCH   4  14
TORSDOF 2
ENDMDL
MODEL      132
REMARK 921   NORMALIZED FREE ENERGY PREDICTED BY IDOCK:   -5.21 KCAL/MOL
REMARK 922        TOTAL FREE ENERGY PREDICTED BY IDOCK:   -6.63 KCAL/MOL
REMARK 923 INTER-LIGAND FREE ENERGY PREDICTED BY IDOCK:   -6.03 KCAL/MOL
REMARK 924 INTRA-LIGAND FREE ENERGY PREDICTED BY IDOCK:   -0.60 KCAL/MOL
REMARK 927      BINDING AFFINITY PREDICTED BY RF-SCORE:    0.00 PKD
ROOT
HETATM    1  O   UNL     1     -10.773  10.664  66.784  1.00  0.00    -0.250 OA 
HETATM    2  C   UNL     1      -9.562  10.751  67.434  1.00  0.00    -0.159 C  
HETATM    3  H   UNL     1     -11.209   9.854  66.549  1.00  0.00     0.000 HD 
HETATM    4  C   UNL     1      -8.945  11.899  67.768  1.00  0.00    -0.173 C  
HETATM    5  C   UNL     1      -9.579   8.232  67.515  1.00  0.00    -0.194 A  
HETATM    6  C   UNL     1      -7.642  11.847  68.481  1.00  0.00    -0.127 C  
HETATM    7  C   UNL     1      -7.548   8.303  69.429  1.00  0.00    -0.096 A  
HETATM    8  O   UNL     1      -7.303  10.660  69.111  1.00  0.00    -0.089 OA 
HETATM    9  O   UNL     1      -6.939  12.851  68.574  1.00  0.00    -0.085 OA 
HETATM   10  C   UNL     1      -7.980   9.469  68.799  1.00  0.00    -0.088 A  
HETATM   11  C   UNL     1      -8.141   7.088  69.091  1.00  0.00    -0.121 A  
HETATM   12  C   UNL     1      -9.136   7.048  68.115  1.00  0.00    -0.128 A  
HETATM   13  C   UNL     1      -9.024   9.464  67.881  1.00  0.00    -0.126 A  
ENDROOT
BRANCH   4  14
HETATM   14  C   UNL     1      -9.510  13.294  67.608  1.00  0.00    -0.211 C  
BRANCH  14  15
HETATM   15  C   UNL     1     -10.305  13.771  68.795  1.00  0.00    -0.198 C  
HETATM   16  C   UNL     1     -11.622  14.951  70.990  1.00  0.00    -0.298 A  
HETATM   17  H   UNL     1     -12.739  11.594  69.201  1.00  0.00     0.000 HD 
HETATM   18  C   UNL     1     -12.167  15.523  72.139  1.00  0.00    -0.488 A  
HETATM   19  C   UNL     1     -11.988  13.683  70.554  1.00  0.00    -0.353 A  
HETATM   20  O   UNL     1     -10.633  15.686  70.321  1.00  0.00    -0.316 OA 
HETATM   21  C   UNL     1      -9.868  15.084  69.340  1.00  0.00    -0.164 C  
HETATM   22  C   UNL     1     -11.380  13.156  69.327  1.00  0.00    -0.253 C  
HETATM   23  C   UNL     1     -13.073  14.788  72.897  1.00  0.00    -0.596 A  
HETATM   24  O   UNL     1      -8.867  15.642  68.896  1.00  0.00    -0.188 OA 
HETATM   25  O   UNL     1     -11.981  12.027  68.826  1.00  0.00    -0.307 OA 
HETATM   26  C   UNL     1     -13.427  13.498  72.498  1.00  0.00    -0.660 A  
HETATM   27  C   UNL     1     -12.895  12.955  71.323  1.00  0.00    -0.361 A  
ENDBRANCH  14  15
ENDBRANCH   4  14
TORSDOF 2
ENDMDL
MODEL      133
REMARK 921   NORMALIZED FREE ENERGY PREDICTED BY IDOCK:   -5.20 KCAL/MOL
REMARK 922        TOTAL FREE ENERGY PREDICTED BY IDOCK:   -6.62 KCAL/MOL
REMARK 923 INTER-LIGAND FREE ENERGY PREDICTED BY IDOCK:   -6.25 KCAL/MOL
REMARK 924 INTRA-LIGAND FREE ENERGY PREDICTED BY IDOCK:   -0.37 KCAL/MOL
REMARK 927      BINDING AFFINITY PREDICTED BY RF-SCORE:    0.00 PKD
ROOT
HETATM    1  O   UNL     1     -10.597  12.746  68.964  1.00  0.00    -0.401 OA 
HETATM    2  C   UNL     1      -9.460  12.610  68.199  1.00  0.00    -0.218 C  
HETATM    3  H   UNL     1     -11.366  12.193  68.901  1.00  0.00     0.000 HD 
HETATM    4  C   UNL     1      -8.370  13.394  68.288  1.00  0.00    -0.160 C  
HETATM    5  C   UNL     1     -10.573  10.608  67.146  1.00  0.00    -0.312 A  
HETATM    6  C   UNL     1      -7.204  13.127  67.406  1.00  0.00    -0.110 C  
HETATM    7  C   UNL     1      -8.108   9.818  66.099  1.00  0.00    -0.109 A  
HETATM    8  O   UNL     1      -7.123  11.877  66.812  1.00  0.00    -0.107 OA 
HETATM    9  O   UNL     1      -6.310  13.961  67.282  1.00  0.00    -0.296 OA 
HETATM   10  C   UNL     1      -8.248  11.038  66.761  1.00  0.00    -0.149 A  
HETATM   11  C   UNL     1      -9.220   8.989  65.958  1.00  0.00    -0.284 A  
HETATM   12  C   UNL     1     -10.457   9.396  66.457  1.00  0.00    -0.199 A  
HETATM   13  C   UNL     1      -9.453  11.428  67.334  1.00  0.00    -0.174 A  
ENDROOT
BRANCH   4  14
HETATM   14  C   UNL     1      -8.135  14.480  69.316  1.00  0.00     0.029 C  
BRANCH  14  15
HETATM   15  C   UNL     1      -8.360  15.875  68.793  1.00  0.00    -0.206 C  
HETATM   16  C   UNL     1      -8.457  18.540  67.880  1.00  0.00    -0.275 A  
HETATM   17  H   UNL     1     -11.300  15.835  67.315  1.00  0.00     0.000 HD 
HETATM   18  C   UNL     1      -8.494  19.893  67.547  1.00  0.00    -0.378 A  
HETATM   19  C   UNL     1      -9.581  17.727  67.787  1.00  0.00    -0.272 A  
HETATM   20  O   UNL     1      -7.246  18.040  68.378  1.00  0.00    -0.235 OA 
HETATM   21  C   UNL     1      -7.202  16.792  68.969  1.00  0.00    -0.225 C  
HETATM   22  C   UNL     1      -9.458  16.309  68.141  1.00  0.00    -0.215 C  
HETATM   23  C   UNL     1      -9.702  20.460  67.149  1.00  0.00    -0.601 A  
HETATM   24  O   UNL     1      -6.209  16.428  69.595  1.00  0.00    -0.193 OA 
HETATM   25  O   UNL     1     -10.527  15.529  67.774  1.00  0.00    -0.261 OA 
HETATM   26  C   UNL     1     -10.851  19.671  67.084  1.00  0.00    -0.526 A  
HETATM   27  C   UNL     1     -10.785  18.307  67.389  1.00  0.00    -0.377 A  
ENDBRANCH  14  15
ENDBRANCH   4  14
TORSDOF 2
ENDMDL
MODEL      134
REMARK 921   NORMALIZED FREE ENERGY PREDICTED BY IDOCK:   -5.18 KCAL/MOL
REMARK 922        TOTAL FREE ENERGY PREDICTED BY IDOCK:   -6.60 KCAL/MOL
REMARK 923 INTER-LIGAND FREE ENERGY PREDICTED BY IDOCK:   -5.76 KCAL/MOL
REMARK 924 INTRA-LIGAND FREE ENERGY PREDICTED BY IDOCK:   -0.84 KCAL/MOL
REMARK 927      BINDING AFFINITY PREDICTED BY RF-SCORE:    0.00 PKD
ROOT
HETATM    1  O   UNL     1      -7.331   8.899  67.681  1.00  0.00    -0.083 OA 
HETATM    2  C   UNL     1      -8.479   8.264  68.099  1.00  0.00    -0.132 C  
HETATM    3  H   UNL     1      -6.697   8.535  67.075  1.00  0.00     0.000 HD 
HETATM    4  C   UNL     1      -9.378   8.779  68.958  1.00  0.00    -0.145 C  
HETATM    5  C   UNL     1      -7.827   6.371  66.569  1.00  0.00    -0.104 A  
HETATM    6  C   UNL     1     -10.584   7.988  69.315  1.00  0.00    -0.184 C  
HETATM    7  C   UNL     1     -10.415   5.343  66.777  1.00  0.00    -0.347 A  
HETATM    8  O   UNL     1     -10.934   6.941  68.478  1.00  0.00    -0.200 OA 
HETATM    9  O   UNL     1     -11.283   8.311  70.273  1.00  0.00    -0.249 OA 
HETATM   10  C   UNL     1     -10.013   6.434  67.547  1.00  0.00    -0.136 A  
HETATM   11  C   UNL     1      -9.505   4.761  65.895  1.00  0.00    -0.171 A  
HETATM   12  C   UNL     1      -8.204   5.256  65.812  1.00  0.00    -0.119 A  
HETATM   13  C   UNL     1      -8.746   6.993  67.423  1.00  0.00    -0.120 A  
ENDROOT
BRANCH   4  14
HETATM   14  C   UNL     1      -9.367  10.183  69.525  1.00  0.00    -0.230 C  
BRANCH  14  15
HETATM   15  C   UNL     1      -9.625  11.258  68.502  1.00  0.00    -0.199 C  
HETATM   16  C   UNL     1      -9.774  13.311  66.577  1.00  0.00    -0.273 A  
HETATM   17  H   UNL     1     -12.774  10.932  67.607  1.00  0.00     0.000 HD 
HETATM   18  C   UNL     1      -9.816  14.406  65.714  1.00  0.00    -0.330 A  
HETATM   19  C   UNL     1     -10.928  12.656  66.993  1.00  0.00    -0.300 A  
HETATM   20  O   UNL     1      -8.516  12.932  67.064  1.00  0.00    -0.192 OA 
HETATM   21  C   UNL     1      -8.419  12.037  68.112  1.00  0.00    -0.171 C  
HETATM   22  C   UNL     1     -10.800  11.502  67.889  1.00  0.00    -0.210 C  
HETATM   23  C   UNL     1     -11.051  14.886  65.289  1.00  0.00    -0.382 A  
HETATM   24  O   UNL     1      -7.348  11.857  68.687  1.00  0.00    -0.105 OA 
HETATM   25  O   UNL     1     -11.946  10.760  68.039  1.00  0.00    -0.537 OA 
HETATM   26  C   UNL     1     -12.224  14.267  65.724  1.00  0.00    -0.415 A  
HETATM   27  C   UNL     1     -12.159  13.148  66.561  1.00  0.00    -0.423 A  
ENDBRANCH  14  15
ENDBRANCH   4  14
TORSDOF 2
ENDMDL
MODEL      135
REMARK 921   NORMALIZED FREE ENERGY PREDICTED BY IDOCK:   -5.18 KCAL/MOL
REMARK 922        TOTAL FREE ENERGY PREDICTED BY IDOCK:   -6.60 KCAL/MOL
REMARK 923 INTER-LIGAND FREE ENERGY PREDICTED BY IDOCK:   -5.88 KCAL/MOL
REMARK 924 INTRA-LIGAND FREE ENERGY PREDICTED BY IDOCK:   -0.72 KCAL/MOL
REMARK 927      BINDING AFFINITY PREDICTED BY RF-SCORE:    0.00 PKD
ROOT
HETATM    1  O   UNL     1     -11.324   9.471  68.311  1.00  0.00    -0.505 OA 
HETATM    2  C   UNL     1     -10.426   9.242  67.293  1.00  0.00    -0.264 C  
HETATM    3  H   UNL     1     -11.828  10.269  68.424  1.00  0.00     0.000 HD 
HETATM    4  C   UNL     1      -9.712   8.113  67.131  1.00  0.00    -0.259 C  
HETATM    5  C   UNL     1     -11.055  11.518  66.409  1.00  0.00    -0.328 A  
HETATM    6  C   UNL     1      -8.784   7.995  65.977  1.00  0.00    -0.157 C  
HETATM    7  C   UNL     1      -9.847  10.881  63.974  1.00  0.00    -0.377 A  
HETATM    8  O   UNL     1      -8.967   8.866  64.915  1.00  0.00    -0.176 OA 
HETATM    9  O   UNL     1      -7.943   7.099  65.940  1.00  0.00    -0.103 OA 
HETATM   10  C   UNL     1      -9.753  10.020  65.068  1.00  0.00    -0.317 A  
HETATM   11  C   UNL     1     -10.553  12.075  64.107  1.00  0.00    -0.398 A  
HETATM   12  C   UNL     1     -11.132  12.406  65.332  1.00  0.00    -0.344 A  
HETATM   13  C   UNL     1     -10.388  10.294  66.274  1.00  0.00    -0.256 A  
ENDROOT
BRANCH   4  14
HETATM   14  C   UNL     1      -9.847   6.848  67.952  1.00  0.00    -0.155 C  
BRANCH  14  15
HETATM   15  C   UNL     1      -9.588   7.043  69.423  1.00  0.00    -0.155 C  
HETATM   16  C   UNL     1      -9.419   7.299  72.224  1.00  0.00    -0.142 A  
HETATM   17  H   UNL     1      -6.346   7.516  69.728  1.00  0.00     0.000 HD 
HETATM   18  C   UNL     1      -9.412   7.522  73.601  1.00  0.00    -0.338 A  
HETATM   19  C   UNL     1      -8.311   7.571  71.429  1.00  0.00    -0.108 A  
HETATM   20  O   UNL     1     -10.618   6.845  71.659  1.00  0.00    -0.209 OA 
HETATM   21  C   UNL     1     -10.783   6.851  70.288  1.00  0.00    -0.242 C  
HETATM   22  C   UNL     1      -8.392   7.295  69.990  1.00  0.00    -0.137 C  
HETATM   23  C   UNL     1      -8.278   8.073  74.192  1.00  0.00    -0.318 A  
HETATM   24  O   UNL     1     -11.890   6.661  69.788  1.00  0.00    -0.299 OA 
HETATM   25  O   UNL     1      -7.189   7.339  69.328  1.00  0.00    -0.077 OA 
HETATM   26  C   UNL     1      -7.169   8.388  73.407  1.00  0.00    -0.116 A  
HETATM   27  C   UNL     1      -7.183   8.124  72.032  1.00  0.00    -0.099 A  
ENDBRANCH  14  15
ENDBRANCH   4  14
TORSDOF 2
ENDMDL
MODEL      136
REMARK 921   NORMALIZED FREE ENERGY PREDICTED BY IDOCK:   -5.18 KCAL/MOL
REMARK 922        TOTAL FREE ENERGY PREDICTED BY IDOCK:   -6.59 KCAL/MOL
REMARK 923 INTER-LIGAND FREE ENERGY PREDICTED BY IDOCK:   -6.01 KCAL/MOL
REMARK 924 INTRA-LIGAND FREE ENERGY PREDICTED BY IDOCK:   -0.59 KCAL/MOL
REMARK 927      BINDING AFFINITY PREDICTED BY RF-SCORE:    0.00 PKD
ROOT
HETATM    1  O   UNL     1      -9.303   9.851  64.456  1.00  0.00    -0.258 OA 
HETATM    2  C   UNL     1     -10.139  10.340  65.435  1.00  0.00    -0.284 C  
HETATM    3  H   UNL     1      -9.325  10.107  63.542  1.00  0.00     0.000 HD 
HETATM    4  C   UNL     1     -10.108   9.978  66.730  1.00  0.00    -0.286 C  
HETATM    5  C   UNL     1     -11.145  11.808  63.649  1.00  0.00    -0.518 A  
HETATM    6  C   UNL     1     -11.064  10.597  67.684  1.00  0.00    -0.319 C  
HETATM    7  C   UNL     1     -12.354  13.355  65.635  1.00  0.00    -0.521 A  
HETATM    8  O   UNL     1     -11.678  11.779  67.302  1.00  0.00    -0.546 OA 
HETATM    9  O   UNL     1     -11.233  10.114  68.802  1.00  0.00    -0.223 OA 
HETATM   10  C   UNL     1     -11.669  12.183  65.957  1.00  0.00    -0.321 A  
HETATM   11  C   UNL     1     -12.435  13.750  64.301  1.00  0.00    -0.308 A  
HETATM   12  C   UNL     1     -11.856  12.963  63.306  1.00  0.00    -0.469 A  
HETATM   13  C   UNL     1     -11.017  11.425  64.990  1.00  0.00    -0.271 A  
ENDROOT
BRANCH   4  14
HETATM   14  C   UNL     1      -9.084   9.071  67.378  1.00  0.00    -0.146 C  
BRANCH  14  15
HETATM   15  C   UNL     1      -8.935   7.734  66.699  1.00  0.00    -0.175 C  
HETATM   16  C   UNL     1      -8.333   5.315  65.385  1.00  0.00    -0.136 A  
HETATM   17  H   UNL     1     -11.682   6.054  67.374  1.00  0.00     0.000 HD 
HETATM   18  C   UNL     1      -8.026   4.184  64.629  1.00  0.00    -0.089 A  
HETATM   19  C   UNL     1      -9.607   5.535  65.897  1.00  0.00    -0.085 A  
HETATM   20  O   UNL     1      -7.315   6.263  65.554  1.00  0.00    -0.075 OA 
HETATM   21  C   UNL     1      -7.611   7.515  66.059  1.00  0.00    -0.088 C  
HETATM   22  C   UNL     1      -9.847   6.742  66.695  1.00  0.00    -0.152 C  
HETATM   23  C   UNL     1      -9.033   3.267  64.343  1.00  0.00    -0.116 A  
HETATM   24  O   UNL     1      -6.781   8.420  66.017  1.00  0.00    -0.059 OA 
HETATM   25  O   UNL     1     -11.040   6.753  67.377  1.00  0.00    -0.328 OA 
HETATM   26  C   UNL     1     -10.327   3.486  64.816  1.00  0.00     0.006 A  
HETATM   27  C   UNL     1     -10.607   4.610  65.602  1.00  0.00    -0.241 A  
ENDBRANCH  14  15
ENDBRANCH   4  14
TORSDOF 2
ENDMDL
MODEL      137
REMARK 921   NORMALIZED FREE ENERGY PREDICTED BY IDOCK:   -5.17 KCAL/MOL
REMARK 922        TOTAL FREE ENERGY PREDICTED BY IDOCK:   -6.59 KCAL/MOL
REMARK 923 INTER-LIGAND FREE ENERGY PREDICTED BY IDOCK:   -5.77 KCAL/MOL
REMARK 924 INTRA-LIGAND FREE ENERGY PREDICTED BY IDOCK:   -0.82 KCAL/MOL
REMARK 927      BINDING AFFINITY PREDICTED BY RF-SCORE:    0.00 PKD
ROOT
HETATM    1  O   UNL     1     -12.289  11.447  68.163  1.00  0.00    -0.502 OA 
HETATM    2  C   UNL     1     -11.411  10.426  68.450  1.00  0.00    -0.227 C  
HETATM    3  H   UNL     1     -13.014  11.714  68.716  1.00  0.00     0.000 HD 
HETATM    4  C   UNL     1     -10.383  10.048  67.668  1.00  0.00    -0.272 C  
HETATM    5  C   UNL     1     -12.668  10.136  70.616  1.00  0.00    -0.334 A  
HETATM    6  C   UNL     1      -9.503   8.934  68.106  1.00  0.00    -0.143 C  
HETATM    7  C   UNL     1     -10.562   8.591  71.604  1.00  0.00    -0.353 A  
HETATM    8  O   UNL     1      -9.526   8.588  69.448  1.00  0.00    -0.160 OA 
HETATM    9  O   UNL     1      -8.726   8.403  67.316  1.00  0.00    -0.125 OA 
HETATM   10  C   UNL     1     -10.573   9.023  70.278  1.00  0.00    -0.217 A  
HETATM   11  C   UNL     1     -11.622   8.936  72.440  1.00  0.00    -0.237 A  
HETATM   12  C   UNL     1     -12.687   9.684  71.940  1.00  0.00    -0.499 A  
HETATM   13  C   UNL     1     -11.586   9.836  69.779  1.00  0.00    -0.081 A  
ENDROOT
BRANCH   4  14
HETATM   14  C   UNL     1      -9.925  10.740  66.402  1.00  0.00    -0.264 C  
BRANCH  14  15
HETATM   15  C   UNL     1      -9.334  12.107  66.633  1.00  0.00    -0.226 C  
HETATM   16  C   UNL     1      -8.526  14.786  66.968  1.00  0.00    -0.222 A  
HETATM   17  H   UNL     1      -6.520  11.623  68.269  1.00  0.00     0.000 HD 
HETATM   18  C   UNL     1      -8.127  16.121  67.010  1.00  0.00    -0.245 A  
HETATM   19  C   UNL     1      -7.663  13.748  67.302  1.00  0.00    -0.095 A  
HETATM   20  O   UNL     1      -9.825  14.524  66.510  1.00  0.00    -0.262 OA 
HETATM   21  C   UNL     1     -10.201  13.233  66.194  1.00  0.00    -0.296 C  
HETATM   22  C   UNL     1      -8.163  12.370  67.247  1.00  0.00    -0.184 C  
HETATM   23  C   UNL     1      -6.813  16.425  67.355  1.00  0.00    -0.201 A  
HETATM   24  O   UNL     1     -11.252  13.014  65.596  1.00  0.00    -0.278 OA 
HETATM   25  O   UNL     1      -7.345  11.438  67.837  1.00  0.00    -0.086 OA 
HETATM   26  C   UNL     1      -5.920  15.396  67.658  1.00  0.00    -0.130 A  
HETATM   27  C   UNL     1      -6.350  14.065  67.644  1.00  0.00    -0.134 A  
ENDBRANCH  14  15
ENDBRANCH   4  14
TORSDOF 2
ENDMDL
MODEL      138
REMARK 921   NORMALIZED FREE ENERGY PREDICTED BY IDOCK:   -5.17 KCAL/MOL
REMARK 922        TOTAL FREE ENERGY PREDICTED BY IDOCK:   -6.59 KCAL/MOL
REMARK 923 INTER-LIGAND FREE ENERGY PREDICTED BY IDOCK:   -5.76 KCAL/MOL
REMARK 924 INTRA-LIGAND FREE ENERGY PREDICTED BY IDOCK:   -0.83 KCAL/MOL
REMARK 927      BINDING AFFINITY PREDICTED BY RF-SCORE:    0.00 PKD
ROOT
HETATM    1  O   UNL     1     -11.039   9.772  69.034  1.00  0.00    -0.357 OA 
HETATM    2  C   UNL     1     -11.954   9.799  70.062  1.00  0.00     0.055 C  
HETATM    3  H   UNL     1     -10.736  10.533  68.553  1.00  0.00     0.000 HD 
HETATM    4  C   UNL     1     -12.384   8.721  70.743  1.00  0.00     0.002 C  
HETATM    5  C   UNL     1     -11.992  12.304  69.780  1.00  0.00    -0.365 A  
HETATM    6  C   UNL     1     -13.368   8.896  71.842  1.00  0.00    -0.405 C  
HETATM    7  C   UNL     1     -13.251  12.540  72.262  1.00  0.00    -0.425 A  
HETATM    8  O   UNL     1     -13.512  10.166  72.378  1.00  0.00    -0.338 OA 
HETATM    9  O   UNL     1     -13.965   7.927  72.308  1.00  0.00    -0.189 OA 
HETATM   10  C   UNL     1     -13.020  11.288  71.691  1.00  0.00    -0.432 A  
HETATM   11  C   UNL     1     -12.847  13.684  71.576  1.00  0.00    -0.445 A  
HETATM   12  C   UNL     1     -12.244  13.568  70.324  1.00  0.00    -0.417 A  
HETATM   13  C   UNL     1     -12.350  11.145  70.481  1.00  0.00    -0.454 A  
ENDROOT
BRANCH   4  14
HETATM   14  C   UNL     1     -11.861   7.307  70.597  1.00  0.00    -0.290 C  
BRANCH  14  15
HETATM   15  C   UNL     1     -10.721   6.978  71.525  1.00  0.00    -0.244 C  
HETATM   16  C   UNL     1      -8.781   6.111  73.376  1.00  0.00    -0.125 A  
HETATM   17  H   UNL     1      -8.142   8.723  70.462  1.00  0.00     0.000 HD 
HETATM   18  C   UNL     1      -7.894   5.727  74.381  1.00  0.00    -0.097 A  
HETATM   19  C   UNL     1      -8.501   7.162  72.509  1.00  0.00    -0.126 A  
HETATM   20  O   UNL     1     -10.005   5.432  73.313  1.00  0.00    -0.163 OA 
HETATM   21  C   UNL     1     -11.029   5.922  72.525  1.00  0.00    -0.264 C  
HETATM   22  C   UNL     1      -9.479   7.497  71.468  1.00  0.00    -0.150 C  
HETATM   23  C   UNL     1      -6.712   6.442  74.552  1.00  0.00    -0.085 A  
HETATM   24  O   UNL     1     -12.167   5.465  72.621  1.00  0.00    -0.115 OA 
HETATM   25  O   UNL     1      -9.018   8.358  70.502  1.00  0.00    -0.140 OA 
HETATM   26  C   UNL     1      -6.429   7.523  73.717  1.00  0.00    -0.077 A  
HETATM   27  C   UNL     1      -7.315   7.872  72.692  1.00  0.00    -0.114 A  
ENDBRANCH  14  15
ENDBRANCH   4  14
TORSDOF 2
ENDMDL
MODEL      139
REMARK 921   NORMALIZED FREE ENERGY PREDICTED BY IDOCK:   -5.17 KCAL/MOL
REMARK 922        TOTAL FREE ENERGY PREDICTED BY IDOCK:   -6.58 KCAL/MOL
REMARK 923 INTER-LIGAND FREE ENERGY PREDICTED BY IDOCK:   -5.96 KCAL/MOL
REMARK 924 INTRA-LIGAND FREE ENERGY PREDICTED BY IDOCK:   -0.62 KCAL/MOL
REMARK 927      BINDING AFFINITY PREDICTED BY RF-SCORE:    0.00 PKD
ROOT
HETATM    1  O   UNL     1     -11.876  10.813  67.731  1.00  0.00    -0.697 OA 
HETATM    2  C   UNL     1     -10.867  11.742  67.616  1.00  0.00    -0.217 C  
HETATM    3  H   UNL     1     -12.726  10.876  67.312  1.00  0.00     0.000 HD 
HETATM    4  C   UNL     1      -9.662  11.653  68.209  1.00  0.00    -0.197 C  
HETATM    5  C   UNL     1     -12.393  13.005  66.057  1.00  0.00    -0.387 A  
HETATM    6  C   UNL     1      -8.658  12.726  67.989  1.00  0.00    -0.186 C  
HETATM    7  C   UNL     1     -10.216  14.526  65.195  1.00  0.00    -0.420 A  
HETATM    8  O   UNL     1      -8.842  13.563  66.900  1.00  0.00    -0.227 OA 
HETATM    9  O   UNL     1      -7.661  12.806  68.703  1.00  0.00    -0.124 OA 
HETATM   10  C   UNL     1     -10.086  13.621  66.248  1.00  0.00    -0.299 A  
HETATM   11  C   UNL     1     -11.454  14.671  64.572  1.00  0.00    -0.340 A  
HETATM   12  C   UNL     1     -12.548  13.932  65.021  1.00  0.00    -0.422 A  
HETATM   13  C   UNL     1     -11.143  12.817  66.660  1.00  0.00    -0.313 A  
ENDROOT
BRANCH   4  14
HETATM   14  C   UNL     1      -9.145  10.473  69.005  1.00  0.00    -0.188 C  
BRANCH  14  15
HETATM   15  C   UNL     1      -9.057   9.195  68.213  1.00  0.00    -0.132 C  
HETATM   16  C   UNL     1      -8.576   6.892  66.662  1.00  0.00    -0.124 A  
HETATM   17  H   UNL     1     -11.713   7.430  69.026  1.00  0.00     0.000 HD 
HETATM   18  C   UNL     1      -8.339   5.826  65.794  1.00  0.00    -0.134 A  
HETATM   19  C   UNL     1      -9.793   7.054  67.314  1.00  0.00    -0.214 A  
HETATM   20  O   UNL     1      -7.551   7.838  66.802  1.00  0.00    -0.094 OA 
HETATM   21  C   UNL     1      -7.803   9.043  67.429  1.00  0.00    -0.100 C  
HETATM   22  C   UNL     1      -9.959   8.193  68.223  1.00  0.00    -0.186 C  
HETATM   23  C   UNL     1      -9.364   4.919  65.539  1.00  0.00    -0.163 A  
HETATM   24  O   UNL     1      -6.987   9.961  67.374  1.00  0.00    -0.082 OA 
HETATM   25  O   UNL     1     -11.077   8.135  69.019  1.00  0.00     0.041 OA 
HETATM   26  C   UNL     1     -10.605   5.084  66.155  1.00  0.00    -0.321 A  
HETATM   27  C   UNL     1     -10.812   6.140  67.049  1.00  0.00    -0.435 A  
ENDBRANCH  14  15
ENDBRANCH   4  14
TORSDOF 2
ENDMDL
MODEL      140
REMARK 921   NORMALIZED FREE ENERGY PREDICTED BY IDOCK:   -5.17 KCAL/MOL
REMARK 922        TOTAL FREE ENERGY PREDICTED BY IDOCK:   -6.58 KCAL/MOL
REMARK 923 INTER-LIGAND FREE ENERGY PREDICTED BY IDOCK:   -6.39 KCAL/MOL
REMARK 924 INTRA-LIGAND FREE ENERGY PREDICTED BY IDOCK:   -0.19 KCAL/MOL
REMARK 927      BINDING AFFINITY PREDICTED BY RF-SCORE:    0.00 PKD
ROOT
HETATM    1  O   UNL     1      -9.071   9.171  70.624  1.00  0.00    -0.216 OA 
HETATM    2  C   UNL     1     -10.345   9.687  70.545  1.00  0.00    -0.295 C  
HETATM    3  H   UNL     1      -8.344   9.425  70.068  1.00  0.00     0.000 HD 
HETATM    4  C   UNL     1     -11.375   9.327  71.332  1.00  0.00    -0.434 C  
HETATM    5  C   UNL     1      -9.479  11.181  68.709  1.00  0.00    -0.173 A  
HETATM    6  C   UNL     1     -12.699   9.977  71.146  1.00  0.00    -0.387 C  
HETATM    7  C   UNL     1     -11.763  12.768  68.954  1.00  0.00    -0.370 A  
HETATM    8  O   UNL     1     -12.732  11.176  70.453  1.00  0.00    -0.250 OA 
HETATM    9  O   UNL     1     -13.707   9.501  71.664  1.00  0.00    -0.357 OA 
HETATM   10  C   UNL     1     -11.638  11.577  69.669  1.00  0.00    -0.333 A  
HETATM   11  C   UNL     1     -10.731  13.163  68.105  1.00  0.00    -0.258 A  
HETATM   12  C   UNL     1      -9.603  12.356  67.961  1.00  0.00    -0.211 A  
HETATM   13  C   UNL     1     -10.488  10.797  69.601  1.00  0.00    -0.183 A  
ENDROOT
BRANCH   4  14
HETATM   14  C   UNL     1     -11.305   8.391  72.520  1.00  0.00    -0.416 C  
BRANCH  14  15
HETATM   15  C   UNL     1     -10.625   7.079  72.225  1.00  0.00    -0.242 C  
HETATM   16  C   UNL     1      -9.225   4.646  71.984  1.00  0.00    -0.132 A  
HETATM   17  H   UNL     1     -12.005   5.933  69.467  1.00  0.00     0.000 HD 
HETATM   18  C   UNL     1      -8.428   3.508  71.859  1.00  0.00    -0.095 A  
HETATM   19  C   UNL     1     -10.048   5.085  70.952  1.00  0.00    -0.302 A  
HETATM   20  O   UNL     1      -9.116   5.372  73.177  1.00  0.00    -0.127 OA 
HETATM   21  C   UNL     1      -9.666   6.635  73.272  1.00  0.00    -0.170 C  
HETATM   22  C   UNL     1     -10.868   6.282  71.166  1.00  0.00    -0.266 C  
HETATM   23  C   UNL     1      -8.422   2.814  70.652  1.00  0.00    -0.092 A  
HETATM   24  O   UNL     1      -9.401   7.365  74.225  1.00  0.00    -0.224 OA 
HETATM   25  O   UNL     1     -11.834   6.494  70.213  1.00  0.00    -0.413 OA 
HETATM   26  C   UNL     1      -9.211   3.259  69.592  1.00  0.00    -0.221 A  
HETATM   27  C   UNL     1     -10.031   4.382  69.748  1.00  0.00    -0.224 A  
ENDBRANCH  14  15
ENDBRANCH   4  14
TORSDOF 2
ENDMDL
MODEL      141
REMARK 921   NORMALIZED FREE ENERGY PREDICTED BY IDOCK:   -5.16 KCAL/MOL
REMARK 922        TOTAL FREE ENERGY PREDICTED BY IDOCK:   -6.57 KCAL/MOL
REMARK 923 INTER-LIGAND FREE ENERGY PREDICTED BY IDOCK:   -6.37 KCAL/MOL
REMARK 924 INTRA-LIGAND FREE ENERGY PREDICTED BY IDOCK:   -0.20 KCAL/MOL
REMARK 927      BINDING AFFINITY PREDICTED BY RF-SCORE:    0.00 PKD
ROOT
HETATM    1  O   UNL     1     -12.146   8.274  70.545  1.00  0.00    -0.492 OA 
HETATM    2  C   UNL     1     -10.792   8.463  70.380  1.00  0.00    -0.235 C  
HETATM    3  H   UNL     1     -12.551   7.856  71.296  1.00  0.00     0.000 HD 
HETATM    4  C   UNL     1     -10.219   9.055  69.317  1.00  0.00    -0.210 C  
HETATM    5  C   UNL     1     -10.506   7.407  72.651  1.00  0.00    -0.303 A  
HETATM    6  C   UNL     1      -8.741   9.205  69.273  1.00  0.00    -0.139 C  
HETATM    7  C   UNL     1      -7.889   8.376  72.745  1.00  0.00    -0.139 A  
HETATM    8  O   UNL     1      -8.049   9.088  70.468  1.00  0.00    -0.117 OA 
HETATM    9  O   UNL     1      -8.173   9.504  68.224  1.00  0.00    -0.111 OA 
HETATM   10  C   UNL     1      -8.663   8.514  71.593  1.00  0.00    -0.199 A  
HETATM   11  C   UNL     1      -8.435   7.742  73.860  1.00  0.00    -0.298 A  
HETATM   12  C   UNL     1      -9.733   7.233  73.803  1.00  0.00    -0.344 A  
HETATM   13  C   UNL     1      -9.985   8.084  71.541  1.00  0.00    -0.225 A  
ENDROOT
BRANCH   4  14
HETATM   14  C   UNL     1     -10.945   9.730  68.172  1.00  0.00    -0.228 C  
BRANCH  14  15
HETATM   15  C   UNL     1     -10.943  11.235  68.250  1.00  0.00    -0.275 C  
HETATM   16  C   UNL     1     -11.101  14.014  68.690  1.00  0.00    -0.264 A  
HETATM   17  H   UNL     1      -8.869  12.270  65.915  1.00  0.00     0.000 HD 
HETATM   18  C   UNL     1     -11.301  15.380  68.884  1.00  0.00    -0.322 A  
HETATM   19  C   UNL     1     -10.431  13.518  67.577  1.00  0.00    -0.237 A  
HETATM   20  O   UNL     1     -11.664  13.148  69.637  1.00  0.00    -0.298 OA 
HETATM   21  C   UNL     1     -11.735  11.792  69.379  1.00  0.00    -0.341 C  
HETATM   22  C   UNL     1     -10.248  12.068  67.452  1.00  0.00    -0.200 C  
HETATM   23  C   UNL     1     -10.854  16.275  67.915  1.00  0.00    -0.330 A  
HETATM   24  O   UNL     1     -12.409  11.052  70.094  1.00  0.00    -0.310 OA 
HETATM   25  O   UNL     1      -9.359  11.683  66.478  1.00  0.00    -0.194 OA 
HETATM   26  C   UNL     1     -10.211  15.796  66.773  1.00  0.00    -0.284 A  
HETATM   27  C   UNL     1      -9.989  14.424  66.613  1.00  0.00    -0.278 A  
ENDBRANCH  14  15
ENDBRANCH   4  14
TORSDOF 2
ENDMDL
MODEL      142
REMARK 921   NORMALIZED FREE ENERGY PREDICTED BY IDOCK:   -5.14 KCAL/MOL
REMARK 922        TOTAL FREE ENERGY PREDICTED BY IDOCK:   -6.55 KCAL/MOL
REMARK 923 INTER-LIGAND FREE ENERGY PREDICTED BY IDOCK:   -6.55 KCAL/MOL
REMARK 924 INTRA-LIGAND FREE ENERGY PREDICTED BY IDOCK:   -0.00 KCAL/MOL
REMARK 927      BINDING AFFINITY PREDICTED BY RF-SCORE:    0.00 PKD
ROOT
HETATM    1  O   UNL     1     -12.727  10.792  70.450  1.00  0.00    -0.327 OA 
HETATM    2  C   UNL     1     -12.280  11.986  69.929  1.00  0.00    -0.179 C  
HETATM    3  H   UNL     1     -13.105  10.681  71.314  1.00  0.00     0.000 HD 
HETATM    4  C   UNL     1     -11.745  12.142  68.704  1.00  0.00    -0.382 C  
HETATM    5  C   UNL     1     -13.048  13.055  72.079  1.00  0.00    -0.481 A  
HETATM    6  C   UNL     1     -11.313  13.494  68.264  1.00  0.00    -0.294 C  
HETATM    7  C   UNL     1     -12.858  15.565  70.871  1.00  0.00    -0.535 A  
HETATM    8  O   UNL     1     -11.819  14.585  68.952  1.00  0.00    -0.310 OA 
HETATM    9  O   UNL     1     -10.601  13.631  67.271  1.00  0.00    -0.264 OA 
HETATM   10  C   UNL     1     -12.422  14.417  70.210  1.00  0.00    -0.354 A  
HETATM   11  C   UNL     1     -13.391  15.450  72.153  1.00  0.00    -0.541 A  
HETATM   12  C   UNL     1     -13.460  14.200  72.768  1.00  0.00    -0.592 A  
HETATM   13  C   UNL     1     -12.554  13.152  70.772  1.00  0.00    -0.338 A  
ENDROOT
BRANCH   4  14
HETATM   14  C   UNL     1     -11.647  11.079  67.631  1.00  0.00    -0.228 C  
BRANCH  14  15
HETATM   15  C   UNL     1     -10.234  10.718  67.255  1.00  0.00    -0.245 C  
HETATM   16  C   UNL     1      -7.664  10.157  66.244  1.00  0.00    -0.110 A  
HETATM   17  H   UNL     1      -8.663  10.107  70.081  1.00  0.00     0.000 HD 
HETATM   18  C   UNL     1      -6.444   9.787  65.679  1.00  0.00    -0.082 A  
HETATM   19  C   UNL     1      -7.951   9.936  67.587  1.00  0.00    -0.109 A  
HETATM   20  O   UNL     1      -8.622  10.709  65.384  1.00  0.00    -0.177 OA 
HETATM   21  C   UNL     1      -9.930  10.856  65.806  1.00  0.00    -0.247 C  
HETATM   22  C   UNL     1      -9.252  10.367  68.109  1.00  0.00    -0.145 C  
HETATM   23  C   UNL     1      -5.500   9.138  66.471  1.00  0.00    -0.042 A  
HETATM   24  O   UNL     1     -10.820  11.135  65.006  1.00  0.00    -0.261 OA 
HETATM   25  O   UNL     1      -9.354  10.355  69.479  1.00  0.00    -0.198 OA 
HETATM   26  C   UNL     1      -5.782   8.873  67.811  1.00  0.00    -0.039 A  
HETATM   27  C   UNL     1      -6.999   9.283  68.368  1.00  0.00    -0.067 A  
ENDBRANCH  14  15
ENDBRANCH   4  14
TORSDOF 2
ENDMDL
MODEL      143
REMARK 921   NORMALIZED FREE ENERGY PREDICTED BY IDOCK:   -5.11 KCAL/MOL
REMARK 922        TOTAL FREE ENERGY PREDICTED BY IDOCK:   -6.52 KCAL/MOL
REMARK 923 INTER-LIGAND FREE ENERGY PREDICTED BY IDOCK:   -5.95 KCAL/MOL
REMARK 924 INTRA-LIGAND FREE ENERGY PREDICTED BY IDOCK:   -0.57 KCAL/MOL
REMARK 927      BINDING AFFINITY PREDICTED BY RF-SCORE:    0.00 PKD
ROOT
HETATM    1  O   UNL     1      -9.976  16.193  65.504  1.00  0.00    -0.450 OA 
HETATM    2  C   UNL     1      -9.668  16.501  66.810  1.00  0.00    -0.258 C  
HETATM    3  H   UNL     1      -9.476  16.472  64.746  1.00  0.00     0.000 HD 
HETATM    4  C   UNL     1     -10.376  16.107  67.885  1.00  0.00    -0.277 C  
HETATM    5  C   UNL     1      -7.641  17.697  65.908  1.00  0.00    -0.160 A  
HETATM    6  C   UNL     1      -9.922  16.501  69.243  1.00  0.00    -0.244 C  
HETATM    7  C   UNL     1      -6.556  17.749  68.480  1.00  0.00    -0.213 A  
HETATM    8  O   UNL     1      -8.608  16.919  69.384  1.00  0.00    -0.011 OA 
HETATM    9  O   UNL     1     -10.668  16.378  70.212  1.00  0.00    -0.264 OA 
HETATM   10  C   UNL     1      -7.852  17.285  68.258  1.00  0.00    -0.244 A  
HETATM   11  C   UNL     1      -5.799  18.195  67.398  1.00  0.00    -0.151 A  
HETATM   12  C   UNL     1      -6.351  18.195  66.117  1.00  0.00    -0.260 A  
HETATM   13  C   UNL     1      -8.394  17.203  66.981  1.00  0.00    -0.232 A  
ENDROOT
BRANCH   4  14
HETATM   14  C   UNL     1     -11.557  15.159  67.875  1.00  0.00    -0.326 C  
BRANCH  14  15
HETATM   15  C   UNL     1     -11.239  13.781  68.395  1.00  0.00    -0.300 C  
HETATM   16  C   UNL     1     -10.913  11.239  69.565  1.00  0.00    -0.191 A  
HETATM   17  H   UNL     1      -9.006  12.519  66.333  1.00  0.00     0.000 HD 
HETATM   18  C   UNL     1     -10.716  10.039  70.249  1.00  0.00    -0.367 A  
HETATM   19  C   UNL     1     -10.066  11.652  68.543  1.00  0.00    -0.210 A  
HETATM   20  O   UNL     1     -11.971  12.050  69.997  1.00  0.00    -0.326 OA 
HETATM   21  C   UNL     1     -12.070  13.355  69.552  1.00  0.00    -0.278 C  
HETATM   22  C   UNL     1     -10.349  12.921  67.863  1.00  0.00    -0.231 C  
HETATM   23  C   UNL     1      -9.615   9.250  69.928  1.00  0.00    -0.217 A  
HETATM   24  O   UNL     1     -12.858  14.138  70.077  1.00  0.00    -0.223 OA 
HETATM   25  O   UNL     1      -9.634  13.125  66.708  1.00  0.00    -0.236 OA 
HETATM   26  C   UNL     1      -8.731   9.664  68.931  1.00  0.00    -0.132 A  
HETATM   27  C   UNL     1      -8.966  10.854  68.233  1.00  0.00    -0.150 A  
ENDBRANCH  14  15
ENDBRANCH   4  14
TORSDOF 2
ENDMDL
MODEL      144
REMARK 921   NORMALIZED FREE ENERGY PREDICTED BY IDOCK:   -5.10 KCAL/MOL
REMARK 922        TOTAL FREE ENERGY PREDICTED BY IDOCK:   -6.51 KCAL/MOL
REMARK 923 INTER-LIGAND FREE ENERGY PREDICTED BY IDOCK:   -6.05 KCAL/MOL
REMARK 924 INTRA-LIGAND FREE ENERGY PREDICTED BY IDOCK:   -0.46 KCAL/MOL
REMARK 927      BINDING AFFINITY PREDICTED BY RF-SCORE:    0.00 PKD
ROOT
HETATM    1  O   UNL     1     -10.060   9.710  64.920  1.00  0.00    -0.363 OA 
HETATM    2  C   UNL     1     -10.071  10.890  65.631  1.00  0.00    -0.261 C  
HETATM    3  H   UNL     1     -10.582   9.536  64.146  1.00  0.00     0.000 HD 
HETATM    4  C   UNL     1      -9.332  11.137  66.728  1.00  0.00    -0.193 C  
HETATM    5  C   UNL     1     -11.709  11.749  63.919  1.00  0.00    -0.461 A  
HETATM    6  C   UNL     1      -9.431  12.462  67.392  1.00  0.00    -0.186 C  
HETATM    7  C   UNL     1     -11.261  14.350  64.831  1.00  0.00    -0.392 A  
HETATM    8  O   UNL     1      -9.970  13.508  66.659  1.00  0.00    -0.267 OA 
HETATM    9  O   UNL     1      -8.974  12.632  68.520  1.00  0.00    -0.150 OA 
HETATM   10  C   UNL     1     -10.700  13.254  65.487  1.00  0.00    -0.289 A  
HETATM   11  C   UNL     1     -12.057  14.136  63.707  1.00  0.00    -0.192 A  
HETATM   12  C   UNL     1     -12.304  12.835  63.269  1.00  0.00    -0.437 A  
HETATM   13  C   UNL     1     -10.869  11.955  65.021  1.00  0.00    -0.351 A  
ENDROOT
BRANCH   4  14
HETATM   14  C   UNL     1      -8.270  10.229  67.311  1.00  0.00    -0.121 C  
BRANCH  14  15
HETATM   15  C   UNL     1      -8.767   9.346  68.427  1.00  0.00    -0.124 C  
HETATM   16  C   UNL     1      -9.521   7.894  70.721  1.00  0.00    -0.158 A  
HETATM   17  H   UNL     1     -11.153   7.488  67.131  1.00  0.00     0.000 HD 
HETATM   18  C   UNL     1      -9.778   7.134  71.862  1.00  0.00    -0.169 A  
HETATM   19  C   UNL     1     -10.032   7.548  69.475  1.00  0.00    -0.180 A  
HETATM   20  O   UNL     1      -8.668   8.996  70.870  1.00  0.00    -0.195 OA 
HETATM   21  C   UNL     1      -8.162   9.635  69.754  1.00  0.00    -0.161 C  
HETATM   22  C   UNL     1      -9.729   8.408  68.326  1.00  0.00    -0.155 C  
HETATM   23  C   UNL     1     -10.532   5.970  71.744  1.00  0.00    -0.268 A  
HETATM   24  O   UNL     1      -7.255  10.459  69.861  1.00  0.00    -0.142 OA 
HETATM   25  O   UNL     1     -10.476   8.150  67.202  1.00  0.00    -0.295 OA 
HETATM   26  C   UNL     1     -11.023   5.584  70.496  1.00  0.00    -0.196 A  
HETATM   27  C   UNL     1     -10.784   6.379  69.370  1.00  0.00    -0.347 A  
ENDBRANCH  14  15
ENDBRANCH   4  14
TORSDOF 2
ENDMDL
MODEL      145
REMARK 921   NORMALIZED FREE ENERGY PREDICTED BY IDOCK:   -5.06 KCAL/MOL
REMARK 922        TOTAL FREE ENERGY PREDICTED BY IDOCK:   -6.46 KCAL/MOL
REMARK 923 INTER-LIGAND FREE ENERGY PREDICTED BY IDOCK:   -5.85 KCAL/MOL
REMARK 924 INTRA-LIGAND FREE ENERGY PREDICTED BY IDOCK:   -0.62 KCAL/MOL
REMARK 927      BINDING AFFINITY PREDICTED BY RF-SCORE:    0.00 PKD
ROOT
HETATM    1  O   UNL     1     -11.561  10.277  67.709  1.00  0.00    -0.651 OA 
HETATM    2  C   UNL     1     -11.947  10.912  68.869  1.00  0.00    -0.206 C  
HETATM    3  H   UNL     1     -11.381  10.711  66.884  1.00  0.00     0.000 HD 
HETATM    4  C   UNL     1     -12.202  10.297  70.038  1.00  0.00    -0.191 C  
HETATM    5  C   UNL     1     -11.739  13.075  67.592  1.00  0.00    -0.415 A  
HETATM    6  C   UNL     1     -12.599  11.108  71.218  1.00  0.00    -0.398 C  
HETATM    7  C   UNL     1     -11.795  14.477  70.006  1.00  0.00    -0.372 A  
HETATM    8  O   UNL     1     -12.322  12.465  71.186  1.00  0.00    -0.306 OA 
HETATM    9  O   UNL     1     -13.079  10.570  72.214  1.00  0.00    -0.394 OA 
HETATM   10  C   UNL     1     -12.007  13.099  69.973  1.00  0.00    -0.321 A  
HETATM   11  C   UNL     1     -11.556  15.158  68.813  1.00  0.00    -0.369 A  
HETATM   12  C   UNL     1     -11.556  14.462  67.605  1.00  0.00    -0.396 A  
HETATM   13  C   UNL     1     -11.934  12.374  68.789  1.00  0.00    -0.276 A  
ENDROOT
BRANCH   4  14
HETATM   14  C   UNL     1     -11.998   8.826  70.335  1.00  0.00     0.129 C  
BRANCH  14  15
HETATM   15  C   UNL     1     -10.591   8.344  70.097  1.00  0.00    -0.235 C  
HETATM   16  C   UNL     1      -7.911   7.480  69.982  1.00  0.00    -0.112 A  
HETATM   17  H   UNL     1     -10.542   7.139  67.036  1.00  0.00     0.000 HD 
HETATM   18  C   UNL     1      -6.552   7.170  69.947  1.00  0.00    -0.044 A  
HETATM   19  C   UNL     1      -8.697   7.478  68.835  1.00  0.00    -0.132 A  
HETATM   20  O   UNL     1      -8.445   7.860  71.221  1.00  0.00    -0.111 OA 
HETATM   21  C   UNL     1      -9.703   8.428  71.288  1.00  0.00    -0.189 C  
HETATM   22  C   UNL     1     -10.122   7.801  68.956  1.00  0.00    -0.196 C  
HETATM   23  C   UNL     1      -5.952   6.890  68.723  1.00  0.00    -0.026 A  
HETATM   24  O   UNL     1     -10.098   8.957  72.324  1.00  0.00    -0.294 OA 
HETATM   25  O   UNL     1     -10.872   7.522  67.840  1.00  0.00    -0.163 OA 
HETATM   26  C   UNL     1      -6.714   6.919  67.554  1.00  0.00    -0.067 A  
HETATM   27  C   UNL     1      -8.084   7.198  67.615  1.00  0.00    -0.114 A  
ENDBRANCH  14  15
ENDBRANCH   4  14
TORSDOF 2
ENDMDL
MODEL      146
REMARK 921   NORMALIZED FREE ENERGY PREDICTED BY IDOCK:   -5.04 KCAL/MOL
REMARK 922        TOTAL FREE ENERGY PREDICTED BY IDOCK:   -6.44 KCAL/MOL
REMARK 923 INTER-LIGAND FREE ENERGY PREDICTED BY IDOCK:   -5.79 KCAL/MOL
REMARK 924 INTRA-LIGAND FREE ENERGY PREDICTED BY IDOCK:   -0.65 KCAL/MOL
REMARK 927      BINDING AFFINITY PREDICTED BY RF-SCORE:    0.00 PKD
ROOT
HETATM    1  O   UNL     1      -9.921   7.756  66.655  1.00  0.00    -0.268 OA 
HETATM    2  C   UNL     1      -9.209   8.063  67.793  1.00  0.00    -0.134 C  
HETATM    3  H   UNL     1     -10.578   7.073  66.591  1.00  0.00     0.000 HD 
HETATM    4  C   UNL     1      -8.278   9.031  67.884  1.00  0.00    -0.110 C  
HETATM    5  C   UNL     1     -10.551   6.272  68.953  1.00  0.00    -0.321 A  
HETATM    6  C   UNL     1      -7.592   9.264  69.182  1.00  0.00    -0.073 C  
HETATM    7  C   UNL     1      -9.717   7.278  71.420  1.00  0.00    -0.170 A  
HETATM    8  O   UNL     1      -8.192   8.758  70.324  1.00  0.00    -0.100 OA 
HETATM    9  O   UNL     1      -6.576   9.953  69.237  1.00  0.00    -0.047 OA 
HETATM   10  C   UNL     1      -9.199   7.783  70.228  1.00  0.00    -0.156 A  
HETATM   11  C   UNL     1     -10.662   6.255  71.371  1.00  0.00    -0.297 A  
HETATM   12  C   UNL     1     -11.058   5.733  70.140  1.00  0.00    -0.323 A  
HETATM   13  C   UNL     1      -9.636   7.332  68.988  1.00  0.00    -0.147 A  
ENDROOT
BRANCH   4  14
HETATM   14  C   UNL     1      -7.928  10.036  66.807  1.00  0.00    -0.114 C  
BRANCH  14  15
HETATM   15  C   UNL     1      -9.105  10.834  66.311  1.00  0.00    -0.192 C  
HETATM   16  C   UNL     1     -11.310  12.120  65.117  1.00  0.00    -0.327 A  
HETATM   17  H   UNL     1     -10.064  12.717  68.833  1.00  0.00     0.000 HD 
HETATM   18  C   UNL     1     -12.322  12.801  64.441  1.00  0.00    -0.498 A  
HETATM   19  C   UNL     1     -10.849  12.534  66.362  1.00  0.00    -0.290 A  
HETATM   20  O   UNL     1     -10.725  11.031  64.457  1.00  0.00    -0.341 OA 
HETATM   21  C   UNL     1      -9.556  10.475  64.940  1.00  0.00    -0.277 C  
HETATM   22  C   UNL     1      -9.791  11.756  67.015  1.00  0.00    -0.197 C  
HETATM   23  C   UNL     1     -12.859  13.953  65.008  1.00  0.00    -0.309 A  
HETATM   24  O   UNL     1      -8.921   9.667  64.266  1.00  0.00    -0.220 OA 
HETATM   25  O   UNL     1      -9.581  12.068  68.336  1.00  0.00    -0.204 OA 
HETATM   26  C   UNL     1     -12.386  14.406  66.240  1.00  0.00    -0.325 A  
HETATM   27  C   UNL     1     -11.393  13.690  66.918  1.00  0.00    -0.345 A  
ENDBRANCH  14  15
ENDBRANCH   4  14
TORSDOF 2
ENDMDL
MODEL      147
REMARK 921   NORMALIZED FREE ENERGY PREDICTED BY IDOCK:   -5.03 KCAL/MOL
REMARK 922        TOTAL FREE ENERGY PREDICTED BY IDOCK:   -6.43 KCAL/MOL
REMARK 923 INTER-LIGAND FREE ENERGY PREDICTED BY IDOCK:   -5.73 KCAL/MOL
REMARK 924 INTRA-LIGAND FREE ENERGY PREDICTED BY IDOCK:   -0.70 KCAL/MOL
REMARK 927      BINDING AFFINITY PREDICTED BY RF-SCORE:    0.00 PKD
ROOT
HETATM    1  O   UNL     1      -9.828  13.758  65.240  1.00  0.00    -0.530 OA 
HETATM    2  C   UNL     1     -10.564  13.462  66.365  1.00  0.00    -0.285 C  
HETATM    3  H   UNL     1      -9.568  14.631  64.973  1.00  0.00     0.000 HD 
HETATM    4  C   UNL     1     -10.934  12.225  66.744  1.00  0.00    -0.321 C  
HETATM    5  C   UNL     1     -10.519  15.929  66.878  1.00  0.00    -0.309 A  
HETATM    6  C   UNL     1     -11.719  12.047  67.993  1.00  0.00    -0.331 C  
HETATM    7  C   UNL     1     -11.350  15.379  69.486  1.00  0.00    -0.308 A  
HETATM    8  O   UNL     1     -11.710  13.087  68.909  1.00  0.00    -0.289 OA 
HETATM    9  O   UNL     1     -12.282  10.981  68.231  1.00  0.00    -0.582 OA 
HETATM   10  C   UNL     1     -11.278  14.368  68.528  1.00  0.00    -0.265 A  
HETATM   11  C   UNL     1     -11.003  16.681  69.128  1.00  0.00    -0.276 A  
HETATM   12  C   UNL     1     -10.615  16.961  67.818  1.00  0.00    -0.340 A  
HETATM   13  C   UNL     1     -10.819  14.610  67.238  1.00  0.00    -0.305 A  
ENDROOT
BRANCH   4  14
HETATM   14  C   UNL     1     -10.515  10.928  66.084  1.00  0.00    -0.290 C  
BRANCH  14  15
HETATM   15  C   UNL     1      -9.411  10.203  66.809  1.00  0.00    -0.190 C  
HETATM   16  C   UNL     1      -7.535   8.571  68.135  1.00  0.00    -0.097 A  
HETATM   17  H   UNL     1      -6.840  12.256  66.849  1.00  0.00     0.000 HD 
HETATM   18  C   UNL     1      -6.686   7.759  68.886  1.00  0.00    -0.050 A  
HETATM   19  C   UNL     1      -7.247   9.908  67.888  1.00  0.00    -0.087 A  
HETATM   20  O   UNL     1      -8.733   7.996  67.687  1.00  0.00    -0.126 OA 
HETATM   21  C   UNL     1      -9.733   8.796  67.169  1.00  0.00    -0.191 C  
HETATM   22  C   UNL     1      -8.184  10.692  67.075  1.00  0.00    -0.124 C  
HETATM   23  C   UNL     1      -5.536   8.313  69.443  1.00  0.00    -0.030 A  
HETATM   24  O   UNL     1     -10.859   8.344  66.972  1.00  0.00    -0.224 OA 
HETATM   25  O   UNL     1      -7.704  11.911  66.661  1.00  0.00    -0.099 OA 
HETATM   26  C   UNL     1      -5.247   9.663  69.238  1.00  0.00    -0.036 A  
HETATM   27  C   UNL     1      -6.094  10.452  68.452  1.00  0.00    -0.044 A  
ENDBRANCH  14  15
ENDBRANCH   4  14
TORSDOF 2
ENDMDL
MODEL      148
REMARK 921   NORMALIZED FREE ENERGY PREDICTED BY IDOCK:   -4.98 KCAL/MOL
REMARK 922        TOTAL FREE ENERGY PREDICTED BY IDOCK:   -6.37 KCAL/MOL
REMARK 923 INTER-LIGAND FREE ENERGY PREDICTED BY IDOCK:   -5.53 KCAL/MOL
REMARK 924 INTRA-LIGAND FREE ENERGY PREDICTED BY IDOCK:   -0.84 KCAL/MOL
REMARK 927      BINDING AFFINITY PREDICTED BY RF-SCORE:    0.00 PKD
ROOT
HETATM    1  O   UNL     1     -10.074  13.557  64.895  1.00  0.00    -0.528 OA 
HETATM    2  C   UNL     1     -10.375  13.978  66.171  1.00  0.00    -0.297 C  
HETATM    3  H   UNL     1      -9.479  14.000  64.301  1.00  0.00     0.000 HD 
HETATM    4  C   UNL     1     -11.218  13.352  67.013  1.00  0.00    -0.328 C  
HETATM    5  C   UNL     1      -8.743  15.861  65.789  1.00  0.00     0.190 A  
HETATM    6  C   UNL     1     -11.443  13.910  68.371  1.00  0.00    -0.311 C  
HETATM    7  C   UNL     1      -8.721  16.367  68.535  1.00  0.00    -0.223 A  
HETATM    8  O   UNL     1     -10.508  14.811  68.857  1.00  0.00    -0.235 OA 
HETATM    9  O   UNL     1     -12.381  13.517  69.062  1.00  0.00    -0.252 OA 
HETATM   10  C   UNL     1      -9.595  15.429  67.986  1.00  0.00    -0.206 A  
HETATM   11  C   UNL     1      -7.851  17.059  67.694  1.00  0.00    -0.183 A  
HETATM   12  C   UNL     1      -7.882  16.827  66.320  1.00  0.00    -0.334 A  
HETATM   13  C   UNL     1      -9.588  15.125  66.630  1.00  0.00    -0.272 A  
ENDROOT
BRANCH   4  14
HETATM   14  C   UNL     1     -11.892  12.018  66.771  1.00  0.00    -0.244 C  
BRANCH  14  15
HETATM   15  C   UNL     1     -10.992  10.830  66.991  1.00  0.00    -0.292 C  
HETATM   16  C   UNL     1      -9.224   8.637  67.078  1.00  0.00    -0.151 A  
HETATM   17  H   UNL     1     -10.829  10.395  70.248  1.00  0.00     0.000 HD 
HETATM   18  C   UNL     1      -8.432   7.489  67.053  1.00  0.00    -0.122 A  
HETATM   19  C   UNL     1      -9.869   9.062  68.234  1.00  0.00    -0.186 A  
HETATM   20  O   UNL     1      -9.397   9.317  65.865  1.00  0.00    -0.198 OA 
HETATM   21  C   UNL     1     -10.364  10.297  65.752  1.00  0.00    -0.165 C  
HETATM   22  C   UNL     1     -10.673  10.288  68.183  1.00  0.00    -0.246 C  
HETATM   23  C   UNL     1      -8.317   6.721  68.208  1.00  0.00    -0.118 A  
HETATM   24  O   UNL     1     -10.673  10.751  64.652  1.00  0.00    -0.284 OA 
HETATM   25  O   UNL     1     -11.054  10.777  69.409  1.00  0.00    -0.229 OA 
HETATM   26  C   UNL     1      -8.986   7.109  69.369  1.00  0.00    -0.136 A  
HETATM   27  C   UNL     1      -9.748   8.283  69.383  1.00  0.00    -0.177 A  
ENDBRANCH  14  15
ENDBRANCH   4  14
TORSDOF 2
ENDMDL
MODEL      149
REMARK 921   NORMALIZED FREE ENERGY PREDICTED BY IDOCK:   -4.96 KCAL/MOL
REMARK 922        TOTAL FREE ENERGY PREDICTED BY IDOCK:   -6.35 KCAL/MOL
REMARK 923 INTER-LIGAND FREE ENERGY PREDICTED BY IDOCK:   -6.43 KCAL/MOL
REMARK 924 INTRA-LIGAND FREE ENERGY PREDICTED BY IDOCK:    0.08 KCAL/MOL
REMARK 927      BINDING AFFINITY PREDICTED BY RF-SCORE:    0.00 PKD
ROOT
HETATM    1  O   UNL     1     -11.443  10.793  67.873  1.00  0.00    -0.421 OA 
HETATM    2  C   UNL     1     -10.631  10.174  66.949  1.00  0.00    -0.200 C  
HETATM    3  H   UNL     1     -11.578  10.495  68.765  1.00  0.00     0.000 HD 
HETATM    4  C   UNL     1     -10.439  10.595  65.685  1.00  0.00    -0.235 C  
HETATM    5  C   UNL     1     -10.046   8.528  68.766  1.00  0.00    -0.210 A  
HETATM    6  C   UNL     1      -9.523   9.836  64.795  1.00  0.00    -0.251 C  
HETATM    7  C   UNL     1      -7.875   7.654  67.243  1.00  0.00    -0.117 A  
HETATM    8  O   UNL     1      -8.619   8.972  65.391  1.00  0.00    -0.155 OA 
HETATM    9  O   UNL     1      -9.520  10.039  63.582  1.00  0.00    -0.282 OA 
HETATM   10  C   UNL     1      -8.791   8.570  66.726  1.00  0.00    -0.139 A  
HETATM   11  C   UNL     1      -8.054   7.171  68.538  1.00  0.00    -0.125 A  
HETATM   12  C   UNL     1      -9.154   7.586  69.288  1.00  0.00    -0.138 A  
HETATM   13  C   UNL     1      -9.850   9.057  67.484  1.00  0.00    -0.230 A  
ENDROOT
BRANCH   4  14
HETATM   14  C   UNL     1     -10.969  11.878  65.082  1.00  0.00    -0.365 C  
BRANCH  14  15
HETATM   15  C   UNL     1     -10.866  13.071  65.996  1.00  0.00    -0.290 C  
HETATM   16  C   UNL     1     -11.006  15.330  67.675  1.00  0.00    -0.311 A  
HETATM   17  H   UNL     1      -7.826  12.999  67.255  1.00  0.00     0.000 HD 
HETATM   18  C   UNL     1     -11.100  16.515  68.405  1.00  0.00    -0.333 A  
HETATM   19  C   UNL     1      -9.790  14.690  67.464  1.00  0.00    -0.218 A  
HETATM   20  O   UNL     1     -12.188  14.839  67.104  1.00  0.00    -0.235 OA 
HETATM   21  C   UNL     1     -12.134  13.830  66.162  1.00  0.00    -0.441 C  
HETATM   22  C   UNL     1      -9.776  13.439  66.699  1.00  0.00    -0.275 C  
HETATM   23  C   UNL     1      -9.938  17.099  68.902  1.00  0.00    -0.304 A  
HETATM   24  O   UNL     1     -13.128  13.536  65.500  1.00  0.00    -0.585 OA 
HETATM   25  O   UNL     1      -8.594  12.740  66.760  1.00  0.00    -0.174 OA 
HETATM   26  C   UNL     1      -8.703  16.492  68.670  1.00  0.00    -0.244 A  
HETATM   27  C   UNL     1      -8.633  15.285  67.965  1.00  0.00    -0.152 A  
ENDBRANCH  14  15
ENDBRANCH   4  14
TORSDOF 2
ENDMDL
MODEL      150
REMARK 921   NORMALIZED FREE ENERGY PREDICTED BY IDOCK:   -4.95 KCAL/MOL
REMARK 922        TOTAL FREE ENERGY PREDICTED BY IDOCK:   -6.34 KCAL/MOL
REMARK 923 INTER-LIGAND FREE ENERGY PREDICTED BY IDOCK:   -6.85 KCAL/MOL
REMARK 924 INTRA-LIGAND FREE ENERGY PREDICTED BY IDOCK:    0.51 KCAL/MOL
REMARK 927      BINDING AFFINITY PREDICTED BY RF-SCORE:    0.00 PKD
ROOT
HETATM    1  O   UNL     1     -13.185   9.916  70.461  1.00  0.00    -0.601 OA 
HETATM    2  C   UNL     1     -11.812   9.883  70.562  1.00  0.00    -0.270 C  
HETATM    3  H   UNL     1     -13.673  10.420  69.819  1.00  0.00     0.000 HD 
HETATM    4  C   UNL     1     -11.121   9.170  71.470  1.00  0.00    -0.436 C  
HETATM    5  C   UNL     1     -11.764  11.407  68.555  1.00  0.00    -0.386 A  
HETATM    6  C   UNL     1      -9.636   9.217  71.458  1.00  0.00    -0.208 C  
HETATM    7  C   UNL     1      -9.050  10.841  68.220  1.00  0.00    -0.157 A  
HETATM    8  O   UNL     1      -9.018   9.667  70.303  1.00  0.00    -0.231 OA 
HETATM    9  O   UNL     1      -8.990   8.790  72.413  1.00  0.00    -0.379 OA 
HETATM   10  C   UNL     1      -9.749  10.369  69.330  1.00  0.00    -0.200 A  
HETATM   11  C   UNL     1      -9.722  11.609  67.270  1.00  0.00    -0.192 A  
HETATM   12  C   UNL     1     -11.070  11.915  67.451  1.00  0.00    -0.336 A  
HETATM   13  C   UNL     1     -11.111  10.596  69.491  1.00  0.00    -0.328 A  
ENDROOT
BRANCH   4  14
HETATM   14  C   UNL     1     -11.704   8.185  72.461  1.00  0.00    -0.457 C  
BRANCH  14  15
HETATM   15  C   UNL     1     -11.144   6.791  72.337  1.00  0.00    -0.292 C  
HETATM   16  C   UNL     1     -10.151   4.215  71.776  1.00  0.00    -0.142 A  
HETATM   17  H   UNL     1      -9.763   6.099  75.242  1.00  0.00     0.000 HD 
HETATM   18  C   UNL     1      -9.777   2.905  71.474  1.00  0.00    -0.224 A  
HETATM   19  C   UNL     1     -10.119   4.709  73.075  1.00  0.00    -0.207 A  
HETATM   20  O   UNL     1     -10.626   5.001  70.717  1.00  0.00    -0.193 OA 
HETATM   21  C   UNL     1     -11.254   6.204  70.975  1.00  0.00    -0.296 C  
HETATM   22  C   UNL     1     -10.515   6.102  73.309  1.00  0.00    -0.243 C  
HETATM   23  C   UNL     1      -9.400   2.053  72.508  1.00  0.00    -0.129 A  
HETATM   24  O   UNL     1     -11.860   6.799  70.087  1.00  0.00    -0.349 OA 
HETATM   25  O   UNL     1     -10.207   6.585  74.558  1.00  0.00    -0.358 OA 
HETATM   26  C   UNL     1      -9.396   2.518  73.824  1.00  0.00    -0.096 A  
HETATM   27  C   UNL     1      -9.742   3.845  74.102  1.00  0.00    -0.141 A  
ENDBRANCH  14  15
ENDBRANCH   4  14
TORSDOF 2
ENDMDL
MODEL      151
REMARK 921   NORMALIZED FREE ENERGY PREDICTED BY IDOCK:   -4.94 KCAL/MOL
REMARK 922        TOTAL FREE ENERGY PREDICTED BY IDOCK:   -6.33 KCAL/MOL
REMARK 923 INTER-LIGAND FREE ENERGY PREDICTED BY IDOCK:   -5.47 KCAL/MOL
REMARK 924 INTRA-LIGAND FREE ENERGY PREDICTED BY IDOCK:   -0.85 KCAL/MOL
REMARK 927      BINDING AFFINITY PREDICTED BY RF-SCORE:    0.00 PKD
ROOT
HETATM    1  O   UNL     1      -7.075   9.166  69.179  1.00  0.00    -0.061 OA 
HETATM    2  C   UNL     1      -7.442   8.087  68.407  1.00  0.00    -0.103 C  
HETATM    3  H   UNL     1      -6.715   9.979  68.844  1.00  0.00     0.000 HD 
HETATM    4  C   UNL     1      -7.951   6.935  68.881  1.00  0.00    -0.116 C  
HETATM    5  C   UNL     1      -6.789   9.470  66.404  1.00  0.00    -0.083 A  
HETATM    6  C   UNL     1      -8.317   5.852  67.931  1.00  0.00    -0.111 C  
HETATM    7  C   UNL     1      -8.149   7.677  64.751  1.00  0.00    -0.121 A  
HETATM    8  O   UNL     1      -8.484   6.197  66.600  1.00  0.00    -0.113 OA 
HETATM    9  O   UNL     1      -8.541   4.714  68.337  1.00  0.00    -0.096 OA 
HETATM   10  C   UNL     1      -7.995   7.421  66.114  1.00  0.00    -0.112 A  
HETATM   11  C   UNL     1      -7.610   8.845  64.214  1.00  0.00    -0.115 A  
HETATM   12  C   UNL     1      -6.907   9.727  65.034  1.00  0.00    -0.115 A  
HETATM   13  C   UNL     1      -7.366   8.324  66.964  1.00  0.00    -0.084 A  
ENDROOT
BRANCH   4  14
HETATM   14  C   UNL     1      -8.332   6.654  70.319  1.00  0.00    -0.134 C  
BRANCH  14  15
HETATM   15  C   UNL     1      -9.616   7.311  70.752  1.00  0.00    -0.171 C  
HETATM   16  C   UNL     1     -11.832   8.810  71.638  1.00  0.00    -0.330 A  
HETATM   17  H   UNL     1     -12.047   5.403  69.622  1.00  0.00     0.000 HD 
HETATM   18  C   UNL     1     -12.885   9.537  72.192  1.00  0.00    -0.471 A  
HETATM   19  C   UNL     1     -12.016   7.541  71.099  1.00  0.00    -0.334 A  
HETATM   20  O   UNL     1     -10.557   9.387  71.704  1.00  0.00    -0.340 OA 
HETATM   21  C   UNL     1      -9.438   8.629  71.418  1.00  0.00    -0.237 C  
HETATM   22  C   UNL     1     -10.860   6.847  70.521  1.00  0.00    -0.253 C  
HETATM   23  C   UNL     1     -14.151   8.960  72.247  1.00  0.00    -0.512 A  
HETATM   24  O   UNL     1      -8.312   9.051  71.673  1.00  0.00    -0.334 OA 
HETATM   25  O   UNL     1     -11.171   5.730  69.784  1.00  0.00    -0.355 OA 
HETATM   26  C   UNL     1     -14.350   7.673  71.746  1.00  0.00    -0.586 A  
HETATM   27  C   UNL     1     -13.288   6.974  71.162  1.00  0.00    -0.188 A  
ENDBRANCH  14  15
ENDBRANCH   4  14
TORSDOF 2
ENDMDL
MODEL      152
REMARK 921   NORMALIZED FREE ENERGY PREDICTED BY IDOCK:   -4.93 KCAL/MOL
REMARK 922        TOTAL FREE ENERGY PREDICTED BY IDOCK:   -6.32 KCAL/MOL
REMARK 923 INTER-LIGAND FREE ENERGY PREDICTED BY IDOCK:   -6.07 KCAL/MOL
REMARK 924 INTRA-LIGAND FREE ENERGY PREDICTED BY IDOCK:   -0.24 KCAL/MOL
REMARK 927      BINDING AFFINITY PREDICTED BY RF-SCORE:    0.00 PKD
ROOT
HETATM    1  O   UNL     1     -11.044   8.166  68.804  1.00  0.00    -0.417 OA 
HETATM    2  C   UNL     1      -9.900   8.151  69.570  1.00  0.00    -0.181 C  
HETATM    3  H   UNL     1     -11.564   7.401  68.586  1.00  0.00     0.000 HD 
HETATM    4  C   UNL     1      -9.163   9.234  69.879  1.00  0.00    -0.209 C  
HETATM    5  C   UNL     1     -10.275   5.674  69.841  1.00  0.00    -0.320 A  
HETATM    6  C   UNL     1      -7.954   9.077  70.728  1.00  0.00    -0.148 C  
HETATM    7  C   UNL     1      -8.445   5.650  71.949  1.00  0.00    -0.127 A  
HETATM    8  O   UNL     1      -7.845   7.917  71.479  1.00  0.00    -0.085 OA 
HETATM    9  O   UNL     1      -7.130   9.985  70.818  1.00  0.00    -0.324 OA 
HETATM   10  C   UNL     1      -8.648   6.802  71.189  1.00  0.00    -0.132 A  
HETATM   11  C   UNL     1      -9.167   4.498  71.644  1.00  0.00    -0.183 A  
HETATM   12  C   UNL     1     -10.060   4.501  70.573  1.00  0.00    -0.233 A  
HETATM   13  C   UNL     1      -9.591   6.851  70.168  1.00  0.00    -0.162 A  
ENDROOT
BRANCH   4  14
HETATM   14  C   UNL     1      -9.511  10.671  69.554  1.00  0.00    -0.038 C  
BRANCH  14  15
HETATM   15  C   UNL     1      -9.784  10.919  68.093  1.00  0.00    -0.174 C  
HETATM   16  C   UNL     1      -9.983  11.272  65.304  1.00  0.00    -0.253 A  
HETATM   17  H   UNL     1     -13.027  11.418  67.840  1.00  0.00     0.000 HD 
HETATM   18  C   UNL     1     -10.003  11.542  63.936  1.00  0.00    -0.360 A  
HETATM   19  C   UNL     1     -11.080  11.521  66.121  1.00  0.00    -0.302 A  
HETATM   20  O   UNL     1      -8.779  10.793  65.840  1.00  0.00    -0.170 OA 
HETATM   21  C   UNL     1      -8.600  10.751  67.209  1.00  0.00    -0.130 C  
HETATM   22  C   UNL     1     -10.985  11.196  67.548  1.00  0.00    -0.275 C  
HETATM   23  C   UNL     1     -11.140  12.119  63.377  1.00  0.00    -0.495 A  
HETATM   24  O   UNL     1      -7.488  10.538  67.690  1.00  0.00    -0.090 OA 
HETATM   25  O   UNL     1     -12.180  11.223  68.224  1.00  0.00    -0.611 OA 
HETATM   26  C   UNL     1     -12.239  12.412  64.185  1.00  0.00    -0.558 A  
HETATM   27  C   UNL     1     -12.212  12.101  65.549  1.00  0.00    -0.096 A  
ENDBRANCH  14  15
ENDBRANCH   4  14
TORSDOF 2
ENDMDL
MODEL      153
REMARK 921   NORMALIZED FREE ENERGY PREDICTED BY IDOCK:   -4.93 KCAL/MOL
REMARK 922        TOTAL FREE ENERGY PREDICTED BY IDOCK:   -6.32 KCAL/MOL
REMARK 923 INTER-LIGAND FREE ENERGY PREDICTED BY IDOCK:   -5.52 KCAL/MOL
REMARK 924 INTRA-LIGAND FREE ENERGY PREDICTED BY IDOCK:   -0.79 KCAL/MOL
REMARK 927      BINDING AFFINITY PREDICTED BY RF-SCORE:    0.00 PKD
ROOT
HETATM    1  O   UNL     1      -9.528   9.903  70.392  1.00  0.00    -0.358 OA 
HETATM    2  C   UNL     1     -10.291   8.762  70.292  1.00  0.00    -0.203 C  
HETATM    3  H   UNL     1      -9.839  10.740  70.717  1.00  0.00     0.000 HD 
HETATM    4  C   UNL     1      -9.851   7.576  69.831  1.00  0.00    -0.187 C  
HETATM    5  C   UNL     1     -12.176  10.095  71.303  1.00  0.00    -0.496 A  
HETATM    6  C   UNL     1     -10.782   6.418  69.788  1.00  0.00    -0.283 C  
HETATM    7  C   UNL     1     -13.550   7.720  71.816  1.00  0.00    -0.390 A  
HETATM    8  O   UNL     1     -11.926   6.487  70.566  1.00  0.00    -0.388 OA 
HETATM    9  O   UNL     1     -10.495   5.409  69.149  1.00  0.00    -0.235 OA 
HETATM   10  C   UNL     1     -12.360   7.716  71.089  1.00  0.00    -0.267 A  
HETATM   11  C   UNL     1     -14.056   8.930  72.287  1.00  0.00    -0.512 A  
HETATM   12  C   UNL     1     -13.384  10.120  72.007  1.00  0.00    -0.492 A  
HETATM   13  C   UNL     1     -11.633   8.880  70.866  1.00  0.00    -0.331 A  
ENDROOT
BRANCH   4  14
HETATM   14  C   UNL     1      -8.424   7.239  69.456  1.00  0.00    -0.133 C  
BRANCH  14  15
HETATM   15  C   UNL     1      -7.937   7.937  68.212  1.00  0.00    -0.122 C  
HETATM   16  C   UNL     1      -6.786   9.374  66.079  1.00  0.00    -0.089 A  
HETATM   17  H   UNL     1      -9.527   6.536  65.695  1.00  0.00     0.000 HD 
HETATM   18  C   UNL     1      -6.261  10.189  65.077  1.00  0.00    -0.123 A  
HETATM   19  C   UNL     1      -7.866   8.529  65.851  1.00  0.00    -0.099 A  
HETATM   20  O   UNL     1      -6.218   9.489  67.355  1.00  0.00    -0.059 OA 
HETATM   21  C   UNL     1      -6.845   8.919  68.446  1.00  0.00    -0.065 C  
HETATM   22  C   UNL     1      -8.352   7.693  66.954  1.00  0.00    -0.124 C  
HETATM   23  C   UNL     1      -6.860  10.189  63.820  1.00  0.00    -0.109 A  
HETATM   24  O   UNL     1      -6.480   9.185  69.589  1.00  0.00    -0.041 OA 
HETATM   25  O   UNL     1      -9.235   6.708  66.582  1.00  0.00    -0.148 OA 
HETATM   26  C   UNL     1      -7.969   9.376  63.580  1.00  0.00    -0.142 A  
HETATM   27  C   UNL     1      -8.459   8.540  64.590  1.00  0.00    -0.127 A  
ENDBRANCH  14  15
ENDBRANCH   4  14
TORSDOF 2
ENDMDL
MODEL      154
REMARK 921   NORMALIZED FREE ENERGY PREDICTED BY IDOCK:   -4.93 KCAL/MOL
REMARK 922        TOTAL FREE ENERGY PREDICTED BY IDOCK:   -6.31 KCAL/MOL
REMARK 923 INTER-LIGAND FREE ENERGY PREDICTED BY IDOCK:   -5.49 KCAL/MOL
REMARK 924 INTRA-LIGAND FREE ENERGY PREDICTED BY IDOCK:   -0.82 KCAL/MOL
REMARK 927      BINDING AFFINITY PREDICTED BY RF-SCORE:    0.00 PKD
ROOT
HETATM    1  O   UNL     1      -7.417   7.125  68.758  1.00  0.00    -0.097 OA 
HETATM    2  C   UNL     1      -8.115   5.940  68.829  1.00  0.00    -0.103 C  
HETATM    3  H   UNL     1      -7.072   7.507  67.960  1.00  0.00     0.000 HD 
HETATM    4  C   UNL     1      -8.604   5.398  69.959  1.00  0.00    -0.124 C  
HETATM    5  C   UNL     1      -7.896   5.817  66.321  1.00  0.00    -0.101 A  
HETATM    6  C   UNL     1      -9.352   4.116  69.890  1.00  0.00    -0.165 C  
HETATM    7  C   UNL     1      -9.875   3.849  66.267  1.00  0.00    -0.131 A  
HETATM    8  O   UNL     1      -9.848   3.728  68.656  1.00  0.00    -0.082 OA 
HETATM    9  O   UNL     1      -9.588   3.474  70.911  1.00  0.00    -0.156 OA 
HETATM   10  C   UNL     1      -9.373   4.328  67.477  1.00  0.00    -0.162 A  
HETATM   11  C   UNL     1      -9.374   4.363  65.072  1.00  0.00    -0.164 A  
HETATM   12  C   UNL     1      -8.366   5.326  65.099  1.00  0.00    -0.145 A  
HETATM   13  C   UNL     1      -8.424   5.343  67.528  1.00  0.00    -0.106 A  
ENDROOT
BRANCH   4  14
HETATM   14  C   UNL     1      -8.592   6.036  71.332  1.00  0.00    -0.129 C  
BRANCH  14  15
HETATM   15  C   UNL     1      -9.696   7.037  71.551  1.00  0.00    -0.166 C  
HETATM   16  C   UNL     1     -11.883   8.696  72.191  1.00  0.00    -0.377 A  
HETATM   17  H   UNL     1      -8.757   9.788  70.010  1.00  0.00     0.000 HD 
HETATM   18  C   UNL     1     -13.037   9.434  72.450  1.00  0.00    -0.458 A  
HETATM   19  C   UNL     1     -10.929   9.119  71.272  1.00  0.00    -0.400 A  
HETATM   20  O   UNL     1     -11.751   7.467  72.852  1.00  0.00    -0.244 OA 
HETATM   21  C   UNL     1     -10.779   6.568  72.457  1.00  0.00    -0.226 C  
HETATM   22  C   UNL     1      -9.734   8.294  71.066  1.00  0.00    -0.163 C  
HETATM   23  C   UNL     1     -13.264  10.609  71.738  1.00  0.00    -0.526 A  
HETATM   24  O   UNL     1     -10.784   5.413  72.877  1.00  0.00    -0.217 OA 
HETATM   25  O   UNL     1      -8.731   8.903  70.352  1.00  0.00    -0.147 OA 
HETATM   26  C   UNL     1     -12.338  11.032  70.785  1.00  0.00    -0.496 A  
HETATM   27  C   UNL     1     -11.169  10.296  70.564  1.00  0.00    -0.408 A  
ENDBRANCH  14  15
ENDBRANCH   4  14
TORSDOF 2
ENDMDL
MODEL      155
REMARK 921   NORMALIZED FREE ENERGY PREDICTED BY IDOCK:   -4.91 KCAL/MOL
REMARK 922        TOTAL FREE ENERGY PREDICTED BY IDOCK:   -6.29 KCAL/MOL
REMARK 923 INTER-LIGAND FREE ENERGY PREDICTED BY IDOCK:   -5.43 KCAL/MOL
REMARK 924 INTRA-LIGAND FREE ENERGY PREDICTED BY IDOCK:   -0.87 KCAL/MOL
REMARK 927      BINDING AFFINITY PREDICTED BY RF-SCORE:    0.00 PKD
ROOT
HETATM    1  O   UNL     1     -10.588   5.086  68.323  1.00  0.00    -0.016 OA 
HETATM    2  C   UNL     1      -9.628   5.720  67.566  1.00  0.00    -0.114 C  
HETATM    3  H   UNL     1     -11.244   4.489  67.982  1.00  0.00     0.000 HD 
HETATM    4  C   UNL     1      -8.699   6.566  68.048  1.00  0.00    -0.116 C  
HETATM    5  C   UNL     1     -10.562   4.475  65.583  1.00  0.00    -0.231 A  
HETATM    6  C   UNL     1      -7.712   7.173  67.118  1.00  0.00    -0.108 C  
HETATM    7  C   UNL     1      -8.267   5.116  64.129  1.00  0.00    -0.131 A  
HETATM    8  O   UNL     1      -7.535   6.566  65.885  1.00  0.00    -0.078 OA 
HETATM    9  O   UNL     1      -7.024   8.128  67.472  1.00  0.00    -0.072 OA 
HETATM   10  C   UNL     1      -8.480   5.645  65.402  1.00  0.00    -0.147 A  
HETATM   11  C   UNL     1      -9.219   4.258  63.581  1.00  0.00    -0.138 A  
HETATM   12  C   UNL     1     -10.379   3.960  64.296  1.00  0.00    -0.245 A  
HETATM   13  C   UNL     1      -9.591   5.300  66.164  1.00  0.00    -0.176 A  
ENDROOT
BRANCH   4  14
HETATM   14  C   UNL     1      -8.453   6.883  69.507  1.00  0.00    -0.133 C  
BRANCH  14  15
HETATM   15  C   UNL     1      -9.558   7.675  70.156  1.00  0.00    -0.168 C  
HETATM   16  C   UNL     1     -11.678   8.888  71.561  1.00  0.00    -0.324 A  
HETATM   17  H   UNL     1      -9.172  10.782  69.143  1.00  0.00     0.000 HD 
HETATM   18  C   UNL     1     -12.804   9.411  72.197  1.00  0.00    -0.480 A  
HETATM   19  C   UNL     1     -10.973   9.607  70.602  1.00  0.00    -0.386 A  
HETATM   20  O   UNL     1     -11.319   7.572  71.884  1.00  0.00    -0.247 OA 
HETATM   21  C   UNL     1     -10.388   6.900  71.116  1.00  0.00    -0.204 C  
HETATM   22  C   UNL     1      -9.790   8.992  69.990  1.00  0.00    -0.184 C  
HETATM   23  C   UNL     1     -13.263  10.674  71.832  1.00  0.00    -0.528 A  
HETATM   24  O   UNL     1     -10.219   5.690  71.252  1.00  0.00    -0.203 OA 
HETATM   25  O   UNL     1      -9.008   9.854  69.260  1.00  0.00    -0.154 OA 
HETATM   26  C   UNL     1     -12.592  11.397  70.845  1.00  0.00    -0.453 A  
HETATM   27  C   UNL     1     -11.444  10.869  70.244  1.00  0.00    -0.391 A  
ENDBRANCH  14  15
ENDBRANCH   4  14
TORSDOF 2
ENDMDL
MODEL      156
REMARK 921   NORMALIZED FREE ENERGY PREDICTED BY IDOCK:   -4.91 KCAL/MOL
REMARK 922        TOTAL FREE ENERGY PREDICTED BY IDOCK:   -6.29 KCAL/MOL
REMARK 923 INTER-LIGAND FREE ENERGY PREDICTED BY IDOCK:   -5.58 KCAL/MOL
REMARK 924 INTRA-LIGAND FREE ENERGY PREDICTED BY IDOCK:   -0.71 KCAL/MOL
REMARK 927      BINDING AFFINITY PREDICTED BY RF-SCORE:    0.00 PKD
ROOT
HETATM    1  O   UNL     1      -7.872   9.277  69.590  1.00  0.00    -0.077 OA 
HETATM    2  C   UNL     1      -8.965   8.907  70.339  1.00  0.00    -0.182 C  
HETATM    3  H   UNL     1      -6.997   9.416  69.933  1.00  0.00     0.000 HD 
HETATM    4  C   UNL     1     -10.205   8.710  69.854  1.00  0.00    -0.206 C  
HETATM    5  C   UNL     1      -7.412   8.837  72.323  1.00  0.00     0.039 A  
HETATM    6  C   UNL     1     -11.294   8.299  70.776  1.00  0.00    -0.266 C  
HETATM    7  C   UNL     1      -9.341   7.413  73.754  1.00  0.00    -0.316 A  
HETATM    8  O   UNL     1     -10.930   7.765  72.002  1.00  0.00    -0.235 OA 
HETATM    9  O   UNL     1     -12.470   8.358  70.421  1.00  0.00     0.285 OA 
HETATM   10  C   UNL     1      -9.622   7.927  72.489  1.00  0.00    -0.216 A  
HETATM   11  C   UNL     1      -8.078   7.619  74.307  1.00  0.00    -0.248 A  
HETATM   12  C   UNL     1      -7.124   8.354  73.604  1.00  0.00    -0.131 A  
HETATM   13  C   UNL     1      -8.661   8.595  71.738  1.00  0.00    -0.240 A  
ENDROOT
BRANCH   4  14
HETATM   14  C   UNL     1     -10.604   8.736  68.393  1.00  0.00    -0.185 C  
BRANCH  14  15
HETATM   15  C   UNL     1     -10.606  10.113  67.784  1.00  0.00    -0.304 C  
HETATM   16  C   UNL     1     -10.392  12.568  66.417  1.00  0.00    -0.243 A  
HETATM   17  H   UNL     1     -13.110  11.729  69.178  1.00  0.00     0.000 HD 
HETATM   18  C   UNL     1     -10.171  13.793  65.787  1.00  0.00    -0.322 A  
HETATM   19  C   UNL     1     -11.264  12.440  67.492  1.00  0.00    -0.348 A  
HETATM   20  O   UNL     1      -9.644  11.474  65.961  1.00  0.00    -0.215 OA 
HETATM   21  C   UNL     1      -9.612  10.303  66.694  1.00  0.00    -0.175 C  
HETATM   22  C   UNL     1     -11.453  11.115  68.092  1.00  0.00    -0.303 C  
HETATM   23  C   UNL     1     -10.809  14.930  66.274  1.00  0.00    -0.331 A  
HETATM   24  O   UNL     1      -8.804   9.417  66.425  1.00  0.00    -0.138 OA 
HETATM   25  O   UNL     1     -12.513  11.023  68.961  1.00  0.00    -0.449 OA 
HETATM   26  C   UNL     1     -11.660  14.830  67.375  1.00  0.00    -0.377 A  
HETATM   27  C   UNL     1     -11.895  13.586  67.972  1.00  0.00    -0.400 A  
ENDBRANCH  14  15
ENDBRANCH   4  14
TORSDOF 2
ENDMDL
MODEL      157
REMARK 921   NORMALIZED FREE ENERGY PREDICTED BY IDOCK:   -4.87 KCAL/MOL
REMARK 922        TOTAL FREE ENERGY PREDICTED BY IDOCK:   -6.25 KCAL/MOL
REMARK 923 INTER-LIGAND FREE ENERGY PREDICTED BY IDOCK:   -5.58 KCAL/MOL
REMARK 924 INTRA-LIGAND FREE ENERGY PREDICTED BY IDOCK:   -0.66 KCAL/MOL
REMARK 927      BINDING AFFINITY PREDICTED BY RF-SCORE:    0.00 PKD
ROOT
HETATM    1  O   UNL     1      -8.631  10.625  66.345  1.00  0.00    -0.140 OA 
HETATM    2  C   UNL     1      -9.891  10.991  66.762  1.00  0.00    -0.197 C  
HETATM    3  H   UNL     1      -8.310  10.694  65.454  1.00  0.00     0.000 HD 
HETATM    4  C   UNL     1     -10.346  10.893  68.024  1.00  0.00    -0.212 C  
HETATM    5  C   UNL     1     -10.315  11.725  64.388  1.00  0.00    -0.353 A  
HETATM    6  C   UNL     1     -11.728  11.338  68.339  1.00  0.00    -0.294 C  
HETATM    7  C   UNL     1     -12.563  13.138  65.251  1.00  0.00    -0.531 A  
HETATM    8  O   UNL     1     -12.354  12.179  67.432  1.00  0.00    -0.344 OA 
HETATM    9  O   UNL     1     -12.256  11.033  69.407  1.00  0.00    -0.350 OA 
HETATM   10  C   UNL     1     -11.851  12.319  66.128  1.00  0.00    -0.329 A  
HETATM   11  C   UNL     1     -12.142  13.244  63.927  1.00  0.00    -0.531 A  
HETATM   12  C   UNL     1     -11.036  12.517  63.488  1.00  0.00    -0.497 A  
HETATM   13  C   UNL     1     -10.700  11.647  65.732  1.00  0.00    -0.331 A  
ENDROOT
BRANCH   4  14
HETATM   14  C   UNL     1      -9.534  10.486  69.236  1.00  0.00    -0.191 C  
BRANCH  14  15
HETATM   15  C   UNL     1      -8.866   9.142  69.100  1.00  0.00    -0.146 C  
HETATM   16  C   UNL     1      -7.325   6.795  68.868  1.00  0.00    -0.094 A  
HETATM   17  H   UNL     1     -11.237   6.896  69.506  1.00  0.00     0.000 HD 
HETATM   18  C   UNL     1      -6.530   5.671  68.639  1.00  0.00    -0.043 A  
HETATM   19  C   UNL     1      -8.713   6.719  68.910  1.00  0.00    -0.129 A  
HETATM   20  O   UNL     1      -6.666   8.025  68.991  1.00  0.00    -0.050 OA 
HETATM   21  C   UNL     1      -7.387   9.203  68.957  1.00  0.00    -0.073 C  
HETATM   22  C   UNL     1      -9.478   7.943  69.170  1.00  0.00    -0.155 C  
HETATM   23  C   UNL     1      -7.144   4.444  68.404  1.00  0.00    -0.056 A  
HETATM   24  O   UNL     1      -6.815  10.286  68.850  1.00  0.00    -0.056 OA 
HETATM   25  O   UNL     1     -10.806   7.741  69.456  1.00  0.00    -0.230 OA 
HETATM   26  C   UNL     1      -8.537   4.353  68.405  1.00  0.00    -0.106 A  
HETATM   27  C   UNL     1      -9.315   5.485  68.671  1.00  0.00    -0.149 A  
ENDBRANCH  14  15
ENDBRANCH   4  14
TORSDOF 2
ENDMDL
MODEL      158
REMARK 921   NORMALIZED FREE ENERGY PREDICTED BY IDOCK:   -4.86 KCAL/MOL
REMARK 922        TOTAL FREE ENERGY PREDICTED BY IDOCK:   -6.24 KCAL/MOL
REMARK 923 INTER-LIGAND FREE ENERGY PREDICTED BY IDOCK:   -5.83 KCAL/MOL
REMARK 924 INTRA-LIGAND FREE ENERGY PREDICTED BY IDOCK:   -0.40 KCAL/MOL
REMARK 927      BINDING AFFINITY PREDICTED BY RF-SCORE:    0.00 PKD
ROOT
HETATM    1  O   UNL     1      -7.875   9.570  69.474  1.00  0.00    -0.085 OA 
HETATM    2  C   UNL     1      -8.521   9.204  70.633  1.00  0.00    -0.209 C  
HETATM    3  H   UNL     1      -6.935   9.670  69.381  1.00  0.00     0.000 HD 
HETATM    4  C   UNL     1      -9.853   9.062  70.765  1.00  0.00    -0.304 C  
HETATM    5  C   UNL     1      -6.238   9.012  71.683  1.00  0.00    -0.076 A  
HETATM    6  C   UNL     1     -10.417   8.648  72.075  1.00  0.00    -0.352 C  
HETATM    7  C   UNL     1      -7.360   7.591  73.808  1.00  0.00    -0.121 A  
HETATM    8  O   UNL     1      -9.557   8.056  72.986  1.00  0.00    -0.248 OA 
HETATM    9  O   UNL     1     -11.621   8.754  72.299  1.00  0.00    -0.365 OA 
HETATM   10  C   UNL     1      -8.165   8.162  72.823  1.00  0.00    -0.173 A  
HETATM   11  C   UNL     1      -5.976   7.739  73.726  1.00  0.00    -0.069 A  
HETATM   12  C   UNL     1      -5.417   8.472  72.680  1.00  0.00    -0.051 A  
HETATM   13  C   UNL     1      -7.625   8.830  71.730  1.00  0.00    -0.082 A  
ENDROOT
BRANCH   4  14
HETATM   14  C   UNL     1     -10.874   9.155  69.650  1.00  0.00    -0.210 C  
BRANCH  14  15
HETATM   15  C   UNL     1     -10.998  10.531  69.050  1.00  0.00    -0.289 C  
HETATM   16  C   UNL     1     -11.418  13.183  68.194  1.00  0.00    -0.314 A  
HETATM   17  H   UNL     1      -8.790  10.670  66.614  1.00  0.00     0.000 HD 
HETATM   18  C   UNL     1     -11.744  14.464  67.748  1.00  0.00    -0.407 A  
HETATM   19  C   UNL     1     -10.603  12.332  67.457  1.00  0.00    -0.242 A  
HETATM   20  O   UNL     1     -12.003  12.761  69.396  1.00  0.00    -0.301 OA 
HETATM   21  C   UNL     1     -11.941  11.431  69.767  1.00  0.00    -0.353 C  
HETATM   22  C   UNL     1     -10.295  11.005  68.002  1.00  0.00    -0.185 C  
HETATM   23  C   UNL     1     -11.274  14.889  66.508  1.00  0.00    -0.335 A  
HETATM   24  O   UNL     1     -12.621  11.007  70.698  1.00  0.00    -0.337 OA 
HETATM   25  O   UNL     1      -9.286  10.337  67.352  1.00  0.00    -0.141 OA 
HETATM   26  C   UNL     1     -10.485  14.036  65.735  1.00  0.00    -0.317 A  
HETATM   27  C   UNL     1     -10.141  12.768  66.217  1.00  0.00    -0.267 A  
ENDBRANCH  14  15
ENDBRANCH   4  14
TORSDOF 2
ENDMDL
MODEL      159
REMARK 921   NORMALIZED FREE ENERGY PREDICTED BY IDOCK:   -4.85 KCAL/MOL
REMARK 922        TOTAL FREE ENERGY PREDICTED BY IDOCK:   -6.22 KCAL/MOL
REMARK 923 INTER-LIGAND FREE ENERGY PREDICTED BY IDOCK:   -6.00 KCAL/MOL
REMARK 924 INTRA-LIGAND FREE ENERGY PREDICTED BY IDOCK:   -0.22 KCAL/MOL
REMARK 927      BINDING AFFINITY PREDICTED BY RF-SCORE:    0.00 PKD
ROOT
HETATM    1  O   UNL     1      -9.003   8.609  68.998  1.00  0.00    -0.140 OA 
HETATM    2  C   UNL     1     -10.128   9.403  69.003  1.00  0.00    -0.194 C  
HETATM    3  H   UNL     1      -8.486   8.400  68.229  1.00  0.00     0.000 HD 
HETATM    4  C   UNL     1     -10.861   9.699  70.092  1.00  0.00    -0.325 C  
HETATM    5  C   UNL     1      -9.738   9.736  66.535  1.00  0.00    -0.267 A  
HETATM    6  C   UNL     1     -12.048  10.582  69.956  1.00  0.00    -0.274 C  
HETATM    7  C   UNL     1     -11.517  11.887  66.567  1.00  0.00    -0.381 A  
HETATM    8  O   UNL     1     -12.136  11.368  68.818  1.00  0.00    -0.480 OA 
HETATM    9  O   UNL     1     -12.872  10.665  70.864  1.00  0.00    -0.363 OA 
HETATM   10  C   UNL     1     -11.336  11.090  67.697  1.00  0.00    -0.281 A  
HETATM   11  C   UNL     1     -10.799  11.598  65.408  1.00  0.00    -0.336 A  
HETATM   12  C   UNL     1      -9.932  10.506  65.383  1.00  0.00    -0.353 A  
HETATM   13  C   UNL     1     -10.418  10.046  67.719  1.00  0.00    -0.282 A  
ENDROOT
BRANCH   4  14
HETATM   14  C   UNL     1     -10.526   9.325  71.520  1.00  0.00    -0.385 C  
BRANCH  14  15
HETATM   15  C   UNL     1      -9.957   7.937  71.671  1.00  0.00    -0.227 C  
HETATM   16  C   UNL     1      -8.619   5.491  72.078  1.00  0.00    -0.131 A  
HETATM   17  H   UNL     1     -12.471   5.864  71.215  1.00  0.00     0.000 HD 
HETATM   18  C   UNL     1      -7.883   4.311  72.185  1.00  0.00    -0.082 A  
HETATM   19  C   UNL     1      -9.926   5.503  71.603  1.00  0.00    -0.233 A  
HETATM   20  O   UNL     1      -7.962   6.683  72.411  1.00  0.00    -0.099 OA 
HETATM   21  C   UNL     1      -8.530   7.901  72.086  1.00  0.00    -0.132 C  
HETATM   22  C   UNL     1     -10.639   6.783  71.535  1.00  0.00    -0.219 C  
HETATM   23  C   UNL     1      -8.456   3.115  71.765  1.00  0.00    -0.088 A  
HETATM   24  O   UNL     1      -7.879   8.940  72.177  1.00  0.00    -0.351 OA 
HETATM   25  O   UNL     1     -11.990   6.677  71.311  1.00  0.00    -0.336 OA 
HETATM   26  C   UNL     1      -9.754   3.109  71.251  1.00  0.00    -0.215 A  
HETATM   27  C   UNL     1     -10.488   4.298  71.184  1.00  0.00     0.175 A  
ENDBRANCH  14  15
ENDBRANCH   4  14
TORSDOF 2
ENDMDL
MODEL      160
REMARK 921   NORMALIZED FREE ENERGY PREDICTED BY IDOCK:   -4.84 KCAL/MOL
REMARK 922        TOTAL FREE ENERGY PREDICTED BY IDOCK:   -6.22 KCAL/MOL
REMARK 923 INTER-LIGAND FREE ENERGY PREDICTED BY IDOCK:   -5.83 KCAL/MOL
REMARK 924 INTRA-LIGAND FREE ENERGY PREDICTED BY IDOCK:   -0.39 KCAL/MOL
REMARK 927      BINDING AFFINITY PREDICTED BY RF-SCORE:    0.00 PKD
ROOT
HETATM    1  O   UNL     1     -12.814  10.846  69.571  1.00  0.00    -0.474 OA 
HETATM    2  C   UNL     1     -11.617  11.383  69.154  1.00  0.00    -0.314 C  
HETATM    3  H   UNL     1     -13.506  11.330  70.008  1.00  0.00     0.000 HD 
HETATM    4  C   UNL     1     -10.637  10.698  68.536  1.00  0.00    -0.229 C  
HETATM    5  C   UNL     1     -12.471  13.599  69.998  1.00  0.00    -0.267 A  
HETATM    6  C   UNL     1      -9.396  11.407  68.127  1.00  0.00    -0.181 C  
HETATM    7  C   UNL     1     -10.450  14.895  68.572  1.00  0.00    -0.242 A  
HETATM    8  O   UNL     1      -9.446  12.790  68.044  1.00  0.00    -0.201 OA 
HETATM    9  O   UNL     1      -8.395  10.775  67.797  1.00  0.00    -0.112 OA 
HETATM   10  C   UNL     1     -10.495  13.503  68.648  1.00  0.00    -0.232 A  
HETATM   11  C   UNL     1     -11.430  15.643  69.223  1.00  0.00    -0.368 A  
HETATM   12  C   UNL     1     -12.423  14.996  69.959  1.00  0.00    -0.317 A  
HETATM   13  C   UNL     1     -11.520  12.836  69.309  1.00  0.00    -0.349 A  
ENDROOT
BRANCH   4  14
HETATM   14  C   UNL     1     -10.709   9.258  68.074  1.00  0.00    -0.231 C  
BRANCH  14  15
HETATM   15  C   UNL     1     -10.250   8.262  69.107  1.00  0.00    -0.223 C  
HETATM   16  C   UNL     1      -9.106   6.377  70.861  1.00  0.00    -0.151 A  
HETATM   17  H   UNL     1     -12.390   8.473  71.598  1.00  0.00     0.000 HD 
HETATM   18  C   UNL     1      -8.555   5.359  71.640  1.00  0.00    -0.131 A  
HETATM   19  C   UNL     1     -10.354   6.922  71.138  1.00  0.00    -0.222 A  
HETATM   20  O   UNL     1      -8.373   6.787  69.740  1.00  0.00    -0.128 OA 
HETATM   21  C   UNL     1      -8.961   7.593  68.784  1.00  0.00    -0.133 C  
HETATM   22  C   UNL     1     -10.858   8.001  70.281  1.00  0.00    -0.241 C  
HETATM   23  C   UNL     1      -9.294   4.843  72.702  1.00  0.00    -0.152 A  
HETATM   24  O   UNL     1      -8.412   7.787  67.702  1.00  0.00    -0.120 OA 
HETATM   25  O   UNL     1     -11.961   8.657  70.771  1.00  0.00    -0.240 OA 
HETATM   26  C   UNL     1     -10.564   5.351  72.975  1.00  0.00    -0.274 A  
HETATM   27  C   UNL     1     -11.085   6.396  72.203  1.00  0.00    -0.302 A  
ENDBRANCH  14  15
ENDBRANCH   4  14
TORSDOF 2
ENDMDL
MODEL      161
REMARK 921   NORMALIZED FREE ENERGY PREDICTED BY IDOCK:   -4.83 KCAL/MOL
REMARK 922        TOTAL FREE ENERGY PREDICTED BY IDOCK:   -6.21 KCAL/MOL
REMARK 923 INTER-LIGAND FREE ENERGY PREDICTED BY IDOCK:   -5.85 KCAL/MOL
REMARK 924 INTRA-LIGAND FREE ENERGY PREDICTED BY IDOCK:   -0.35 KCAL/MOL
REMARK 927      BINDING AFFINITY PREDICTED BY RF-SCORE:    0.00 PKD
ROOT
HETATM    1  O   UNL     1      -9.845   9.663  64.675  1.00  0.00    -0.415 OA 
HETATM    2  C   UNL     1      -9.835  10.786  65.472  1.00  0.00    -0.255 C  
HETATM    3  H   UNL     1     -10.401   9.540  63.915  1.00  0.00     0.000 HD 
HETATM    4  C   UNL     1      -9.048  10.962  66.549  1.00  0.00    -0.183 C  
HETATM    5  C   UNL     1     -11.561  11.747  63.907  1.00  0.00    -0.469 A  
HETATM    6  C   UNL     1      -9.131  12.233  67.315  1.00  0.00    -0.184 C  
HETATM    7  C   UNL     1     -11.099  14.279  64.989  1.00  0.00    -0.377 A  
HETATM    8  O   UNL     1      -9.714  13.322  66.688  1.00  0.00    -0.255 OA 
HETATM    9  O   UNL     1      -8.622  12.325  68.430  1.00  0.00    -0.174 OA 
HETATM   10  C   UNL     1     -10.496  13.146  65.534  1.00  0.00    -0.288 A  
HETATM   11  C   UNL     1     -11.945  14.137  63.891  1.00  0.00    -0.278 A  
HETATM   12  C   UNL     1     -12.198  12.870  63.368  1.00  0.00    -0.574 A  
HETATM   13  C   UNL     1     -10.672  11.883  64.981  1.00  0.00    -0.341 A  
ENDROOT
BRANCH   4  14
HETATM   14  C   UNL     1      -7.950  10.028  67.014  1.00  0.00    -0.106 C  
BRANCH  14  15
HETATM   15  C   UNL     1      -8.453   8.808  67.741  1.00  0.00    -0.125 C  
HETATM   16  C   UNL     1      -9.409   6.721  69.375  1.00  0.00    -0.148 A  
HETATM   17  H   UNL     1      -9.179   6.593  65.419  1.00  0.00     0.000 HD 
HETATM   18  C   UNL     1      -9.771   5.688  70.239  1.00  0.00    -0.232 A  
HETATM   19  C   UNL     1      -9.201   6.507  68.017  1.00  0.00    -0.111 A  
HETATM   20  O   UNL     1      -9.198   7.984  69.946  1.00  0.00    -0.151 OA 
HETATM   21  C   UNL     1      -8.592   8.984  69.212  1.00  0.00    -0.136 C  
HETATM   22  C   UNL     1      -8.837   7.649  67.171  1.00  0.00    -0.125 C  
HETATM   23  C   UNL     1      -9.887   4.395  69.737  1.00  0.00    -0.284 A  
HETATM   24  O   UNL     1      -8.210  10.018  69.755  1.00  0.00    -0.168 OA 
HETATM   25  O   UNL     1      -8.908   7.410  65.821  1.00  0.00    -0.149 OA 
HETATM   26  C   UNL     1      -9.647   4.151  68.384  1.00  0.00    -0.190 A  
HETATM   27  C   UNL     1      -9.319   5.208  67.527  1.00  0.00    -0.131 A  
ENDBRANCH  14  15
ENDBRANCH   4  14
TORSDOF 2
ENDMDL
MODEL      162
REMARK 921   NORMALIZED FREE ENERGY PREDICTED BY IDOCK:   -4.83 KCAL/MOL
REMARK 922        TOTAL FREE ENERGY PREDICTED BY IDOCK:   -6.20 KCAL/MOL
REMARK 923 INTER-LIGAND FREE ENERGY PREDICTED BY IDOCK:   -5.38 KCAL/MOL
REMARK 924 INTRA-LIGAND FREE ENERGY PREDICTED BY IDOCK:   -0.82 KCAL/MOL
REMARK 927      BINDING AFFINITY PREDICTED BY RF-SCORE:    0.00 PKD
ROOT
HETATM    1  O   UNL     1      -7.145   9.292  69.051  1.00  0.00    -0.065 OA 
HETATM    2  C   UNL     1      -7.458   8.268  68.186  1.00  0.00    -0.097 C  
HETATM    3  H   UNL     1      -6.855  10.158  68.789  1.00  0.00     0.000 HD 
HETATM    4  C   UNL     1      -7.868   7.041  68.557  1.00  0.00    -0.122 C  
HETATM    5  C   UNL     1      -6.970   9.882  66.313  1.00  0.00    -0.100 A  
HETATM    6  C   UNL     1      -8.185   6.030  67.514  1.00  0.00    -0.106 C  
HETATM    7  C   UNL     1      -8.251   8.161  64.526  1.00  0.00    -0.118 A  
HETATM    8  O   UNL     1      -8.420   6.488  66.228  1.00  0.00    -0.118 OA 
HETATM    9  O   UNL     1      -8.314   4.845  67.812  1.00  0.00    -0.104 OA 
HETATM   10  C   UNL     1      -8.036   7.787  65.853  1.00  0.00    -0.107 A  
HETATM   11  C   UNL     1      -7.815   9.412  64.093  1.00  0.00    -0.124 A  
HETATM   12  C   UNL     1      -7.151  10.260  64.978  1.00  0.00    -0.111 A  
HETATM   13  C   UNL     1      -7.446   8.648  66.772  1.00  0.00    -0.086 A  
ENDROOT
BRANCH   4  14
HETATM   14  C   UNL     1      -8.181   6.595  69.969  1.00  0.00    -0.130 C  
BRANCH  14  15
HETATM   15  C   UNL     1      -9.554   6.992  70.446  1.00  0.00    -0.169 C  
HETATM   16  C   UNL     1     -12.197   7.409  71.330  1.00  0.00    -0.342 A  
HETATM   17  H   UNL     1      -9.322  10.138  71.382  1.00  0.00     0.000 HD 
HETATM   18  C   UNL     1     -13.542   7.586  71.653  1.00  0.00    -0.442 A  
HETATM   19  C   UNL     1     -11.318   8.481  71.223  1.00  0.00    -0.325 A  
HETATM   20  O   UNL     1     -11.776   6.101  71.053  1.00  0.00    -0.281 OA 
HETATM   21  C   UNL     1     -10.539   5.879  70.477  1.00  0.00    -0.275 C  
HETATM   22  C   UNL     1      -9.914   8.211  70.895  1.00  0.00    -0.187 C  
HETATM   23  C   UNL     1     -14.031   8.876  71.833  1.00  0.00    -0.476 A  
HETATM   24  O   UNL     1     -10.243   4.771  70.035  1.00  0.00    -0.251 OA 
HETATM   25  O   UNL     1      -9.068   9.279  71.066  1.00  0.00    -0.239 OA 
HETATM   26  C   UNL     1     -13.174   9.969  71.694  1.00  0.00    -0.518 A  
HETATM   27  C   UNL     1     -11.820   9.768  71.404  1.00  0.00    -0.488 A  
ENDBRANCH  14  15
ENDBRANCH   4  14
TORSDOF 2
ENDMDL
MODEL      163
REMARK 921   NORMALIZED FREE ENERGY PREDICTED BY IDOCK:   -4.82 KCAL/MOL
REMARK 922        TOTAL FREE ENERGY PREDICTED BY IDOCK:   -6.19 KCAL/MOL
REMARK 923 INTER-LIGAND FREE ENERGY PREDICTED BY IDOCK:   -6.97 KCAL/MOL
REMARK 924 INTRA-LIGAND FREE ENERGY PREDICTED BY IDOCK:    0.78 KCAL/MOL
REMARK 927      BINDING AFFINITY PREDICTED BY RF-SCORE:    0.00 PKD
ROOT
HETATM    1  O   UNL     1     -11.888  10.393  67.554  1.00  0.00    -0.440 OA 
HETATM    2  C   UNL     1     -11.908  11.725  67.902  1.00  0.00    -0.219 C  
HETATM    3  H   UNL     1     -11.956  10.060  66.667  1.00  0.00     0.000 HD 
HETATM    4  C   UNL     1     -11.812  12.197  69.158  1.00  0.00    -0.361 C  
HETATM    5  C   UNL     1     -12.066  12.227  65.437  1.00  0.00    -0.343 A  
HETATM    6  C   UNL     1     -11.835  13.665  69.391  1.00  0.00    -0.339 C  
HETATM    7  C   UNL     1     -11.392  14.886  65.959  1.00  0.00    -0.306 A  
HETATM    8  O   UNL     1     -11.566  14.489  68.311  1.00  0.00    -0.296 OA 
HETATM    9  O   UNL     1     -12.004  14.116  70.522  1.00  0.00    -0.302 OA 
HETATM   10  C   UNL     1     -11.618  13.986  67.000  1.00  0.00    -0.371 A  
HETATM   11  C   UNL     1     -11.510  14.445  64.642  1.00  0.00    -0.390 A  
HETATM   12  C   UNL     1     -11.873  13.124  64.381  1.00  0.00    -0.441 A  
HETATM   13  C   UNL     1     -11.905  12.646  66.763  1.00  0.00    -0.440 A  
ENDROOT
BRANCH   4  14
HETATM   14  C   UNL     1     -11.543  11.376  70.401  1.00  0.00    -0.267 C  
BRANCH  14  15
HETATM   15  C   UNL     1     -10.884  10.050  70.126  1.00  0.00    -0.365 C  
HETATM   16  C   UNL     1      -9.370   7.744  69.546  1.00  0.00    -0.149 A  
HETATM   17  H   UNL     1     -12.952   7.748  71.246  1.00  0.00     0.000 HD 
HETATM   18  C   UNL     1      -8.624   6.638  69.140  1.00  0.00    -0.130 A  
HETATM   19  C   UNL     1     -10.687   7.627  69.976  1.00  0.00    -0.245 A  
HETATM   20  O   UNL     1      -8.755   8.999  69.443  1.00  0.00    -0.135 OA 
HETATM   21  C   UNL     1      -9.506  10.152  69.574  1.00  0.00    -0.214 C  
HETATM   22  C   UNL     1     -11.401   8.836  70.401  1.00  0.00    -0.192 C  
HETATM   23  C   UNL     1      -9.227   5.384  69.123  1.00  0.00    -0.147 A  
HETATM   24  O   UNL     1      -9.032  11.246  69.279  1.00  0.00     0.050 OA 
HETATM   25  O   UNL     1     -12.588   8.604  71.052  1.00  0.00    -0.204 OA 
HETATM   26  C   UNL     1     -10.560   5.248  69.515  1.00  0.00    -0.244 A  
HETATM   27  C   UNL     1     -11.280   6.365  69.953  1.00  0.00    -0.485 A  
ENDBRANCH  14  15
ENDBRANCH   4  14
TORSDOF 2
ENDMDL
MODEL      164
REMARK 921   NORMALIZED FREE ENERGY PREDICTED BY IDOCK:   -4.81 KCAL/MOL
REMARK 922        TOTAL FREE ENERGY PREDICTED BY IDOCK:   -6.18 KCAL/MOL
REMARK 923 INTER-LIGAND FREE ENERGY PREDICTED BY IDOCK:   -5.79 KCAL/MOL
REMARK 924 INTRA-LIGAND FREE ENERGY PREDICTED BY IDOCK:   -0.39 KCAL/MOL
REMARK 927      BINDING AFFINITY PREDICTED BY RF-SCORE:    0.00 PKD
ROOT
HETATM    1  O   UNL     1      -7.368  14.471  67.803  1.00  0.00    -0.139 OA 
HETATM    2  C   UNL     1      -8.013  15.423  67.045  1.00  0.00    -0.224 C  
HETATM    3  H   UNL     1      -6.459  14.514  68.075  1.00  0.00     0.000 HD 
HETATM    4  C   UNL     1      -9.301  15.361  66.659  1.00  0.00    -0.288 C  
HETATM    5  C   UNL     1      -5.858  16.728  67.097  1.00  0.00    -0.206 A  
HETATM    6  C   UNL     1      -9.875  16.468  65.851  1.00  0.00    -0.295 C  
HETATM    7  C   UNL     1      -7.234  18.991  66.214  1.00  0.00    -0.269 A  
HETATM    8  O   UNL     1      -9.200  17.678  65.849  1.00  0.00    -0.517 OA 
HETATM    9  O   UNL     1     -10.952  16.329  65.276  1.00  0.00    -0.325 OA 
HETATM   10  C   UNL     1      -7.870  17.753  66.297  1.00  0.00    -0.264 A  
HETATM   11  C   UNL     1      -5.892  19.093  66.576  1.00  0.00    -0.174 A  
HETATM   12  C   UNL     1      -5.197  17.957  66.990  1.00  0.00    -0.155 A  
HETATM   13  C   UNL     1      -7.218  16.624  66.781  1.00  0.00    -0.272 A  
ENDROOT
BRANCH   4  14
HETATM   14  C   UNL     1     -10.309  14.314  67.082  1.00  0.00    -0.262 C  
BRANCH  14  15
HETATM   15  C   UNL     1      -9.944  12.912  66.668  1.00  0.00    -0.251 C  
HETATM   16  C   UNL     1      -9.305  10.394  65.577  1.00  0.00    -0.197 A  
HETATM   17  H   UNL     1      -8.721  11.454  69.352  1.00  0.00     0.000 HD 
HETATM   18  C   UNL     1      -9.109   9.136  65.007  1.00  0.00    -0.215 A  
HETATM   19  C   UNL     1      -9.228  10.602  66.949  1.00  0.00    -0.172 A  
HETATM   20  O   UNL     1      -9.650  11.439  64.708  1.00  0.00    -0.236 OA 
HETATM   21  C   UNL     1     -10.111  12.638  65.216  1.00  0.00    -0.253 C  
HETATM   22  C   UNL     1      -9.432  11.958  67.470  1.00  0.00    -0.176 C  
HETATM   23  C   UNL     1      -8.871   8.046  65.840  1.00  0.00    -0.189 A  
HETATM   24  O   UNL     1     -10.614  13.481  64.476  1.00  0.00    -0.406 OA 
HETATM   25  O   UNL     1      -9.082  12.127  68.787  1.00  0.00    -0.048 OA 
HETATM   26  C   UNL     1      -8.825   8.225  67.223  1.00  0.00    -0.137 A  
HETATM   27  C   UNL     1      -8.990   9.502  67.772  1.00  0.00    -0.126 A  
ENDBRANCH  14  15
ENDBRANCH   4  14
TORSDOF 2
ENDMDL
MODEL      165
REMARK 921   NORMALIZED FREE ENERGY PREDICTED BY IDOCK:   -4.77 KCAL/MOL
REMARK 922        TOTAL FREE ENERGY PREDICTED BY IDOCK:   -6.14 KCAL/MOL
REMARK 923 INTER-LIGAND FREE ENERGY PREDICTED BY IDOCK:   -5.95 KCAL/MOL
REMARK 924 INTRA-LIGAND FREE ENERGY PREDICTED BY IDOCK:   -0.19 KCAL/MOL
REMARK 927      BINDING AFFINITY PREDICTED BY RF-SCORE:    0.00 PKD
ROOT
HETATM    1  O   UNL     1     -11.736   6.386  67.824  1.00  0.00    -0.510 OA 
HETATM    2  C   UNL     1     -10.578   5.710  68.135  1.00  0.00    -0.183 C  
HETATM    3  H   UNL     1     -12.148   6.397  66.968  1.00  0.00     0.000 HD 
HETATM    4  C   UNL     1      -9.993   5.694  69.346  1.00  0.00    -0.261 C  
HETATM    5  C   UNL     1     -10.587   4.877  65.756  1.00  0.00    -0.229 A  
HETATM    6  C   UNL     1      -8.747   4.910  69.546  1.00  0.00    -0.086 C  
HETATM    7  C   UNL     1      -8.705   2.936  66.452  1.00  0.00    -0.135 A  
HETATM    8  O   UNL     1      -8.449   3.930  68.612  1.00  0.00    -0.083 OA 
HETATM    9  O   UNL     1      -8.059   5.074  70.551  1.00  0.00    -0.089 OA 
HETATM   10  C   UNL     1      -9.095   3.916  67.364  1.00  0.00    -0.156 A  
HETATM   11  C   UNL     1      -9.264   2.934  65.176  1.00  0.00    -0.145 A  
HETATM   12  C   UNL     1     -10.184   3.920  64.818  1.00  0.00    -0.196 A  
HETATM   13  C   UNL     1     -10.067   4.861  67.056  1.00  0.00    -0.243 A  
ENDROOT
BRANCH   4  14
HETATM   14  C   UNL     1     -10.552   6.305  70.614  1.00  0.00    -0.301 C  
BRANCH  14  15
HETATM   15  C   UNL     1     -10.910   7.763  70.484  1.00  0.00    -0.245 C  
HETATM   16  C   UNL     1     -11.828  10.427  70.457  1.00  0.00    -0.337 A  
HETATM   17  H   UNL     1      -8.375   9.193  68.948  1.00  0.00     0.000 HD 
HETATM   18  C   UNL     1     -12.381  11.705  70.379  1.00  0.00    -0.373 A  
HETATM   19  C   UNL     1     -10.689  10.072  69.742  1.00  0.00    -0.304 A  
HETATM   20  O   UNL     1     -12.509   9.486  71.241  1.00  0.00    -0.315 OA 
HETATM   21  C   UNL     1     -12.177   8.147  71.161  1.00  0.00    -0.239 C  
HETATM   22  C   UNL     1     -10.160   8.712  69.889  1.00  0.00    -0.194 C  
HETATM   23  C   UNL     1     -11.802  12.643  69.529  1.00  0.00    -0.376 A  
HETATM   24  O   UNL     1     -12.895   7.291  71.673  1.00  0.00    -0.352 OA 
HETATM   25  O   UNL     1      -8.903   8.525  69.367  1.00  0.00    -0.138 OA 
HETATM   26  C   UNL     1     -10.680  12.297  68.775  1.00  0.00    -0.247 A  
HETATM   27  C   UNL     1     -10.120  11.020  68.893  1.00  0.00    -0.212 A  
ENDBRANCH  14  15
ENDBRANCH   4  14
TORSDOF 2
ENDMDL
MODEL      166
REMARK 921   NORMALIZED FREE ENERGY PREDICTED BY IDOCK:   -4.77 KCAL/MOL
REMARK 922        TOTAL FREE ENERGY PREDICTED BY IDOCK:   -6.13 KCAL/MOL
REMARK 923 INTER-LIGAND FREE ENERGY PREDICTED BY IDOCK:   -5.98 KCAL/MOL
REMARK 924 INTRA-LIGAND FREE ENERGY PREDICTED BY IDOCK:   -0.15 KCAL/MOL
REMARK 927      BINDING AFFINITY PREDICTED BY RF-SCORE:    0.00 PKD
ROOT
HETATM    1  O   UNL     1     -12.259  12.218  67.031  1.00  0.00    -0.522 OA 
HETATM    2  C   UNL     1     -10.926  12.552  67.115  1.00  0.00    -0.263 C  
HETATM    3  H   UNL     1     -12.975  12.741  67.373  1.00  0.00     0.000 HD 
HETATM    4  C   UNL     1      -9.912  11.812  66.632  1.00  0.00    -0.224 C  
HETATM    5  C   UNL     1     -11.670  14.679  68.245  1.00  0.00    -0.359 A  
HETATM    6  C   UNL     1      -8.516  12.299  66.780  1.00  0.00    -0.119 C  
HETATM    7  C   UNL     1      -9.132  15.764  67.822  1.00  0.00    -0.188 A  
HETATM    8  O   UNL     1      -8.332  13.645  67.054  1.00  0.00    -0.172 OA 
HETATM    9  O   UNL     1      -7.566  11.545  66.583  1.00  0.00    -0.144 OA 
HETATM   10  C   UNL     1      -9.402  14.431  67.512  1.00  0.00    -0.198 A  
HETATM   11  C   UNL     1     -10.147  16.558  68.352  1.00  0.00    -0.255 A  
HETATM   12  C   UNL     1     -11.407  16.009  68.590  1.00  0.00    -0.383 A  
HETATM   13  C   UNL     1     -10.671  13.884  67.668  1.00  0.00    -0.255 A  
ENDROOT
BRANCH   4  14
HETATM   14  C   UNL     1     -10.044  10.550  65.805  1.00  0.00    -0.329 C  
BRANCH  14  15
HETATM   15  C   UNL     1      -9.905   9.280  66.603  1.00  0.00    -0.311 C  
HETATM   16  C   UNL     1      -9.412   6.812  67.872  1.00  0.00    -0.118 A  
HETATM   17  H   UNL     1     -11.516   9.792  69.426  1.00  0.00     0.000 HD 
HETATM   18  C   UNL     1      -9.224   5.537  68.404  1.00  0.00    -0.124 A  
HETATM   19  C   UNL     1     -10.310   7.717  68.427  1.00  0.00    -0.228 A  
HETATM   20  O   UNL     1      -8.699   7.127  66.707  1.00  0.00    -0.118 OA 
HETATM   21  C   UNL     1      -9.022   8.257  65.981  1.00  0.00    -0.181 C  
HETATM   22  C   UNL     1     -10.440   9.045  67.818  1.00  0.00    -0.245 C  
HETATM   23  C   UNL     1      -9.989   5.140  69.497  1.00  0.00    -0.301 A  
HETATM   24  O   UNL     1      -8.558   8.434  64.857  1.00  0.00    -0.161 OA 
HETATM   25  O   UNL     1     -11.140   9.957  68.570  1.00  0.00    -0.207 OA 
HETATM   26  C   UNL     1     -10.923   6.019  70.047  1.00  0.00    -0.450 A  
HETATM   27  C   UNL     1     -11.072   7.307  69.520  1.00  0.00    -0.129 A  
ENDBRANCH  14  15
ENDBRANCH   4  14
TORSDOF 2
ENDMDL
MODEL      167
REMARK 921   NORMALIZED FREE ENERGY PREDICTED BY IDOCK:   -4.76 KCAL/MOL
REMARK 922        TOTAL FREE ENERGY PREDICTED BY IDOCK:   -6.13 KCAL/MOL
REMARK 923 INTER-LIGAND FREE ENERGY PREDICTED BY IDOCK:   -5.37 KCAL/MOL
REMARK 924 INTRA-LIGAND FREE ENERGY PREDICTED BY IDOCK:   -0.76 KCAL/MOL
REMARK 927      BINDING AFFINITY PREDICTED BY RF-SCORE:    0.00 PKD
ROOT
HETATM    1  O   UNL     1     -10.170   8.254  68.012  1.00  0.00    -0.197 OA 
HETATM    2  C   UNL     1      -9.365   8.475  69.107  1.00  0.00    -0.153 C  
HETATM    3  H   UNL     1     -11.001   7.793  68.030  1.00  0.00     0.000 HD 
HETATM    4  C   UNL     1      -8.188   9.128  69.081  1.00  0.00    -0.117 C  
HETATM    5  C   UNL     1     -11.137   7.318  70.475  1.00  0.00    -0.290 A  
HETATM    6  C   UNL     1      -7.424   9.306  70.343  1.00  0.00    -0.121 C  
HETATM    7  C   UNL     1      -9.970   8.328  72.801  1.00  0.00    -0.333 A  
HETATM    8  O   UNL     1      -8.111   9.144  71.536  1.00  0.00    -0.337 OA 
HETATM    9  O   UNL     1      -6.249   9.665  70.318  1.00  0.00    -0.054 OA 
HETATM   10  C   UNL     1      -9.362   8.506  71.558  1.00  0.00    -0.222 A  
HETATM   11  C   UNL     1     -11.175   7.632  72.875  1.00  0.00    -0.426 A  
HETATM   12  C   UNL     1     -11.744   7.103  71.717  1.00  0.00    -0.324 A  
HETATM   13  C   UNL     1      -9.951   8.056  70.382  1.00  0.00    -0.188 A  
ENDROOT
BRANCH   4  14
HETATM   14  C   UNL     1      -7.591   9.843  67.888  1.00  0.00    -0.090 C  
BRANCH  14  15
HETATM   15  C   UNL     1      -8.185  11.204  67.632  1.00  0.00    -0.118 C  
HETATM   16  C   UNL     1      -8.991  13.873  67.225  1.00  0.00    -0.221 A  
HETATM   17  H   UNL     1     -11.099  10.676  66.198  1.00  0.00     0.000 HD 
HETATM   18  C   UNL     1      -9.382  15.210  67.146  1.00  0.00    -0.223 A  
HETATM   19  C   UNL     1      -9.881  12.831  66.994  1.00  0.00    -0.231 A  
HETATM   20  O   UNL     1      -7.669  13.619  67.612  1.00  0.00    -0.148 OA 
HETATM   21  C   UNL     1      -7.283  12.340  67.963  1.00  0.00    -0.102 C  
HETATM   22  C   UNL     1      -9.389  11.451  67.081  1.00  0.00    -0.172 C  
HETATM   23  C   UNL     1     -10.713  15.511  66.870  1.00  0.00    -0.317 A  
HETATM   24  O   UNL     1      -6.198  12.137  68.504  1.00  0.00    -0.050 OA 
HETATM   25  O   UNL     1     -10.250  10.502  66.587  1.00  0.00    -0.217 OA 
HETATM   26  C   UNL     1     -11.631  14.479  66.671  1.00  0.00    -0.385 A  
HETATM   27  C   UNL     1     -11.211  13.145  66.720  1.00  0.00    -0.330 A  
ENDBRANCH  14  15
ENDBRANCH   4  14
TORSDOF 2
ENDMDL
MODEL      168
REMARK 921   NORMALIZED FREE ENERGY PREDICTED BY IDOCK:   -4.75 KCAL/MOL
REMARK 922        TOTAL FREE ENERGY PREDICTED BY IDOCK:   -6.12 KCAL/MOL
REMARK 923 INTER-LIGAND FREE ENERGY PREDICTED BY IDOCK:   -5.42 KCAL/MOL
REMARK 924 INTRA-LIGAND FREE ENERGY PREDICTED BY IDOCK:   -0.70 KCAL/MOL
REMARK 927      BINDING AFFINITY PREDICTED BY RF-SCORE:    0.00 PKD
ROOT
HETATM    1  O   UNL     1     -11.347  12.193  67.644  1.00  0.00    -0.271 OA 
HETATM    2  C   UNL     1     -10.229  12.849  68.108  1.00  0.00    -0.239 C  
HETATM    3  H   UNL     1     -12.225  12.556  67.630  1.00  0.00     0.000 HD 
HETATM    4  C   UNL     1      -8.985  12.336  68.129  1.00  0.00    -0.192 C  
HETATM    5  C   UNL     1     -11.732  14.827  68.534  1.00  0.00    -0.347 A  
HETATM    6  C   UNL     1      -7.863  13.161  68.647  1.00  0.00    -0.056 C  
HETATM    7  C   UNL     1      -9.478  16.453  68.799  1.00  0.00    -0.247 A  
HETATM    8  O   UNL     1      -8.058  14.531  68.726  1.00  0.00    -0.146 OA 
HETATM    9  O   UNL     1      -6.780  12.646  68.914  1.00  0.00    -0.089 OA 
HETATM   10  C   UNL     1      -9.352  15.072  68.656  1.00  0.00    -0.202 A  
HETATM   11  C   UNL     1     -10.750  17.023  68.812  1.00  0.00    -0.313 A  
HETATM   12  C   UNL     1     -11.877  16.208  68.708  1.00  0.00    -0.130 A  
HETATM   13  C   UNL     1     -10.458  14.249  68.472  1.00  0.00    -0.253 A  
ENDROOT
BRANCH   4  14
HETATM   14  C   UNL     1      -8.559  11.008  67.541  1.00  0.00    -0.128 C  
BRANCH  14  15
HETATM   15  C   UNL     1      -9.217   9.815  68.184  1.00  0.00    -0.132 C  
HETATM   16  C   UNL     1     -10.551   7.500  69.079  1.00  0.00    -0.180 A  
HETATM   17  H   UNL     1      -8.024   9.653  71.247  1.00  0.00     0.000 HD 
HETATM   18  C   UNL     1     -11.318   6.413  69.499  1.00  0.00    -0.460 A  
HETATM   19  C   UNL     1      -9.829   8.281  69.974  1.00  0.00    -0.182 A  
HETATM   20  O   UNL     1     -10.589   7.816  67.714  1.00  0.00    -0.225 OA 
HETATM   21  C   UNL     1     -10.074   9.017  67.267  1.00  0.00    -0.234 C  
HETATM   22  C   UNL     1      -9.034   9.398  69.452  1.00  0.00    -0.157 C  
HETATM   23  C   UNL     1     -11.398   6.125  70.858  1.00  0.00    -0.355 A  
HETATM   24  O   UNL     1     -10.286   9.402  66.119  1.00  0.00    -0.232 OA 
HETATM   25  O   UNL     1      -8.153   9.947  70.353  1.00  0.00    -0.187 OA 
HETATM   26  C   UNL     1     -10.710   6.919  71.777  1.00  0.00    -0.247 A  
HETATM   27  C   UNL     1      -9.918   7.983  71.333  1.00  0.00    -0.221 A  
ENDBRANCH  14  15
ENDBRANCH   4  14
TORSDOF 2
ENDMDL
MODEL      169
REMARK 921   NORMALIZED FREE ENERGY PREDICTED BY IDOCK:   -4.72 KCAL/MOL
REMARK 922        TOTAL FREE ENERGY PREDICTED BY IDOCK:   -6.09 KCAL/MOL
REMARK 923 INTER-LIGAND FREE ENERGY PREDICTED BY IDOCK:   -5.19 KCAL/MOL
REMARK 924 INTRA-LIGAND FREE ENERGY PREDICTED BY IDOCK:   -0.89 KCAL/MOL
REMARK 927      BINDING AFFINITY PREDICTED BY RF-SCORE:    0.00 PKD
ROOT
HETATM    1  O   UNL     1      -7.625   7.633  67.818  1.00  0.00    -0.110 OA 
HETATM    2  C   UNL     1      -7.915   6.404  68.366  1.00  0.00    -0.106 C  
HETATM    3  H   UNL     1      -7.557   7.814  66.888  1.00  0.00     0.000 HD 
HETATM    4  C   UNL     1      -8.011   6.147  69.683  1.00  0.00    -0.107 C  
HETATM    5  C   UNL     1      -8.122   5.552  66.002  1.00  0.00    -0.108 A  
HETATM    6  C   UNL     1      -8.344   4.773  70.137  1.00  0.00    -0.075 C  
HETATM    7  C   UNL     1      -9.403   3.265  66.963  1.00  0.00    -0.198 A  
HETATM    8  O   UNL     1      -8.915   3.912  69.213  1.00  0.00    -0.095 OA 
HETATM    9  O   UNL     1      -8.192   4.448  71.313  1.00  0.00    -0.080 OA 
HETATM   10  C   UNL     1      -8.858   4.203  67.840  1.00  0.00    -0.113 A  
HETATM   11  C   UNL     1      -9.300   3.478  65.589  1.00  0.00    -0.158 A  
HETATM   12  C   UNL     1      -8.636   4.606  65.109  1.00  0.00    -0.135 A  
HETATM   13  C   UNL     1      -8.261   5.373  67.384  1.00  0.00    -0.100 A  
ENDROOT
BRANCH   4  14
HETATM   14  C   UNL     1      -7.943   7.170  70.798  1.00  0.00    -0.100 C  
BRANCH  14  15
HETATM   15  C   UNL     1      -9.150   8.067  70.878  1.00  0.00    -0.161 C  
HETATM   16  C   UNL     1     -11.237   9.961  70.835  1.00  0.00    -0.360 A  
HETATM   17  H   UNL     1     -11.570   6.235  72.147  1.00  0.00     0.000 HD 
HETATM   18  C   UNL     1     -12.199  10.969  70.887  1.00  0.00    -0.471 A  
HETATM   19  C   UNL     1     -11.412   8.742  71.481  1.00  0.00    -0.375 A  
HETATM   20  O   UNL     1     -10.048  10.251  70.152  1.00  0.00    -0.208 OA 
HETATM   21  C   UNL     1      -8.955   9.414  70.277  1.00  0.00    -0.240 C  
HETATM   22  C   UNL     1     -10.359   7.727  71.366  1.00  0.00    -0.197 C  
HETATM   23  C   UNL     1     -13.351  10.768  71.642  1.00  0.00    -0.390 A  
HETATM   24  O   UNL     1      -7.851   9.759  69.864  1.00  0.00    -0.125 OA 
HETATM   25  O   UNL     1     -10.719   6.475  71.803  1.00  0.00    -0.219 OA 
HETATM   26  C   UNL     1     -13.529   9.566  72.329  1.00  0.00    -0.521 A  
HETATM   27  C   UNL     1     -12.568   8.554  72.236  1.00  0.00    -0.438 A  
ENDBRANCH  14  15
ENDBRANCH   4  14
TORSDOF 2
ENDMDL
MODEL      170
REMARK 921   NORMALIZED FREE ENERGY PREDICTED BY IDOCK:   -4.68 KCAL/MOL
REMARK 922        TOTAL FREE ENERGY PREDICTED BY IDOCK:   -6.04 KCAL/MOL
REMARK 923 INTER-LIGAND FREE ENERGY PREDICTED BY IDOCK:   -5.74 KCAL/MOL
REMARK 924 INTRA-LIGAND FREE ENERGY PREDICTED BY IDOCK:   -0.30 KCAL/MOL
REMARK 927      BINDING AFFINITY PREDICTED BY RF-SCORE:    0.00 PKD
ROOT
HETATM    1  O   UNL     1     -11.060  11.177  64.627  1.00  0.00    -0.231 OA 
HETATM    2  C   UNL     1      -9.944  11.601  65.313  1.00  0.00    -0.255 C  
HETATM    3  H   UNL     1     -11.073  10.473  63.989  1.00  0.00     0.000 HD 
HETATM    4  C   UNL     1      -9.925  12.598  66.216  1.00  0.00    -0.266 C  
HETATM    5  C   UNL     1      -8.684   9.771  64.123  1.00  0.00    -0.233 A  
HETATM    6  C   UNL     1      -8.650  12.945  66.894  1.00  0.00    -0.127 C  
HETATM    7  C   UNL     1      -6.590  10.058  65.948  1.00  0.00    -0.098 A  
HETATM    8  O   UNL     1      -7.633  12.005  66.868  1.00  0.00    -0.134 OA 
HETATM    9  O   UNL     1      -8.542  13.996  67.523  1.00  0.00    -0.169 OA 
HETATM   10  C   UNL     1      -7.675  10.935  65.958  1.00  0.00    -0.107 A  
HETATM   11  C   UNL     1      -6.556   9.029  65.010  1.00  0.00    -0.069 A  
HETATM   12  C   UNL     1      -7.588   8.902  64.080  1.00  0.00    -0.121 A  
HETATM   13  C   UNL     1      -8.752  10.780  65.092  1.00  0.00    -0.174 A  
ENDROOT
BRANCH   4  14
HETATM   14  C   UNL     1     -11.131  13.352  66.738  1.00  0.00    -0.308 C  
BRANCH  14  15
HETATM   15  C   UNL     1     -11.669  12.818  68.040  1.00  0.00    -0.405 C  
HETATM   16  C   UNL     1     -12.769  12.136  70.543  1.00  0.00     0.009 A  
HETATM   17  H   UNL     1     -11.660   9.540  67.759  1.00  0.00     0.000 HD 
HETATM   18  C   UNL     1     -13.217  11.858  71.834  1.00  0.00    -0.467 A  
HETATM   19  C   UNL     1     -12.248  11.148  69.715  1.00  0.00    -0.369 A  
HETATM   20  O   UNL     1     -12.805  13.476  70.132  1.00  0.00    -0.077 OA 
HETATM   21  C   UNL     1     -12.144  13.866  68.983  1.00  0.00    -0.329 C  
HETATM   22  C   UNL     1     -11.811  11.518  68.365  1.00  0.00    -0.283 C  
HETATM   23  C   UNL     1     -13.102  10.561  72.326  1.00  0.00    -0.242 A  
HETATM   24  O   UNL     1     -11.987  15.057  68.723  1.00  0.00    -0.308 OA 
HETATM   25  O   UNL     1     -11.560  10.456  67.531  1.00  0.00    -0.343 OA 
HETATM   26  C   UNL     1     -12.548   9.561  71.525  1.00  0.00    -0.462 A  
HETATM   27  C   UNL     1     -12.136   9.854  70.221  1.00  0.00    -0.168 A  
ENDBRANCH  14  15
ENDBRANCH   4  14
TORSDOF 2
ENDMDL
MODEL      171
REMARK 921   NORMALIZED FREE ENERGY PREDICTED BY IDOCK:   -4.66 KCAL/MOL
REMARK 922        TOTAL FREE ENERGY PREDICTED BY IDOCK:   -6.02 KCAL/MOL
REMARK 923 INTER-LIGAND FREE ENERGY PREDICTED BY IDOCK:   -5.71 KCAL/MOL
REMARK 924 INTRA-LIGAND FREE ENERGY PREDICTED BY IDOCK:   -0.30 KCAL/MOL
REMARK 927      BINDING AFFINITY PREDICTED BY RF-SCORE:    0.00 PKD
ROOT
HETATM    1  O   UNL     1     -11.239  10.060  68.959  1.00  0.00    -0.349 OA 
HETATM    2  C   UNL     1     -12.085  10.309  70.016  1.00  0.00    -0.156 C  
HETATM    3  H   UNL     1     -10.854  10.725  68.400  1.00  0.00     0.000 HD 
HETATM    4  C   UNL     1     -12.632   9.367  70.807  1.00  0.00    -0.109 C  
HETATM    5  C   UNL     1     -11.771  12.759  69.514  1.00  0.00    -0.383 A  
HETATM    6  C   UNL     1     -13.520   9.778  71.925  1.00  0.00    -0.395 C  
HETATM    7  C   UNL     1     -12.848  13.385  72.012  1.00  0.00    -0.328 A  
HETATM    8  O   UNL     1     -13.448  11.095  72.350  1.00  0.00    -0.218 OA 
HETATM    9  O   UNL     1     -14.227   8.952  72.498  1.00  0.00    -0.527 OA 
HETATM   10  C   UNL     1     -12.834  12.071  71.547  1.00  0.00    -0.297 A  
HETATM   11  C   UNL     1     -12.318  14.396  71.212  1.00  0.00    -0.432 A  
HETATM   12  C   UNL     1     -11.805  14.087  69.952  1.00  0.00    -0.393 A  
HETATM   13  C   UNL     1     -12.257  11.729  70.329  1.00  0.00    -0.381 A  
ENDROOT
BRANCH   4  14
HETATM   14  C   UNL     1     -12.330   7.884  70.767  1.00  0.00     0.004 C  
BRANCH  14  15
HETATM   15  C   UNL     1     -10.860   7.560  70.724  1.00  0.00    -0.253 C  
HETATM   16  C   UNL     1      -8.167   6.825  70.340  1.00  0.00    -0.125 A  
HETATM   17  H   UNL     1      -9.489   9.198  73.228  1.00  0.00     0.000 HD 
HETATM   18  C   UNL     1      -6.870   6.343  70.164  1.00  0.00    -0.057 A  
HETATM   19  C   UNL     1      -8.547   7.513  71.487  1.00  0.00    -0.123 A  
HETATM   20  O   UNL     1      -9.097   6.530  69.335  1.00  0.00    -0.141 OA 
HETATM   21  C   UNL     1     -10.444   6.742  69.554  1.00  0.00    -0.220 C  
HETATM   22  C   UNL     1      -9.926   8.001  71.591  1.00  0.00    -0.184 C  
HETATM   23  C   UNL     1      -5.938   6.518  71.184  1.00  0.00    -0.028 A  
HETATM   24  O   UNL     1     -11.284   6.296  68.775  1.00  0.00    -0.363 OA 
HETATM   25  O   UNL     1     -10.147   8.887  72.618  1.00  0.00    -0.098 OA 
HETATM   26  C   UNL     1      -6.309   7.173  72.358  1.00  0.00    -0.051 A  
HETATM   27  C   UNL     1      -7.605   7.680  72.501  1.00  0.00    -0.102 A  
ENDBRANCH  14  15
ENDBRANCH   4  14
TORSDOF 2
ENDMDL
MODEL      172
REMARK 921   NORMALIZED FREE ENERGY PREDICTED BY IDOCK:   -4.65 KCAL/MOL
REMARK 922        TOTAL FREE ENERGY PREDICTED BY IDOCK:   -6.01 KCAL/MOL
REMARK 923 INTER-LIGAND FREE ENERGY PREDICTED BY IDOCK:   -6.24 KCAL/MOL
REMARK 924 INTRA-LIGAND FREE ENERGY PREDICTED BY IDOCK:    0.23 KCAL/MOL
REMARK 927      BINDING AFFINITY PREDICTED BY RF-SCORE:    0.00 PKD
ROOT
HETATM    1  O   UNL     1     -12.148  11.806  68.117  1.00  0.00    -0.556 OA 
HETATM    2  C   UNL     1     -10.967  11.668  67.423  1.00  0.00    -0.261 C  
HETATM    3  H   UNL     1     -12.948  12.179  67.764  1.00  0.00     0.000 HD 
HETATM    4  C   UNL     1      -9.835  11.140  67.922  1.00  0.00    -0.187 C  
HETATM    5  C   UNL     1     -12.180  12.633  65.435  1.00  0.00    -0.517 A  
HETATM    6  C   UNL     1      -8.632  11.039  67.056  1.00  0.00    -0.140 C  
HETATM    7  C   UNL     1     -10.119  11.743  63.775  1.00  0.00    -0.421 A  
HETATM    8  O   UNL     1      -8.820  11.126  65.685  1.00  0.00    -0.196 OA 
HETATM    9  O   UNL     1      -7.528  10.803  67.543  1.00  0.00    -0.090 OA 
HETATM   10  C   UNL     1     -10.021  11.631  65.161  1.00  0.00    -0.259 A  
HETATM   11  C   UNL     1     -11.263  12.311  63.217  1.00  0.00    -0.399 A  
HETATM   12  C   UNL     1     -12.281  12.781  64.048  1.00  0.00    -0.518 A  
HETATM   13  C   UNL     1     -11.056  12.021  66.004  1.00  0.00    -0.364 A  
ENDROOT
BRANCH   4  14
HETATM   14  C   UNL     1      -9.677  10.492  69.282  1.00  0.00    -0.215 C  
BRANCH  14  15
HETATM   15  C   UNL     1      -9.639   8.987  69.241  1.00  0.00    -0.162 C  
HETATM   16  C   UNL     1      -9.449   6.185  69.478  1.00  0.00    -0.140 A  
HETATM   17  H   UNL     1     -11.348   8.101  66.572  1.00  0.00     0.000 HD 
HETATM   18  C   UNL     1      -9.232   4.812  69.590  1.00  0.00    -0.180 A  
HETATM   19  C   UNL     1      -9.981   6.755  68.327  1.00  0.00    -0.153 A  
HETATM   20  O   UNL     1      -9.047   6.983  70.557  1.00  0.00    -0.154 OA 
HETATM   21  C   UNL     1      -8.987   8.357  70.419  1.00  0.00    -0.148 C  
HETATM   22  C   UNL     1     -10.194   8.206  68.292  1.00  0.00    -0.206 C  
HETATM   23  C   UNL     1      -9.516   3.991  68.502  1.00  0.00    -0.215 A  
HETATM   24  O   UNL     1      -8.440   9.050  71.274  1.00  0.00    -0.215 OA 
HETATM   25  O   UNL     1     -10.957   8.651  67.240  1.00  0.00    -0.114 OA 
HETATM   26  C   UNL     1     -10.016   4.547  67.324  1.00  0.00    -0.187 A  
HETATM   27  C   UNL     1     -10.260   5.922  67.244  1.00  0.00    -0.242 A  
ENDBRANCH  14  15
ENDBRANCH   4  14
TORSDOF 2
ENDMDL
MODEL      173
REMARK 921   NORMALIZED FREE ENERGY PREDICTED BY IDOCK:   -4.64 KCAL/MOL
REMARK 922        TOTAL FREE ENERGY PREDICTED BY IDOCK:   -6.00 KCAL/MOL
REMARK 923 INTER-LIGAND FREE ENERGY PREDICTED BY IDOCK:   -5.57 KCAL/MOL
REMARK 924 INTRA-LIGAND FREE ENERGY PREDICTED BY IDOCK:   -0.42 KCAL/MOL
REMARK 927      BINDING AFFINITY PREDICTED BY RF-SCORE:    0.00 PKD
ROOT
HETATM    1  O   UNL     1      -9.505   9.993  70.167  1.00  0.00    -0.365 OA 
HETATM    2  C   UNL     1     -10.373   8.928  70.253  1.00  0.00    -0.206 C  
HETATM    3  H   UNL     1      -9.717  10.889  70.402  1.00  0.00     0.000 HD 
HETATM    4  C   UNL     1     -10.074   7.659  69.921  1.00  0.00    -0.198 C  
HETATM    5  C   UNL     1     -12.058  10.551  71.193  1.00  0.00    -0.473 A  
HETATM    6  C   UNL     1     -11.106   6.601  70.075  1.00  0.00    -0.339 C  
HETATM    7  C   UNL     1     -13.604   8.400  72.074  1.00  0.00    -0.389 A  
HETATM    8  O   UNL     1     -12.185   6.873  70.901  1.00  0.00    -0.381 OA 
HETATM    9  O   UNL     1     -10.955   5.499  69.552  1.00  0.00    -0.288 OA 
HETATM   10  C   UNL     1     -12.470   8.193  71.289  1.00  0.00    -0.252 A  
HETATM   11  C   UNL     1     -13.966   9.701  72.417  1.00  0.00    -0.178 A  
HETATM   12  C   UNL     1     -13.210  10.777  71.953  1.00  0.00    -0.524 A  
HETATM   13  C   UNL     1     -11.657   9.245  70.882  1.00  0.00    -0.364 A  
ENDROOT
BRANCH   4  14
HETATM   14  C   UNL     1      -8.711   7.142  69.513  1.00  0.00    -0.134 C  
BRANCH  14  15
HETATM   15  C   UNL     1      -8.550   6.947  68.027  1.00  0.00    -0.123 C  
HETATM   16  C   UNL     1      -8.236   6.254  65.314  1.00  0.00    -0.138 A  
HETATM   17  H   UNL     1      -9.275   9.842  66.642  1.00  0.00     0.000 HD 
HETATM   18  C   UNL     1      -7.962   5.882  63.998  1.00  0.00    -0.121 A  
HETATM   19  C   UNL     1      -8.425   7.582  65.679  1.00  0.00    -0.141 A  
HETATM   20  O   UNL     1      -8.249   5.234  66.275  1.00  0.00    -0.108 OA 
HETATM   21  C   UNL     1      -8.251   5.549  67.620  1.00  0.00    -0.101 C  
HETATM   22  C   UNL     1      -8.724   7.892  67.082  1.00  0.00    -0.131 C  
HETATM   23  C   UNL     1      -7.833   6.871  63.027  1.00  0.00    -0.108 A  
HETATM   24  O   UNL     1      -8.050   4.682  68.467  1.00  0.00    -0.083 OA 
HETATM   25  O   UNL     1      -9.153   9.177  67.308  1.00  0.00    -0.125 OA 
HETATM   26  C   UNL     1      -7.983   8.213  63.379  1.00  0.00    -0.147 A  
HETATM   27  C   UNL     1      -8.291   8.564  64.698  1.00  0.00    -0.156 A  
ENDBRANCH  14  15
ENDBRANCH   4  14
TORSDOF 2
ENDMDL
MODEL      174
REMARK 921   NORMALIZED FREE ENERGY PREDICTED BY IDOCK:   -4.64 KCAL/MOL
REMARK 922        TOTAL FREE ENERGY PREDICTED BY IDOCK:   -5.99 KCAL/MOL
REMARK 923 INTER-LIGAND FREE ENERGY PREDICTED BY IDOCK:   -5.55 KCAL/MOL
REMARK 924 INTRA-LIGAND FREE ENERGY PREDICTED BY IDOCK:   -0.45 KCAL/MOL
REMARK 927      BINDING AFFINITY PREDICTED BY RF-SCORE:    0.00 PKD
ROOT
HETATM    1  O   UNL     1     -10.705   5.756  68.291  1.00  0.00    -0.236 OA 
HETATM    2  C   UNL     1      -9.662   6.168  67.492  1.00  0.00    -0.117 C  
HETATM    3  H   UNL     1     -11.393   5.157  68.024  1.00  0.00     0.000 HD 
HETATM    4  C   UNL     1      -8.688   7.016  67.869  1.00  0.00    -0.125 C  
HETATM    5  C   UNL     1     -10.607   4.655  65.711  1.00  0.00    -0.264 A  
HETATM    6  C   UNL     1      -7.613   7.368  66.907  1.00  0.00    -0.102 C  
HETATM    7  C   UNL     1      -8.203   4.847  64.305  1.00  0.00    -0.121 A  
HETATM    8  O   UNL     1      -7.432   6.535  65.814  1.00  0.00    -0.077 OA 
HETATM    9  O   UNL     1      -6.863   8.318  67.125  1.00  0.00    -0.068 OA 
HETATM   10  C   UNL     1      -8.428   5.614  65.448  1.00  0.00    -0.147 A  
HETATM   11  C   UNL     1      -9.198   3.978  63.863  1.00  0.00    -0.142 A  
HETATM   12  C   UNL     1     -10.410   3.902  64.549  1.00  0.00    -0.231 A  
HETATM   13  C   UNL     1      -9.597   5.497  66.192  1.00  0.00    -0.158 A  
ENDROOT
BRANCH   4  14
HETATM   14  C   UNL     1      -8.482   7.574  69.262  1.00  0.00    -0.136 C  
BRANCH  14  15
HETATM   15  C   UNL     1      -9.563   8.525  69.705  1.00  0.00    -0.170 C  
HETATM   16  C   UNL     1     -11.436  10.533  70.341  1.00  0.00    -0.341 A  
HETATM   17  H   UNL     1     -11.856   6.680  71.178  1.00  0.00     0.000 HD 
HETATM   18  C   UNL     1     -12.273  11.581  70.723  1.00  0.00    -0.463 A  
HETATM   19  C   UNL     1     -11.596   9.244  70.839  1.00  0.00    -0.364 A  
HETATM   20  O   UNL     1     -10.377  10.846  69.478  1.00  0.00    -0.198 OA 
HETATM   21  C   UNL     1      -9.363   9.931  69.265  1.00  0.00    -0.206 C  
HETATM   22  C   UNL     1     -10.683   8.192  70.377  1.00  0.00    -0.232 C  
HETATM   23  C   UNL     1     -13.273  11.342  71.661  1.00  0.00    -0.431 A  
HETATM   24  O   UNL     1      -8.331  10.263  68.687  1.00  0.00    -0.109 OA 
HETATM   25  O   UNL     1     -11.067   6.914  70.704  1.00  0.00    -0.250 OA 
HETATM   26  C   UNL     1     -13.427  10.064  72.201  1.00  0.00    -0.420 A  
HETATM   27  C   UNL     1     -12.599   9.018  71.779  1.00  0.00    -0.434 A  
ENDBRANCH  14  15
ENDBRANCH   4  14
TORSDOF 2
ENDMDL
MODEL      175
REMARK 921   NORMALIZED FREE ENERGY PREDICTED BY IDOCK:   -4.63 KCAL/MOL
REMARK 922        TOTAL FREE ENERGY PREDICTED BY IDOCK:   -5.99 KCAL/MOL
REMARK 923 INTER-LIGAND FREE ENERGY PREDICTED BY IDOCK:   -5.28 KCAL/MOL
REMARK 924 INTRA-LIGAND FREE ENERGY PREDICTED BY IDOCK:   -0.71 KCAL/MOL
REMARK 927      BINDING AFFINITY PREDICTED BY RF-SCORE:    0.00 PKD
ROOT
HETATM    1  O   UNL     1     -11.602   6.635  67.251  1.00  0.00    -0.747 OA 
HETATM    2  C   UNL     1     -10.263   6.832  66.996  1.00  0.00    -0.237 C  
HETATM    3  H   UNL     1     -12.128   5.931  66.889  1.00  0.00     0.000 HD 
HETATM    4  C   UNL     1      -9.517   7.829  67.507  1.00  0.00    -0.170 C  
HETATM    5  C   UNL     1     -10.361   4.741  65.592  1.00  0.00    -0.219 A  
HETATM    6  C   UNL     1      -8.076   7.916  67.157  1.00  0.00    -0.117 C  
HETATM    7  C   UNL     1      -7.572   4.630  65.603  1.00  0.00    -0.082 A  
HETATM    8  O   UNL     1      -7.470   6.780  66.645  1.00  0.00    -0.076 OA 
HETATM    9  O   UNL     1      -7.436   8.938  67.396  1.00  0.00    -0.084 OA 
HETATM   10  C   UNL     1      -8.248   5.717  66.155  1.00  0.00    -0.111 A  
HETATM   11  C   UNL     1      -8.305   3.590  65.036  1.00  0.00    -0.097 A  
HETATM   12  C   UNL     1      -9.698   3.658  65.005  1.00  0.00    -0.162 A  
HETATM   13  C   UNL     1      -9.636   5.770  66.206  1.00  0.00    -0.159 A  
ENDROOT
BRANCH   4  14
HETATM   14  C   UNL     1      -9.967   8.837  68.543  1.00  0.00    -0.200 C  
BRANCH  14  15
HETATM   15  C   UNL     1      -9.804   8.366  69.965  1.00  0.00    -0.182 C  
HETATM   16  C   UNL     1      -9.331   7.771  72.678  1.00  0.00    -0.188 A  
HETATM   17  H   UNL     1     -11.854   5.817  70.325  1.00  0.00     0.000 HD 
HETATM   18  C   UNL     1      -8.978   7.458  73.991  1.00  0.00    -0.284 A  
HETATM   19  C   UNL     1     -10.098   6.914  71.898  1.00  0.00    -0.198 A  
HETATM   20  O   UNL     1      -8.824   8.967  72.151  1.00  0.00    -0.381 OA 
HETATM   21  C   UNL     1      -8.910   9.216  70.795  1.00  0.00    -0.239 C  
HETATM   22  C   UNL     1     -10.440   7.321  70.531  1.00  0.00    -0.217 C  
HETATM   23  C   UNL     1      -9.368   6.232  74.523  1.00  0.00    -0.216 A  
HETATM   24  O   UNL     1      -8.289  10.149  70.289  1.00  0.00    -0.077 OA 
HETATM   25  O   UNL     1     -11.406   6.554  69.927  1.00  0.00    -0.359 OA 
HETATM   26  C   UNL     1     -10.106   5.341  73.745  1.00  0.00    -0.220 A  
HETATM   27  C   UNL     1     -10.480   5.688  72.442  1.00  0.00    -0.255 A  
ENDBRANCH  14  15
ENDBRANCH   4  14
TORSDOF 2
ENDMDL
MODEL      176
REMARK 921   NORMALIZED FREE ENERGY PREDICTED BY IDOCK:   -4.62 KCAL/MOL
REMARK 922        TOTAL FREE ENERGY PREDICTED BY IDOCK:   -5.97 KCAL/MOL
REMARK 923 INTER-LIGAND FREE ENERGY PREDICTED BY IDOCK:   -5.22 KCAL/MOL
REMARK 924 INTRA-LIGAND FREE ENERGY PREDICTED BY IDOCK:   -0.75 KCAL/MOL
REMARK 927      BINDING AFFINITY PREDICTED BY RF-SCORE:    0.00 PKD
ROOT
HETATM    1  O   UNL     1      -9.952   9.809  64.671  1.00  0.00    -0.409 OA 
HETATM    2  C   UNL     1      -9.979  10.607  65.793  1.00  0.00    -0.257 C  
HETATM    3  H   UNL     1     -10.540   9.891  63.929  1.00  0.00     0.000 HD 
HETATM    4  C   UNL     1      -9.146  10.491  66.844  1.00  0.00    -0.161 C  
HETATM    5  C   UNL     1     -11.858  11.868  64.684  1.00  0.00    -0.282 A  
HETATM    6  C   UNL     1      -9.279  11.430  67.987  1.00  0.00    -0.171 C  
HETATM    7  C   UNL     1     -11.523  13.940  66.526  1.00  0.00    -0.361 A  
HETATM    8  O   UNL     1      -9.976  12.608  67.772  1.00  0.00    -0.207 OA 
HETATM    9  O   UNL     1      -8.716  11.199  69.055  1.00  0.00    -0.124 OA 
HETATM   10  C   UNL     1     -10.808  12.749  66.649  1.00  0.00    -0.264 A  
HETATM   11  C   UNL     1     -12.418  14.089  65.468  1.00  0.00    -0.533 A  
HETATM   12  C   UNL     1     -12.606  13.044  64.564  1.00  0.00    -0.387 A  
HETATM   13  C   UNL     1     -10.922  11.725  65.715  1.00  0.00    -0.353 A  
ENDROOT
BRANCH   4  14
HETATM   14  C   UNL     1      -7.958   9.558  66.941  1.00  0.00    -0.109 C  
BRANCH  14  15
HETATM   15  C   UNL     1      -8.322   8.141  67.301  1.00  0.00    -0.121 C  
HETATM   16  C   UNL     1      -8.923   5.411  67.658  1.00  0.00    -0.108 A  
HETATM   17  H   UNL     1      -8.581   8.068  70.581  1.00  0.00     0.000 HD 
HETATM   18  C   UNL     1      -9.322   4.079  67.763  1.00  0.00    -0.221 A  
HETATM   19  C   UNL     1      -9.005   6.291  68.731  1.00  0.00    -0.125 A  
HETATM   20  O   UNL     1      -8.494   5.849  66.398  1.00  0.00    -0.114 OA 
HETATM   21  C   UNL     1      -8.335   7.199  66.150  1.00  0.00    -0.133 C  
HETATM   22  C   UNL     1      -8.552   7.674  68.544  1.00  0.00    -0.129 C  
HETATM   23  C   UNL     1      -9.856   3.625  68.965  1.00  0.00     0.093 A  
HETATM   24  O   UNL     1      -8.167   7.611  65.005  1.00  0.00    -0.137 OA 
HETATM   25  O   UNL     1      -8.419   8.397  69.705  1.00  0.00    -0.123 OA 
HETATM   26  C   UNL     1      -9.982   4.501  70.044  1.00  0.00    -0.280 A  
HETATM   27  C   UNL     1      -9.544   5.825  69.929  1.00  0.00    -0.201 A  
ENDBRANCH  14  15
ENDBRANCH   4  14
TORSDOF 2
ENDMDL
MODEL      177
REMARK 921   NORMALIZED FREE ENERGY PREDICTED BY IDOCK:   -4.60 KCAL/MOL
REMARK 922        TOTAL FREE ENERGY PREDICTED BY IDOCK:   -5.95 KCAL/MOL
REMARK 923 INTER-LIGAND FREE ENERGY PREDICTED BY IDOCK:   -5.73 KCAL/MOL
REMARK 924 INTRA-LIGAND FREE ENERGY PREDICTED BY IDOCK:   -0.22 KCAL/MOL
REMARK 927      BINDING AFFINITY PREDICTED BY RF-SCORE:    0.00 PKD
ROOT
HETATM    1  O   UNL     1      -9.060   9.160  70.606  1.00  0.00    -0.216 OA 
HETATM    2  C   UNL     1     -10.296   9.723  70.379  1.00  0.00    -0.293 C  
HETATM    3  H   UNL     1      -8.279   9.333  70.094  1.00  0.00     0.000 HD 
HETATM    4  C   UNL     1     -11.403   9.478  71.104  1.00  0.00    -0.440 C  
HETATM    5  C   UNL     1      -9.211  11.014  68.505  1.00  0.00    -0.177 A  
HETATM    6  C   UNL     1     -12.672  10.167  70.755  1.00  0.00    -0.311 C  
HETATM    7  C   UNL     1     -11.424  12.716  68.428  1.00  0.00    -0.350 A  
HETATM    8  O   UNL     1     -12.589  11.303  69.966  1.00  0.00    -0.210 OA 
HETATM    9  O   UNL     1     -13.741   9.783  71.224  1.00  0.00    -0.301 OA 
HETATM   10  C   UNL     1     -11.416  11.586  69.247  1.00  0.00    -0.305 A  
HETATM   11  C   UNL     1     -10.309  12.991  67.639  1.00  0.00    -0.222 A  
HETATM   12  C   UNL     1      -9.215  12.126  67.656  1.00  0.00    -0.181 A  
HETATM   13  C   UNL     1     -10.307  10.754  69.338  1.00  0.00    -0.207 A  
ENDROOT
BRANCH   4  14
HETATM   14  C   UNL     1     -11.475   8.644  72.366  1.00  0.00    -0.369 C  
BRANCH  14  15
HETATM   15  C   UNL     1     -10.765   7.319  72.265  1.00  0.00    -0.266 C  
HETATM   16  C   UNL     1      -9.658   4.764  71.833  1.00  0.00    -0.152 A  
HETATM   17  H   UNL     1      -7.982   7.637  73.990  1.00  0.00     0.000 HD 
HETATM   18  C   UNL     1      -9.212   3.453  71.672  1.00  0.00    -0.190 A  
HETATM   19  C   UNL     1      -9.077   5.632  72.751  1.00  0.00    -0.130 A  
HETATM   20  O   UNL     1     -10.767   5.157  71.071  1.00  0.00    -0.179 OA 
HETATM   21  C   UNL     1     -11.423   6.338  71.360  1.00  0.00    -0.293 C  
HETATM   22  C   UNL     1      -9.594   7.002  72.850  1.00  0.00    -0.148 C  
HETATM   23  C   UNL     1      -8.183   2.983  72.483  1.00  0.00    -0.067 A  
HETATM   24  O   UNL     1     -12.511   6.593  70.849  1.00  0.00    -0.325 OA 
HETATM   25  O   UNL     1      -8.807   7.861  73.578  1.00  0.00    -0.221 OA 
HETATM   26  C   UNL     1      -7.610   3.826  73.436  1.00  0.00    -0.070 A  
HETATM   27  C   UNL     1      -8.049   5.149  73.558  1.00  0.00    -0.110 A  
ENDBRANCH  14  15
ENDBRANCH   4  14
TORSDOF 2
ENDMDL
MODEL      178
REMARK 921   NORMALIZED FREE ENERGY PREDICTED BY IDOCK:   -4.59 KCAL/MOL
REMARK 922        TOTAL FREE ENERGY PREDICTED BY IDOCK:   -5.94 KCAL/MOL
REMARK 923 INTER-LIGAND FREE ENERGY PREDICTED BY IDOCK:   -5.50 KCAL/MOL
REMARK 924 INTRA-LIGAND FREE ENERGY PREDICTED BY IDOCK:   -0.44 KCAL/MOL
REMARK 927      BINDING AFFINITY PREDICTED BY RF-SCORE:    0.00 PKD
ROOT
HETATM    1  O   UNL     1      -8.418  10.124  70.447  1.00  0.00    -0.362 OA 
HETATM    2  C   UNL     1      -9.266   9.307  69.734  1.00  0.00    -0.181 C  
HETATM    3  H   UNL     1      -8.452  10.257  71.388  1.00  0.00     0.000 HD 
HETATM    4  C   UNL     1      -9.219   9.119  68.402  1.00  0.00    -0.132 C  
HETATM    5  C   UNL     1     -10.323   8.704  71.941  1.00  0.00    -0.405 A  
HETATM    6  C   UNL     1     -10.190   8.196  67.760  1.00  0.00    -0.228 C  
HETATM    7  C   UNL     1     -11.571   6.525  70.722  1.00  0.00    -0.437 A  
HETATM    8  O   UNL     1     -10.841   7.282  68.574  1.00  0.00    -0.162 OA 
HETATM    9  O   UNL     1     -10.340   8.196  66.540  1.00  0.00    -0.273 OA 
HETATM   10  C   UNL     1     -10.849   7.450  69.969  1.00  0.00    -0.252 A  
HETATM   11  C   UNL     1     -11.669   6.698  72.101  1.00  0.00    -0.342 A  
HETATM   12  C   UNL     1     -11.069   7.802  72.707  1.00  0.00    -0.457 A  
HETATM   13  C   UNL     1     -10.178   8.514  70.561  1.00  0.00    -0.220 A  
ENDROOT
BRANCH   4  14
HETATM   14  C   UNL     1      -8.165   9.663  67.461  1.00  0.00    -0.114 C  
BRANCH  14  15
HETATM   15  C   UNL     1      -8.101  11.168  67.420  1.00  0.00    -0.132 C  
HETATM   16  C   UNL     1      -8.282  13.971  67.191  1.00  0.00    -0.125 A  
HETATM   17  H   UNL     1      -5.615  12.034  69.393  1.00  0.00     0.000 HD 
HETATM   18  C   UNL     1      -8.353  15.344  66.955  1.00  0.00    -0.268 A  
HETATM   19  C   UNL     1      -7.200  13.391  67.844  1.00  0.00    -0.133 A  
HETATM   20  O   UNL     1      -9.324  13.183  66.682  1.00  0.00    -0.246 OA 
HETATM   21  C   UNL     1      -9.197  11.808  66.644  1.00  0.00    -0.198 C  
HETATM   22  C   UNL     1      -7.206  11.941  68.066  1.00  0.00    -0.090 C  
HETATM   23  C   UNL     1      -7.291  16.154  67.347  1.00  0.00    -0.206 A  
HETATM   24  O   UNL     1      -9.999  11.122  66.015  1.00  0.00    -0.218 OA 
HETATM   25  O   UNL     1      -6.245  11.489  68.938  1.00  0.00    -0.049 OA 
HETATM   26  C   UNL     1      -6.179  15.587  67.971  1.00  0.00    -0.153 A  
HETATM   27  C   UNL     1      -6.142  14.213  68.229  1.00  0.00    -0.118 A  
ENDBRANCH  14  15
ENDBRANCH   4  14
TORSDOF 2
ENDMDL
MODEL      179
REMARK 921   NORMALIZED FREE ENERGY PREDICTED BY IDOCK:   -4.59 KCAL/MOL
REMARK 922        TOTAL FREE ENERGY PREDICTED BY IDOCK:   -5.94 KCAL/MOL
REMARK 923 INTER-LIGAND FREE ENERGY PREDICTED BY IDOCK:   -5.35 KCAL/MOL
REMARK 924 INTRA-LIGAND FREE ENERGY PREDICTED BY IDOCK:   -0.59 KCAL/MOL
REMARK 927      BINDING AFFINITY PREDICTED BY RF-SCORE:    0.00 PKD
ROOT
HETATM    1  O   UNL     1     -11.558  12.009  67.963  1.00  0.00    -0.305 OA 
HETATM    2  C   UNL     1     -10.718  13.003  68.414  1.00  0.00    -0.256 C  
HETATM    3  H   UNL     1     -12.421  11.824  68.314  1.00  0.00     0.000 HD 
HETATM    4  C   UNL     1      -9.495  13.265  67.919  1.00  0.00    -0.214 C  
HETATM    5  C   UNL     1     -12.551  13.632  70.026  1.00  0.00    -0.170 A  
HETATM    6  C   UNL     1      -8.698  14.379  68.493  1.00  0.00    -0.180 C  
HETATM    7  C   UNL     1     -11.267  16.066  70.499  1.00  0.00    -0.397 A  
HETATM    8  O   UNL     1      -9.373  15.335  69.235  1.00  0.00    -0.223 OA 
HETATM    9  O   UNL     1      -7.499  14.484  68.243  1.00  0.00    -0.104 OA 
HETATM   10  C   UNL     1     -10.670  15.082  69.712  1.00  0.00    -0.244 A  
HETATM   11  C   UNL     1     -12.521  15.823  71.057  1.00  0.00    -0.473 A  
HETATM   12  C   UNL     1     -13.150  14.596  70.843  1.00  0.00    -0.416 A  
HETATM   13  C   UNL     1     -11.313  13.883  69.422  1.00  0.00    -0.311 A  
ENDROOT
BRANCH   4  14
HETATM   14  C   UNL     1      -8.866  12.612  66.706  1.00  0.00    -0.168 C  
BRANCH  14  15
HETATM   15  C   UNL     1      -8.859  11.106  66.758  1.00  0.00    -0.162 C  
HETATM   16  C   UNL     1      -9.048   8.300  66.586  1.00  0.00    -0.166 A  
HETATM   17  H   UNL     1      -6.456  10.274  68.847  1.00  0.00     0.000 HD 
HETATM   18  C   UNL     1      -9.259   6.922  66.541  1.00  0.00    -0.195 A  
HETATM   19  C   UNL     1      -8.228   8.889  67.543  1.00  0.00    -0.109 A  
HETATM   20  O   UNL     1      -9.752   9.082  65.661  1.00  0.00    -0.243 OA 
HETATM   21  C   UNL     1      -9.800  10.455  65.808  1.00  0.00    -0.239 C  
HETATM   22  C   UNL     1      -8.046  10.344  67.515  1.00  0.00    -0.107 C  
HETATM   23  C   UNL     1      -8.666   6.114  67.507  1.00  0.00    -0.104 A  
HETATM   24  O   UNL     1     -10.578  11.131  65.139  1.00  0.00    -0.284 OA 
HETATM   25  O   UNL     1      -7.029  10.811  68.313  1.00  0.00    -0.067 OA 
HETATM   26  C   UNL     1      -7.869   6.688  68.499  1.00  0.00    -0.110 A  
HETATM   27  C   UNL     1      -7.642   8.069  68.506  1.00  0.00    -0.104 A  
ENDBRANCH  14  15
ENDBRANCH   4  14
TORSDOF 2
ENDMDL
MODEL      180
REMARK 921   NORMALIZED FREE ENERGY PREDICTED BY IDOCK:   -4.56 KCAL/MOL
REMARK 922        TOTAL FREE ENERGY PREDICTED BY IDOCK:   -5.91 KCAL/MOL
REMARK 923 INTER-LIGAND FREE ENERGY PREDICTED BY IDOCK:   -5.52 KCAL/MOL
REMARK 924 INTRA-LIGAND FREE ENERGY PREDICTED BY IDOCK:   -0.39 KCAL/MOL
REMARK 927      BINDING AFFINITY PREDICTED BY RF-SCORE:    0.00 PKD
ROOT
HETATM    1  O   UNL     1      -7.848  12.077  67.694  1.00  0.00    -0.129 OA 
HETATM    2  C   UNL     1      -9.171  12.229  68.044  1.00  0.00    -0.195 C  
HETATM    3  H   UNL     1      -7.342  12.704  67.191  1.00  0.00     0.000 HD 
HETATM    4  C   UNL     1      -9.889  11.341  68.756  1.00  0.00    -0.194 C  
HETATM    5  C   UNL     1      -9.075  14.474  66.902  1.00  0.00    -0.274 A  
HETATM    6  C   UNL     1     -11.310  11.638  69.074  1.00  0.00    -0.275 C  
HETATM    7  C   UNL     1     -11.466  15.188  68.154  1.00  0.00    -0.356 A  
HETATM    8  O   UNL     1     -11.729  12.955  68.970  1.00  0.00    -0.291 OA 
HETATM    9  O   UNL     1     -12.054  10.755  69.494  1.00  0.00    -0.312 OA 
HETATM   10  C   UNL     1     -10.956  13.895  68.268  1.00  0.00    -0.255 A  
HETATM   11  C   UNL     1     -10.769  16.131  67.401  1.00  0.00    -0.291 A  
HETATM   12  C   UNL     1      -9.589  15.767  66.752  1.00  0.00    -0.253 A  
HETATM   13  C   UNL     1      -9.742  13.532  67.694  1.00  0.00    -0.229 A  
ENDROOT
BRANCH   4  14
HETATM   14  C   UNL     1      -9.357  10.083  69.407  1.00  0.00    -0.237 C  
BRANCH  14  15
HETATM   15  C   UNL     1      -9.557   8.837  68.584  1.00  0.00    -0.159 C  
HETATM   16  C   UNL     1     -10.190   6.439  67.246  1.00  0.00    -0.187 A  
HETATM   17  H   UNL     1      -7.682   9.201  65.904  1.00  0.00     0.000 HD 
HETATM   18  C   UNL     1     -10.460   5.191  66.684  1.00  0.00    -0.328 A  
HETATM   19  C   UNL     1      -9.164   7.252  66.777  1.00  0.00    -0.187 A  
HETATM   20  O   UNL     1     -10.959   6.817  68.355  1.00  0.00    -0.228 OA 
HETATM   21  C   UNL     1     -10.584   7.904  69.120  1.00  0.00    -0.173 C  
HETATM   22  C   UNL     1      -8.952   8.557  67.412  1.00  0.00    -0.134 C  
HETATM   23  C   UNL     1      -9.653   4.726  65.649  1.00  0.00    -0.184 A  
HETATM   24  O   UNL     1     -11.117   8.121  70.206  1.00  0.00    -0.256 OA 
HETATM   25  O   UNL     1      -8.107   9.398  66.730  1.00  0.00    -0.107 OA 
HETATM   26  C   UNL     1      -8.595   5.510  65.188  1.00  0.00    -0.141 A  
HETATM   27  C   UNL     1      -8.362   6.773  65.742  1.00  0.00    -0.143 A  
ENDBRANCH  14  15
ENDBRANCH   4  14
TORSDOF 2
ENDMDL
MODEL      181
REMARK 921   NORMALIZED FREE ENERGY PREDICTED BY IDOCK:   -4.53 KCAL/MOL
REMARK 922        TOTAL FREE ENERGY PREDICTED BY IDOCK:   -5.87 KCAL/MOL
REMARK 923 INTER-LIGAND FREE ENERGY PREDICTED BY IDOCK:   -5.76 KCAL/MOL
REMARK 924 INTRA-LIGAND FREE ENERGY PREDICTED BY IDOCK:   -0.11 KCAL/MOL
REMARK 927      BINDING AFFINITY PREDICTED BY RF-SCORE:    0.00 PKD
ROOT
HETATM    1  O   UNL     1      -9.746  13.625  65.163  1.00  0.00    -0.559 OA 
HETATM    2  C   UNL     1     -10.502  13.375  66.286  1.00  0.00    -0.289 C  
HETATM    3  H   UNL     1      -9.481  14.487  64.864  1.00  0.00     0.000 HD 
HETATM    4  C   UNL     1     -10.877  12.154  66.709  1.00  0.00    -0.289 C  
HETATM    5  C   UNL     1     -10.472  15.862  66.694  1.00  0.00    -0.306 A  
HETATM    6  C   UNL     1     -11.686  12.027  67.949  1.00  0.00    -0.323 C  
HETATM    7  C   UNL     1     -11.352  15.421  69.307  1.00  0.00    -0.323 A  
HETATM    8  O   UNL     1     -11.697  13.105  68.820  1.00  0.00    -0.284 OA 
HETATM    9  O   UNL     1     -12.252  10.970  68.222  1.00  0.00    -0.582 OA 
HETATM   10  C   UNL     1     -11.260  14.370  68.394  1.00  0.00    -0.273 A  
HETATM   11  C   UNL     1     -11.001  16.707  68.900  1.00  0.00    -0.294 A  
HETATM   12  C   UNL     1     -10.588  16.932  67.587  1.00  0.00    -0.325 A  
HETATM   13  C   UNL     1     -10.776  14.558  67.104  1.00  0.00    -0.286 A  
ENDROOT
BRANCH   4  14
HETATM   14  C   UNL     1     -10.443  10.831  66.113  1.00  0.00    -0.278 C  
BRANCH  14  15
HETATM   15  C   UNL     1      -9.442  10.082  66.954  1.00  0.00    -0.203 C  
HETATM   16  C   UNL     1      -7.377   8.956  68.505  1.00  0.00    -0.081 A  
HETATM   17  H   UNL     1     -11.017   7.435  68.111  1.00  0.00     0.000 HD 
HETATM   18  C   UNL     1      -6.287   8.391  69.168  1.00  0.00    -0.043 A  
HETATM   19  C   UNL     1      -8.555   8.249  68.290  1.00  0.00    -0.133 A  
HETATM   20  O   UNL     1      -7.212  10.253  68.003  1.00  0.00    -0.083 OA 
HETATM   21  C   UNL     1      -8.137  10.776  67.119  1.00  0.00    -0.124 C  
HETATM   22  C   UNL     1      -9.661   8.918  67.597  1.00  0.00    -0.161 C  
HETATM   23  C   UNL     1      -6.364   7.067  69.592  1.00  0.00    -0.035 A  
HETATM   24  O   UNL     1      -7.903  11.817  66.509  1.00  0.00    -0.100 OA 
HETATM   25  O   UNL     1     -10.863   8.255  67.658  1.00  0.00    -0.167 OA 
HETATM   26  C   UNL     1      -7.524   6.328  69.353  1.00  0.00    -0.093 A  
HETATM   27  C   UNL     1      -8.619   6.924  68.717  1.00  0.00    -0.124 A  
ENDBRANCH  14  15
ENDBRANCH   4  14
TORSDOF 2
ENDMDL
MODEL      182
REMARK 921   NORMALIZED FREE ENERGY PREDICTED BY IDOCK:   -4.50 KCAL/MOL
REMARK 922        TOTAL FREE ENERGY PREDICTED BY IDOCK:   -5.84 KCAL/MOL
REMARK 923 INTER-LIGAND FREE ENERGY PREDICTED BY IDOCK:   -5.00 KCAL/MOL
REMARK 924 INTRA-LIGAND FREE ENERGY PREDICTED BY IDOCK:   -0.84 KCAL/MOL
REMARK 927      BINDING AFFINITY PREDICTED BY RF-SCORE:    0.00 PKD
ROOT
HETATM    1  O   UNL     1     -10.023   4.074  70.217  1.00  0.00    -0.188 OA 
HETATM    2  C   UNL     1      -8.956   4.598  69.522  1.00  0.00    -0.092 C  
HETATM    3  H   UNL     1     -10.584   3.373  69.907  1.00  0.00     0.000 HD 
HETATM    4  C   UNL     1      -8.160   5.591  69.962  1.00  0.00    -0.090 C  
HETATM    5  C   UNL     1      -9.460   2.898  67.732  1.00  0.00    -0.187 A  
HETATM    6  C   UNL     1      -7.033   6.054  69.112  1.00  0.00    -0.064 C  
HETATM    7  C   UNL     1      -6.951   3.374  66.605  1.00  0.00    -0.054 A  
HETATM    8  O   UNL     1      -6.608   5.212  68.096  1.00  0.00    -0.046 OA 
HETATM    9  O   UNL     1      -6.453   7.108  69.362  1.00  0.00    -0.034 OA 
HETATM   10  C   UNL     1      -7.417   4.146  67.669  1.00  0.00    -0.069 A  
HETATM   11  C   UNL     1      -7.756   2.355  66.100  1.00  0.00    -0.075 A  
HETATM   12  C   UNL     1      -9.021   2.135  66.644  1.00  0.00    -0.122 A  
HETATM   13  C   UNL     1      -8.641   3.893  68.278  1.00  0.00    -0.114 A  
ENDROOT
BRANCH   4  14
HETATM   14  C   UNL     1      -8.204   6.227  71.335  1.00  0.00    -0.122 C  
BRANCH  14  15
HETATM   15  C   UNL     1      -9.381   7.143  71.546  1.00  0.00    -0.156 C  
HETATM   16  C   UNL     1     -11.686   8.638  72.174  1.00  0.00    -0.371 A  
HETATM   17  H   UNL     1      -8.655   9.942  69.975  1.00  0.00     0.000 HD 
HETATM   18  C   UNL     1     -12.893   9.289  72.429  1.00  0.00    -0.418 A  
HETATM   19  C   UNL     1     -10.768   9.123  71.249  1.00  0.00    -0.401 A  
HETATM   20  O   UNL     1     -11.461   7.430  72.848  1.00  0.00    -0.298 OA 
HETATM   21  C   UNL     1     -10.424   6.604  72.459  1.00  0.00    -0.205 C  
HETATM   22  C   UNL     1      -9.514   8.389  71.049  1.00  0.00    -0.170 C  
HETATM   23  C   UNL     1     -13.209  10.436  71.706  1.00  0.00    -0.529 A  
HETATM   24  O   UNL     1     -10.341   5.456  72.891  1.00  0.00    -0.179 OA 
HETATM   25  O   UNL     1      -8.561   9.065  70.326  1.00  0.00    -0.143 OA 
HETATM   26  C   UNL     1     -12.319  10.919  70.746  1.00  0.00    -0.487 A  
HETATM   27  C   UNL     1     -11.098  10.271  70.530  1.00  0.00    -0.381 A  
ENDBRANCH  14  15
ENDBRANCH   4  14
TORSDOF 2
ENDMDL
MODEL      183
REMARK 921   NORMALIZED FREE ENERGY PREDICTED BY IDOCK:   -4.50 KCAL/MOL
REMARK 922        TOTAL FREE ENERGY PREDICTED BY IDOCK:   -5.84 KCAL/MOL
REMARK 923 INTER-LIGAND FREE ENERGY PREDICTED BY IDOCK:   -5.38 KCAL/MOL
REMARK 924 INTRA-LIGAND FREE ENERGY PREDICTED BY IDOCK:   -0.45 KCAL/MOL
REMARK 927      BINDING AFFINITY PREDICTED BY RF-SCORE:    0.00 PKD
ROOT
HETATM    1  O   UNL     1      -7.937  10.294  67.234  1.00  0.00    -0.106 OA 
HETATM    2  C   UNL     1      -8.925  10.288  68.193  1.00  0.00    -0.130 C  
HETATM    3  H   UNL     1      -7.089   9.876  67.322  1.00  0.00     0.000 HD 
HETATM    4  C   UNL     1     -10.126  10.881  68.069  1.00  0.00    -0.197 C  
HETATM    5  C   UNL     1      -7.380   8.858  69.580  1.00  0.00    -0.056 A  
HETATM    6  C   UNL     1     -11.106  10.786  69.182  1.00  0.00    -0.249 C  
HETATM    7  C   UNL     1      -9.527   8.184  71.233  1.00  0.00    -0.199 A  
HETATM    8  O   UNL     1     -10.910   9.790  70.125  1.00  0.00    -0.247 OA 
HETATM    9  O   UNL     1     -12.096  11.515  69.208  1.00  0.00    -0.321 OA 
HETATM   10  C   UNL     1      -9.671   9.136  70.224  1.00  0.00    -0.211 A  
HETATM   11  C   UNL     1      -8.290   7.567  71.415  1.00  0.00    -0.108 A  
HETATM   12  C   UNL     1      -7.211   7.924  70.608  1.00  0.00    -0.053 A  
HETATM   13  C   UNL     1      -8.630   9.450  69.357  1.00  0.00    -0.148 A  
ENDROOT
BRANCH   4  14
HETATM   14  C   UNL     1     -10.665  11.552  66.823  1.00  0.00    -0.311 C  
BRANCH  14  15
HETATM   15  C   UNL     1     -10.513  13.050  66.821  1.00  0.00    -0.264 C  
HETATM   16  C   UNL     1     -10.562  15.868  66.851  1.00  0.00    -0.309 A  
HETATM   17  H   UNL     1      -7.296  13.644  67.177  1.00  0.00     0.000 HD 
HETATM   18  C   UNL     1     -10.637  17.257  66.753  1.00  0.00    -0.192 A  
HETATM   19  C   UNL     1      -9.349  15.190  66.790  1.00  0.00    -0.268 A  
HETATM   20  O   UNL     1     -11.773  15.170  66.951  1.00  0.00    -0.244 OA 
HETATM   21  C   UNL     1     -11.798  13.798  66.789  1.00  0.00    -0.420 C  
HETATM   22  C   UNL     1      -9.352  13.728  66.916  1.00  0.00    -0.261 C  
HETATM   23  C   UNL     1      -9.469  17.986  66.546  1.00  0.00    -0.306 A  
HETATM   24  O   UNL     1     -12.864  13.201  66.662  1.00  0.00     0.018 OA 
HETATM   25  O   UNL     1      -8.114  13.166  67.110  1.00  0.00    -0.168 OA 
HETATM   26  C   UNL     1      -8.246  17.322  66.444  1.00  0.00    -0.317 A  
HETATM   27  C   UNL     1      -8.187  15.931  66.580  1.00  0.00    -0.317 A  
ENDBRANCH  14  15
ENDBRANCH   4  14
TORSDOF 2
ENDMDL
MODEL      184
REMARK 921   NORMALIZED FREE ENERGY PREDICTED BY IDOCK:   -4.48 KCAL/MOL
REMARK 922        TOTAL FREE ENERGY PREDICTED BY IDOCK:   -5.82 KCAL/MOL
REMARK 923 INTER-LIGAND FREE ENERGY PREDICTED BY IDOCK:   -4.99 KCAL/MOL
REMARK 924 INTRA-LIGAND FREE ENERGY PREDICTED BY IDOCK:   -0.83 KCAL/MOL
REMARK 927      BINDING AFFINITY PREDICTED BY RF-SCORE:    0.00 PKD
ROOT
HETATM    1  O   UNL     1     -10.330   9.132  70.068  1.00  0.00    -0.188 OA 
HETATM    2  C   UNL     1      -9.798   8.640  68.897  1.00  0.00    -0.179 C  
HETATM    3  H   UNL     1     -10.094   9.961  70.468  1.00  0.00     0.000 HD 
HETATM    4  C   UNL     1     -10.132   7.466  68.330  1.00  0.00    -0.196 C  
HETATM    5  C   UNL     1      -8.466  10.775  68.763  1.00  0.00    -0.148 A  
HETATM    6  C   UNL     1      -9.486   7.061  67.055  1.00  0.00    -0.149 C  
HETATM    7  C   UNL     1      -7.892  10.223  66.087  1.00  0.00    -0.129 A  
HETATM    8  O   UNL     1      -8.870   8.051  66.306  1.00  0.00    -0.145 OA 
HETATM    9  O   UNL     1      -9.575   5.905  66.648  1.00  0.00    -0.144 OA 
HETATM   10  C   UNL     1      -8.564   9.295  66.883  1.00  0.00    -0.127 A  
HETATM   11  C   UNL     1      -7.502  11.439  66.644  1.00  0.00    -0.110 A  
HETATM   12  C   UNL     1      -7.764  11.704  67.988  1.00  0.00    -0.121 A  
HETATM   13  C   UNL     1      -8.904   9.569  68.203  1.00  0.00    -0.124 A  
ENDROOT
BRANCH   4  14
HETATM   14  C   UNL     1     -11.229   6.532  68.794  1.00  0.00    -0.319 C  
BRANCH  14  15
HETATM   15  C   UNL     1     -10.969   5.903  70.138  1.00  0.00    -0.412 C  
HETATM   16  C   UNL     1     -10.742   4.910  72.765  1.00  0.00    -0.228 A  
HETATM   17  H   UNL     1      -8.877   3.422  69.599  1.00  0.00     0.000 HD 
HETATM   18  C   UNL     1     -10.587   4.530  74.098  1.00  0.00    -0.335 A  
HETATM   19  C   UNL     1      -9.908   4.430  71.761  1.00  0.00    -0.253 A  
HETATM   20  O   UNL     1     -11.740   5.852  72.484  1.00  0.00    -0.303 OA 
HETATM   21  C   UNL     1     -11.783   6.468  71.248  1.00  0.00    -0.331 C  
HETATM   22  C   UNL     1     -10.144   4.866  70.381  1.00  0.00    -0.245 C  
HETATM   23  C   UNL     1      -9.541   3.678  74.443  1.00  0.00    -0.133 A  
HETATM   24  O   UNL     1     -12.510   7.440  71.056  1.00  0.00    -0.314 OA 
HETATM   25  O   UNL     1      -9.458   4.153  69.428  1.00  0.00    -0.160 OA 
HETATM   26  C   UNL     1      -8.669   3.215  73.457  1.00  0.00    -0.077 A  
HETATM   27  C   UNL     1      -8.863   3.580  72.120  1.00  0.00    -0.122 A  
ENDBRANCH  14  15
ENDBRANCH   4  14
TORSDOF 2
ENDMDL
MODEL      185
REMARK 921   NORMALIZED FREE ENERGY PREDICTED BY IDOCK:   -4.48 KCAL/MOL
REMARK 922        TOTAL FREE ENERGY PREDICTED BY IDOCK:   -5.82 KCAL/MOL
REMARK 923 INTER-LIGAND FREE ENERGY PREDICTED BY IDOCK:   -5.27 KCAL/MOL
REMARK 924 INTRA-LIGAND FREE ENERGY PREDICTED BY IDOCK:   -0.54 KCAL/MOL
REMARK 927      BINDING AFFINITY PREDICTED BY RF-SCORE:    0.00 PKD
ROOT
HETATM    1  O   UNL     1      -7.863   9.612  69.940  1.00  0.00    -0.115 OA 
HETATM    2  C   UNL     1      -9.196   9.845  69.687  1.00  0.00    -0.227 C  
HETATM    3  H   UNL     1      -7.517   9.240  70.743  1.00  0.00     0.000 HD 
HETATM    4  C   UNL     1      -9.687  10.372  68.550  1.00  0.00    -0.174 C  
HETATM    5  C   UNL     1      -9.662   8.842  71.952  1.00  0.00    -0.386 A  
HETATM    6  C   UNL     1     -11.154  10.558  68.404  1.00  0.00    -0.281 C  
HETATM    7  C   UNL     1     -12.357   8.597  71.264  1.00  0.00    -0.298 A  
HETATM    8  O   UNL     1     -11.979   9.844  69.258  1.00  0.00     0.156 OA 
HETATM    9  O   UNL     1     -11.609  11.257  67.501  1.00  0.00    -0.508 OA 
HETATM   10  C   UNL     1     -11.459   9.252  70.421  1.00  0.00    -0.213 A  
HETATM   11  C   UNL     1     -11.896   8.062  72.465  1.00  0.00    -0.419 A  
HETATM   12  C   UNL     1     -10.556   8.209  72.822  1.00  0.00    -0.386 A  
HETATM   13  C   UNL     1     -10.104   9.341  70.720  1.00  0.00    -0.358 A  
ENDROOT
BRANCH   4  14
HETATM   14  C   UNL     1      -8.894  10.689  67.299  1.00  0.00    -0.137 C  
BRANCH  14  15
HETATM   15  C   UNL     1      -8.214  12.033  67.332  1.00  0.00    -0.168 C  
HETATM   16  C   UNL     1      -6.662  14.381  67.472  1.00  0.00    -0.108 A  
HETATM   17  H   UNL     1     -10.320  14.157  65.960  1.00  0.00     0.000 HD 
HETATM   18  C   UNL     1      -5.891  15.527  67.665  1.00  0.00    -0.132 A  
HETATM   19  C   UNL     1      -7.997  14.447  67.090  1.00  0.00    -0.147 A  
HETATM   20  O   UNL     1      -6.050  13.149  67.743  1.00  0.00    -0.127 OA 
HETATM   21  C   UNL     1      -6.813  12.001  67.829  1.00  0.00    -0.100 C  
HETATM   22  C   UNL     1      -8.736  13.195  66.893  1.00  0.00    -0.148 C  
HETATM   23  C   UNL     1      -6.485  16.776  67.511  1.00  0.00    -0.178 A  
HETATM   24  O   UNL     1      -6.331  10.960  68.271  1.00  0.00    -0.056 OA 
HETATM   25  O   UNL     1      -9.952  13.338  66.269  1.00  0.00    -0.279 OA 
HETATM   26  C   UNL     1      -7.833  16.866  67.165  1.00  0.00    -0.207 A  
HETATM   27  C   UNL     1      -8.581  15.704  66.942  1.00  0.00    -0.281 A  
ENDBRANCH  14  15
ENDBRANCH   4  14
TORSDOF 2
ENDMDL
MODEL      186
REMARK 921   NORMALIZED FREE ENERGY PREDICTED BY IDOCK:   -4.47 KCAL/MOL
REMARK 922        TOTAL FREE ENERGY PREDICTED BY IDOCK:   -5.80 KCAL/MOL
REMARK 923 INTER-LIGAND FREE ENERGY PREDICTED BY IDOCK:   -5.63 KCAL/MOL
REMARK 924 INTRA-LIGAND FREE ENERGY PREDICTED BY IDOCK:   -0.18 KCAL/MOL
REMARK 927      BINDING AFFINITY PREDICTED BY RF-SCORE:    0.00 PKD
ROOT
HETATM    1  O   UNL     1     -10.764   6.311  69.044  1.00  0.00    -0.235 OA 
HETATM    2  C   UNL     1     -10.529   7.358  69.908  1.00  0.00    -0.231 C  
HETATM    3  H   UNL     1     -11.563   5.799  69.012  1.00  0.00     0.000 HD 
HETATM    4  C   UNL     1      -9.397   8.084  69.953  1.00  0.00    -0.156 C  
HETATM    5  C   UNL     1     -12.870   6.993  70.769  1.00  0.00    -0.069 A  
HETATM    6  C   UNL     1      -9.282   9.198  70.930  1.00  0.00    -0.261 C  
HETATM    7  C   UNL     1     -12.777   9.491  72.012  1.00  0.00    -0.479 A  
HETATM    8  O   UNL     1     -10.455   9.693  71.478  1.00  0.00    -0.228 OA 
HETATM    9  O   UNL     1      -8.190   9.708  71.171  1.00  0.00    -0.239 OA 
HETATM   10  C   UNL     1     -11.649   8.959  71.389  1.00  0.00    -0.312 A  
HETATM   11  C   UNL     1     -13.963   8.759  72.013  1.00  0.00    -0.511 A  
HETATM   12  C   UNL     1     -14.002   7.499  71.417  1.00  0.00    -0.468 A  
HETATM   13  C   UNL     1     -11.686   7.740  70.720  1.00  0.00    -0.242 A  
ENDROOT
BRANCH   4  14
HETATM   14  C   UNL     1      -8.229   7.974  68.997  1.00  0.00    -0.128 C  
BRANCH  14  15
HETATM   15  C   UNL     1      -8.518   8.500  67.615  1.00  0.00    -0.129 C  
HETATM   16  C   UNL     1      -8.958   9.185  64.918  1.00  0.00    -0.151 A  
HETATM   17  H   UNL     1     -10.229  11.280  68.035  1.00  0.00     0.000 HD 
HETATM   18  C   UNL     1      -9.052   9.527  63.569  1.00  0.00    -0.145 A  
HETATM   19  C   UNL     1      -9.288  10.080  65.929  1.00  0.00    -0.236 A  
HETATM   20  O   UNL     1      -8.451   7.913  65.217  1.00  0.00    -0.147 OA 
HETATM   21  C   UNL     1      -8.086   7.601  66.512  1.00  0.00    -0.119 C  
HETATM   22  C   UNL     1      -9.177   9.639  67.324  1.00  0.00    -0.134 C  
HETATM   23  C   UNL     1      -9.448  10.816  63.223  1.00  0.00    -0.353 A  
HETATM   24  O   UNL     1      -7.449   6.578  66.755  1.00  0.00    -0.077 OA 
HETATM   25  O   UNL     1      -9.765  10.477  68.240  1.00  0.00    -0.147 OA 
HETATM   26  C   UNL     1      -9.749  11.742  64.223  1.00  0.00    -0.170 A  
HETATM   27  C   UNL     1      -9.682  11.368  65.570  1.00  0.00    -0.263 A  
ENDBRANCH  14  15
ENDBRANCH   4  14
TORSDOF 2
ENDMDL
MODEL      187
REMARK 921   NORMALIZED FREE ENERGY PREDICTED BY IDOCK:   -4.47 KCAL/MOL
REMARK 922        TOTAL FREE ENERGY PREDICTED BY IDOCK:   -5.80 KCAL/MOL
REMARK 923 INTER-LIGAND FREE ENERGY PREDICTED BY IDOCK:   -5.46 KCAL/MOL
REMARK 924 INTRA-LIGAND FREE ENERGY PREDICTED BY IDOCK:   -0.34 KCAL/MOL
REMARK 927      BINDING AFFINITY PREDICTED BY RF-SCORE:    0.00 PKD
ROOT
HETATM    1  O   UNL     1     -11.703  13.302  67.671  1.00  0.00    -0.326 OA 
HETATM    2  C   UNL     1     -10.336  13.463  67.703  1.00  0.00    -0.238 C  
HETATM    3  H   UNL     1     -12.337  13.999  67.786  1.00  0.00     0.000 HD 
HETATM    4  C   UNL     1      -9.437  12.475  67.540  1.00  0.00    -0.185 C  
HETATM    5  C   UNL     1     -10.771  15.924  68.031  1.00  0.00    -0.301 A  
HETATM    6  C   UNL     1      -7.986  12.793  67.586  1.00  0.00    -0.165 C  
HETATM    7  C   UNL     1      -8.105  16.456  67.394  1.00  0.00    -0.175 A  
HETATM    8  O   UNL     1      -7.613  14.116  67.408  1.00  0.00    -0.182 OA 
HETATM    9  O   UNL     1      -7.153  11.896  67.694  1.00  0.00    -0.094 OA 
HETATM   10  C   UNL     1      -8.561  15.145  67.530  1.00  0.00    -0.180 A  
HETATM   11  C   UNL     1      -8.997  17.510  67.584  1.00  0.00    -0.231 A  
HETATM   12  C   UNL     1     -10.322  17.245  67.929  1.00  0.00    -0.360 A  
HETATM   13  C   UNL     1      -9.895  14.857  67.796  1.00  0.00    -0.217 A  
ENDROOT
BRANCH   4  14
HETATM   14  C   UNL     1      -9.747  11.040  67.171  1.00  0.00    -0.198 C  
BRANCH  14  15
HETATM   15  C   UNL     1      -9.898  10.123  68.357  1.00  0.00    -0.164 C  
HETATM   16  C   UNL     1      -9.858   8.324  70.526  1.00  0.00    -0.183 A  
HETATM   17  H   UNL     1     -12.737  10.951  69.798  1.00  0.00     0.000 HD 
HETATM   18  C   UNL     1      -9.834   7.342  71.516  1.00  0.00    -0.185 A  
HETATM   19  C   UNL     1     -10.997   9.076  70.261  1.00  0.00    -0.274 A  
HETATM   20  O   UNL     1      -8.696   8.481  69.758  1.00  0.00    -0.129 OA 
HETATM   21  C   UNL     1      -8.727   9.239  68.603  1.00  0.00    -0.132 C  
HETATM   22  C   UNL     1     -10.938  10.101  69.214  1.00  0.00    -0.240 C  
HETATM   23  C   UNL     1     -10.997   7.075  72.233  1.00  0.00    -0.279 A  
HETATM   24  O   UNL     1      -7.787   9.215  67.812  1.00  0.00    -0.099 OA 
HETATM   25  O   UNL     1     -12.004  10.966  69.195  1.00  0.00    -0.326 OA 
HETATM   26  C   UNL     1     -12.162   7.792  71.958  1.00  0.00    -0.342 A  
HETATM   27  C   UNL     1     -12.156   8.798  70.985  1.00  0.00    -0.262 A  
ENDBRANCH  14  15
ENDBRANCH   4  14
TORSDOF 2
ENDMDL
MODEL      188
REMARK 921   NORMALIZED FREE ENERGY PREDICTED BY IDOCK:   -4.47 KCAL/MOL
REMARK 922        TOTAL FREE ENERGY PREDICTED BY IDOCK:   -5.80 KCAL/MOL
REMARK 923 INTER-LIGAND FREE ENERGY PREDICTED BY IDOCK:   -6.74 KCAL/MOL
REMARK 924 INTRA-LIGAND FREE ENERGY PREDICTED BY IDOCK:    0.94 KCAL/MOL
REMARK 927      BINDING AFFINITY PREDICTED BY RF-SCORE:    0.00 PKD
ROOT
HETATM    1  O   UNL     1     -12.173  11.783  67.746  1.00  0.00    -0.536 OA 
HETATM    2  C   UNL     1     -10.818  12.010  67.839  1.00  0.00    -0.215 C  
HETATM    3  H   UNL     1     -12.570  11.001  67.380  1.00  0.00     0.000 HD 
HETATM    4  C   UNL     1     -10.255  13.117  68.357  1.00  0.00    -0.247 C  
HETATM    5  C   UNL     1     -10.501   9.717  66.842  1.00  0.00    -0.281 A  
HETATM    6  C   UNL     1      -8.774  13.228  68.408  1.00  0.00    -0.126 C  
HETATM    7  C   UNL     1      -7.826   9.766  67.639  1.00  0.00    -0.095 A  
HETATM    8  O   UNL     1      -8.039  12.059  68.284  1.00  0.00    -0.142 OA 
HETATM    9  O   UNL     1      -8.235  14.309  68.634  1.00  0.00    -0.148 OA 
HETATM   10  C   UNL     1      -8.639  10.889  67.789  1.00  0.00    -0.128 A  
HETATM   11  C   UNL     1      -8.362   8.608  67.079  1.00  0.00    -0.106 A  
HETATM   12  C   UNL     1      -9.691   8.592  66.656  1.00  0.00    -0.315 A  
HETATM   13  C   UNL     1      -9.986  10.871  67.446  1.00  0.00    -0.215 A  
ENDROOT
BRANCH   4  14
HETATM   14  C   UNL     1     -10.985  14.253  69.041  1.00  0.00    -0.282 C  
BRANCH  14  15
HETATM   15  C   UNL     1     -10.822  15.585  68.355  1.00  0.00    -0.273 C  
HETATM   16  C   UNL     1     -10.619  17.921  66.792  1.00  0.00    -0.247 A  
HETATM   17  H   UNL     1     -10.450  17.809  70.751  1.00  0.00     0.000 HD 
HETATM   18  C   UNL     1     -10.419  19.025  65.964  1.00  0.00    -0.530 A  
HETATM   19  C   UNL     1     -10.366  17.969  68.158  1.00  0.00    -0.398 A  
HETATM   20  O   UNL     1     -11.027  16.730  66.176  1.00  0.00    -0.069 OA 
HETATM   21  C   UNL     1     -10.994  15.540  66.878  1.00  0.00    -0.268 C  
HETATM   22  C   UNL     1     -10.616  16.769  68.964  1.00  0.00    -0.343 C  
HETATM   23  C   UNL     1      -9.912  20.200  66.512  1.00  0.00    -0.586 A  
HETATM   24  O   UNL     1     -11.143  14.466  66.300  1.00  0.00    -0.319 OA 
HETATM   25  O   UNL     1     -10.596  16.975  70.322  1.00  0.00     0.047 OA 
HETATM   26  C   UNL     1      -9.616  20.259  67.875  1.00  0.00    -0.438 A  
HETATM   27  C   UNL     1      -9.857  19.151  68.695  1.00  0.00    -0.485 A  
ENDBRANCH  14  15
ENDBRANCH   4  14
TORSDOF 2
ENDMDL
MODEL      189
REMARK 921   NORMALIZED FREE ENERGY PREDICTED BY IDOCK:   -4.41 KCAL/MOL
REMARK 922        TOTAL FREE ENERGY PREDICTED BY IDOCK:   -5.73 KCAL/MOL
REMARK 923 INTER-LIGAND FREE ENERGY PREDICTED BY IDOCK:   -6.45 KCAL/MOL
REMARK 924 INTRA-LIGAND FREE ENERGY PREDICTED BY IDOCK:    0.72 KCAL/MOL
REMARK 927      BINDING AFFINITY PREDICTED BY RF-SCORE:    0.00 PKD
ROOT
HETATM    1  O   UNL     1     -11.019  15.810  68.502  1.00  0.00    -0.278 OA 
HETATM    2  C   UNL     1     -11.513  14.583  68.885  1.00  0.00    -0.300 C  
HETATM    3  H   UNL     1     -11.157  16.624  68.973  1.00  0.00     0.000 HD 
HETATM    4  C   UNL     1     -11.319  13.430  68.218  1.00  0.00    -0.330 C  
HETATM    5  C   UNL     1     -12.472  15.749  70.903  1.00  0.00    -0.451 A  
HETATM    6  C   UNL     1     -11.902  12.171  68.751  1.00  0.00    -0.303 C  
HETATM    7  C   UNL     1     -12.879  13.267  72.115  1.00  0.00    -0.291 A  
HETATM    8  O   UNL     1     -12.283  12.155  70.084  1.00  0.00    -0.292 OA 
HETATM    9  O   UNL     1     -11.960  11.163  68.050  1.00  0.00    -0.625 OA 
HETATM   10  C   UNL     1     -12.438  13.356  70.795  1.00  0.00    -0.341 A  
HETATM   11  C   UNL     1     -13.120  14.438  72.832  1.00  0.00    -0.612 A  
HETATM   12  C   UNL     1     -12.944  15.677  72.218  1.00  0.00    -0.529 A  
HETATM   13  C   UNL     1     -12.181  14.581  70.188  1.00  0.00    -0.399 A  
ENDROOT
BRANCH   4  14
HETATM   14  C   UNL     1     -10.431  13.239  67.007  1.00  0.00    -0.249 C  
BRANCH  14  15
HETATM   15  C   UNL     1      -9.459  12.095  67.137  1.00  0.00    -0.190 C  
HETATM   16  C   UNL     1      -7.526  10.111  67.653  1.00  0.00    -0.090 A  
HETATM   17  H   UNL     1     -10.504   9.767  65.058  1.00  0.00     0.000 HD 
HETATM   18  C   UNL     1      -6.482   9.212  67.873  1.00  0.00    -0.056 A  
HETATM   19  C   UNL     1      -8.417   9.961  66.597  1.00  0.00    -0.126 A  
HETATM   20  O   UNL     1      -7.602  11.218  68.508  1.00  0.00    -0.107 OA 
HETATM   21  C   UNL     1      -8.434  12.277  68.199  1.00  0.00    -0.176 C  
HETATM   22  C   UNL     1      -9.497  10.941  66.441  1.00  0.00    -0.187 C  
HETATM   23  C   UNL     1      -6.301   8.155  66.985  1.00  0.00    -0.056 A  
HETATM   24  O   UNL     1      -8.358  13.337  68.817  1.00  0.00    -0.045 OA 
HETATM   25  O   UNL     1     -10.477  10.580  65.548  1.00  0.00    -0.237 OA 
HETATM   26  C   UNL     1      -7.162   8.006  65.898  1.00  0.00    -0.065 A  
HETATM   27  C   UNL     1      -8.224   8.899  65.714  1.00  0.00    -0.116 A  
ENDBRANCH  14  15
ENDBRANCH   4  14
TORSDOF 2
ENDMDL
MODEL      190
REMARK 921   NORMALIZED FREE ENERGY PREDICTED BY IDOCK:   -4.41 KCAL/MOL
REMARK 922        TOTAL FREE ENERGY PREDICTED BY IDOCK:   -5.73 KCAL/MOL
REMARK 923 INTER-LIGAND FREE ENERGY PREDICTED BY IDOCK:   -5.00 KCAL/MOL
REMARK 924 INTRA-LIGAND FREE ENERGY PREDICTED BY IDOCK:   -0.73 KCAL/MOL
REMARK 927      BINDING AFFINITY PREDICTED BY RF-SCORE:    0.00 PKD
ROOT
HETATM    1  O   UNL     1      -8.068   6.187  67.677  1.00  0.00    -0.111 OA 
HETATM    2  C   UNL     1      -8.199   7.290  66.862  1.00  0.00    -0.117 C  
HETATM    3  H   UNL     1      -8.131   5.285  67.387  1.00  0.00     0.000 HD 
HETATM    4  C   UNL     1      -8.111   8.568  67.271  1.00  0.00    -0.105 C  
HETATM    5  C   UNL     1      -8.473   5.673  64.948  1.00  0.00    -0.122 A  
HETATM    6  C   UNL     1      -8.260   9.665  66.280  1.00  0.00    -0.116 C  
HETATM    7  C   UNL     1      -8.030   7.762  63.150  1.00  0.00    -0.117 A  
HETATM    8  O   UNL     1      -8.099   9.345  64.941  1.00  0.00    -0.116 OA 
HETATM    9  O   UNL     1      -8.437  10.823  66.650  1.00  0.00    -0.133 OA 
HETATM   10  C   UNL     1      -8.142   8.006  64.518  1.00  0.00    -0.132 A  
HETATM   11  C   UNL     1      -8.145   6.455  62.680  1.00  0.00    -0.084 A  
HETATM   12  C   UNL     1      -8.394   5.415  63.575  1.00  0.00    -0.097 A  
HETATM   13  C   UNL     1      -8.313   6.975  65.436  1.00  0.00    -0.121 A  
ENDROOT
BRANCH   4  14
HETATM   14  C   UNL     1      -7.732   9.035  68.661  1.00  0.00    -0.096 C  
BRANCH  14  15
HETATM   15  C   UNL     1      -8.870   9.000  69.648  1.00  0.00    -0.145 C  
HETATM   16  C   UNL     1     -10.846   8.666  71.629  1.00  0.00    -0.304 A  
HETATM   17  H   UNL     1     -10.469  11.856  69.304  1.00  0.00     0.000 HD 
HETATM   18  C   UNL     1     -11.861   8.400  72.547  1.00  0.00    -0.427 A  
HETATM   19  C   UNL     1     -10.912   9.741  70.749  1.00  0.00    -0.406 A  
HETATM   20  O   UNL     1      -9.776   7.763  71.584  1.00  0.00    -0.159 OA 
HETATM   21  C   UNL     1      -8.874   7.809  70.538  1.00  0.00    -0.145 C  
HETATM   22  C   UNL     1      -9.797   9.963  69.823  1.00  0.00    -0.236 C  
HETATM   23  C   UNL     1     -12.995   9.208  72.557  1.00  0.00    -0.416 A  
HETATM   24  O   UNL     1      -8.063   6.901  70.369  1.00  0.00    -0.112 OA 
HETATM   25  O   UNL     1      -9.816  11.178  69.181  1.00  0.00    -0.163 OA 
HETATM   26  C   UNL     1     -13.099  10.269  71.657  1.00  0.00    -0.553 A  
HETATM   27  C   UNL     1     -12.054  10.541  70.767  1.00  0.00    -0.470 A  
ENDBRANCH  14  15
ENDBRANCH   4  14
TORSDOF 2
ENDMDL
MODEL      191
REMARK 921   NORMALIZED FREE ENERGY PREDICTED BY IDOCK:   -4.36 KCAL/MOL
REMARK 922        TOTAL FREE ENERGY PREDICTED BY IDOCK:   -5.69 KCAL/MOL
REMARK 923 INTER-LIGAND FREE ENERGY PREDICTED BY IDOCK:   -5.71 KCAL/MOL
REMARK 924 INTRA-LIGAND FREE ENERGY PREDICTED BY IDOCK:    0.02 KCAL/MOL
REMARK 927      BINDING AFFINITY PREDICTED BY RF-SCORE:    0.00 PKD
ROOT
HETATM    1  O   UNL     1     -11.902  12.978  66.802  1.00  0.00    -0.368 OA 
HETATM    2  C   UNL     1     -10.579  12.898  67.177  1.00  0.00    -0.238 C  
HETATM    3  H   UNL     1     -12.354  13.779  66.564  1.00  0.00     0.000 HD 
HETATM    4  C   UNL     1      -9.939  11.764  67.515  1.00  0.00    -0.204 C  
HETATM    5  C   UNL     1     -10.455  15.383  66.771  1.00  0.00    -0.299 A  
HETATM    6  C   UNL     1      -8.502  11.821  67.889  1.00  0.00    -0.154 C  
HETATM    7  C   UNL     1      -7.668  15.225  66.800  1.00  0.00     0.024 A  
HETATM    8  O   UNL     1      -7.785  12.945  67.511  1.00  0.00    -0.151 OA 
HETATM    9  O   UNL     1      -7.961  10.863  68.438  1.00  0.00    -0.113 OA 
HETATM   10  C   UNL     1      -8.452  14.115  67.112  1.00  0.00    -0.195 A  
HETATM   11  C   UNL     1      -8.292  16.428  66.473  1.00  0.00    -0.337 A  
HETATM   12  C   UNL     1      -9.684  16.514  66.486  1.00  0.00    -0.290 A  
HETATM   13  C   UNL     1      -9.841  14.157  67.054  1.00  0.00    -0.258 A  
ENDROOT
BRANCH   4  14
HETATM   14  C   UNL     1     -10.503  10.362  67.429  1.00  0.00    -0.299 C  
BRANCH  14  15
HETATM   15  C   UNL     1     -10.749   9.719  68.769  1.00  0.00    -0.243 C  
HETATM   16  C   UNL     1     -11.494   8.693  71.285  1.00  0.00    -0.283 A  
HETATM   17  H   UNL     1      -8.558   7.278  69.028  1.00  0.00     0.000 HD 
HETATM   18  C   UNL     1     -11.839   8.297  72.578  1.00  0.00    -0.439 A  
HETATM   19  C   UNL     1     -10.338   8.240  70.660  1.00  0.00    -0.220 A  
HETATM   20  O   UNL     1     -12.335   9.624  70.660  1.00  0.00    -0.236 OA 
HETATM   21  C   UNL     1     -11.928  10.255  69.501  1.00  0.00    -0.016 C  
HETATM   22  C   UNL     1     -10.053   8.691  69.294  1.00  0.00    -0.202 C  
HETATM   23  C   UNL     1     -10.979   7.457  73.281  1.00  0.00    -0.367 A  
HETATM   24  O   UNL     1     -12.550  11.219  69.059  1.00  0.00    -0.332 OA 
HETATM   25  O   UNL     1      -9.048   8.002  68.659  1.00  0.00    -0.140 OA 
HETATM   26  C   UNL     1      -9.795   7.021  72.685  1.00  0.00    -0.186 A  
HETATM   27  C   UNL     1      -9.485   7.401  71.375  1.00  0.00    -0.160 A  
ENDBRANCH  14  15
ENDBRANCH   4  14
TORSDOF 2
ENDMDL
MODEL      192
REMARK 921   NORMALIZED FREE ENERGY PREDICTED BY IDOCK:   -4.32 KCAL/MOL
REMARK 922        TOTAL FREE ENERGY PREDICTED BY IDOCK:   -5.64 KCAL/MOL
REMARK 923 INTER-LIGAND FREE ENERGY PREDICTED BY IDOCK:   -4.79 KCAL/MOL
REMARK 924 INTRA-LIGAND FREE ENERGY PREDICTED BY IDOCK:   -0.84 KCAL/MOL
REMARK 927      BINDING AFFINITY PREDICTED BY RF-SCORE:    0.00 PKD
ROOT
HETATM    1  O   UNL     1     -10.752   6.940  72.550  1.00  0.00    -0.213 OA 
HETATM    2  C   UNL     1      -9.952   6.025  71.903  1.00  0.00    -0.169 C  
HETATM    3  H   UNL     1     -10.597   7.277  73.424  1.00  0.00     0.000 HD 
HETATM    4  C   UNL     1     -10.170   5.547  70.664  1.00  0.00    -0.308 C  
HETATM    5  C   UNL     1      -8.462   6.094  73.935  1.00  0.00    -0.119 A  
HETATM    6  C   UNL     1      -9.216   4.568  70.080  1.00  0.00    -0.130 C  
HETATM    7  C   UNL     1      -6.443   4.841  72.469  1.00  0.00    -0.045 A  
HETATM    8  O   UNL     1      -7.959   4.477  70.655  1.00  0.00    -0.059 OA 
HETATM    9  O   UNL     1      -9.514   3.929  69.073  1.00  0.00    -0.162 OA 
HETATM   10  C   UNL     1      -7.716   5.019  71.929  1.00  0.00    -0.107 A  
HETATM   11  C   UNL     1      -6.183   5.295  73.761  1.00  0.00    -0.057 A  
HETATM   12  C   UNL     1      -7.199   5.896  74.504  1.00  0.00    -0.087 A  
HETATM   13  C   UNL     1      -8.721   5.685  72.621  1.00  0.00    -0.123 A  
ENDROOT
BRANCH   4  14
HETATM   14  C   UNL     1     -11.249   6.008  69.708  1.00  0.00    -0.440 C  
BRANCH  14  15
HETATM   15  C   UNL     1     -10.869   7.220  68.897  1.00  0.00    -0.119 C  
HETATM   16  C   UNL     1     -10.191   9.289  67.108  1.00  0.00    -0.257 A  
HETATM   17  H   UNL     1     -11.022   9.784  70.953  1.00  0.00     0.000 HD 
HETATM   18  C   UNL     1      -9.748  10.255  66.204  1.00  0.00    -0.266 A  
HETATM   19  C   UNL     1     -10.286   9.546  68.471  1.00  0.00    -0.234 A  
HETATM   20  O   UNL     1     -10.478   8.018  66.592  1.00  0.00    -0.303 OA 
HETATM   21  C   UNL     1     -10.667   6.950  67.448  1.00  0.00    -0.326 C  
HETATM   22  C   UNL     1     -10.775   8.483  69.356  1.00  0.00    -0.156 C  
HETATM   23  C   UNL     1      -9.349  11.499  66.683  1.00  0.00    -0.201 A  
HETATM   24  O   UNL     1     -10.708   5.800  67.016  1.00  0.00    -0.272 OA 
HETATM   25  O   UNL     1     -11.087   8.893  70.629  1.00  0.00    -0.248 OA 
HETATM   26  C   UNL     1      -9.402  11.765  68.052  1.00  0.00    -0.184 A  
HETATM   27  C   UNL     1      -9.882  10.795  68.939  1.00  0.00    -0.209 A  
ENDBRANCH  14  15
ENDBRANCH   4  14
TORSDOF 2
ENDMDL
MODEL      193
REMARK 921   NORMALIZED FREE ENERGY PREDICTED BY IDOCK:   -4.29 KCAL/MOL
REMARK 922        TOTAL FREE ENERGY PREDICTED BY IDOCK:   -5.60 KCAL/MOL
REMARK 923 INTER-LIGAND FREE ENERGY PREDICTED BY IDOCK:   -4.96 KCAL/MOL
REMARK 924 INTRA-LIGAND FREE ENERGY PREDICTED BY IDOCK:   -0.64 KCAL/MOL
REMARK 927      BINDING AFFINITY PREDICTED BY RF-SCORE:    0.00 PKD
ROOT
HETATM    1  O   UNL     1     -10.139  10.383  63.814  1.00  0.00    -0.425 OA 
HETATM    2  C   UNL     1      -9.889  11.135  64.940  1.00  0.00    -0.266 C  
HETATM    3  H   UNL     1     -10.936  10.424  63.297  1.00  0.00     0.000 HD 
HETATM    4  C   UNL     1      -8.761  11.077  65.672  1.00  0.00    -0.162 C  
HETATM    5  C   UNL     1     -12.133  12.215  64.553  1.00  0.00    -0.416 A  
HETATM    6  C   UNL     1      -8.617  11.956  66.861  1.00  0.00    -0.185 C  
HETATM    7  C   UNL     1     -11.435  14.247  66.336  1.00  0.00    -0.361 A  
HETATM    8  O   UNL     1      -9.455  13.056  66.951  1.00  0.00    -0.228 OA 
HETATM    9  O   UNL     1      -7.727  11.753  67.685  1.00  0.00    -0.121 OA 
HETATM   10  C   UNL     1     -10.608  13.140  66.152  1.00  0.00    -0.279 A  
HETATM   11  C   UNL     1     -12.627  14.332  65.618  1.00  0.00    -0.429 A  
HETATM   12  C   UNL     1     -12.989  13.304  64.749  1.00  0.00    -0.140 A  
HETATM   13  C   UNL     1     -10.910  12.142  65.233  1.00  0.00    -0.336 A  
ENDROOT
BRANCH   4  14
HETATM   14  C   UNL     1      -7.519  10.280  65.335  1.00  0.00    -0.145 C  
BRANCH  14  15
HETATM   15  C   UNL     1      -7.772   8.807  65.140  1.00  0.00    -0.103 C  
HETATM   16  C   UNL     1      -8.122   6.094  64.466  1.00  0.00    -0.118 A  
HETATM   17  H   UNL     1      -8.408   7.585  68.128  1.00  0.00     0.000 HD 
HETATM   18  C   UNL     1      -8.388   4.787  64.057  1.00  0.00    -0.124 A  
HETATM   19  C   UNL     1      -8.422   6.540  65.748  1.00  0.00    -0.149 A  
HETATM   20  O   UNL     1      -7.595   6.966  63.504  1.00  0.00    -0.088 OA 
HETATM   21  C   UNL     1      -7.550   8.325  63.751  1.00  0.00    -0.134 C  
HETATM   22  C   UNL     1      -8.098   7.925  66.106  1.00  0.00    -0.109 C  
HETATM   23  C   UNL     1      -9.011   3.914  64.945  1.00  0.00    -0.131 A  
HETATM   24  O   UNL     1      -7.292   9.118  62.849  1.00  0.00    -0.098 OA 
HETATM   25  O   UNL     1      -8.179   8.206  67.448  1.00  0.00    -0.119 OA 
HETATM   26  C   UNL     1      -9.354   4.352  66.224  1.00  0.00    -0.160 A  
HETATM   27  C   UNL     1      -9.047   5.657  66.626  1.00  0.00    -0.129 A  
ENDBRANCH  14  15
ENDBRANCH   4  14
TORSDOF 2
ENDMDL
MODEL      194
REMARK 921   NORMALIZED FREE ENERGY PREDICTED BY IDOCK:   -4.28 KCAL/MOL
REMARK 922        TOTAL FREE ENERGY PREDICTED BY IDOCK:   -5.59 KCAL/MOL
REMARK 923 INTER-LIGAND FREE ENERGY PREDICTED BY IDOCK:   -5.30 KCAL/MOL
REMARK 924 INTRA-LIGAND FREE ENERGY PREDICTED BY IDOCK:   -0.29 KCAL/MOL
REMARK 927      BINDING AFFINITY PREDICTED BY RF-SCORE:    0.00 PKD
ROOT
HETATM    1  O   UNL     1      -6.957   7.555  66.798  1.00  0.00    -0.073 OA 
HETATM    2  C   UNL     1      -8.241   7.175  67.117  1.00  0.00    -0.118 C  
HETATM    3  H   UNL     1      -6.314   7.001  66.370  1.00  0.00     0.000 HD 
HETATM    4  C   UNL     1      -9.151   7.958  67.723  1.00  0.00    -0.138 C  
HETATM    5  C   UNL     1      -7.708   4.960  66.037  1.00  0.00    -0.091 A  
HETATM    6  C   UNL     1     -10.509   7.422  67.998  1.00  0.00    -0.199 C  
HETATM    7  C   UNL     1     -10.434   4.360  65.976  1.00  0.00    -0.136 A  
HETATM    8  O   UNL     1     -10.911   6.299  67.293  1.00  0.00    -0.301 OA 
HETATM    9  O   UNL     1     -11.271   8.010  68.764  1.00  0.00     0.230 OA 
HETATM   10  C   UNL     1      -9.967   5.507  66.618  1.00  0.00    -0.186 A  
HETATM   11  C   UNL     1      -9.522   3.506  65.361  1.00  0.00    -0.152 A  
HETATM   12  C   UNL     1      -8.158   3.790  65.415  1.00  0.00    -0.097 A  
HETATM   13  C   UNL     1      -8.620   5.851  66.617  1.00  0.00    -0.119 A  
ENDROOT
BRANCH   4  14
HETATM   14  C   UNL     1      -8.985   9.427  68.053  1.00  0.00    -0.128 C  
BRANCH  14  15
HETATM   15  C   UNL     1      -9.582  10.355  67.028  1.00  0.00    -0.197 C  
HETATM   16  C   UNL     1     -10.469  11.970  64.896  1.00  0.00    -0.285 A  
HETATM   17  H   UNL     1     -12.406  11.446  68.315  1.00  0.00     0.000 HD 
HETATM   18  C   UNL     1     -10.804  12.835  63.854  1.00  0.00    -0.447 A  
HETATM   19  C   UNL     1     -11.132  11.998  66.118  1.00  0.00    -0.367 A  
HETATM   20  O   UNL     1      -9.386  11.107  64.684  1.00  0.00    -0.214 OA 
HETATM   21  C   UNL     1      -8.833  10.415  65.744  1.00  0.00    -0.170 C  
HETATM   22  C   UNL     1     -10.731  11.046  67.159  1.00  0.00    -0.265 C  
HETATM   23  C   UNL     1     -11.802  13.783  64.055  1.00  0.00    -0.410 A  
HETATM   24  O   UNL     1      -7.762   9.825  65.619  1.00  0.00    -0.107 OA 
HETATM   25  O   UNL     1     -11.596  10.960  68.223  1.00  0.00    -0.391 OA 
HETATM   26  C   UNL     1     -12.455  13.853  65.286  1.00  0.00    -0.504 A  
HETATM   27  C   UNL     1     -12.129  12.954  66.307  1.00  0.00    -0.433 A  
ENDBRANCH  14  15
ENDBRANCH   4  14
TORSDOF 2
ENDMDL
MODEL      195
REMARK 921   NORMALIZED FREE ENERGY PREDICTED BY IDOCK:   -4.26 KCAL/MOL
REMARK 922        TOTAL FREE ENERGY PREDICTED BY IDOCK:   -5.57 KCAL/MOL
REMARK 923 INTER-LIGAND FREE ENERGY PREDICTED BY IDOCK:   -5.66 KCAL/MOL
REMARK 924 INTRA-LIGAND FREE ENERGY PREDICTED BY IDOCK:    0.10 KCAL/MOL
REMARK 927      BINDING AFFINITY PREDICTED BY RF-SCORE:    0.00 PKD
ROOT
HETATM    1  O   UNL     1     -10.908   7.377  68.723  1.00  0.00    -0.368 OA 
HETATM    2  C   UNL     1     -10.656   8.702  68.444  1.00  0.00    -0.120 C  
HETATM    3  H   UNL     1     -10.664   6.647  68.167  1.00  0.00     0.000 HD 
HETATM    4  C   UNL     1     -11.001   9.737  69.232  1.00  0.00    -0.222 C  
HETATM    5  C   UNL     1      -9.498   7.901  66.354  1.00  0.00    -0.258 A  
HETATM    6  C   UNL     1     -10.656  11.120  68.814  1.00  0.00    -0.202 C  
HETATM    7  C   UNL     1      -8.326  10.419  66.067  1.00  0.00    -0.149 A  
HETATM    8  O   UNL     1      -9.674  11.272  67.848  1.00  0.00    -0.170 OA 
HETATM    9  O   UNL     1     -11.169  12.088  69.372  1.00  0.00    -0.242 OA 
HETATM   10  C   UNL     1      -9.278  10.180  67.057  1.00  0.00    -0.146 A  
HETATM   11  C   UNL     1      -7.962   9.382  65.210  1.00  0.00    -0.110 A  
HETATM   12  C   UNL     1      -8.568   8.132  65.335  1.00  0.00    -0.154 A  
HETATM   13  C   UNL     1      -9.837   8.922  67.251  1.00  0.00    -0.256 A  
ENDROOT
BRANCH   4  14
HETATM   14  C   UNL     1     -11.611   9.640  70.615  1.00  0.00    -0.371 C  
BRANCH  14  15
HETATM   15  C   UNL     1     -11.086   8.490  71.435  1.00  0.00    -0.328 C  
HETATM   16  C   UNL     1      -9.825   6.521  73.008  1.00  0.00    -0.166 A  
HETATM   17  H   UNL     1     -13.667   6.536  72.027  1.00  0.00     0.000 HD 
HETATM   18  C   UNL     1      -9.127   5.524  73.689  1.00  0.00    -0.124 A  
HETATM   19  C   UNL     1     -11.133   6.337  72.573  1.00  0.00    -0.307 A  
HETATM   20  O   UNL     1      -9.129   7.702  72.719  1.00  0.00    -0.139 OA 
HETATM   21  C   UNL     1      -9.659   8.619  71.832  1.00  0.00    -0.307 C  
HETATM   22  C   UNL     1     -11.805   7.439  71.875  1.00  0.00    -0.297 C  
HETATM   23  C   UNL     1      -9.740   4.293  73.904  1.00  0.00    -0.149 A  
HETATM   24  O   UNL     1      -8.975   9.548  71.408  1.00  0.00    -0.209 OA 
HETATM   25  O   UNL     1     -13.160   7.277  71.716  1.00  0.00    -0.347 OA 
HETATM   26  C   UNL     1     -11.039   4.075  73.444  1.00  0.00    -0.341 A  
HETATM   27  C   UNL     1     -11.735   5.099  72.793  1.00  0.00    -0.181 A  
ENDBRANCH  14  15
ENDBRANCH   4  14
TORSDOF 2
ENDMDL
MODEL      196
REMARK 921   NORMALIZED FREE ENERGY PREDICTED BY IDOCK:   -4.25 KCAL/MOL
REMARK 922        TOTAL FREE ENERGY PREDICTED BY IDOCK:   -5.56 KCAL/MOL
REMARK 923 INTER-LIGAND FREE ENERGY PREDICTED BY IDOCK:   -5.12 KCAL/MOL
REMARK 924 INTRA-LIGAND FREE ENERGY PREDICTED BY IDOCK:   -0.44 KCAL/MOL
REMARK 927      BINDING AFFINITY PREDICTED BY RF-SCORE:    0.00 PKD
ROOT
HETATM    1  O   UNL     1      -7.765   9.660  67.267  1.00  0.00    -0.091 OA 
HETATM    2  C   UNL     1      -8.364   9.057  68.350  1.00  0.00    -0.124 C  
HETATM    3  H   UNL     1      -6.827   9.734  67.134  1.00  0.00     0.000 HD 
HETATM    4  C   UNL     1      -9.692   8.952  68.540  1.00  0.00    -0.172 C  
HETATM    5  C   UNL     1      -6.040   8.508  69.158  1.00  0.00    -0.042 A  
HETATM    6  C   UNL     1     -10.205   8.262  69.752  1.00  0.00    -0.204 C  
HETATM    7  C   UNL     1      -7.125   6.673  70.961  1.00  0.00    -0.072 A  
HETATM    8  O   UNL     1      -9.332   7.429  70.433  1.00  0.00    -0.161 OA 
HETATM    9  O   UNL     1     -11.384   8.370  70.081  1.00  0.00    -0.195 OA 
HETATM   10  C   UNL     1      -7.949   7.502  70.200  1.00  0.00    -0.111 A  
HETATM   11  C   UNL     1      -5.743   6.770  70.817  1.00  0.00    -0.027 A  
HETATM   12  C   UNL     1      -5.200   7.706  69.937  1.00  0.00    -0.023 A  
HETATM   13  C   UNL     1      -7.432   8.387  69.260  1.00  0.00    -0.084 A  
ENDROOT
BRANCH   4  14
HETATM   14  C   UNL     1     -10.768   9.360  67.556  1.00  0.00    -0.290 C  
BRANCH  14  15
HETATM   15  C   UNL     1     -10.867  10.848  67.340  1.00  0.00    -0.333 C  
HETATM   16  C   UNL     1     -11.216  13.642  67.232  1.00  0.00    -0.309 A  
HETATM   17  H   UNL     1      -8.834  11.550  64.850  1.00  0.00     0.000 HD 
HETATM   18  C   UNL     1     -11.509  15.003  67.157  1.00  0.00    -0.304 A  
HETATM   19  C   UNL     1     -10.498  12.987  66.237  1.00  0.00    -0.285 A  
HETATM   20  O   UNL     1     -11.733  12.939  68.329  1.00  0.00    -0.312 OA 
HETATM   21  C   UNL     1     -11.710  11.558  68.339  1.00  0.00    -0.303 C  
HETATM   22  C   UNL     1     -10.218  11.556  66.396  1.00  0.00    -0.224 C  
HETATM   23  C   UNL     1     -11.109  15.722  66.034  1.00  0.00    -0.085 A  
HETATM   24  O   UNL     1     -12.342  10.926  69.183  1.00  0.00    -0.435 OA 
HETATM   25  O   UNL     1      -9.292  11.051  65.516  1.00  0.00    -0.202 OA 
HETATM   26  C   UNL     1     -10.420  15.076  65.006  1.00  0.00    -0.415 A  
HETATM   27  C   UNL     1     -10.105  13.717  65.116  1.00  0.00    -0.314 A  
ENDBRANCH  14  15
ENDBRANCH   4  14
TORSDOF 2
ENDMDL
MODEL      197
REMARK 921   NORMALIZED FREE ENERGY PREDICTED BY IDOCK:   -4.23 KCAL/MOL
REMARK 922        TOTAL FREE ENERGY PREDICTED BY IDOCK:   -5.53 KCAL/MOL
REMARK 923 INTER-LIGAND FREE ENERGY PREDICTED BY IDOCK:   -4.99 KCAL/MOL
REMARK 924 INTRA-LIGAND FREE ENERGY PREDICTED BY IDOCK:   -0.54 KCAL/MOL
REMARK 927      BINDING AFFINITY PREDICTED BY RF-SCORE:    0.00 PKD
ROOT
HETATM    1  O   UNL     1      -8.722   4.995  67.791  1.00  0.00    -0.104 OA 
HETATM    2  C   UNL     1      -8.234   6.268  67.600  1.00  0.00    -0.117 C  
HETATM    3  H   UNL     1      -8.853   4.353  67.104  1.00  0.00     0.000 HD 
HETATM    4  C   UNL     1      -8.049   7.179  68.573  1.00  0.00    -0.125 C  
HETATM    5  C   UNL     1      -8.001   5.667  65.163  1.00  0.00    -0.113 A  
HETATM    6  C   UNL     1      -7.501   8.516  68.227  1.00  0.00    -0.096 C  
HETATM    7  C   UNL     1      -6.362   7.896  64.793  1.00  0.00    -0.048 A  
HETATM    8  O   UNL     1      -6.848   8.647  67.011  1.00  0.00    -0.065 OA 
HETATM    9  O   UNL     1      -7.556   9.443  69.033  1.00  0.00    -0.072 OA 
HETATM   10  C   UNL     1      -7.002   7.672  66.012  1.00  0.00    -0.065 A  
HETATM   11  C   UNL     1      -6.551   6.993  63.749  1.00  0.00    -0.043 A  
HETATM   12  C   UNL     1      -7.391   5.894  63.925  1.00  0.00    -0.061 A  
HETATM   13  C   UNL     1      -7.782   6.542  66.234  1.00  0.00    -0.095 A  
ENDROOT
BRANCH   4  14
HETATM   14  C   UNL     1      -8.220   6.944  70.059  1.00  0.00    -0.134 C  
BRANCH  14  15
HETATM   15  C   UNL     1      -9.621   7.184  70.558  1.00  0.00    -0.169 C  
HETATM   16  C   UNL     1     -12.281   7.299  71.482  1.00  0.00    -0.352 A  
HETATM   17  H   UNL     1      -9.724  10.330  71.519  1.00  0.00     0.000 HD 
HETATM   18  C   UNL     1     -13.632   7.324  71.825  1.00  0.00    -0.386 A  
HETATM   19  C   UNL     1     -11.527   8.463  71.373  1.00  0.00    -0.328 A  
HETATM   20  O   UNL     1     -11.722   6.049  71.187  1.00  0.00    -0.214 OA 
HETATM   21  C   UNL     1     -10.477   5.969  70.593  1.00  0.00    -0.246 C  
HETATM   22  C   UNL     1     -10.107   8.352  71.022  1.00  0.00    -0.196 C  
HETATM   23  C   UNL     1     -14.259   8.552  72.023  1.00  0.00    -0.535 A  
HETATM   24  O   UNL     1     -10.067   4.903  70.137  1.00  0.00    -0.241 OA 
HETATM   25  O   UNL     1      -9.382   9.507  71.192  1.00  0.00    -0.222 OA 
HETATM   26  C   UNL     1     -13.530   9.733  71.882  1.00  0.00    -0.485 A  
HETATM   27  C   UNL     1     -12.166   9.686  71.571  1.00  0.00    -0.483 A  
ENDBRANCH  14  15
ENDBRANCH   4  14
TORSDOF 2
ENDMDL
MODEL      198
REMARK 921   NORMALIZED FREE ENERGY PREDICTED BY IDOCK:   -4.09 KCAL/MOL
REMARK 922        TOTAL FREE ENERGY PREDICTED BY IDOCK:   -5.37 KCAL/MOL
REMARK 923 INTER-LIGAND FREE ENERGY PREDICTED BY IDOCK:   -5.18 KCAL/MOL
REMARK 924 INTRA-LIGAND FREE ENERGY PREDICTED BY IDOCK:   -0.20 KCAL/MOL
REMARK 927      BINDING AFFINITY PREDICTED BY RF-SCORE:    0.00 PKD
ROOT
HETATM    1  O   UNL     1      -7.184   7.166  67.735  1.00  0.00    -0.086 OA 
HETATM    2  C   UNL     1      -8.487   6.754  67.901  1.00  0.00    -0.119 C  
HETATM    3  H   UNL     1      -6.585   6.829  67.079  1.00  0.00     0.000 HD 
HETATM    4  C   UNL     1      -9.336   7.231  68.830  1.00  0.00    -0.144 C  
HETATM    5  C   UNL     1      -8.117   5.235  65.924  1.00  0.00    -0.110 A  
HETATM    6  C   UNL     1     -10.724   6.704  68.892  1.00  0.00    -0.264 C  
HETATM    7  C   UNL     1     -10.877   4.876  65.712  1.00  0.00    -0.121 A  
HETATM    8  O   UNL     1     -11.207   6.041  67.775  1.00  0.00    -0.236 OA 
HETATM    9  O   UNL     1     -11.435   6.926  69.869  1.00  0.00    -0.288 OA 
HETATM   10  C   UNL     1     -10.327   5.585  66.780  1.00  0.00    -0.269 A  
HETATM   11  C   UNL     1     -10.031   4.340  64.743  1.00  0.00    -0.163 A  
HETATM   12  C   UNL     1      -8.650   4.495  64.864  1.00  0.00    -0.135 A  
HETATM   13  C   UNL     1      -8.960   5.819  66.878  1.00  0.00    -0.114 A  
ENDROOT
BRANCH   4  14
HETATM   14  C   UNL     1      -9.068   8.383  69.775  1.00  0.00    -0.153 C  
BRANCH  14  15
HETATM   15  C   UNL     1      -9.712   9.679  69.357  1.00  0.00    -0.203 C  
HETATM   16  C   UNL     1     -10.737  12.078  68.293  1.00  0.00    -0.224 A  
HETATM   17  H   UNL     1     -12.184  10.194  71.467  1.00  0.00     0.000 HD 
HETATM   18  C   UNL     1     -11.133  13.316  67.786  1.00  0.00    -0.289 A  
HETATM   19  C   UNL     1     -11.203  11.598  69.512  1.00  0.00    -0.282 A  
HETATM   20  O   UNL     1      -9.793  11.359  67.548  1.00  0.00    -0.176 OA 
HETATM   21  C   UNL     1      -9.162  10.262  68.104  1.00  0.00    -0.136 C  
HETATM   22  C   UNL     1     -10.752  10.280  69.969  1.00  0.00    -0.292 C  
HETATM   23  C   UNL     1     -11.987  14.115  68.541  1.00  0.00    -0.367 A  
HETATM   24  O   UNL     1      -8.189   9.752  67.554  1.00  0.00    -0.113 OA 
HETATM   25  O   UNL     1     -11.452   9.771  71.036  1.00  0.00    -0.322 OA 
HETATM   26  C   UNL     1     -12.438  13.669  69.784  1.00  0.00    -0.193 A  
HETATM   27  C   UNL     1     -12.057  12.409  70.259  1.00  0.00    -0.377 A  
ENDBRANCH  14  15
ENDBRANCH   4  14
TORSDOF 2
ENDMDL
MODEL      199
REMARK 921   NORMALIZED FREE ENERGY PREDICTED BY IDOCK:   -4.09 KCAL/MOL
REMARK 922        TOTAL FREE ENERGY PREDICTED BY IDOCK:   -5.37 KCAL/MOL
REMARK 923 INTER-LIGAND FREE ENERGY PREDICTED BY IDOCK:   -5.96 KCAL/MOL
REMARK 924 INTRA-LIGAND FREE ENERGY PREDICTED BY IDOCK:    0.58 KCAL/MOL
REMARK 927      BINDING AFFINITY PREDICTED BY RF-SCORE:    0.00 PKD
ROOT
HETATM    1  O   UNL     1     -10.419  11.537  68.415  1.00  0.00    -0.191 OA 
HETATM    2  C   UNL     1     -11.246  11.071  69.413  1.00  0.00    -0.268 C  
HETATM    3  H   UNL     1     -10.411  12.428  68.085  1.00  0.00     0.000 HD 
HETATM    4  C   UNL     1     -11.258   9.809  69.880  1.00  0.00    -0.271 C  
HETATM    5  C   UNL     1     -12.141  13.421  69.582  1.00  0.00    -0.349 A  
HETATM    6  C   UNL     1     -12.197   9.444  70.972  1.00  0.00    -0.279 C  
HETATM    7  C   UNL     1     -13.302  12.777  72.039  1.00  0.00    -0.565 A  
HETATM    8  O   UNL     1     -12.740  10.474  71.723  1.00  0.00    -0.420 OA 
HETATM    9  O   UNL     1     -12.411   8.264  71.244  1.00  0.00    -0.303 OA 
HETATM   10  C   UNL     1     -12.685  11.799  71.259  1.00  0.00    -0.316 A  
HETATM   11  C   UNL     1     -13.338  14.092  71.577  1.00  0.00    -0.422 A  
HETATM   12  C   UNL     1     -12.783  14.408  70.338  1.00  0.00    -0.362 A  
HETATM   13  C   UNL     1     -12.057  12.106  70.057  1.00  0.00    -0.352 A  
ENDROOT
BRANCH   4  14
HETATM   14  C   UNL     1     -10.294   8.707  69.495  1.00  0.00    -0.214 C  
BRANCH  14  15
HETATM   15  C   UNL     1      -9.324   9.095  68.410  1.00  0.00    -0.139 C  
HETATM   16  C   UNL     1      -7.739   9.710  66.163  1.00  0.00    -0.102 A  
HETATM   17  H   UNL     1      -7.002  10.916  69.867  1.00  0.00     0.000 HD 
HETATM   18  C   UNL     1      -6.939   9.893  65.035  1.00  0.00    -0.130 A  
HETATM   19  C   UNL     1      -7.295  10.031  67.440  1.00  0.00    -0.090 A  
HETATM   20  O   UNL     1      -8.997   9.126  65.962  1.00  0.00    -0.157 OA 
HETATM   21  C   UNL     1      -9.733   8.677  67.042  1.00  0.00    -0.201 C  
HETATM   22  C   UNL     1      -8.202   9.823  68.575  1.00  0.00    -0.106 C  
HETATM   23  C   UNL     1      -5.641  10.370  65.195  1.00  0.00    -0.137 A  
HETATM   24  O   UNL     1     -10.730   7.979  66.876  1.00  0.00    -0.322 OA 
HETATM   25  O   UNL     1      -7.793  10.403  69.751  1.00  0.00    -0.157 OA 
HETATM   26  C   UNL     1      -5.162  10.662  66.473  1.00  0.00    -0.061 A  
HETATM   27  C   UNL     1      -5.993  10.505  67.588  1.00  0.00    -0.044 A  
ENDBRANCH  14  15
ENDBRANCH   4  14
TORSDOF 2
ENDMDL
MODEL      200
REMARK 921   NORMALIZED FREE ENERGY PREDICTED BY IDOCK:   -4.06 KCAL/MOL
REMARK 922        TOTAL FREE ENERGY PREDICTED BY IDOCK:   -5.35 KCAL/MOL
REMARK 923 INTER-LIGAND FREE ENERGY PREDICTED BY IDOCK:   -5.08 KCAL/MOL
REMARK 924 INTRA-LIGAND FREE ENERGY PREDICTED BY IDOCK:   -0.27 KCAL/MOL
REMARK 927      BINDING AFFINITY PREDICTED BY RF-SCORE:    0.00 PKD
ROOT
HETATM    1  O   UNL     1     -10.349   8.293  68.217  1.00  0.00    -0.203 OA 
HETATM    2  C   UNL     1      -9.031   8.489  68.565  1.00  0.00    -0.139 C  
HETATM    3  H   UNL     1     -10.731   7.457  67.977  1.00  0.00     0.000 HD 
HETATM    4  C   UNL     1      -8.489   9.673  68.905  1.00  0.00    -0.125 C  
HETATM    5  C   UNL     1      -8.727   6.003  68.278  1.00  0.00    -0.113 A  
HETATM    6  C   UNL     1      -7.051   9.740  69.272  1.00  0.00    -0.066 C  
HETATM    7  C   UNL     1      -6.296   6.167  69.641  1.00  0.00    -0.034 A  
HETATM    8  O   UNL     1      -6.423   8.555  69.622  1.00  0.00    -0.039 OA 
HETATM    9  O   UNL     1      -6.472  10.822  69.340  1.00  0.00    -0.057 OA 
HETATM   10  C   UNL     1      -7.010   7.318  69.310  1.00  0.00    -0.069 A  
HETATM   11  C   UNL     1      -6.807   4.922  69.281  1.00  0.00    -0.050 A  
HETATM   12  C   UNL     1      -8.007   4.841  68.575  1.00  0.00    -0.084 A  
HETATM   13  C   UNL     1      -8.247   7.257  68.677  1.00  0.00    -0.125 A  
ENDROOT
BRANCH   4  14
HETATM   14  C   UNL     1      -9.238  10.976  69.091  1.00  0.00    -0.022 C  
BRANCH  14  15
HETATM   15  C   UNL     1      -9.954  11.450  67.854  1.00  0.00    -0.190 C  
HETATM   16  C   UNL     1     -11.521  12.474  65.747  1.00  0.00    -0.365 A  
HETATM   17  H   UNL     1      -7.858  11.009  65.356  1.00  0.00     0.000 HD 
HETATM   18  C   UNL     1     -12.381  12.893  64.732  1.00  0.00    -0.516 A  
HETATM   19  C   UNL     1     -10.325  11.820  65.475  1.00  0.00    -0.304 A  
HETATM   20  O   UNL     1     -11.945  12.682  67.066  1.00  0.00    -0.445 OA 
HETATM   21  C   UNL     1     -11.283  12.068  68.112  1.00  0.00    -0.260 C  
HETATM   22  C   UNL     1      -9.467  11.423  66.597  1.00  0.00    -0.189 C  
HETATM   23  C   UNL     1     -12.054  12.613  63.408  1.00  0.00    -0.614 A  
HETATM   24  O   UNL     1     -11.762  12.067  69.244  1.00  0.00    -0.287 OA 
HETATM   25  O   UNL     1      -8.201  11.028  66.242  1.00  0.00    -0.161 OA 
HETATM   26  C   UNL     1     -10.876  11.925  63.115  1.00  0.00    -0.294 A  
HETATM   27  C   UNL     1     -10.010  11.543  64.146  1.00  0.00    -0.327 A  
ENDBRANCH  14  15
ENDBRANCH   4  14
TORSDOF 2
ENDMDL
MODEL      201
REMARK 921   NORMALIZED FREE ENERGY PREDICTED BY IDOCK:   -4.04 KCAL/MOL
REMARK 922        TOTAL FREE ENERGY PREDICTED BY IDOCK:   -5.32 KCAL/MOL
REMARK 923 INTER-LIGAND FREE ENERGY PREDICTED BY IDOCK:   -4.91 KCAL/MOL
REMARK 924 INTRA-LIGAND FREE ENERGY PREDICTED BY IDOCK:   -0.41 KCAL/MOL
REMARK 927      BINDING AFFINITY PREDICTED BY RF-SCORE:    0.00 PKD
ROOT
HETATM    1  O   UNL     1      -8.805   8.297  68.574  1.00  0.00    -0.136 OA 
HETATM    2  C   UNL     1      -9.768   8.893  69.358  1.00  0.00    -0.169 C  
HETATM    3  H   UNL     1      -8.658   8.485  67.655  1.00  0.00     0.000 HD 
HETATM    4  C   UNL     1      -9.978   8.626  70.660  1.00  0.00    -0.230 C  
HETATM    5  C   UNL     1     -10.374  10.266  67.333  1.00  0.00    -0.282 A  
HETATM    6  C   UNL     1     -11.048   9.354  71.391  1.00  0.00    -0.380 C  
HETATM    7  C   UNL     1     -11.817  12.005  68.972  1.00  0.00    -0.372 A  
HETATM    8  O   UNL     1     -11.521  10.530  70.831  1.00  0.00    -0.328 OA 
HETATM    9  O   UNL     1     -11.430   8.962  72.492  1.00  0.00    -0.234 OA 
HETATM   10  C   UNL     1     -11.261  10.833  69.484  1.00  0.00    -0.281 A  
HETATM   11  C   UNL     1     -11.648  12.304  67.622  1.00  0.00    -0.421 A  
HETATM   12  C   UNL     1     -10.951  11.422  66.797  1.00  0.00    -0.347 A  
HETATM   13  C   UNL     1     -10.497   9.978  68.698  1.00  0.00    -0.228 A  
ENDROOT
BRANCH   4  14
HETATM   14  C   UNL     1      -9.130   7.727  71.534  1.00  0.00    -0.158 C  
BRANCH  14  15
HETATM   15  C   UNL     1      -8.970   6.328  70.998  1.00  0.00    -0.143 C  
HETATM   16  C   UNL     1      -9.001   3.676  70.047  1.00  0.00    -0.103 A  
HETATM   17  H   UNL     1      -5.975   6.205  69.641  1.00  0.00     0.000 HD 
HETATM   18  C   UNL     1      -9.034   2.327  69.694  1.00  0.00    -0.158 A  
HETATM   19  C   UNL     1      -7.826   4.417  70.012  1.00  0.00    -0.053 A  
HETATM   20  O   UNL     1     -10.198   4.243  70.504  1.00  0.00    -0.135 OA 
HETATM   21  C   UNL     1     -10.189   5.483  71.113  1.00  0.00    -0.222 C  
HETATM   22  C   UNL     1      -7.876   5.835  70.384  1.00  0.00    -0.104 C  
HETATM   23  C   UNL     1      -7.849   1.691  69.335  1.00  0.00    -0.048 A  
HETATM   24  O   UNL     1     -11.183   5.899  71.704  1.00  0.00    -0.272 OA 
HETATM   25  O   UNL     1      -6.746   6.552  70.073  1.00  0.00    -0.046 OA 
HETATM   26  C   UNL     1      -6.651   2.408  69.329  1.00  0.00    -0.029 A  
HETATM   27  C   UNL     1      -6.645   3.769  69.653  1.00  0.00    -0.033 A  
ENDBRANCH  14  15
ENDBRANCH   4  14
TORSDOF 2
ENDMDL
MODEL      202
REMARK 921   NORMALIZED FREE ENERGY PREDICTED BY IDOCK:   -4.03 KCAL/MOL
REMARK 922        TOTAL FREE ENERGY PREDICTED BY IDOCK:   -5.32 KCAL/MOL
REMARK 923 INTER-LIGAND FREE ENERGY PREDICTED BY IDOCK:   -5.08 KCAL/MOL
REMARK 924 INTRA-LIGAND FREE ENERGY PREDICTED BY IDOCK:   -0.24 KCAL/MOL
REMARK 927      BINDING AFFINITY PREDICTED BY RF-SCORE:    0.00 PKD
ROOT
HETATM    1  O   UNL     1     -12.340   6.785  69.930  1.00  0.00    -0.581 OA 
HETATM    2  C   UNL     1     -11.294   7.387  70.591  1.00  0.00    -0.281 C  
HETATM    3  H   UNL     1     -12.735   5.956  70.174  1.00  0.00     0.000 HD 
HETATM    4  C   UNL     1     -10.734   8.561  70.246  1.00  0.00    -0.242 C  
HETATM    5  C   UNL     1     -11.386   5.459  72.212  1.00  0.00    -0.200 A  
HETATM    6  C   UNL     1      -9.615   9.104  71.058  1.00  0.00    -0.280 C  
HETATM    7  C   UNL     1      -9.807   6.914  73.996  1.00  0.00    -0.354 A  
HETATM    8  O   UNL     1      -9.445   8.596  72.336  1.00  0.00    -0.284 OA 
HETATM    9  O   UNL     1      -8.925  10.028  70.633  1.00  0.00     0.032 OA 
HETATM   10  C   UNL     1     -10.068   7.395  72.714  1.00  0.00    -0.224 A  
HETATM   11  C   UNL     1     -10.343   5.687  74.384  1.00  0.00    -0.278 A  
HETATM   12  C   UNL     1     -11.108   4.947  73.484  1.00  0.00    -0.405 A  
HETATM   13  C   UNL     1     -10.893   6.712  71.827  1.00  0.00    -0.265 A  
ENDROOT
BRANCH   4  14
HETATM   14  C   UNL     1     -11.220   9.494  69.156  1.00  0.00    -0.004 C  
BRANCH  14  15
HETATM   15  C   UNL     1     -10.329   9.532  67.942  1.00  0.00    -0.276 C  
HETATM   16  C   UNL     1      -8.616   9.928  65.740  1.00  0.00    -0.139 A  
HETATM   17  H   UNL     1      -9.798   6.396  67.099  1.00  0.00     0.000 HD 
HETATM   18  C   UNL     1      -7.860  10.188  64.597  1.00  0.00    -0.144 A  
HETATM   19  C   UNL     1      -9.112   8.659  66.021  1.00  0.00    -0.255 A  
HETATM   20  O   UNL     1      -8.913  11.018  66.569  1.00  0.00    -0.162 OA 
HETATM   21  C   UNL     1      -9.863  10.893  67.564  1.00  0.00    -0.168 C  
HETATM   22  C   UNL     1      -9.886   8.462  67.251  1.00  0.00    -0.203 C  
HETATM   23  C   UNL     1      -7.629   9.159  63.688  1.00  0.00    -0.113 A  
HETATM   24  O   UNL     1     -10.287  11.883  68.155  1.00  0.00    -0.187 OA 
HETATM   25  O   UNL     1     -10.110   7.149  67.586  1.00  0.00    -0.157 OA 
HETATM   26  C   UNL     1      -8.149   7.888  63.933  1.00  0.00    -0.082 A  
HETATM   27  C   UNL     1      -8.876   7.638  65.102  1.00  0.00     0.171 A  
ENDBRANCH  14  15
ENDBRANCH   4  14
TORSDOF 2
ENDMDL
MODEL      203
REMARK 921   NORMALIZED FREE ENERGY PREDICTED BY IDOCK:   -3.94 KCAL/MOL
REMARK 922        TOTAL FREE ENERGY PREDICTED BY IDOCK:   -5.21 KCAL/MOL
REMARK 923 INTER-LIGAND FREE ENERGY PREDICTED BY IDOCK:   -4.89 KCAL/MOL
REMARK 924 INTRA-LIGAND FREE ENERGY PREDICTED BY IDOCK:   -0.32 KCAL/MOL
REMARK 927      BINDING AFFINITY PREDICTED BY RF-SCORE:    0.00 PKD
ROOT
HETATM    1  O   UNL     1     -10.075   5.334  65.827  1.00  0.00    -0.358 OA 
HETATM    2  C   UNL     1      -8.981   5.722  66.568  1.00  0.00    -0.128 C  
HETATM    3  H   UNL     1     -10.599   4.559  65.992  1.00  0.00     0.000 HD 
HETATM    4  C   UNL     1      -8.239   6.820  66.334  1.00  0.00    -0.117 C  
HETATM    5  C   UNL     1      -9.432   3.719  68.029  1.00  0.00    -0.221 A  
HETATM    6  C   UNL     1      -7.089   7.127  67.223  1.00  0.00    -0.084 C  
HETATM    7  C   UNL     1      -7.735   4.785  69.974  1.00  0.00    -0.055 A  
HETATM    8  O   UNL     1      -7.054   6.509  68.462  1.00  0.00    -0.077 OA 
HETATM    9  O   UNL     1      -6.251   7.964  66.894  1.00  0.00    -0.051 OA 
HETATM   10  C   UNL     1      -7.864   5.392  68.724  1.00  0.00    -0.087 A  
HETATM   11  C   UNL     1      -8.464   3.629  70.247  1.00  0.00    -0.092 A  
HETATM   12  C   UNL     1      -9.290   3.081  69.266  1.00  0.00    -0.217 A  
HETATM   13  C   UNL     1      -8.741   4.907  67.760  1.00  0.00    -0.105 A  
ENDROOT
BRANCH   4  14
HETATM   14  C   UNL     1      -8.532   7.891  65.304  1.00  0.00    -0.119 C  
BRANCH  14  15
HETATM   15  C   UNL     1      -9.195   9.119  65.872  1.00  0.00    -0.286 C  
HETATM   16  C   UNL     1     -10.274  11.588  66.696  1.00  0.00    -0.219 A  
HETATM   17  H   UNL     1     -11.526   8.033  67.926  1.00  0.00     0.000 HD 
HETATM   18  C   UNL     1     -10.695  12.840  67.146  1.00  0.00    -0.264 A  
HETATM   19  C   UNL     1     -10.664  10.411  67.323  1.00  0.00    -0.331 A  
HETATM   20  O   UNL     1      -9.383  11.568  65.615  1.00  0.00    -0.224 OA 
HETATM   21  C   UNL     1      -8.723  10.400  65.282  1.00  0.00    -0.179 C  
HETATM   22  C   UNL     1     -10.191   9.133  66.780  1.00  0.00    -0.261 C  
HETATM   23  C   UNL     1     -11.496  12.917  68.282  1.00  0.00    -0.348 A  
HETATM   24  O   UNL     1      -7.790  10.412  64.483  1.00  0.00    -0.141 OA 
HETATM   25  O   UNL     1     -10.824   8.024  67.286  1.00  0.00    -0.261 OA 
HETATM   26  C   UNL     1     -11.869  11.749  68.949  1.00  0.00    -0.381 A  
HETATM   27  C   UNL     1     -11.464  10.501  68.461  1.00  0.00    -0.284 A  
ENDBRANCH  14  15
ENDBRANCH   4  14
TORSDOF 2
ENDMDL
MODEL      204
REMARK 921   NORMALIZED FREE ENERGY PREDICTED BY IDOCK:   -3.88 KCAL/MOL
REMARK 922        TOTAL FREE ENERGY PREDICTED BY IDOCK:   -5.14 KCAL/MOL
REMARK 923 INTER-LIGAND FREE ENERGY PREDICTED BY IDOCK:   -5.23 KCAL/MOL
REMARK 924 INTRA-LIGAND FREE ENERGY PREDICTED BY IDOCK:    0.09 KCAL/MOL
REMARK 927      BINDING AFFINITY PREDICTED BY RF-SCORE:    0.00 PKD
ROOT
HETATM    1  O   UNL     1      -8.101  10.271  66.802  1.00  0.00    -0.117 OA 
HETATM    2  C   UNL     1      -9.409  10.668  66.976  1.00  0.00    -0.155 C  
HETATM    3  H   UNL     1      -7.654  10.220  65.966  1.00  0.00     0.000 HD 
HETATM    4  C   UNL     1     -10.043  10.741  68.160  1.00  0.00    -0.183 C  
HETATM    5  C   UNL     1      -9.480  11.051  64.485  1.00  0.00    -0.269 A  
HETATM    6  C   UNL     1     -11.456  11.199  68.204  1.00  0.00    -0.303 C  
HETATM    7  C   UNL     1     -11.828  12.528  64.804  1.00  0.00    -0.440 A  
HETATM    8  O   UNL     1     -11.941  11.891  67.106  1.00  0.00    -0.611 OA 
HETATM    9  O   UNL     1     -12.135  11.038  69.217  1.00  0.00    -0.339 OA 
HETATM   10  C   UNL     1     -11.253  11.856  65.881  1.00  0.00    -0.322 A  
HETATM   11  C   UNL     1     -11.218  12.455  63.553  1.00  0.00    -0.540 A  
HETATM   12  C   UNL     1     -10.061  11.694  63.387  1.00  0.00    -0.468 A  
HETATM   13  C   UNL     1     -10.058  11.156  65.757  1.00  0.00    -0.299 A  
ENDROOT
BRANCH   4  14
HETATM   14  C   UNL     1      -9.418  10.524  69.522  1.00  0.00    -0.106 C  
BRANCH  14  15
HETATM   15  C   UNL     1      -8.841   9.146  69.717  1.00  0.00    -0.165 C  
HETATM   16  C   UNL     1      -8.060   6.452  69.978  1.00  0.00    -0.121 A  
HETATM   17  H   UNL     1      -5.605   9.561  70.145  1.00  0.00     0.000 HD 
HETATM   18  C   UNL     1      -7.749   5.111  70.205  1.00  0.00    -0.071 A  
HETATM   19  C   UNL     1      -7.150   7.472  70.232  1.00  0.00    -0.060 A  
HETATM   20  O   UNL     1      -9.360   6.738  69.540  1.00  0.00    -0.147 OA 
HETATM   21  C   UNL     1      -9.821   8.041  69.544  1.00  0.00    -0.181 C  
HETATM   22  C   UNL     1      -7.547   8.856  69.953  1.00  0.00    -0.063 C  
HETATM   23  C   UNL     1      -6.507   4.785  70.741  1.00  0.00    -0.030 A  
HETATM   24  O   UNL     1     -11.013   8.285  69.369  1.00  0.00    -0.144 OA 
HETATM   25  O   UNL     1      -6.517   9.765  69.979  1.00  0.00    -0.056 OA 
HETATM   26  C   UNL     1      -5.592   5.796  71.038  1.00  0.00    -0.017 A  
HETATM   27  C   UNL     1      -5.910   7.132  70.771  1.00  0.00    -0.027 A  
ENDBRANCH  14  15
ENDBRANCH   4  14
TORSDOF 2
ENDMDL
MODEL      205
REMARK 921   NORMALIZED FREE ENERGY PREDICTED BY IDOCK:   -3.83 KCAL/MOL
REMARK 922        TOTAL FREE ENERGY PREDICTED BY IDOCK:   -5.09 KCAL/MOL
REMARK 923 INTER-LIGAND FREE ENERGY PREDICTED BY IDOCK:   -4.24 KCAL/MOL
REMARK 924 INTRA-LIGAND FREE ENERGY PREDICTED BY IDOCK:   -0.85 KCAL/MOL
REMARK 927      BINDING AFFINITY PREDICTED BY RF-SCORE:    0.00 PKD
ROOT
HETATM    1  O   UNL     1     -10.487   5.081  66.651  1.00  0.00    -0.264 OA 
HETATM    2  C   UNL     1      -9.454   5.211  65.749  1.00  0.00    -0.141 C  
HETATM    3  H   UNL     1     -11.257   4.540  66.523  1.00  0.00     0.000 HD 
HETATM    4  C   UNL     1      -8.363   5.978  65.929  1.00  0.00    -0.138 C  
HETATM    5  C   UNL     1     -10.684   3.549  64.308  1.00  0.00    -0.123 A  
HETATM    6  C   UNL     1      -7.315   6.016  64.877  1.00  0.00    -0.073 C  
HETATM    7  C   UNL     1      -8.366   3.182  62.794  1.00  0.00    -0.074 A  
HETATM    8  O   UNL     1      -7.304   4.990  63.945  1.00  0.00    -0.049 OA 
HETATM    9  O   UNL     1      -6.444   6.883  64.891  1.00  0.00    -0.041 OA 
HETATM   10  C   UNL     1      -8.425   4.157  63.790  1.00  0.00    -0.101 A  
HETATM   11  C   UNL     1      -9.485   2.385  62.556  1.00  0.00    -0.089 A  
HETATM   12  C   UNL     1     -10.651   2.587  63.292  1.00  0.00    -0.209 A  
HETATM   13  C   UNL     1      -9.551   4.323  64.589  1.00  0.00    -0.160 A  
ENDROOT
BRANCH   4  14
HETATM   14  C   UNL     1      -8.004   6.737  67.189  1.00  0.00    -0.116 C  
BRANCH  14  15
HETATM   15  C   UNL     1      -8.870   7.944  67.443  1.00  0.00    -0.129 C  
HETATM   16  C   UNL     1     -10.606  10.035  68.184  1.00  0.00    -0.227 A  
HETATM   17  H   UNL     1      -7.717  10.324  65.485  1.00  0.00     0.000 HD 
HETATM   18  C   UNL     1     -11.560  10.998  68.514  1.00  0.00    -0.380 A  
HETATM   19  C   UNL     1      -9.748  10.189  67.101  1.00  0.00    -0.214 A  
HETATM   20  O   UNL     1     -10.590   8.866  68.956  1.00  0.00    -0.226 OA 
HETATM   21  C   UNL     1      -9.863   7.769  68.536  1.00  0.00    -0.172 C  
HETATM   22  C   UNL     1      -8.762   9.138  66.828  1.00  0.00    -0.127 C  
HETATM   23  C   UNL     1     -11.687  12.129  67.711  1.00  0.00    -0.390 A  
HETATM   24  O   UNL     1     -10.004   6.676  69.081  1.00  0.00    -0.153 OA 
HETATM   25  O   UNL     1      -7.792   9.482  65.918  1.00  0.00    -0.099 OA 
HETATM   26  C   UNL     1     -10.860  12.285  66.598  1.00  0.00    -0.296 A  
HETATM   27  C   UNL     1      -9.887  11.325  66.304  1.00  0.00    -0.248 A  
ENDBRANCH  14  15
ENDBRANCH   4  14
TORSDOF 2
ENDMDL
MODEL      206
REMARK 921   NORMALIZED FREE ENERGY PREDICTED BY IDOCK:   -3.79 KCAL/MOL
REMARK 922        TOTAL FREE ENERGY PREDICTED BY IDOCK:   -5.04 KCAL/MOL
REMARK 923 INTER-LIGAND FREE ENERGY PREDICTED BY IDOCK:   -4.29 KCAL/MOL
REMARK 924 INTRA-LIGAND FREE ENERGY PREDICTED BY IDOCK:   -0.75 KCAL/MOL
REMARK 927      BINDING AFFINITY PREDICTED BY RF-SCORE:    0.00 PKD
ROOT
HETATM    1  O   UNL     1      -8.220   8.433  67.689  1.00  0.00    -0.123 OA 
HETATM    2  C   UNL     1      -9.234   9.024  68.408  1.00  0.00    -0.136 C  
HETATM    3  H   UNL     1      -8.090   8.524  66.752  1.00  0.00     0.000 HD 
HETATM    4  C   UNL     1      -9.418   8.894  69.735  1.00  0.00    -0.174 C  
HETATM    5  C   UNL     1      -9.966  10.087  66.243  1.00  0.00    -0.310 A  
HETATM    6  C   UNL     1     -10.550   9.600  70.388  1.00  0.00    -0.295 C  
HETATM    7  C   UNL     1     -11.565  11.865  67.684  1.00  0.00    -0.382 A  
HETATM    8  O   UNL     1     -11.132  10.653  69.700  1.00  0.00    -0.245 OA 
HETATM    9  O   UNL     1     -10.894   9.307  71.531  1.00  0.00    -0.339 OA 
HETATM   10  C   UNL     1     -10.902  10.818  68.324  1.00  0.00    -0.229 A  
HETATM   11  C   UNL     1     -11.425  12.018  66.306  1.00  0.00    -0.408 A  
HETATM   12  C   UNL     1     -10.649  11.113  65.582  1.00  0.00    -0.286 A  
HETATM   13  C   UNL     1     -10.061   9.952  67.634  1.00  0.00    -0.241 A  
ENDROOT
BRANCH   4  14
HETATM   14  C   UNL     1      -8.489   8.187  70.699  1.00  0.00    -0.128 C  
BRANCH  14  15
HETATM   15  C   UNL     1      -8.290   6.725  70.394  1.00  0.00    -0.130 C  
HETATM   16  C   UNL     1      -7.596   4.067  69.766  1.00  0.00    -0.052 A  
HETATM   17  H   UNL     1     -11.017   5.196  71.420  1.00  0.00     0.000 HD 
HETATM   18  C   UNL     1      -7.241   2.788  69.337  1.00  0.00    -0.044 A  
HETATM   19  C   UNL     1      -8.888   4.374  70.176  1.00  0.00    -0.126 A  
HETATM   20  O   UNL     1      -6.604   5.055  69.706  1.00  0.00    -0.034 OA 
HETATM   21  C   UNL     1      -6.943   6.386  69.862  1.00  0.00    -0.066 C  
HETATM   22  C   UNL     1      -9.179   5.739  70.627  1.00  0.00    -0.152 C  
HETATM   23  C   UNL     1      -8.219   1.798  69.276  1.00  0.00    -0.064 A  
HETATM   24  O   UNL     1      -6.133   7.273  69.604  1.00  0.00    -0.029 OA 
HETATM   25  O   UNL     1     -10.391   5.891  71.256  1.00  0.00    -0.205 OA 
HETATM   26  C   UNL     1      -9.530   2.095  69.648  1.00  0.00    -0.112 A  
HETATM   27  C   UNL     1      -9.858   3.375  70.108  1.00  0.00     0.022 A  
ENDBRANCH  14  15
ENDBRANCH   4  14
TORSDOF 2
ENDMDL
MODEL      207
REMARK 921   NORMALIZED FREE ENERGY PREDICTED BY IDOCK:   -3.77 KCAL/MOL
REMARK 922        TOTAL FREE ENERGY PREDICTED BY IDOCK:   -5.02 KCAL/MOL
REMARK 923 INTER-LIGAND FREE ENERGY PREDICTED BY IDOCK:   -4.70 KCAL/MOL
REMARK 924 INTRA-LIGAND FREE ENERGY PREDICTED BY IDOCK:   -0.33 KCAL/MOL
REMARK 927      BINDING AFFINITY PREDICTED BY RF-SCORE:    0.00 PKD
ROOT
HETATM    1  O   UNL     1      -9.615   4.054  69.373  1.00  0.00    -0.182 OA 
HETATM    2  C   UNL     1      -8.591   4.767  68.792  1.00  0.00    -0.088 C  
HETATM    3  H   UNL     1     -10.072   3.326  68.968  1.00  0.00     0.000 HD 
HETATM    4  C   UNL     1      -7.944   5.798  69.366  1.00  0.00    -0.097 C  
HETATM    5  C   UNL     1      -8.801   3.205  66.825  1.00  0.00    -0.157 A  
HETATM    6  C   UNL     1      -6.845   6.473  68.628  1.00  0.00    -0.070 C  
HETATM    7  C   UNL     1      -6.322   4.084  65.891  1.00  0.00    -0.033 A  
HETATM    8  O   UNL     1      -6.274   5.792  67.564  1.00  0.00    -0.028 OA 
HETATM    9  O   UNL     1      -6.411   7.558  69.008  1.00  0.00    -0.037 OA 
HETATM   10  C   UNL     1      -6.926   4.686  66.994  1.00  0.00    -0.057 A  
HETATM   11  C   UNL     1      -6.972   3.033  65.248  1.00  0.00    -0.053 A  
HETATM   12  C   UNL     1      -8.224   2.612  65.698  1.00  0.00    -0.090 A  
HETATM   13  C   UNL     1      -8.136   4.231  67.507  1.00  0.00    -0.099 A  
ENDROOT
BRANCH   4  14
HETATM   14  C   UNL     1      -8.127   6.285  70.788  1.00  0.00    -0.120 C  
BRANCH  14  15
HETATM   15  C   UNL     1      -9.272   7.249  70.961  1.00  0.00    -0.154 C  
HETATM   16  C   UNL     1     -11.188   9.297  71.229  1.00  0.00    -0.355 A  
HETATM   17  H   UNL     1     -12.016   5.435  70.882  1.00  0.00     0.000 HD 
HETATM   18  C   UNL     1     -12.083  10.339  71.471  1.00  0.00    -0.407 A  
HETATM   19  C   UNL     1     -11.576   7.963  71.297  1.00  0.00    -0.304 A  
HETATM   20  O   UNL     1      -9.856   9.649  70.977  1.00  0.00    -0.226 OA 
HETATM   21  C   UNL     1      -8.870   8.681  70.988  1.00  0.00    -0.191 C  
HETATM   22  C   UNL     1     -10.579   6.925  71.015  1.00  0.00    -0.220 C  
HETATM   23  C   UNL     1     -13.394  10.037  71.831  1.00  0.00    -0.516 A  
HETATM   24  O   UNL     1      -7.682   8.995  70.980  1.00  0.00    -0.118 OA 
HETATM   25  O   UNL     1     -11.095   5.664  70.844  1.00  0.00    -0.237 OA 
HETATM   26  C   UNL     1     -13.794   8.705  71.941  1.00  0.00    -0.481 A  
HETATM   27  C   UNL     1     -12.890   7.674  71.661  1.00  0.00    -0.378 A  
ENDBRANCH  14  15
ENDBRANCH   4  14
TORSDOF 2
ENDMDL
MODEL      208
REMARK 921   NORMALIZED FREE ENERGY PREDICTED BY IDOCK:   -3.73 KCAL/MOL
REMARK 922        TOTAL FREE ENERGY PREDICTED BY IDOCK:   -4.98 KCAL/MOL
REMARK 923 INTER-LIGAND FREE ENERGY PREDICTED BY IDOCK:   -4.43 KCAL/MOL
REMARK 924 INTRA-LIGAND FREE ENERGY PREDICTED BY IDOCK:   -0.55 KCAL/MOL
REMARK 927      BINDING AFFINITY PREDICTED BY RF-SCORE:    0.00 PKD
ROOT
HETATM    1  O   UNL     1     -11.068   6.153  66.803  1.00  0.00    -0.607 OA 
HETATM    2  C   UNL     1      -9.754   5.873  66.502  1.00  0.00    -0.155 C  
HETATM    3  H   UNL     1     -11.821   5.776  66.363  1.00  0.00     0.000 HD 
HETATM    4  C   UNL     1      -8.688   6.407  67.125  1.00  0.00    -0.110 C  
HETATM    5  C   UNL     1     -10.635   4.261  64.776  1.00  0.00    -0.147 A  
HETATM    6  C   UNL     1      -7.320   6.007  66.705  1.00  0.00    -0.079 C  
HETATM    7  C   UNL     1      -8.099   3.108  64.593  1.00  0.00    -0.086 A  
HETATM    8  O   UNL     1      -7.191   4.838  65.973  1.00  0.00    -0.073 OA 
HETATM    9  O   UNL     1      -6.340   6.652  67.071  1.00  0.00    -0.038 OA 
HETATM   10  C   UNL     1      -8.312   4.252  65.362  1.00  0.00    -0.110 A  
HETATM   11  C   UNL     1      -9.171   2.539  63.908  1.00  0.00    -0.110 A  
HETATM   12  C   UNL     1     -10.431   3.131  63.976  1.00  0.00    -0.149 A  
HETATM   13  C   UNL     1      -9.576   4.813  65.507  1.00  0.00    -0.172 A  
ENDROOT
BRANCH   4  14
HETATM   14  C   UNL     1      -8.725   7.308  68.341  1.00  0.00    -0.122 C  
BRANCH  14  15
HETATM   15  C   UNL     1      -9.321   6.660  69.564  1.00  0.00    -0.145 C  
HETATM   16  C   UNL     1     -10.691   5.663  71.816  1.00  0.00    -0.244 A  
HETATM   17  H   UNL     1      -7.580   3.917  70.085  1.00  0.00     0.000 HD 
HETATM   18  C   UNL     1     -11.339   5.275  72.988  1.00  0.00    -0.376 A  
HETATM   19  C   UNL     1      -9.505   5.069  71.399  1.00  0.00    -0.206 A  
HETATM   20  O   UNL     1     -11.253   6.729  71.100  1.00  0.00    -0.257 OA 
HETATM   21  C   UNL     1     -10.539   7.336  70.086  1.00  0.00    -0.232 C  
HETATM   22  C   UNL     1      -8.892   5.523  70.146  1.00  0.00    -0.136 C  
HETATM   23  C   UNL     1     -10.761   4.294  73.789  1.00  0.00    -0.339 A  
HETATM   24  O   UNL     1     -10.923   8.395  69.595  1.00  0.00    -0.200 OA 
HETATM   25  O   UNL     1      -7.883   4.718  69.675  1.00  0.00    -0.065 OA 
HETATM   26  C   UNL     1      -9.552   3.711  73.408  1.00  0.00    -0.138 A  
HETATM   27  C   UNL     1      -8.935   4.089  72.210  1.00  0.00    -0.137 A  
ENDBRANCH  14  15
ENDBRANCH   4  14
TORSDOF 2
ENDMDL
MODEL      209
REMARK 921   NORMALIZED FREE ENERGY PREDICTED BY IDOCK:   -3.72 KCAL/MOL
REMARK 922        TOTAL FREE ENERGY PREDICTED BY IDOCK:   -4.96 KCAL/MOL
REMARK 923 INTER-LIGAND FREE ENERGY PREDICTED BY IDOCK:   -5.65 KCAL/MOL
REMARK 924 INTRA-LIGAND FREE ENERGY PREDICTED BY IDOCK:    0.69 KCAL/MOL
REMARK 927      BINDING AFFINITY PREDICTED BY RF-SCORE:    0.00 PKD
ROOT
HETATM    1  O   UNL     1     -11.206   6.049  70.604  1.00  0.00    -0.309 OA 
HETATM    2  C   UNL     1     -10.286   5.987  71.627  1.00  0.00    -0.201 C  
HETATM    3  H   UNL     1     -11.395   5.342  69.998  1.00  0.00     0.000 HD 
HETATM    4  C   UNL     1     -10.017   6.988  72.486  1.00  0.00    -0.191 C  
HETATM    5  C   UNL     1      -9.871   3.601  70.928  1.00  0.00    -0.159 A  
HETATM    6  C   UNL     1      -9.006   6.781  73.554  1.00  0.00    -0.133 C  
HETATM    7  C   UNL     1      -8.564   3.143  73.352  1.00  0.00    -0.077 A  
HETATM    8  O   UNL     1      -8.664   5.476  73.871  1.00  0.00    -0.121 OA 
HETATM    9  O   UNL     1      -8.558   7.737  74.185  1.00  0.00    -0.237 OA 
HETATM   10  C   UNL     1      -8.988   4.423  72.998  1.00  0.00    -0.116 A  
HETATM   11  C   UNL     1      -8.796   2.083  72.478  1.00  0.00    -0.084 A  
HETATM   12  C   UNL     1      -9.424   2.317  71.255  1.00  0.00    -0.213 A  
HETATM   13  C   UNL     1      -9.685   4.666  71.819  1.00  0.00    -0.230 A  
ENDROOT
BRANCH   4  14
HETATM   14  C   UNL     1     -10.750   8.310  72.572  1.00  0.00    -0.411 C  
BRANCH  14  15
HETATM   15  C   UNL     1     -10.599   9.173  71.346  1.00  0.00    -0.412 C  
HETATM   16  C   UNL     1      -9.999  10.677  69.040  1.00  0.00    -0.213 A  
HETATM   17  H   UNL     1     -13.641  10.091  70.493  1.00  0.00     0.000 HD 
HETATM   18  C   UNL     1      -9.633  11.494  67.971  1.00  0.00    -0.180 A  
HETATM   19  C   UNL     1     -11.287  10.684  69.564  1.00  0.00    -0.342 A  
HETATM   20  O   UNL     1      -8.992   9.887  69.611  1.00  0.00    -0.190 OA 
HETATM   21  C   UNL     1      -9.209   9.258  70.822  1.00  0.00    -0.253 C  
HETATM   22  C   UNL     1     -11.598   9.784  70.680  1.00  0.00    -0.313 C  
HETATM   23  C   UNL     1     -10.570  12.375  67.438  1.00  0.00    -0.237 A  
HETATM   24  O   UNL     1      -8.278   8.742  71.436  1.00  0.00    -0.149 OA 
HETATM   25  O   UNL     1     -12.937   9.660  70.962  1.00  0.00    -0.317 OA 
HETATM   26  C   UNL     1     -11.858  12.425  67.974  1.00  0.00    -0.376 A  
HETATM   27  C   UNL     1     -12.216  11.572  69.024  1.00  0.00    -0.186 A  
ENDBRANCH  14  15
ENDBRANCH   4  14
TORSDOF 2
ENDMDL
MODEL      210
REMARK 921   NORMALIZED FREE ENERGY PREDICTED BY IDOCK:   -3.70 KCAL/MOL
REMARK 922        TOTAL FREE ENERGY PREDICTED BY IDOCK:   -4.95 KCAL/MOL
REMARK 923 INTER-LIGAND FREE ENERGY PREDICTED BY IDOCK:   -4.28 KCAL/MOL
REMARK 924 INTRA-LIGAND FREE ENERGY PREDICTED BY IDOCK:   -0.67 KCAL/MOL
REMARK 927      BINDING AFFINITY PREDICTED BY RF-SCORE:    0.00 PKD
ROOT
HETATM    1  O   UNL     1     -10.206  13.963  65.350  1.00  0.00    -0.321 OA 
HETATM    2  C   UNL     1      -9.428  13.767  66.469  1.00  0.00    -0.269 C  
HETATM    3  H   UNL     1     -10.307  14.790  64.894  1.00  0.00     0.000 HD 
HETATM    4  C   UNL     1      -9.284  12.595  67.114  1.00  0.00    -0.214 C  
HETATM    5  C   UNL     1      -8.771  16.192  66.270  1.00  0.00    -0.373 A  
HETATM    6  C   UNL     1      -8.400  12.521  68.306  1.00  0.00    -0.167 C  
HETATM    7  C   UNL     1      -6.656  15.740  68.036  1.00  0.00    -0.147 A  
HETATM    8  O   UNL     1      -7.472  13.535  68.480  1.00  0.00    -0.113 OA 
HETATM    9  O   UNL     1      -8.443  11.549  69.058  1.00  0.00    -0.038 OA 
HETATM   10  C   UNL     1      -7.593  14.742  67.770  1.00  0.00    -0.160 A  
HETATM   11  C   UNL     1      -6.786  16.978  67.411  1.00  0.00    -0.176 A  
HETATM   12  C   UNL     1      -7.857  17.214  66.551  1.00  0.00    -0.325 A  
HETATM   13  C   UNL     1      -8.625  14.928  66.856  1.00  0.00    -0.269 A  
ENDROOT
BRANCH   4  14
HETATM   14  C   UNL     1      -9.840  11.258  66.670  1.00  0.00    -0.235 C  
BRANCH  14  15
HETATM   15  C   UNL     1      -8.952  10.517  65.704  1.00  0.00    -0.200 C  
HETATM   16  C   UNL     1      -7.421   9.330  63.659  1.00  0.00    -0.106 A  
HETATM   17  H   UNL     1      -6.846   8.782  67.543  1.00  0.00     0.000 HD 
HETATM   18  C   UNL     1      -6.768   8.691  62.605  1.00  0.00    -0.091 A  
HETATM   19  C   UNL     1      -7.252   8.931  64.980  1.00  0.00    -0.091 A  
HETATM   20  O   UNL     1      -8.311  10.359  63.325  1.00  0.00    -0.163 OA 
HETATM   21  C   UNL     1      -9.181  10.858  64.275  1.00  0.00    -0.197 C  
HETATM   22  C   UNL     1      -7.962   9.664  66.033  1.00  0.00    -0.108 C  
HETATM   23  C   UNL     1      -5.956   7.593  62.877  1.00  0.00    -0.051 A  
HETATM   24  O   UNL     1     -10.104  11.602  63.951  1.00  0.00    -0.296 OA 
HETATM   25  O   UNL     1      -7.543   9.384  67.311  1.00  0.00    -0.091 OA 
HETATM   26  C   UNL     1      -5.802   7.153  64.192  1.00  0.00    -0.037 A  
HETATM   27  C   UNL     1      -6.438   7.830  65.239  1.00  0.00    -0.041 A  
ENDBRANCH  14  15
ENDBRANCH   4  14
TORSDOF 2
ENDMDL
MODEL      211
REMARK 921   NORMALIZED FREE ENERGY PREDICTED BY IDOCK:   -3.64 KCAL/MOL
REMARK 922        TOTAL FREE ENERGY PREDICTED BY IDOCK:   -4.88 KCAL/MOL
REMARK 923 INTER-LIGAND FREE ENERGY PREDICTED BY IDOCK:   -4.07 KCAL/MOL
REMARK 924 INTRA-LIGAND FREE ENERGY PREDICTED BY IDOCK:   -0.80 KCAL/MOL
REMARK 927      BINDING AFFINITY PREDICTED BY RF-SCORE:    0.00 PKD
ROOT
HETATM    1  O   UNL     1      -7.292  12.569  66.792  1.00  0.00    -0.377 OA 
HETATM    2  C   UNL     1      -8.669  12.546  66.769  1.00  0.00    -0.147 C  
HETATM    3  H   UNL     1      -6.765  13.189  67.282  1.00  0.00     0.000 HD 
HETATM    4  C   UNL     1      -9.416  11.668  66.075  1.00  0.00    -0.246 C  
HETATM    5  C   UNL     1      -8.593  14.474  68.391  1.00  0.00    -0.172 A  
HETATM    6  C   UNL     1     -10.898  11.750  66.150  1.00  0.00    -0.291 C  
HETATM    7  C   UNL     1     -11.291  14.058  68.976  1.00  0.00    -0.319 A  
HETATM    8  O   UNL     1     -11.448  12.456  67.207  1.00  0.00    -0.310 OA 
HETATM    9  O   UNL     1     -11.599  11.140  65.346  1.00  0.00     0.122 OA 
HETATM   10  C   UNL     1     -10.658  13.338  67.964  1.00  0.00    -0.240 A  
HETATM   11  C   UNL     1     -10.560  14.999  69.700  1.00  0.00    -0.252 A  
HETATM   12  C   UNL     1      -9.220  15.227  69.389  1.00  0.00    -0.233 A  
HETATM   13  C   UNL     1      -9.303  13.492  67.690  1.00  0.00    -0.216 A  
ENDROOT
BRANCH   4  14
HETATM   14  C   UNL     1      -8.899  10.476  65.298  1.00  0.00    -0.205 C  
BRANCH  14  15
HETATM   15  C   UNL     1      -8.286   9.403  66.161  1.00  0.00    -0.118 C  
HETATM   16  C   UNL     1      -6.842   7.523  67.684  1.00  0.00    -0.071 A  
HETATM   17  H   UNL     1     -10.750   8.140  67.938  1.00  0.00     0.000 HD 
HETATM   18  C   UNL     1      -6.094   6.539  68.330  1.00  0.00    -0.025 A  
HETATM   19  C   UNL     1      -8.232   7.533  67.720  1.00  0.00    -0.119 A  
HETATM   20  O   UNL     1      -6.134   8.472  66.935  1.00  0.00    -0.052 OA 
HETATM   21  C   UNL     1      -6.805   9.309  66.065  1.00  0.00    -0.088 C  
HETATM   22  C   UNL     1      -8.947   8.610  67.027  1.00  0.00    -0.133 C  
HETATM   23  C   UNL     1      -6.756   5.513  68.997  1.00  0.00    -0.053 A  
HETATM   24  O   UNL     1      -6.188   9.995  65.252  1.00  0.00    -0.089 OA 
HETATM   25  O   UNL     1     -10.284   8.699  67.328  1.00  0.00    -0.221 OA 
HETATM   26  C   UNL     1      -8.151   5.484  69.015  1.00  0.00    -0.095 A  
HETATM   27  C   UNL     1      -8.884   6.499  68.390  1.00  0.00    -0.123 A  
ENDBRANCH  14  15
ENDBRANCH   4  14
TORSDOF 2
ENDMDL
MODEL      212
REMARK 921   NORMALIZED FREE ENERGY PREDICTED BY IDOCK:   -3.57 KCAL/MOL
REMARK 922        TOTAL FREE ENERGY PREDICTED BY IDOCK:   -4.79 KCAL/MOL
REMARK 923 INTER-LIGAND FREE ENERGY PREDICTED BY IDOCK:   -5.67 KCAL/MOL
REMARK 924 INTRA-LIGAND FREE ENERGY PREDICTED BY IDOCK:    0.88 KCAL/MOL
REMARK 927      BINDING AFFINITY PREDICTED BY RF-SCORE:    0.00 PKD
ROOT
HETATM    1  O   UNL     1     -10.634  19.190  68.553  1.00  0.00    -0.416 OA 
HETATM    2  C   UNL     1      -9.680  18.457  67.882  1.00  0.00    -0.308 C  
HETATM    3  H   UNL     1     -10.471  20.005  69.012  1.00  0.00     0.000 HD 
HETATM    4  C   UNL     1      -9.909  17.301  67.233  1.00  0.00    -0.267 C  
HETATM    5  C   UNL     1      -8.044  20.271  68.503  1.00  0.00     0.121 A  
HETATM    6  C   UNL     1      -8.787  16.618  66.538  1.00  0.00    -0.279 C  
HETATM    7  C   UNL     1      -6.254  19.273  66.608  1.00  0.00    -0.184 A  
HETATM    8  O   UNL     1      -7.657  17.368  66.256  1.00  0.00    -0.271 OA 
HETATM    9  O   UNL     1      -8.902  15.455  66.158  1.00  0.00    -0.307 OA 
HETATM   10  C   UNL     1      -7.440  18.599  66.898  1.00  0.00    -0.218 A  
HETATM   11  C   UNL     1      -5.963  20.459  67.280  1.00  0.00    -0.226 A  
HETATM   12  C   UNL     1      -6.844  20.943  68.246  1.00  0.00    -0.073 A  
HETATM   13  C   UNL     1      -8.369  19.104  67.800  1.00  0.00    -0.325 A  
ENDROOT
BRANCH   4  14
HETATM   14  C   UNL     1     -11.261  16.656  67.010  1.00  0.00     0.294 C  
BRANCH  14  15
HETATM   15  C   UNL     1     -11.276  15.169  67.249  1.00  0.00    -0.324 C  
HETATM   16  C   UNL     1     -11.320  12.354  67.362  1.00  0.00    -0.321 A  
HETATM   17  H   UNL     1     -10.465  14.742  70.409  1.00  0.00     0.000 HD 
HETATM   18  C   UNL     1     -11.461  10.966  67.384  1.00  0.00    -0.175 A  
HETATM   19  C   UNL     1     -11.186  13.099  68.529  1.00  0.00    -0.307 A  
HETATM   20  O   UNL     1     -11.384  12.980  66.110  1.00  0.00    -0.295 OA 
HETATM   21  C   UNL     1     -11.514  14.353  66.029  1.00  0.00    -0.349 C  
HETATM   22  C   UNL     1     -11.027  14.553  68.422  1.00  0.00    -0.245 C  
HETATM   23  C   UNL     1     -11.511  10.310  68.611  1.00  0.00    -0.178 A  
HETATM   24  O   UNL     1     -11.783  14.895  64.959  1.00  0.00    -0.363 OA 
HETATM   25  O   UNL     1     -10.640  15.176  69.583  1.00  0.00    -0.248 OA 
HETATM   26  C   UNL     1     -11.416  11.042  69.794  1.00  0.00    -0.387 A  
HETATM   27  C   UNL     1     -11.240  12.430  69.750  1.00  0.00    -0.027 A  
ENDBRANCH  14  15
ENDBRANCH   4  14
TORSDOF 2
ENDMDL
MODEL      213
REMARK 921   NORMALIZED FREE ENERGY PREDICTED BY IDOCK:   -3.56 KCAL/MOL
REMARK 922        TOTAL FREE ENERGY PREDICTED BY IDOCK:   -4.79 KCAL/MOL
REMARK 923 INTER-LIGAND FREE ENERGY PREDICTED BY IDOCK:   -4.98 KCAL/MOL
REMARK 924 INTRA-LIGAND FREE ENERGY PREDICTED BY IDOCK:    0.19 KCAL/MOL
REMARK 927      BINDING AFFINITY PREDICTED BY RF-SCORE:    0.00 PKD
ROOT
HETATM    1  O   UNL     1      -7.734  11.449  69.923  1.00  0.00    -0.175 OA 
HETATM    2  C   UNL     1      -8.027  10.207  69.405  1.00  0.00    -0.154 C  
HETATM    3  H   UNL     1      -7.053  11.626  70.561  1.00  0.00     0.000 HD 
HETATM    4  C   UNL     1      -8.993   9.955  68.502  1.00  0.00    -0.122 C  
HETATM    5  C   UNL     1      -6.117   9.326  70.794  1.00  0.00    -0.062 A  
HETATM    6  C   UNL     1      -9.194   8.565  68.018  1.00  0.00    -0.136 C  
HETATM    7  C   UNL     1      -6.147   6.969  69.298  1.00  0.00    -0.033 A  
HETATM    8  O   UNL     1      -8.160   7.663  68.208  1.00  0.00    -0.121 OA 
HETATM    9  O   UNL     1     -10.211   8.260  67.398  1.00  0.00    -0.212 OA 
HETATM   10  C   UNL     1      -7.125   7.947  69.115  1.00  0.00    -0.069 A  
HETATM   11  C   UNL     1      -5.146   7.178  70.244  1.00  0.00    -0.022 A  
HETATM   12  C   UNL     1      -5.147   8.342  71.011  1.00  0.00    -0.025 A  
HETATM   13  C   UNL     1      -7.100   9.149  69.812  1.00  0.00    -0.061 A  
ENDROOT
BRANCH   4  14
HETATM   14  C   UNL     1      -9.846  10.988  67.797  1.00  0.00    -0.190 C  
BRANCH  14  15
HETATM   15  C   UNL     1     -10.638  11.867  68.731  1.00  0.00    -0.234 C  
HETATM   16  C   UNL     1     -12.202  13.228  70.639  1.00  0.00    -0.338 A  
HETATM   17  H   UNL     1      -9.709  14.957  68.086  1.00  0.00     0.000 HD 
HETATM   18  C   UNL     1     -13.076  13.852  71.528  1.00  0.00    -0.441 A  
HETATM   19  C   UNL     1     -11.499  13.940  69.674  1.00  0.00    -0.310 A  
HETATM   20  O   UNL     1     -12.107  11.832  70.715  1.00  0.00    -0.360 OA 
HETATM   21  C   UNL     1     -11.473  11.124  69.712  1.00  0.00    -0.312 C  
HETATM   22  C   UNL     1     -10.587  13.212  68.785  1.00  0.00    -0.201 C  
HETATM   23  C   UNL     1     -13.286  15.225  71.420  1.00  0.00    -0.555 A  
HETATM   24  O   UNL     1     -11.564   9.900  69.654  1.00  0.00    -0.163 OA 
HETATM   25  O   UNL     1      -9.745  14.009  68.048  1.00  0.00    -0.208 OA 
HETATM   26  C   UNL     1     -12.619  15.953  70.435  1.00  0.00    -0.121 A  
HETATM   27  C   UNL     1     -11.719  15.313  69.575  1.00  0.00    -0.359 A  
ENDBRANCH  14  15
ENDBRANCH   4  14
TORSDOF 2
ENDMDL
MODEL      214
REMARK 921   NORMALIZED FREE ENERGY PREDICTED BY IDOCK:   -3.38 KCAL/MOL
REMARK 922        TOTAL FREE ENERGY PREDICTED BY IDOCK:   -4.59 KCAL/MOL
REMARK 923 INTER-LIGAND FREE ENERGY PREDICTED BY IDOCK:   -4.22 KCAL/MOL
REMARK 924 INTRA-LIGAND FREE ENERGY PREDICTED BY IDOCK:   -0.36 KCAL/MOL
REMARK 927      BINDING AFFINITY PREDICTED BY RF-SCORE:    0.00 PKD
ROOT
HETATM    1  O   UNL     1     -10.162   4.912  67.967  1.00  0.00    -0.122 OA 
HETATM    2  C   UNL     1     -10.179   6.274  67.762  1.00  0.00    -0.170 C  
HETATM    3  H   UNL     1      -9.786   4.276  67.371  1.00  0.00     0.000 HD 
HETATM    4  C   UNL     1     -10.713   7.176  68.606  1.00  0.00    -0.198 C  
HETATM    5  C   UNL     1      -8.908   5.832  65.631  1.00  0.00    -0.141 A  
HETATM    6  C   UNL     1     -10.651   8.621  68.266  1.00  0.00    -0.128 C  
HETATM    7  C   UNL     1      -8.258   8.543  65.485  1.00  0.00    -0.138 A  
HETATM    8  O   UNL     1      -9.729   9.015  67.310  1.00  0.00    -0.160 OA 
HETATM    9  O   UNL     1     -11.339   9.437  68.876  1.00  0.00     0.058 OA 
HETATM   10  C   UNL     1      -9.134   8.068  66.460  1.00  0.00    -0.173 A  
HETATM   11  C   UNL     1      -7.705   7.647  64.572  1.00  0.00    -0.126 A  
HETATM   12  C   UNL     1      -8.052   6.297  64.627  1.00  0.00    -0.115 A  
HETATM   13  C   UNL     1      -9.432   6.716  66.583  1.00  0.00    -0.201 A  
ENDROOT
BRANCH   4  14
HETATM   14  C   UNL     1     -11.277   6.886  69.981  1.00  0.00    -0.347 C  
BRANCH  14  15
HETATM   15  C   UNL     1     -10.327   7.195  71.109  1.00  0.00    -0.214 C  
HETATM   16  C   UNL     1      -8.823   7.855  73.399  1.00  0.00    -0.263 A  
HETATM   17  H   UNL     1      -7.410   5.964  70.213  1.00  0.00     0.000 HD 
HETATM   18  C   UNL     1      -8.107   8.301  74.510  1.00  0.00    -0.225 A  
HETATM   19  C   UNL     1      -8.190   7.355  72.267  1.00  0.00    -0.115 A  
HETATM   20  O   UNL     1     -10.217   7.992  73.444  1.00  0.00    -0.260 OA 
HETATM   21  C   UNL     1     -10.968   7.821  72.297  1.00  0.00    -0.290 C  
HETATM   22  C   UNL     1      -9.015   6.892  71.145  1.00  0.00    -0.143 C  
HETATM   23  C   UNL     1      -6.715   8.284  74.469  1.00  0.00    -0.167 A  
HETATM   24  O   UNL     1     -12.154   8.142  72.269  1.00  0.00    -0.337 OA 
HETATM   25  O   UNL     1      -8.335   6.178  70.188  1.00  0.00    -0.124 OA 
HETATM   26  C   UNL     1      -6.060   7.821  73.328  1.00  0.00    -0.063 A  
HETATM   27  C   UNL     1      -6.797   7.346  72.238  1.00  0.00    -0.059 A  
ENDBRANCH  14  15
ENDBRANCH   4  14
TORSDOF 2
ENDMDL
MODEL      215
REMARK 921   NORMALIZED FREE ENERGY PREDICTED BY IDOCK:   -3.36 KCAL/MOL
REMARK 922        TOTAL FREE ENERGY PREDICTED BY IDOCK:   -4.56 KCAL/MOL
REMARK 923 INTER-LIGAND FREE ENERGY PREDICTED BY IDOCK:   -4.43 KCAL/MOL
REMARK 924 INTRA-LIGAND FREE ENERGY PREDICTED BY IDOCK:   -0.13 KCAL/MOL
REMARK 927      BINDING AFFINITY PREDICTED BY RF-SCORE:    0.00 PKD
ROOT
HETATM    1  O   UNL     1     -10.201   5.086  66.764  1.00  0.00    -0.211 OA 
HETATM    2  C   UNL     1      -9.100   5.496  67.482  1.00  0.00    -0.107 C  
HETATM    3  H   UNL     1     -10.545   4.200  66.751  1.00  0.00     0.000 HD 
HETATM    4  C   UNL     1      -8.612   6.750  67.499  1.00  0.00    -0.120 C  
HETATM    5  C   UNL     1      -8.960   3.136  68.356  1.00  0.00    -0.188 A  
HETATM    6  C   UNL     1      -7.420   7.058  68.331  1.00  0.00    -0.102 C  
HETATM    7  C   UNL     1      -7.221   4.006  70.359  1.00  0.00    -0.041 A  
HETATM    8  O   UNL     1      -7.092   6.165  69.338  1.00  0.00    -0.065 OA 
HETATM    9  O   UNL     1      -6.805   8.112  68.176  1.00  0.00    -0.071 OA 
HETATM   10  C   UNL     1      -7.639   4.871  69.348  1.00  0.00    -0.060 A  
HETATM   11  C   UNL     1      -7.679   2.690  70.362  1.00  0.00    -0.043 A  
HETATM   12  C   UNL     1      -8.526   2.248  69.345  1.00  0.00    -0.088 A  
HETATM   13  C   UNL     1      -8.543   4.473  68.370  1.00  0.00    -0.104 A  
ENDROOT
BRANCH   4  14
HETATM   14  C   UNL     1      -9.241   7.961  66.844  1.00  0.00    -0.191 C  
BRANCH  14  15
HETATM   15  C   UNL     1     -10.019   8.834  67.793  1.00  0.00    -0.243 C  
HETATM   16  C   UNL     1     -11.416  10.720  69.354  1.00  0.00    -0.295 A  
HETATM   17  H   UNL     1     -11.506   6.795  69.904  1.00  0.00     0.000 HD 
HETATM   18  C   UNL     1     -11.997  11.704  70.154  1.00  0.00    -0.441 A  
HETATM   19  C   UNL     1     -11.372   9.386  69.742  1.00  0.00    -0.071 A  
HETATM   20  O   UNL     1     -10.815  11.143  68.160  1.00  0.00    -0.190 OA 
HETATM   21  C   UNL     1     -10.001  10.282  67.451  1.00  0.00    -0.189 C  
HETATM   22  C   UNL     1     -10.756   8.408  68.838  1.00  0.00    -0.068 C  
HETATM   23  C   UNL     1     -12.511  11.348  71.398  1.00  0.00    -0.370 A  
HETATM   24  O   UNL     1      -9.303  10.695  66.527  1.00  0.00    -0.162 OA 
HETATM   25  O   UNL     1     -10.986   7.095  69.168  1.00  0.00    -0.198 OA 
HETATM   26  C   UNL     1     -12.444  10.021  71.823  1.00  0.00    -0.475 A  
HETATM   27  C   UNL     1     -11.888   9.043  70.991  1.00  0.00    -0.339 A  
ENDBRANCH  14  15
ENDBRANCH   4  14
TORSDOF 2
ENDMDL
MODEL      216
REMARK 921   NORMALIZED FREE ENERGY PREDICTED BY IDOCK:   -3.32 KCAL/MOL
REMARK 922        TOTAL FREE ENERGY PREDICTED BY IDOCK:   -4.52 KCAL/MOL
REMARK 923 INTER-LIGAND FREE ENERGY PREDICTED BY IDOCK:   -3.83 KCAL/MOL
REMARK 924 INTRA-LIGAND FREE ENERGY PREDICTED BY IDOCK:   -0.70 KCAL/MOL
REMARK 927      BINDING AFFINITY PREDICTED BY RF-SCORE:    0.00 PKD
ROOT
HETATM    1  O   UNL     1     -10.390   9.108  68.310  1.00  0.00    -0.199 OA 
HETATM    2  C   UNL     1      -9.397   9.371  69.227  1.00  0.00    -0.167 C  
HETATM    3  H   UNL     1     -10.611   9.662  67.571  1.00  0.00     0.000 HD 
HETATM    4  C   UNL     1      -9.085   8.586  70.274  1.00  0.00    -0.158 C  
HETATM    5  C   UNL     1      -8.881  11.433  67.873  1.00  0.00    -0.149 A  
HETATM    6  C   UNL     1      -7.978   8.985  71.182  1.00  0.00    -0.127 C  
HETATM    7  C   UNL     1      -6.440  11.670  69.207  1.00  0.00    -0.105 A  
HETATM    8  O   UNL     1      -7.071   9.922  70.713  1.00  0.00    -0.294 OA 
HETATM    9  O   UNL     1      -7.834   8.436  72.272  1.00  0.00    -0.127 OA 
HETATM   10  C   UNL     1      -7.375  10.709  69.589  1.00  0.00    -0.130 A  
HETATM   11  C   UNL     1      -6.737  12.523  68.146  1.00  0.00    -0.078 A  
HETATM   12  C   UNL     1      -7.967  12.423  67.497  1.00  0.00    -0.173 A  
HETATM   13  C   UNL     1      -8.575  10.540  68.907  1.00  0.00    -0.153 A  
ENDROOT
BRANCH   4  14
HETATM   14  C   UNL     1      -9.670   7.222  70.572  1.00  0.00    -0.176 C  
BRANCH  14  15
HETATM   15  C   UNL     1      -9.410   6.197  69.499  1.00  0.00    -0.147 C  
HETATM   16  C   UNL     1      -8.667   4.174  67.683  1.00  0.00    -0.107 A  
HETATM   17  H   UNL     1     -12.040   6.252  67.523  1.00  0.00     0.000 HD 
HETATM   18  C   UNL     1      -8.200   3.241  66.758  1.00  0.00    -0.092 A  
HETATM   19  C   UNL     1      -9.784   4.963  67.433  1.00  0.00    -0.195 A  
HETATM   20  O   UNL     1      -7.922   4.332  68.859  1.00  0.00    -0.071 OA 
HETATM   21  C   UNL     1      -8.166   5.405  69.695  1.00  0.00    -0.100 C  
HETATM   22  C   UNL     1     -10.223   5.912  68.463  1.00  0.00    -0.192 C  
HETATM   23  C   UNL     1      -8.844   3.125  65.529  1.00  0.00    -0.138 A  
HETATM   24  O   UNL     1      -7.392   5.676  70.610  1.00  0.00    -0.078 OA 
HETATM   25  O   UNL     1     -11.467   6.454  68.253  1.00  0.00    -0.186 OA 
HETATM   26  C   UNL     1      -9.944   3.933  65.243  1.00  0.00    -0.154 A  
HETATM   27  C   UNL     1     -10.419   4.838  66.198  1.00  0.00    -0.332 A  
ENDBRANCH  14  15
ENDBRANCH   4  14
TORSDOF 2
ENDMDL
MODEL      217
REMARK 921   NORMALIZED FREE ENERGY PREDICTED BY IDOCK:   -3.32 KCAL/MOL
REMARK 922        TOTAL FREE ENERGY PREDICTED BY IDOCK:   -4.51 KCAL/MOL
REMARK 923 INTER-LIGAND FREE ENERGY PREDICTED BY IDOCK:   -4.06 KCAL/MOL
REMARK 924 INTRA-LIGAND FREE ENERGY PREDICTED BY IDOCK:   -0.46 KCAL/MOL
REMARK 927      BINDING AFFINITY PREDICTED BY RF-SCORE:    0.00 PKD
ROOT
HETATM    1  O   UNL     1     -10.465  12.937  66.412  1.00  0.00    -0.261 OA 
HETATM    2  C   UNL     1      -9.592  12.480  67.374  1.00  0.00    -0.192 C  
HETATM    3  H   UNL     1     -10.418  13.788  65.993  1.00  0.00     0.000 HD 
HETATM    4  C   UNL     1      -9.660  11.275  67.970  1.00  0.00    -0.182 C  
HETATM    5  C   UNL     1      -8.357  14.659  67.095  1.00  0.00    -0.236 A  
HETATM    6  C   UNL     1      -8.642  10.905  68.986  1.00  0.00    -0.103 C  
HETATM    7  C   UNL     1      -6.175  13.571  68.455  1.00  0.00    -0.093 A  
HETATM    8  O   UNL     1      -7.462  11.632  69.007  1.00  0.00    -0.110 OA 
HETATM    9  O   UNL     1      -8.816   9.935  69.721  1.00  0.00    -0.196 OA 
HETATM   10  C   UNL     1      -7.375  12.868  68.345  1.00  0.00    -0.119 A  
HETATM   11  C   UNL     1      -6.073  14.835  67.878  1.00  0.00    -0.167 A  
HETATM   12  C   UNL     1      -7.171  15.391  67.223  1.00  0.00    -0.229 A  
HETATM   13  C   UNL     1      -8.457  13.369  67.629  1.00  0.00    -0.187 A  
ENDROOT
BRANCH   4  14
HETATM   14  C   UNL     1     -10.617  10.157  67.614  1.00  0.00    -0.316 C  
BRANCH  14  15
HETATM   15  C   UNL     1      -9.968   9.004  66.894  1.00  0.00    -0.313 C  
HETATM   16  C   UNL     1      -8.944   6.646  65.741  1.00  0.00    -0.026 A  
HETATM   17  H   UNL     1      -8.410  10.301  64.302  1.00  0.00     0.000 HD 
HETATM   18  C   UNL     1      -8.376   5.459  65.277  1.00  0.00    -0.142 A  
HETATM   19  C   UNL     1      -8.548   7.889  65.260  1.00  0.00    -0.084 A  
HETATM   20  O   UNL     1      -9.892   6.538  66.767  1.00  0.00    -0.155 OA 
HETATM   21  C   UNL     1     -10.301   7.666  67.452  1.00  0.00    -0.277 C  
HETATM   22  C   UNL     1      -9.204   9.090  65.787  1.00  0.00    -0.232 C  
HETATM   23  C   UNL     1      -7.353   5.521  64.335  1.00  0.00    -0.057 A  
HETATM   24  O   UNL     1     -10.963   7.568  68.483  1.00  0.00    -0.052 OA 
HETATM   25  O   UNL     1      -8.949  10.241  65.082  1.00  0.00    -0.167 OA 
HETATM   26  C   UNL     1      -6.915   6.760  63.865  1.00  0.00    -0.056 A  
HETATM   27  C   UNL     1      -7.521   7.937  64.318  1.00  0.00    -0.103 A  
ENDBRANCH  14  15
ENDBRANCH   4  14
TORSDOF 2
ENDMDL
MODEL      218
REMARK 921   NORMALIZED FREE ENERGY PREDICTED BY IDOCK:   -3.27 KCAL/MOL
REMARK 922        TOTAL FREE ENERGY PREDICTED BY IDOCK:   -4.46 KCAL/MOL
REMARK 923 INTER-LIGAND FREE ENERGY PREDICTED BY IDOCK:   -4.19 KCAL/MOL
REMARK 924 INTRA-LIGAND FREE ENERGY PREDICTED BY IDOCK:   -0.27 KCAL/MOL
REMARK 927      BINDING AFFINITY PREDICTED BY RF-SCORE:    0.00 PKD
ROOT
HETATM    1  O   UNL     1     -10.009  11.564  66.951  1.00  0.00    -0.201 OA 
HETATM    2  C   UNL     1      -9.306  11.160  68.064  1.00  0.00    -0.166 C  
HETATM    3  H   UNL     1      -9.786  12.310  66.406  1.00  0.00     0.000 HD 
HETATM    4  C   UNL     1      -9.622  10.104  68.836  1.00  0.00    -0.186 C  
HETATM    5  C   UNL     1      -7.705  13.043  67.570  1.00  0.00    -0.168 A  
HETATM    6  C   UNL     1      -8.766   9.771  70.004  1.00  0.00    -0.209 C  
HETATM    7  C   UNL     1      -5.854  11.897  69.318  1.00  0.00    -0.072 A  
HETATM    8  O   UNL     1      -7.487  10.303  70.034  1.00  0.00    -0.163 OA 
HETATM    9  O   UNL     1      -9.159   8.984  70.863  1.00  0.00    -0.209 OA 
HETATM   10  C   UNL     1      -7.141  11.375  69.194  1.00  0.00    -0.115 A  
HETATM   11  C   UNL     1      -5.495  13.009  68.558  1.00  0.00    -0.066 A  
HETATM   12  C   UNL     1      -6.429  13.599  67.706  1.00  0.00    -0.178 A  
HETATM   13  C   UNL     1      -8.062  11.898  68.293  1.00  0.00    -0.154 A  
ENDROOT
BRANCH   4  14
HETATM   14  C   UNL     1     -10.720   9.097  68.564  1.00  0.00    -0.160 C  
BRANCH  14  15
HETATM   15  C   UNL     1     -10.227   7.795  67.988  1.00  0.00    -0.249 C  
HETATM   16  C   UNL     1      -9.224   5.536  66.636  1.00  0.00    -0.135 A  
HETATM   17  H   UNL     1     -10.121   5.667  70.495  1.00  0.00     0.000 HD 
HETATM   18  C   UNL     1      -8.828   4.424  65.893  1.00  0.00    -0.120 A  
HETATM   19  C   UNL     1      -9.675   5.424  67.946  1.00  0.00    -0.165 A  
HETATM   20  O   UNL     1      -9.210   6.775  65.982  1.00  0.00    -0.132 OA 
HETATM   21  C   UNL     1      -9.828   7.869  66.557  1.00  0.00    -0.202 C  
HETATM   22  C   UNL     1     -10.060   6.643  68.666  1.00  0.00    -0.161 C  
HETATM   23  C   UNL     1      -8.926   3.158  66.465  1.00  0.00    -0.163 A  
HETATM   24  O   UNL     1     -10.010   8.898  65.911  1.00  0.00    -0.245 OA 
HETATM   25  O   UNL     1     -10.239   6.480  70.018  1.00  0.00    -0.177 OA 
HETATM   26  C   UNL     1      -9.411   3.019  67.765  1.00  0.00    -0.251 A  
HETATM   27  C   UNL     1      -9.771   4.151  68.506  1.00  0.00    -0.148 A  
ENDBRANCH  14  15
ENDBRANCH   4  14
TORSDOF 2
ENDMDL
MODEL      219
REMARK 921   NORMALIZED FREE ENERGY PREDICTED BY IDOCK:   -3.27 KCAL/MOL
REMARK 922        TOTAL FREE ENERGY PREDICTED BY IDOCK:   -4.46 KCAL/MOL
REMARK 923 INTER-LIGAND FREE ENERGY PREDICTED BY IDOCK:   -4.28 KCAL/MOL
REMARK 924 INTRA-LIGAND FREE ENERGY PREDICTED BY IDOCK:   -0.18 KCAL/MOL
REMARK 927      BINDING AFFINITY PREDICTED BY RF-SCORE:    0.00 PKD
ROOT
HETATM    1  O   UNL     1      -5.303   9.947  67.293  1.00  0.00    -0.041 OA 
HETATM    2  C   UNL     1      -6.157   9.075  66.657  1.00  0.00    -0.060 C  
HETATM    3  H   UNL     1      -4.769  10.602  66.858  1.00  0.00     0.000 HD 
HETATM    4  C   UNL     1      -6.914   8.147  67.273  1.00  0.00    -0.075 C  
HETATM    5  C   UNL     1      -5.504  10.215  64.506  1.00  0.00    -0.113 A  
HETATM    6  C   UNL     1      -7.804   7.276  66.463  1.00  0.00    -0.109 C  
HETATM    7  C   UNL     1      -7.691   9.028  63.240  1.00  0.00    -0.119 A  
HETATM    8  O   UNL     1      -8.115   7.694  65.179  1.00  0.00    -0.124 OA 
HETATM    9  O   UNL     1      -8.308   6.268  66.954  1.00  0.00    -0.109 OA 
HETATM   10  C   UNL     1      -7.357   8.697  64.553  1.00  0.00    -0.099 A  
HETATM   11  C   UNL     1      -6.916   9.962  62.556  1.00  0.00    -0.116 A  
HETATM   12  C   UNL     1      -5.807  10.534  63.178  1.00  0.00    -0.128 A  
HETATM   13  C   UNL     1      -6.303   9.313  65.220  1.00  0.00    -0.065 A  
ENDROOT
BRANCH   4  14
HETATM   14  C   UNL     1      -7.064   7.970  68.769  1.00  0.00    -0.071 C  
BRANCH  14  15
HETATM   15  C   UNL     1      -8.358   8.507  69.321  1.00  0.00    -0.120 C  
HETATM   16  C   UNL     1     -10.684   9.812  70.232  1.00  0.00    -0.302 A  
HETATM   17  H   UNL     1     -10.170   5.882  70.128  1.00  0.00     0.000 HD 
HETATM   18  C   UNL     1     -11.764  10.514  70.768  1.00  0.00    -0.454 A  
HETATM   19  C   UNL     1     -10.538   8.440  70.406  1.00  0.00    -0.236 A  
HETATM   20  O   UNL     1      -9.709  10.561  69.559  1.00  0.00    -0.202 OA 
HETATM   21  C   UNL     1      -8.496   9.986  69.233  1.00  0.00    -0.163 C  
HETATM   22  C   UNL     1      -9.382   7.772  69.799  1.00  0.00    -0.153 C  
HETATM   23  C   UNL     1     -12.702   9.830  71.536  1.00  0.00    -0.504 A  
HETATM   24  O   UNL     1      -7.560  10.677  68.838  1.00  0.00    -0.095 OA 
HETATM   25  O   UNL     1      -9.449   6.400  69.791  1.00  0.00    -0.151 OA 
HETATM   26  C   UNL     1     -12.554   8.459  71.754  1.00  0.00    -0.378 A  
HETATM   27  C   UNL     1     -11.483   7.767  71.179  1.00  0.00    -0.295 A  
ENDBRANCH  14  15
ENDBRANCH   4  14
TORSDOF 2
ENDMDL
MODEL      220
REMARK 921   NORMALIZED FREE ENERGY PREDICTED BY IDOCK:   -3.12 KCAL/MOL
REMARK 922        TOTAL FREE ENERGY PREDICTED BY IDOCK:   -4.30 KCAL/MOL
REMARK 923 INTER-LIGAND FREE ENERGY PREDICTED BY IDOCK:   -4.09 KCAL/MOL
REMARK 924 INTRA-LIGAND FREE ENERGY PREDICTED BY IDOCK:   -0.20 KCAL/MOL
REMARK 927      BINDING AFFINITY PREDICTED BY RF-SCORE:    0.00 PKD
ROOT
HETATM    1  O   UNL     1      -7.972   8.630  69.327  1.00  0.00    -0.099 OA 
HETATM    2  C   UNL     1      -9.056   8.843  70.150  1.00  0.00    -0.176 C  
HETATM    3  H   UNL     1      -7.086   8.462  69.625  1.00  0.00     0.000 HD 
HETATM    4  C   UNL     1     -10.311   9.081  69.728  1.00  0.00    -0.219 C  
HETATM    5  C   UNL     1      -7.487   8.469  72.087  1.00  0.00    -0.111 A  
HETATM    6  C   UNL     1     -11.392   9.282  70.727  1.00  0.00    -0.287 C  
HETATM    7  C   UNL     1      -9.687   8.163  73.779  1.00  0.00     0.429 A  
HETATM    8  O   UNL     1     -11.159   8.842  72.020  1.00  0.00    -0.356 OA 
HETATM    9  O   UNL     1     -12.479   9.746  70.388  1.00  0.00    -0.122 OA 
HETATM   10  C   UNL     1      -9.854   8.546  72.448  1.00  0.00    -0.288 A  
HETATM   11  C   UNL     1      -8.401   7.935  74.264  1.00  0.00    -0.297 A  
HETATM   12  C   UNL     1      -7.300   8.115  73.427  1.00  0.00    -0.178 A  
HETATM   13  C   UNL     1      -8.778   8.655  71.575  1.00  0.00    -0.266 A  
ENDROOT
BRANCH   4  14
HETATM   14  C   UNL     1     -10.793   9.038  68.293  1.00  0.00    -0.072 C  
BRANCH  14  15
HETATM   15  C   UNL     1     -10.204   7.912  67.484  1.00  0.00    -0.308 C  
HETATM   16  C   UNL     1      -8.929   6.040  65.807  1.00  0.00    -0.104 A  
HETATM   17  H   UNL     1     -11.016   5.136  69.055  1.00  0.00     0.000 HD 
HETATM   18  C   UNL     1      -8.369   5.157  64.884  1.00  0.00    -0.145 A  
HETATM   19  C   UNL     1      -9.784   5.608  66.815  1.00  0.00    -0.169 A  
HETATM   20  O   UNL     1      -8.645   7.402  65.638  1.00  0.00    -0.148 OA 
HETATM   21  C   UNL     1      -9.362   8.352  66.340  1.00  0.00    -0.214 C  
HETATM   22  C   UNL     1     -10.321   6.597  67.756  1.00  0.00    -0.196 C  
HETATM   23  C   UNL     1      -8.707   3.808  64.946  1.00  0.00    -0.115 A  
HETATM   24  O   UNL     1      -9.275   9.543  66.051  1.00  0.00    -0.168 OA 
HETATM   25  O   UNL     1     -10.933   6.063  68.863  1.00  0.00    -0.319 OA 
HETATM   26  C   UNL     1      -9.592   3.359  65.927  1.00  0.00    -0.067 A  
HETATM   27  C   UNL     1     -10.116   4.255  66.865  1.00  0.00    -0.097 A  
ENDBRANCH  14  15
ENDBRANCH   4  14
TORSDOF 2
ENDMDL
MODEL      221
REMARK 921   NORMALIZED FREE ENERGY PREDICTED BY IDOCK:   -3.06 KCAL/MOL
REMARK 922        TOTAL FREE ENERGY PREDICTED BY IDOCK:   -4.23 KCAL/MOL
REMARK 923 INTER-LIGAND FREE ENERGY PREDICTED BY IDOCK:   -5.13 KCAL/MOL
REMARK 924 INTRA-LIGAND FREE ENERGY PREDICTED BY IDOCK:    0.90 KCAL/MOL
REMARK 927      BINDING AFFINITY PREDICTED BY RF-SCORE:    0.00 PKD
ROOT
HETATM    1  O   UNL     1     -10.968  14.730  69.261  1.00  0.00    -0.244 OA 
HETATM    2  C   UNL     1     -10.668  14.906  67.929  1.00  0.00    -0.265 C  
HETATM    3  H   UNL     1     -11.017  15.426  69.906  1.00  0.00     0.000 HD 
HETATM    4  C   UNL     1     -10.598  13.920  67.016  1.00  0.00    -0.279 C  
HETATM    5  C   UNL     1     -10.552  17.375  68.422  1.00  0.00    -0.355 A  
HETATM    6  C   UNL     1     -10.274  14.253  65.605  1.00  0.00    -0.347 C  
HETATM    7  C   UNL     1     -10.659  17.903  65.682  1.00  0.00    -0.110 A  
HETATM    8  O   UNL     1     -10.435  15.570  65.204  1.00  0.00    -0.393 OA 
HETATM    9  O   UNL     1      -9.957  13.370  64.810  1.00  0.00    -0.258 OA 
HETATM   10  C   UNL     1     -10.557  16.595  66.157  1.00  0.00    -0.215 A  
HETATM   11  C   UNL     1     -10.705  18.955  66.594  1.00  0.00    -0.392 A  
HETATM   12  C   UNL     1     -10.623  18.694  67.961  1.00  0.00    -0.350 A  
HETATM   13  C   UNL     1     -10.553  16.306  67.517  1.00  0.00    -0.310 A  
ENDROOT
BRANCH   4  14
HETATM   14  C   UNL     1     -10.953  12.466  67.244  1.00  0.00    -0.302 C  
BRANCH  14  15
HETATM   15  C   UNL     1      -9.765  11.540  67.246  1.00  0.00    -0.197 C  
HETATM   16  C   UNL     1      -7.405  10.017  67.473  1.00  0.00    -0.090 A  
HETATM   17  H   UNL     1     -10.736   8.804  65.697  1.00  0.00     0.000 HD 
HETATM   18  C   UNL     1      -6.179   9.354  67.523  1.00  0.00    -0.058 A  
HETATM   19  C   UNL     1      -8.452   9.569  66.675  1.00  0.00    -0.136 A  
HETATM   20  O   UNL     1      -7.520  11.199  68.216  1.00  0.00    -0.084 OA 
HETATM   21  C   UNL     1      -8.596  12.042  68.015  1.00  0.00    -0.170 C  
HETATM   22  C   UNL     1      -9.716  10.314  66.689  1.00  0.00    -0.185 C  
HETATM   23  C   UNL     1      -5.981   8.235  66.719  1.00  0.00    -0.053 A  
HETATM   24  O   UNL     1      -8.605  13.173  68.497  1.00  0.00    -0.148 OA 
HETATM   25  O   UNL     1     -10.770   9.668  66.090  1.00  0.00    -0.002 OA 
HETATM   26  C   UNL     1      -7.006   7.790  65.883  1.00  0.00    -0.061 A  
HETATM   27  C   UNL     1      -8.241   8.449  65.874  1.00  0.00    -0.123 A  
ENDBRANCH  14  15
ENDBRANCH   4  14
TORSDOF 2
ENDMDL
MODEL      222
REMARK 921   NORMALIZED FREE ENERGY PREDICTED BY IDOCK:   -2.76 KCAL/MOL
REMARK 922        TOTAL FREE ENERGY PREDICTED BY IDOCK:   -3.90 KCAL/MOL
REMARK 923 INTER-LIGAND FREE ENERGY PREDICTED BY IDOCK:   -5.30 KCAL/MOL
REMARK 924 INTRA-LIGAND FREE ENERGY PREDICTED BY IDOCK:    1.41 KCAL/MOL
REMARK 927      BINDING AFFINITY PREDICTED BY RF-SCORE:    0.00 PKD
ROOT
HETATM    1  O   UNL     1     -13.022  15.003  65.711  1.00  0.00     0.242 OA 
HETATM    2  C   UNL     1     -11.715  14.583  65.821  1.00  0.00    -0.344 C  
HETATM    3  H   UNL     1     -13.653  14.663  65.089  1.00  0.00     0.000 HD 
HETATM    4  C   UNL     1     -10.820  15.065  66.702  1.00  0.00    -0.318 C  
HETATM    5  C   UNL     1     -12.236  12.928  63.993  1.00  0.00    -0.500 A  
HETATM    6  C   UNL     1      -9.441  14.511  66.721  1.00  0.00    -0.269 C  
HETATM    7  C   UNL     1      -9.896  11.539  64.616  1.00  0.00    -0.283 A  
HETATM    8  O   UNL     1      -9.237  13.281  66.116  1.00  0.00    -0.131 OA 
HETATM    9  O   UNL     1      -8.542  15.091  67.326  1.00  0.00    -0.179 OA 
HETATM   10  C   UNL     1     -10.193  12.754  65.232  1.00  0.00    -0.279 A  
HETATM   11  C   UNL     1     -10.782  11.019  63.675  1.00  0.00    -0.272 A  
HETATM   12  C   UNL     1     -11.937  11.726  63.343  1.00  0.00    -0.443 A  
HETATM   13  C   UNL     1     -11.377  13.437  64.975  1.00  0.00    -0.330 A  
ENDROOT
BRANCH   4  14
HETATM   14  C   UNL     1     -11.104  16.058  67.810  1.00  0.00    -0.273 C  
BRANCH  14  15
HETATM   15  C   UNL     1      -9.996  17.053  68.039  1.00  0.00    -0.283 C  
HETATM   16  C   UNL     1      -7.901  18.786  68.777  1.00  0.00    -0.310 A  
HETATM   17  H   UNL     1      -9.224  18.260  65.077  1.00  0.00     0.000 HD 
HETATM   18  C   UNL     1      -6.945  19.702  69.215  1.00  0.00    -0.375 A  
HETATM   19  C   UNL     1      -8.406  18.811  67.482  1.00  0.00    -0.283 A  
HETATM   20  O   UNL     1      -8.384  17.870  69.721  1.00  0.00     0.795 OA 
HETATM   21  C   UNL     1      -9.504  17.112  69.441  1.00  0.00     0.158 C  
HETATM   22  C   UNL     1      -9.398  17.803  67.093  1.00  0.00    -0.264 C  
HETATM   23  C   UNL     1      -6.514  20.699  68.345  1.00  0.00    -0.303 A  
HETATM   24  O   UNL     1     -10.062  16.466  70.326  1.00  0.00     0.179 OA 
HETATM   25  O   UNL     1      -9.646  17.731  65.744  1.00  0.00    -0.519 OA 
HETATM   26  C   UNL     1      -7.035  20.765  67.052  1.00  0.00    -0.386 A  
HETATM   27  C   UNL     1      -7.967  19.815  66.620  1.00  0.00    -0.333 A  
ENDBRANCH  14  15
ENDBRANCH   4  14
TORSDOF 2
ENDMDL
MODEL      223
REMARK 921   NORMALIZED FREE ENERGY PREDICTED BY IDOCK:   -2.74 KCAL/MOL
REMARK 922        TOTAL FREE ENERGY PREDICTED BY IDOCK:   -3.87 KCAL/MOL
REMARK 923 INTER-LIGAND FREE ENERGY PREDICTED BY IDOCK:   -4.78 KCAL/MOL
REMARK 924 INTRA-LIGAND FREE ENERGY PREDICTED BY IDOCK:    0.91 KCAL/MOL
REMARK 927      BINDING AFFINITY PREDICTED BY RF-SCORE:    0.00 PKD
ROOT
HETATM    1  O   UNL     1     -13.311  14.161  66.682  1.00  0.00     0.263 OA 
HETATM    2  C   UNL     1     -12.121  14.357  66.016  1.00  0.00    -0.357 C  
HETATM    3  H   UNL     1     -13.950  13.491  66.470  1.00  0.00     0.000 HD 
HETATM    4  C   UNL     1     -11.215  15.305  66.315  1.00  0.00    -0.223 C  
HETATM    5  C   UNL     1     -12.745  12.369  64.596  1.00  0.00    -0.372 A  
HETATM    6  C   UNL     1      -9.964  15.397  65.520  1.00  0.00    -0.344 C  
HETATM    7  C   UNL     1     -10.109  12.220  63.688  1.00  0.00    -0.369 A  
HETATM    8  O   UNL     1      -9.598  14.291  64.769  1.00  0.00     0.138 OA 
HETATM    9  O   UNL     1      -9.245  16.392  65.598  1.00  0.00    -0.465 OA 
HETATM   10  C   UNL     1     -10.530  13.276  64.497  1.00  0.00    -0.415 A  
HETATM   11  C   UNL     1     -11.024  11.231  63.331  1.00  0.00    -0.257 A  
HETATM   12  C   UNL     1     -12.347  11.320  63.761  1.00  0.00     0.521 A  
HETATM   13  C   UNL     1     -11.824  13.343  65.002  1.00  0.00    -0.381 A  
ENDROOT
BRANCH   4  14
HETATM   14  C   UNL     1     -11.268  16.246  67.501  1.00  0.00    -0.054 C  
BRANCH  14  15
HETATM   15  C   UNL     1      -9.922  16.532  68.113  1.00  0.00    -0.248 C  
HETATM   16  C   UNL     1      -7.495  17.391  69.261  1.00  0.00    -0.026 A  
HETATM   17  H   UNL     1      -8.686  13.618  69.012  1.00  0.00     0.000 HD 
HETATM   18  C   UNL     1      -6.266  17.866  69.718  1.00  0.00    -0.172 A  
HETATM   19  C   UNL     1      -7.734  16.036  69.062  1.00  0.00    -0.216 A  
HETATM   20  O   UNL     1      -8.469  18.348  68.946  1.00  0.00    -0.263 OA 
HETATM   21  C   UNL     1      -9.603  17.979  68.248  1.00  0.00    -0.318 C  
HETATM   22  C   UNL     1      -9.058  15.615  68.593  1.00  0.00    -0.205 C  
HETATM   23  C   UNL     1      -5.232  16.961  69.943  1.00  0.00    -0.179 A  
HETATM   24  O   UNL     1     -10.358  18.829  67.782  1.00  0.00    -0.371 OA 
HETATM   25  O   UNL     1      -9.294  14.264  68.674  1.00  0.00    -0.202 OA 
HETATM   26  C   UNL     1      -5.438  15.600  69.714  1.00  0.00    -0.118 A  
HETATM   27  C   UNL     1      -6.690  15.141  69.288  1.00  0.00    -0.146 A  
ENDBRANCH  14  15
ENDBRANCH   4  14
TORSDOF 2
ENDMDL
MODEL      224
REMARK 921   NORMALIZED FREE ENERGY PREDICTED BY IDOCK:   -2.10 KCAL/MOL
REMARK 922        TOTAL FREE ENERGY PREDICTED BY IDOCK:   -3.16 KCAL/MOL
REMARK 923 INTER-LIGAND FREE ENERGY PREDICTED BY IDOCK:   -2.62 KCAL/MOL
REMARK 924 INTRA-LIGAND FREE ENERGY PREDICTED BY IDOCK:   -0.54 KCAL/MOL
REMARK 927      BINDING AFFINITY PREDICTED BY RF-SCORE:    0.00 PKD
ROOT
HETATM    1  O   UNL     1      -8.777   6.447  73.569  1.00  0.00    -0.124 OA 
HETATM    2  C   UNL     1      -8.782   5.245  72.897  1.00  0.00    -0.118 C  
HETATM    3  H   UNL     1      -8.155   6.691  74.244  1.00  0.00     0.000 HD 
HETATM    4  C   UNL     1      -9.663   4.898  71.941  1.00  0.00    -0.218 C  
HETATM    5  C   UNL     1      -6.725   4.648  74.226  1.00  0.00    -0.065 A  
HETATM    6  C   UNL     1      -9.545   3.570  71.286  1.00  0.00    -0.172 C  
HETATM    7  C   UNL     1      -6.219   2.549  72.456  1.00  0.00    -0.010 A  
HETATM    8  O   UNL     1      -8.334   2.905  71.397  1.00  0.00    -0.061 OA 
HETATM    9  O   UNL     1     -10.466   3.124  70.604  1.00  0.00     0.816 OA 
HETATM   10  C   UNL     1      -7.392   3.298  72.363  1.00  0.00    -0.051 A  
HETATM   11  C   UNL     1      -5.293   2.857  73.450  1.00  0.00     0.000 A  
HETATM   12  C   UNL     1      -5.558   3.887  74.352  1.00  0.00    -0.004 A  
HETATM   13  C   UNL     1      -7.641   4.379  73.201  1.00  0.00    -0.082 A  
ENDROOT
BRANCH   4  14
HETATM   14  C   UNL     1     -10.726   5.794  71.340  1.00  0.00    -0.319 C  
BRANCH  14  15
HETATM   15  C   UNL     1     -10.190   6.810  70.366  1.00  0.00    -0.212 C  
HETATM   16  C   UNL     1      -9.101   8.893  68.812  1.00  0.00    -0.134 A  
HETATM   17  H   UNL     1     -10.115   5.316  67.435  1.00  0.00     0.000 HD 
HETATM   18  C   UNL     1      -8.660   9.993  68.076  1.00  0.00    -0.121 A  
HETATM   19  C   UNL     1      -9.589   7.744  68.198  1.00  0.00    -0.161 A  
HETATM   20  O   UNL     1      -9.093   9.017  70.207  1.00  0.00    -0.169 OA 
HETATM   21  C   UNL     1      -9.750   8.086  70.989  1.00  0.00    -0.160 C  
HETATM   22  C   UNL     1     -10.020   6.624  69.042  1.00  0.00    -0.153 C  
HETATM   23  C   UNL     1      -8.749   9.958  66.687  1.00  0.00    -0.138 A  
HETATM   24  O   UNL     1      -9.933   8.291  72.187  1.00  0.00    -0.219 OA 
HETATM   25  O   UNL     1     -10.235   5.447  68.368  1.00  0.00    -0.173 OA 
HETATM   26  C   UNL     1      -9.270   8.830  66.053  1.00  0.00    -0.282 A  
HETATM   27  C   UNL     1      -9.675   7.723  66.807  1.00  0.00    -0.296 A  
ENDBRANCH  14  15
ENDBRANCH   4  14
TORSDOF 2
ENDMDL
MODEL      225
REMARK 921   NORMALIZED FREE ENERGY PREDICTED BY IDOCK:   -0.41 KCAL/MOL
REMARK 922        TOTAL FREE ENERGY PREDICTED BY IDOCK:   -1.27 KCAL/MOL
REMARK 923 INTER-LIGAND FREE ENERGY PREDICTED BY IDOCK:   -1.60 KCAL/MOL
REMARK 924 INTRA-LIGAND FREE ENERGY PREDICTED BY IDOCK:    0.33 KCAL/MOL
REMARK 927      BINDING AFFINITY PREDICTED BY RF-SCORE:    0.00 PKD
ROOT
HETATM    1  O   UNL     1     -11.250  15.266  66.684  1.00  0.00    -0.314 OA 
HETATM    2  C   UNL     1     -11.364  15.659  67.999  1.00  0.00    -0.324 C  
HETATM    3  H   UNL     1     -11.267  14.366  66.381  1.00  0.00     0.000 HD 
HETATM    4  C   UNL     1     -11.341  16.934  68.428  1.00  0.00     0.019 C  
HETATM    5  C   UNL     1     -11.636  13.218  68.564  1.00  0.00    -0.368 A  
HETATM    6  C   UNL     1     -11.488  17.218  69.879  1.00  0.00     1.501 C  
HETATM    7  C   UNL     1     -12.587  13.933  71.090  1.00  0.00    -0.446 A  
HETATM    8  O   UNL     1     -12.021  16.219  70.678  1.00  0.00    -0.235 OA 
HETATM    9  O   UNL     1     -11.220  18.331  70.329  1.00  0.00     2.255 OA 
HETATM   10  C   UNL     1     -12.091  14.896  70.212  1.00  0.00    -0.325 A  
HETATM   11  C   UNL     1     -12.602  12.596  70.695  1.00  0.00    -0.241 A  
HETATM   12  C   UNL     1     -12.101  12.235  69.444  1.00  0.00    -0.234 A  
HETATM   13  C   UNL     1     -11.660  14.569  68.931  1.00  0.00    -0.341 A  
ENDROOT
BRANCH   4  14
HETATM   14  C   UNL     1     -11.311  18.170  67.554  1.00  0.00     0.577 C  
BRANCH  14  15
HETATM   15  C   UNL     1      -9.948  18.491  66.996  1.00  0.00    -0.365 C  
HETATM   16  C   UNL     1      -7.548  19.348  65.795  1.00  0.00    -0.196 A  
HETATM   17  H   UNL     1      -7.806  16.681  68.717  1.00  0.00     0.000 HD 
HETATM   18  C   UNL     1      -6.405  19.730  65.092  1.00  0.00    -0.307 A  
HETATM   19  C   UNL     1      -7.542  18.279  66.684  1.00  0.00    -0.259 A  
HETATM   20  O   UNL     1      -8.729  20.050  65.519  1.00  0.00    -0.193 OA 
HETATM   21  C   UNL     1      -9.943  19.568  65.971  1.00  0.00    -0.398 C  
HETATM   22  C   UNL     1      -8.781  17.948  67.396  1.00  0.00    -0.237 C  
HETATM   23  C   UNL     1      -5.234  18.995  65.252  1.00  0.00    -0.201 A  
HETATM   24  O   UNL     1     -10.999  20.047  65.564  1.00  0.00    -0.307 OA 
HETATM   25  O   UNL     1      -8.628  17.063  68.436  1.00  0.00    -0.226 OA 
HETATM   26  C   UNL     1      -5.216  17.896  66.111  1.00  0.00    -0.224 A  
HETATM   27  C   UNL     1      -6.364  17.550  66.834  1.00  0.00    -0.212 A  
ENDBRANCH  14  15
ENDBRANCH   4  14
TORSDOF 2
ENDMDL
MODEL      226
REMARK 921   NORMALIZED FREE ENERGY PREDICTED BY IDOCK:    0.26 KCAL/MOL
REMARK 922        TOTAL FREE ENERGY PREDICTED BY IDOCK:   -0.52 KCAL/MOL
REMARK 923 INTER-LIGAND FREE ENERGY PREDICTED BY IDOCK:   -1.30 KCAL/MOL
REMARK 924 INTRA-LIGAND FREE ENERGY PREDICTED BY IDOCK:    0.78 KCAL/MOL
REMARK 927      BINDING AFFINITY PREDICTED BY RF-SCORE:    0.00 PKD
ROOT
HETATM    1  O   UNL     1      -7.216  10.396  68.629  1.00  0.00    -0.076 OA 
HETATM    2  C   UNL     1      -7.905   9.394  67.983  1.00  0.00    -0.091 C  
HETATM    3  H   UNL     1      -6.353  10.303  69.015  1.00  0.00     0.000 HD 
HETATM    4  C   UNL     1      -9.127   9.525  67.436  1.00  0.00    -0.144 C  
HETATM    5  C   UNL     1      -5.894   7.931  68.395  1.00  0.00    -0.036 A  
HETATM    6  C   UNL     1      -9.752   8.362  66.755  1.00  0.00    -0.242 C  
HETATM    7  C   UNL     1      -6.866   6.106  66.518  1.00  0.00    -0.062 A  
HETATM    8  O   UNL     1      -8.921   7.321  66.372  1.00  0.00    -0.148 OA 
HETATM    9  O   UNL     1     -10.948   8.370  66.473  1.00  0.00     0.238 OA 
HETATM   10  C   UNL     1      -7.626   7.210  66.905  1.00  0.00    -0.101 A  
HETATM   11  C   UNL     1      -5.606   5.917  67.083  1.00  0.00    -0.016 A  
HETATM   12  C   UNL     1      -5.132   6.813  68.041  1.00  0.00    -0.008 A  
HETATM   13  C   UNL     1      -7.141   8.158  67.800  1.00  0.00    -0.087 A  
ENDROOT
BRANCH   4  14
HETATM   14  C   UNL     1      -9.917  10.812  67.316  1.00  0.00    -0.219 C  
BRANCH  14  15
HETATM   15  C   UNL     1     -10.874  11.049  68.455  1.00  0.00    -0.254 C  
HETATM   16  C   UNL     1     -12.739  11.785  70.435  1.00  0.00     0.007 A  
HETATM   17  H   UNL     1     -11.132   8.182  70.048  1.00  0.00     0.000 HD 
HETATM   18  C   UNL     1     -13.581  12.235  71.452  1.00  0.00     0.415 A  
HETATM   19  C   UNL     1     -12.103  10.550  70.498  1.00  0.00    -0.437 A  
HETATM   20  O   UNL     1     -12.508  12.662  69.366  1.00  0.00     0.009 OA 
HETATM   21  C   UNL     1     -11.495  12.400  68.463  1.00  0.00    -0.306 C  
HETATM   22  C   UNL     1     -11.244  10.142  69.380  1.00  0.00    -0.215 C  
HETATM   23  C   UNL     1     -13.757  11.444  72.584  1.00  0.00     0.980 A  
HETATM   24  O   UNL     1     -11.141  13.255  67.653  1.00  0.00    -0.255 OA 
HETATM   25  O   UNL     1     -10.871   8.821  69.396  1.00  0.00    -0.205 OA 
HETATM   26  C   UNL     1     -13.099  10.218  72.684  1.00  0.00     0.449 A  
HETATM   27  C   UNL     1     -12.286   9.769  71.638  1.00  0.00    -0.495 A  
ENDBRANCH  14  15
ENDBRANCH   4  14
TORSDOF 2
ENDMDL
MODEL      227
REMARK 921   NORMALIZED FREE ENERGY PREDICTED BY IDOCK:    1.67 KCAL/MOL
REMARK 922        TOTAL FREE ENERGY PREDICTED BY IDOCK:    1.05 KCAL/MOL
REMARK 923 INTER-LIGAND FREE ENERGY PREDICTED BY IDOCK:   -1.61 KCAL/MOL
REMARK 924 INTRA-LIGAND FREE ENERGY PREDICTED BY IDOCK:    2.67 KCAL/MOL
REMARK 927      BINDING AFFINITY PREDICTED BY RF-SCORE:    0.00 PKD
ROOT
HETATM    1  O   UNL     1     -13.374  14.013  66.198  1.00  0.00    -0.331 OA 
HETATM    2  C   UNL     1     -12.073  13.600  66.018  1.00  0.00    -0.441 C  
HETATM    3  H   UNL     1     -14.103  13.781  65.635  1.00  0.00     0.000 HD 
HETATM    4  C   UNL     1     -11.040  13.929  66.816  1.00  0.00    -0.310 C  
HETATM    5  C   UNL     1     -12.905  12.295  64.029  1.00  0.00    -0.387 A  
HETATM    6  C   UNL     1      -9.685  13.402  66.511  1.00  0.00    -0.282 C  
HETATM    7  C   UNL     1     -10.515  10.853  64.005  1.00  0.00    -0.379 A  
HETATM    8  O   UNL     1      -9.598  12.305  65.669  1.00  0.00    -0.224 OA 
HETATM    9  O   UNL     1      -8.692  13.877  67.058  1.00  0.00    -0.221 OA 
HETATM   10  C   UNL     1     -10.692  11.931  64.870  1.00  0.00    -0.301 A  
HETATM   11  C   UNL     1     -11.549  10.497  63.140  1.00  0.00     2.628 A  
HETATM   12  C   UNL     1     -12.732  11.235  63.133  1.00  0.00     0.855 A  
HETATM   13  C   UNL     1     -11.892  12.631  64.935  1.00  0.00    -0.436 A  
ENDROOT
BRANCH   4  14
HETATM   14  C   UNL     1     -11.129  14.700  68.116  1.00  0.00    -0.285 C  
BRANCH  14  15
HETATM   15  C   UNL     1     -10.879  16.178  67.968  1.00  0.00    -0.333 C  
HETATM   16  C   UNL     1     -10.430  18.893  67.359  1.00  0.00    -0.449 A  
HETATM   17  H   UNL     1     -11.249  17.475  70.970  1.00  0.00     0.000 HD 
HETATM   18  C   UNL     1     -10.095  20.203  67.017  1.00  0.00    -0.599 A  
HETATM   19  C   UNL     1     -10.530  18.480  68.683  1.00  0.00    -0.130 A  
HETATM   20  O   UNL     1     -10.600  17.984  66.306  1.00  0.00    -0.347 OA 
HETATM   21  C   UNL     1     -10.673  16.629  66.566  1.00  0.00    -0.127 C  
HETATM   22  C   UNL     1     -10.901  17.089  68.961  1.00  0.00    -0.206 C  
HETATM   23  C   UNL     1      -9.812  21.116  68.028  1.00  0.00     0.297 A  
HETATM   24  O   UNL     1     -10.609  15.810  65.651  1.00  0.00    -0.338 OA 
HETATM   25  O   UNL     1     -11.233  16.833  70.270  1.00  0.00    -0.164 OA 
HETATM   26  C   UNL     1      -9.870  20.713  69.363  1.00  0.00     0.667 A  
HETATM   27  C   UNL     1     -10.241  19.403  69.687  1.00  0.00     0.228 A  
ENDBRANCH  14  15
ENDBRANCH   4  14
TORSDOF 2
ENDMDL
MODEL      228
REMARK 921   NORMALIZED FREE ENERGY PREDICTED BY IDOCK:    3.45 KCAL/MOL
REMARK 922        TOTAL FREE ENERGY PREDICTED BY IDOCK:    3.05 KCAL/MOL
REMARK 923 INTER-LIGAND FREE ENERGY PREDICTED BY IDOCK:    2.87 KCAL/MOL
REMARK 924 INTRA-LIGAND FREE ENERGY PREDICTED BY IDOCK:    0.17 KCAL/MOL
REMARK 927      BINDING AFFINITY PREDICTED BY RF-SCORE:    0.00 PKD
ROOT
HETATM    1  O   UNL     1      -8.757  11.531  68.642  1.00  0.00    -0.217 OA 
HETATM    2  C   UNL     1      -9.052  11.161  67.349  1.00  0.00    -0.142 C  
HETATM    3  H   UNL     1      -7.880  11.638  68.992  1.00  0.00     0.000 HD 
HETATM    4  C   UNL     1     -10.293  11.009  66.853  1.00  0.00    -0.279 C  
HETATM    5  C   UNL     1      -6.566  11.150  66.930  1.00  0.00    -0.124 A  
HETATM    6  C   UNL     1     -10.468  10.617  65.430  1.00  0.00    -0.184 C  
HETATM    7  C   UNL     1      -7.054  11.118  64.181  1.00  0.00     1.138 A  
HETATM    8  O   UNL     1      -9.390  10.795  64.579  1.00  0.00    -0.209 OA 
HETATM    9  O   UNL     1     -11.559  10.228  65.018  1.00  0.00     1.772 OA 
HETATM   10  C   UNL     1      -8.100  11.002  65.096  1.00  0.00     0.201 A  
HETATM   11  C   UNL     1      -5.749  11.247  64.653  1.00  0.00     1.011 A  
HETATM   12  C   UNL     1      -5.502  11.235  66.026  1.00  0.00    -0.065 A  
HETATM   13  C   UNL     1      -7.886  11.067  66.468  1.00  0.00    -0.155 A  
ENDROOT
BRANCH   4  14
HETATM   14  C   UNL     1     -11.586  11.332  67.571  1.00  0.00    -0.257 C  
BRANCH  14  15
HETATM   15  C   UNL     1     -11.445  12.382  68.642  1.00  0.00    -0.348 C  
HETATM   16  C   UNL     1     -11.188  14.093  70.866  1.00  0.00     0.519 A  
HETATM   17  H   UNL     1     -10.635  15.168  67.091  1.00  0.00     0.000 HD 
HETATM   18  C   UNL     1     -11.179  14.914  71.994  1.00  0.00     0.082 A  
HETATM   19  C   UNL     1     -11.150  14.612  69.577  1.00  0.00    -0.294 A  
HETATM   20  O   UNL     1     -11.302  12.713  71.085  1.00  0.00     1.509 OA 
HETATM   21  C   UNL     1     -11.578  11.865  70.030  1.00  0.00    -0.220 C  
HETATM   22  C   UNL     1     -11.147  13.681  68.443  1.00  0.00    -0.264 C  
HETATM   23  C   UNL     1     -11.175  16.296  71.825  1.00  0.00     0.062 A  
HETATM   24  O   UNL     1     -11.889  10.693  70.232  1.00  0.00    -0.283 OA 
HETATM   25  O   UNL     1     -10.845  14.253  67.231  1.00  0.00    -0.277 OA 
HETATM   26  C   UNL     1     -11.175  16.838  70.539  1.00  0.00     0.228 A  
HETATM   27  C   UNL     1     -11.148  15.997  69.421  1.00  0.00    -0.331 A  
ENDBRANCH  14  15
ENDBRANCH   4  14
TORSDOF 2
ENDMDL
MODEL      229
REMARK 921   NORMALIZED FREE ENERGY PREDICTED BY IDOCK:    4.25 KCAL/MOL
REMARK 922        TOTAL FREE ENERGY PREDICTED BY IDOCK:    3.93 KCAL/MOL
REMARK 923 INTER-LIGAND FREE ENERGY PREDICTED BY IDOCK:    2.75 KCAL/MOL
REMARK 924 INTRA-LIGAND FREE ENERGY PREDICTED BY IDOCK:    1.18 KCAL/MOL
REMARK 927      BINDING AFFINITY PREDICTED BY RF-SCORE:    0.00 PKD
ROOT
HETATM    1  O   UNL     1     -12.791  14.539  65.908  1.00  0.00    -0.343 OA 
HETATM    2  C   UNL     1     -11.502  14.256  65.517  1.00  0.00    -0.329 C  
HETATM    3  H   UNL     1     -13.574  14.248  65.456  1.00  0.00     0.000 HD 
HETATM    4  C   UNL     1     -10.392  14.667  66.157  1.00  0.00    -0.309 C  
HETATM    5  C   UNL     1     -12.511  12.913  63.637  1.00  0.00    -0.438 A  
HETATM    6  C   UNL     1      -9.058  14.278  65.630  1.00  0.00     0.615 C  
HETATM    7  C   UNL     1     -10.031  11.707  63.199  1.00  0.00    -0.400 A  
HETATM    8  O   UNL     1      -9.003  13.211  64.749  1.00  0.00     1.265 OA 
HETATM    9  O   UNL     1      -8.040  14.836  66.033  1.00  0.00     0.913 OA 
HETATM   10  C   UNL     1     -10.169  12.748  64.116  1.00  0.00    -0.318 A  
HETATM   11  C   UNL     1     -11.150  11.270  62.492  1.00  0.00     1.220 A  
HETATM   12  C   UNL     1     -12.383  11.891  62.691  1.00  0.00     0.906 A  
HETATM   13  C   UNL     1     -11.404  13.329  64.387  1.00  0.00    -0.415 A  
ENDROOT
BRANCH   4  14
HETATM   14  C   UNL     1     -10.347  15.403  67.480  1.00  0.00    -0.264 C  
BRANCH  14  15
HETATM   15  C   UNL     1      -9.270  14.914  68.414  1.00  0.00    -0.189 C  
HETATM   16  C   UNL     1      -7.240  14.316  70.274  1.00  0.00     0.475 A  
HETATM   17  H   UNL     1      -9.375  11.627  68.291  1.00  0.00     0.000 HD 
HETATM   18  C   UNL     1      -6.157  14.083  71.122  1.00  0.00    -0.083 A  
HETATM   19  C   UNL     1      -7.801  13.305  69.502  1.00  0.00     0.850 A  
HETATM   20  O   UNL     1      -7.704  15.635  70.182  1.00  0.00     0.173 OA 
HETATM   21  C   UNL     1      -8.588  15.990  69.181  1.00  0.00    -0.247 C  
HETATM   22  C   UNL     1      -8.949  13.626  68.646  1.00  0.00    -0.025 C  
HETATM   23  C   UNL     1      -5.593  12.812  71.167  1.00  0.00    -0.068 A  
HETATM   24  O   UNL     1      -8.838  17.172  68.955  1.00  0.00    -0.220 OA 
HETATM   25  O   UNL     1      -9.602  12.535  68.127  1.00  0.00    -0.206 OA 
HETATM   26  C   UNL     1      -6.117  11.791  70.373  1.00  0.00    -0.057 A  
HETATM   27  C   UNL     1      -7.226  12.036  69.555  1.00  0.00     0.246 A  
ENDBRANCH  14  15
ENDBRANCH   4  14
TORSDOF 2
ENDMDL
MODEL      230
REMARK 921   NORMALIZED FREE ENERGY PREDICTED BY IDOCK:    4.99 KCAL/MOL
REMARK 922        TOTAL FREE ENERGY PREDICTED BY IDOCK:    4.77 KCAL/MOL
REMARK 923 INTER-LIGAND FREE ENERGY PREDICTED BY IDOCK:    0.92 KCAL/MOL
REMARK 924 INTRA-LIGAND FREE ENERGY PREDICTED BY IDOCK:    3.85 KCAL/MOL
REMARK 927      BINDING AFFINITY PREDICTED BY RF-SCORE:    0.00 PKD
ROOT
HETATM    1  O   UNL     1     -11.918  12.150  65.718  1.00  0.00    -0.536 OA 
HETATM    2  C   UNL     1     -10.622  12.617  65.710  1.00  0.00    -0.272 C  
HETATM    3  H   UNL     1     -12.238  11.422  65.198  1.00  0.00     0.000 HD 
HETATM    4  C   UNL     1     -10.168  13.648  66.445  1.00  0.00    -0.292 C  
HETATM    5  C   UNL     1     -10.107  10.761  64.084  1.00  0.00    -0.418 A  
HETATM    6  C   UNL     1      -8.738  14.040  66.349  1.00  0.00     0.210 C  
HETATM    7  C   UNL     1      -7.380  11.149  64.541  1.00  0.00     0.959 A  
HETATM    8  O   UNL     1      -7.854  13.114  65.820  1.00  0.00     2.129 OA 
HETATM    9  O   UNL     1      -8.352  15.116  66.803  1.00  0.00    -0.231 OA 
HETATM   10  C   UNL     1      -8.329  12.009  65.093  1.00  0.00     1.373 A  
HETATM   11  C   UNL     1      -7.807  10.085  63.749  1.00  0.00    -0.152 A  
HETATM   12  C   UNL     1      -9.167   9.907  63.498  1.00  0.00    -0.279 A  
HETATM   13  C   UNL     1      -9.694  11.806  64.920  1.00  0.00    -0.199 A  
ENDROOT
BRANCH   4  14
HETATM   14  C   UNL     1     -10.949  14.404  67.499  1.00  0.00    -0.299 C  
BRANCH  14  15
HETATM   15  C   UNL     1     -11.439  13.541  68.633  1.00  0.00    -0.343 C  
HETATM   16  C   UNL     1     -12.123  11.703  70.656  1.00  0.00    -0.335 A  
HETATM   17  H   UNL     1     -13.355  15.468  70.489  1.00  0.00     0.000 HD 
HETATM   18  C   UNL     1     -12.512  10.722  71.569  1.00  0.00    -0.447 A  
HETATM   19  C   UNL     1     -12.753  12.941  70.594  1.00  0.00    -0.157 A  
HETATM   20  O   UNL     1     -11.107  11.365  69.753  1.00  0.00    -0.221 OA 
HETATM   21  C   UNL     1     -10.850  12.176  68.664  1.00  0.00    -0.235 C  
HETATM   22  C   UNL     1     -12.276  13.926  69.617  1.00  0.00    -0.321 C  
HETATM   23  C   UNL     1     -13.588  10.972  72.415  1.00  0.00     0.273 A  
HETATM   24  O   UNL     1     -10.117  11.792  67.755  1.00  0.00    -0.183 OA 
HETATM   25  O   UNL     1     -12.765  15.197  69.796  1.00  0.00    -0.165 OA 
HETATM   26  C   UNL     1     -14.257  12.195  72.344  1.00  0.00     0.670 A  
HETATM   27  C   UNL     1     -13.831  13.179  71.446  1.00  0.00     0.389 A  
ENDBRANCH  14  15
ENDBRANCH   4  14
TORSDOF 2
ENDMDL
MODEL      231
REMARK 921   NORMALIZED FREE ENERGY PREDICTED BY IDOCK:    5.83 KCAL/MOL
REMARK 922        TOTAL FREE ENERGY PREDICTED BY IDOCK:    5.70 KCAL/MOL
REMARK 923 INTER-LIGAND FREE ENERGY PREDICTED BY IDOCK:    2.83 KCAL/MOL
REMARK 924 INTRA-LIGAND FREE ENERGY PREDICTED BY IDOCK:    2.87 KCAL/MOL
REMARK 927      BINDING AFFINITY PREDICTED BY RF-SCORE:    0.00 PKD
ROOT
HETATM    1  O   UNL     1     -10.815  15.057  68.974  1.00  0.00    -0.224 OA 
HETATM    2  C   UNL     1     -10.715  16.177  69.769  1.00  0.00    -0.336 C  
HETATM    3  H   UNL     1     -11.152  14.216  69.258  1.00  0.00     0.000 HD 
HETATM    4  C   UNL     1     -10.238  17.370  69.367  1.00  0.00    -0.119 C  
HETATM    5  C   UNL     1     -11.762  14.802  71.604  1.00  0.00    -0.334 A  
HETATM    6  C   UNL     1     -10.198  18.502  70.329  1.00  0.00     1.530 C  
HETATM    7  C   UNL     1     -12.272  17.144  73.036  1.00  0.00     0.771 A  
HETATM    8  O   UNL     1     -10.991  18.410  71.461  1.00  0.00     2.016 OA 
HETATM    9  O   UNL     1      -9.546  19.513  70.078  1.00  0.00     0.219 OA 
HETATM   10  C   UNL     1     -11.530  17.173  71.855  1.00  0.00     1.049 A  
HETATM   11  C   UNL     1     -12.759  15.925  73.503  1.00  0.00    -0.701 A  
HETATM   12  C   UNL     1     -12.481  14.752  72.802  1.00  0.00    -0.417 A  
HETATM   13  C   UNL     1     -11.308  16.027  71.100  1.00  0.00    -0.413 A  
ENDROOT
BRANCH   4  14
HETATM   14  C   UNL     1      -9.843  17.742  67.954  1.00  0.00    -0.306 C  
BRANCH  14  15
HETATM   15  C   UNL     1     -10.445  16.853  66.897  1.00  0.00    -0.271 C  
HETATM   16  C   UNL     1     -11.680  15.474  64.772  1.00  0.00    -0.187 A  
HETATM   17  H   UNL     1      -9.175  13.858  67.386  1.00  0.00     0.000 HD 
HETATM   18  C   UNL     1     -12.400  14.823  63.771  1.00  0.00     0.227 A  
HETATM   19  C   UNL     1     -10.962  14.775  65.737  1.00  0.00    -0.334 A  
HETATM   20  O   UNL     1     -11.760  16.873  64.806  1.00  0.00    -0.068 OA 
HETATM   21  C   UNL     1     -11.297  17.567  65.908  1.00  0.00     1.085 C  
HETATM   22  C   UNL     1     -10.218  15.533  66.748  1.00  0.00    -0.280 C  
HETATM   23  C   UNL     1     -12.438  13.431  63.760  1.00  0.00    -0.318 A  
HETATM   24  O   UNL     1     -11.549  18.761  66.048  1.00  0.00     1.120 OA 
HETATM   25  O   UNL     1      -9.335  14.788  67.491  1.00  0.00    -0.189 OA 
HETATM   26  C   UNL     1     -11.755  12.710  64.741  1.00  0.00    -0.402 A  
HETATM   27  C   UNL     1     -11.010  13.382  65.716  1.00  0.00    -0.288 A  
ENDBRANCH  14  15
ENDBRANCH   4  14
TORSDOF 2
ENDMDL
MODEL      232
REMARK 921   NORMALIZED FREE ENERGY PREDICTED BY IDOCK:   11.18 KCAL/MOL
REMARK 922        TOTAL FREE ENERGY PREDICTED BY IDOCK:   11.68 KCAL/MOL
REMARK 923 INTER-LIGAND FREE ENERGY PREDICTED BY IDOCK:   11.04 KCAL/MOL
REMARK 924 INTRA-LIGAND FREE ENERGY PREDICTED BY IDOCK:    0.63 KCAL/MOL
REMARK 927      BINDING AFFINITY PREDICTED BY RF-SCORE:    0.00 PKD
ROOT
HETATM    1  O   UNL     1     -11.273  16.117  68.149  1.00  0.00    -0.347 OA 
HETATM    2  C   UNL     1     -11.044  15.937  69.495  1.00  0.00    -0.315 C  
HETATM    3  H   UNL     1     -11.523  15.430  67.541  1.00  0.00     0.000 HD 
HETATM    4  C   UNL     1     -10.690  16.908  70.355  1.00  0.00     0.352 C  
HETATM    5  C   UNL     1     -11.662  13.519  69.137  1.00  0.00    -0.374 A  
HETATM    6  C   UNL     1     -10.486  16.576  71.789  1.00  0.00     2.736 C  
HETATM    7  C   UNL     1     -11.933  13.204  71.898  1.00  0.00     1.249 A  
HETATM    8  O   UNL     1     -11.032  15.390  72.256  1.00  0.00    -0.207 OA 
HETATM    9  O   UNL     1      -9.926  17.370  72.542  1.00  0.00     6.666 OA 
HETATM   10  C   UNL     1     -11.447  14.394  71.357  1.00  0.00     0.253 A  
HETATM   11  C   UNL     1     -12.284  12.161  71.043  1.00  0.00    -0.227 A  
HETATM   12  C   UNL     1     -12.122  12.308  69.665  1.00  0.00    -0.277 A  
HETATM   13  C   UNL     1     -11.351  14.591  69.984  1.00  0.00    -0.274 A  
ENDROOT
BRANCH   4  14
HETATM   14  C   UNL     1     -10.599  18.387  70.042  1.00  0.00     1.468 C  
BRANCH  14  15
HETATM   15  C   UNL     1      -9.336  18.782  69.321  1.00  0.00     0.011 C  
HETATM   16  C   UNL     1      -7.033  19.832  68.082  1.00  0.00    -0.289 A  
HETATM   17  H   UNL     1      -7.826  15.972  68.515  1.00  0.00     0.000 HD 
HETATM   18  C   UNL     1      -5.969  20.408  67.389  1.00  0.00    -0.230 A  
HETATM   19  C   UNL     1      -7.300  18.469  68.021  1.00  0.00    -0.261 A  
HETATM   20  O   UNL     1      -7.869  20.699  68.800  1.00  0.00     0.396 OA 
HETATM   21  C   UNL     1      -9.078  20.246  69.291  1.00  0.00     0.649 C  
HETATM   22  C   UNL     1      -8.429  17.937  68.792  1.00  0.00    -0.205 C  
HETATM   23  C   UNL     1      -5.175  19.604  66.576  1.00  0.00    -0.162 A  
HETATM   24  O   UNL     1      -9.911  21.035  69.732  1.00  0.00     1.028 OA 
HETATM   25  O   UNL     1      -8.465  16.567  68.888  1.00  0.00    -0.232 OA 
HETATM   26  C   UNL     1      -5.448  18.239  66.471  1.00  0.00    -0.176 A  
HETATM   27  C   UNL     1      -6.499  17.674  67.203  1.00  0.00    -0.188 A  
ENDBRANCH  14  15
ENDBRANCH   4  14
TORSDOF 2
ENDMDL
MODEL      233
REMARK 921   NORMALIZED FREE ENERGY PREDICTED BY IDOCK:   15.11 KCAL/MOL
REMARK 922        TOTAL FREE ENERGY PREDICTED BY IDOCK:   16.07 KCAL/MOL
REMARK 923 INTER-LIGAND FREE ENERGY PREDICTED BY IDOCK:   12.36 KCAL/MOL
REMARK 924 INTRA-LIGAND FREE ENERGY PREDICTED BY IDOCK:    3.71 KCAL/MOL
REMARK 927      BINDING AFFINITY PREDICTED BY RF-SCORE:    0.00 PKD
ROOT
HETATM    1  O   UNL     1     -12.801  14.466  65.832  1.00  0.00    -0.416 OA 
HETATM    2  C   UNL     1     -11.823  13.634  65.334  1.00  0.00    -0.353 C  
HETATM    3  H   UNL     1     -13.680  14.545  65.481  1.00  0.00     0.000 HD 
HETATM    4  C   UNL     1     -10.577  13.523  65.830  1.00  0.00    -0.284 C  
HETATM    5  C   UNL     1     -13.536  12.845  63.662  1.00  0.00     1.674 A  
HETATM    6  C   UNL     1      -9.623  12.574  65.201  1.00  0.00     0.081 C  
HETATM    7  C   UNL     1     -11.908  10.658  63.061  1.00  0.00     2.532 A  
HETATM    8  O   UNL     1     -10.147  11.577  64.394  1.00  0.00    -0.249 OA 
HETATM    9  O   UNL     1      -8.422  12.630  65.461  1.00  0.00     1.037 OA 
HETATM   10  C   UNL     1     -11.465  11.668  63.914  1.00  0.00    -0.343 A  
HETATM   11  C   UNL     1     -13.181  10.749  62.502  1.00  0.00     4.470 A  
HETATM   12  C   UNL     1     -13.984  11.856  62.780  1.00  0.00     3.318 A  
HETATM   13  C   UNL     1     -12.277  12.740  64.267  1.00  0.00    -0.499 A  
ENDROOT
BRANCH   4  14
HETATM   14  C   UNL     1     -10.056  14.185  67.088  1.00  0.00    -0.258 C  
BRANCH  14  15
HETATM   15  C   UNL     1      -9.222  13.279  67.955  1.00  0.00    -0.217 C  
HETATM   16  C   UNL     1      -7.584  11.858  69.755  1.00  0.00     0.937 A  
HETATM   17  H   UNL     1     -10.072  10.204  67.148  1.00  0.00     0.000 HD 
HETATM   18  C   UNL     1      -6.676  11.209  70.591  1.00  0.00     0.757 A  
HETATM   19  C   UNL     1      -8.284  11.181  68.762  1.00  0.00    -0.135 A  
HETATM   20  O   UNL     1      -7.718  13.243  69.914  1.00  0.00     0.982 OA 
HETATM   21  C   UNL     1      -8.391  13.988  68.964  1.00  0.00     0.137 C  
HETATM   22  C   UNL     1      -9.233  11.931  67.932  1.00  0.00    -0.187 C  
HETATM   23  C   UNL     1      -6.429   9.852  70.401  1.00  0.00    -0.115 A  
HETATM   24  O   UNL     1      -8.336  15.216  68.975  1.00  0.00    -0.182 OA 
HETATM   25  O   UNL     1     -10.065  11.153  67.165  1.00  0.00    -0.183 OA 
HETATM   26  C   UNL     1      -7.093   9.162  69.386  1.00  0.00    -0.053 A  
HETATM   27  C   UNL     1      -8.026   9.823  68.580  1.00  0.00    -0.089 A  
ENDBRANCH  14  15
ENDBRANCH   4  14
TORSDOF 2
ENDMDL
MODEL      234
REMARK 921   NORMALIZED FREE ENERGY PREDICTED BY IDOCK:   23.24 KCAL/MOL
REMARK 922        TOTAL FREE ENERGY PREDICTED BY IDOCK:   25.15 KCAL/MOL
REMARK 923 INTER-LIGAND FREE ENERGY PREDICTED BY IDOCK:   19.79 KCAL/MOL
REMARK 924 INTRA-LIGAND FREE ENERGY PREDICTED BY IDOCK:    5.36 KCAL/MOL
REMARK 927      BINDING AFFINITY PREDICTED BY RF-SCORE:    0.00 PKD
ROOT
HETATM    1  O   UNL     1     -11.568  11.822  64.570  1.00  0.00    -0.301 OA 
HETATM    2  C   UNL     1     -10.329  12.075  65.113  1.00  0.00    -0.276 C  
HETATM    3  H   UNL     1     -11.775  11.091  63.999  1.00  0.00     0.000 HD 
HETATM    4  C   UNL     1     -10.036  13.110  65.921  1.00  0.00    -0.275 C  
HETATM    5  C   UNL     1      -9.550   9.964  63.976  1.00  0.00    -0.137 A  
HETATM    6  C   UNL     1      -8.654  13.257  66.447  1.00  0.00     0.338 C  
HETATM    7  C   UNL     1      -7.259   9.977  65.571  1.00  0.00    -0.133 A  
HETATM    8  O   UNL     1      -7.832  12.143  66.410  1.00  0.00     0.104 OA 
HETATM    9  O   UNL     1      -8.293  14.309  66.971  1.00  0.00    -0.195 OA 
HETATM   10  C   UNL     1      -8.161  11.040  65.604  1.00  0.00    -0.026 A  
HETATM   11  C   UNL     1      -7.510   8.898  64.726  1.00  0.00    -0.103 A  
HETATM   12  C   UNL     1      -8.639   8.904  63.908  1.00  0.00    -0.110 A  
HETATM   13  C   UNL     1      -9.333  11.032  64.856  1.00  0.00    -0.243 A  
ENDROOT
BRANCH   4  14
HETATM   14  C   UNL     1     -11.024  14.110  66.482  1.00  0.00    -0.309 C  
BRANCH  14  15
HETATM   15  C   UNL     1     -10.449  15.003  67.551  1.00  0.00    -0.256 C  
HETATM   16  C   UNL     1      -9.238  16.851  69.300  1.00  0.00    -0.005 A  
HETATM   17  H   UNL     1     -11.977  14.183  70.348  1.00  0.00     0.000 HD 
HETATM   18  C   UNL     1      -8.529  17.714  70.135  1.00  0.00     2.637 A  
HETATM   19  C   UNL     1     -10.051  15.841  69.803  1.00  0.00    -0.277 A  
HETATM   20  O   UNL     1      -9.046  17.002  67.920  1.00  0.00    -0.225 OA 
HETATM   21  C   UNL     1      -9.500  16.032  67.047  1.00  0.00    -0.218 C  
HETATM   22  C   UNL     1     -10.775  14.984  68.859  1.00  0.00    -0.240 C  
HETATM   23  C   UNL     1      -8.603  17.535  71.514  1.00  0.00    10.630 A  
HETATM   24  O   UNL     1      -9.159  16.040  65.867  1.00  0.00    -0.333 OA 
HETATM   25  O   UNL     1     -11.747  14.197  69.426  1.00  0.00    -0.271 OA 
HETATM   26  C   UNL     1      -9.384  16.504  72.039  1.00  0.00     8.833 A  
HETATM   27  C   UNL     1     -10.115  15.671  71.185  1.00  0.00     1.181 A  
ENDBRANCH  14  15
ENDBRANCH   4  14
TORSDOF 2
ENDMDL
MODEL      235
REMARK 921   NORMALIZED FREE ENERGY PREDICTED BY IDOCK:   26.40 KCAL/MOL
REMARK 922        TOTAL FREE ENERGY PREDICTED BY IDOCK:   28.68 KCAL/MOL
REMARK 923 INTER-LIGAND FREE ENERGY PREDICTED BY IDOCK:   26.34 KCAL/MOL
REMARK 924 INTRA-LIGAND FREE ENERGY PREDICTED BY IDOCK:    2.34 KCAL/MOL
REMARK 927      BINDING AFFINITY PREDICTED BY RF-SCORE:    0.00 PKD
ROOT
HETATM    1  O   UNL     1      -8.847  16.079  63.318  1.00  0.00    12.129 OA 
HETATM    2  C   UNL     1      -9.036  15.622  64.603  1.00  0.00     4.451 C  
HETATM    3  H   UNL     1      -8.885  16.990  63.053  1.00  0.00     0.000 HD 
HETATM    4  C   UNL     1      -8.983  14.331  64.980  1.00  0.00     2.384 C  
HETATM    5  C   UNL     1      -9.299  18.036  65.279  1.00  0.00     1.757 A  
HETATM    6  C   UNL     1      -9.193  13.977  66.407  1.00  0.00    -0.162 C  
HETATM    7  C   UNL     1      -8.971  17.299  67.952  1.00  0.00    -0.235 A  
HETATM    8  O   UNL     1      -9.053  14.987  67.346  1.00  0.00    -0.177 OA 
HETATM    9  O   UNL     1      -9.402  12.812  66.739  1.00  0.00    -0.230 OA 
HETATM   10  C   UNL     1      -9.059  16.335  66.949  1.00  0.00    -0.220 A  
HETATM   11  C   UNL     1      -9.051  18.647  67.608  1.00  0.00    -0.294 A  
HETATM   12  C   UNL     1      -9.243  19.015  66.277  1.00  0.00    -0.307 A  
HETATM   13  C   UNL     1      -9.172  16.680  65.606  1.00  0.00     0.160 A  
ENDROOT
BRANCH   4  14
HETATM   14  C   UNL     1      -8.588  13.162  64.102  1.00  0.00     4.979 C  
BRANCH  14  15
HETATM   15  C   UNL     1      -8.412  11.867  64.852  1.00  0.00     1.166 C  
HETATM   16  C   UNL     1      -8.385   9.357  66.132  1.00  0.00    -0.115 A  
HETATM   17  H   UNL     1      -5.263  11.778  65.799  1.00  0.00     0.000 HD 
HETATM   18  C   UNL     1      -8.459   8.159  66.842  1.00  0.00    -0.119 A  
HETATM   19  C   UNL     1      -7.286  10.204  66.229  1.00  0.00    -0.112 A  
HETATM   20  O   UNL     1      -9.500   9.708  65.360  1.00  0.00    -0.242 OA 
HETATM   21  C   UNL     1      -9.610  10.985  64.843  1.00  0.00    -0.245 C  
HETATM   22  C   UNL     1      -7.277  11.439  65.439  1.00  0.00     0.850 C  
HETATM   23  C   UNL     1      -7.422   7.818  67.707  1.00  0.00    -0.104 A  
HETATM   24  O   UNL     1     -10.667  11.373  64.349  1.00  0.00    -0.317 OA 
HETATM   25  O   UNL     1      -6.063  12.079  65.386  1.00  0.00     1.462 OA 
HETATM   26  C   UNL     1      -6.327   8.672  67.847  1.00  0.00    -0.057 A  
HETATM   27  C   UNL     1      -6.255   9.853  67.099  1.00  0.00    -0.063 A  
ENDBRANCH  14  15
ENDBRANCH   4  14
TORSDOF 2
ENDMDL
MODEL      236
REMARK 921   NORMALIZED FREE ENERGY PREDICTED BY IDOCK:   36.06 KCAL/MOL
REMARK 922        TOTAL FREE ENERGY PREDICTED BY IDOCK:   39.47 KCAL/MOL
REMARK 923 INTER-LIGAND FREE ENERGY PREDICTED BY IDOCK:   30.86 KCAL/MOL
REMARK 924 INTRA-LIGAND FREE ENERGY PREDICTED BY IDOCK:    8.61 KCAL/MOL
REMARK 927      BINDING AFFINITY PREDICTED BY RF-SCORE:    0.00 PKD
ROOT
HETATM    1  O   UNL     1      -5.500  13.159  66.288  1.00  0.00     1.141 OA 
HETATM    2  C   UNL     1      -6.300  13.177  67.409  1.00  0.00    -0.052 C  
HETATM    3  H   UNL     1      -5.471  12.454  65.651  1.00  0.00     0.000 HD 
HETATM    4  C   UNL     1      -6.341  14.174  68.312  1.00  0.00    -0.118 C  
HETATM    5  C   UNL     1      -7.212  10.961  66.630  1.00  0.00    -0.139 A  
HETATM    6  C   UNL     1      -7.263  14.070  69.473  1.00  0.00     0.095 C  
HETATM    7  C   UNL     1      -9.338  11.233  68.418  1.00  0.00    -0.181 A  
HETATM    8  O   UNL     1      -8.304  13.160  69.386  1.00  0.00     0.642 OA 
HETATM    9  O   UNL     1      -7.146  14.827  70.435  1.00  0.00     0.009 OA 
HETATM   10  C   UNL     1      -8.286  12.148  68.412  1.00  0.00    -0.143 A  
HETATM   11  C   UNL     1      -9.320  10.169  67.519  1.00  0.00    -0.168 A  
HETATM   12  C   UNL     1      -8.244  10.017  66.645  1.00  0.00    -0.122 A  
HETATM   13  C   UNL     1      -7.243  12.060  67.497  1.00  0.00    -0.127 A  
ENDROOT
BRANCH   4  14
HETATM   14  C   UNL     1      -5.622  15.502  68.208  1.00  0.00    -0.118 C  
BRANCH  14  15
HETATM   15  C   UNL     1      -5.745  16.362  69.439  1.00  0.00    -0.149 C  
HETATM   16  C   UNL     1      -6.075  18.217  71.534  1.00  0.00     1.501 A  
HETATM   17  H   UNL     1      -5.525  14.319  72.008  1.00  0.00     0.000 HD 
HETATM   18  C   UNL     1      -6.137  19.193  72.529  1.00  0.00     1.602 A  
HETATM   19  C   UNL     1      -5.709  16.905  71.813  1.00  0.00     1.130 A  
HETATM   20  O   UNL     1      -6.337  18.629  70.221  1.00  0.00    -0.052 OA 
HETATM   21  C   UNL     1      -6.042  17.793  69.161  1.00  0.00    -0.224 C  
HETATM   22  C   UNL     1      -5.681  15.933  70.714  1.00  0.00     0.064 C  
HETATM   23  C   UNL     1      -5.782  18.856  73.832  1.00  0.00    11.043 A  
HETATM   24  O   UNL     1      -6.065  18.213  68.006  1.00  0.00    -0.169 OA 
HETATM   25  O   UNL     1      -5.570  14.622  71.110  1.00  0.00    -0.148 OA 
HETATM   26  C   UNL     1      -5.376  17.554  74.126  1.00  0.00    12.457 A  
HETATM   27  C   UNL     1      -5.353  16.581  73.121  1.00  0.00     3.085 A  
ENDBRANCH  14  15
ENDBRANCH   4  14
TORSDOF 2
ENDMDL
MODEL      237
REMARK 921   NORMALIZED FREE ENERGY PREDICTED BY IDOCK:   39.19 KCAL/MOL
REMARK 922        TOTAL FREE ENERGY PREDICTED BY IDOCK:   42.96 KCAL/MOL
REMARK 923 INTER-LIGAND FREE ENERGY PREDICTED BY IDOCK:   41.14 KCAL/MOL
REMARK 924 INTRA-LIGAND FREE ENERGY PREDICTED BY IDOCK:    1.82 KCAL/MOL
REMARK 927      BINDING AFFINITY PREDICTED BY RF-SCORE:    0.00 PKD
ROOT
HETATM    1  O   UNL     1      -9.727  18.295  69.703  1.00  0.00     0.216 OA 
HETATM    2  C   UNL     1      -8.732  17.428  69.313  1.00  0.00     0.221 C  
HETATM    3  H   UNL     1      -9.630  19.237  69.780  1.00  0.00     0.000 HD 
HETATM    4  C   UNL     1      -8.868  16.093  69.204  1.00  0.00    -0.239 C  
HETATM    5  C   UNL     1      -7.264  19.456  69.022  1.00  0.00    -0.397 A  
HETATM    6  C   UNL     1      -7.711  15.275  68.759  1.00  0.00    -0.147 C  
HETATM    7  C   UNL     1      -5.458  17.911  67.558  1.00  0.00    -0.147 A  
HETATM    8  O   UNL     1      -6.674  15.928  68.113  1.00  0.00    -0.112 OA 
HETATM    9  O   UNL     1      -7.722  14.052  68.890  1.00  0.00    -0.130 OA 
HETATM   10  C   UNL     1      -6.557  17.326  68.185  1.00  0.00    -0.164 A  
HETATM   11  C   UNL     1      -5.263  19.286  67.671  1.00  0.00    -0.169 A  
HETATM   12  C   UNL     1      -6.149  20.054  68.426  1.00  0.00    -0.293 A  
HETATM   13  C   UNL     1      -7.497  18.083  68.876  1.00  0.00    -0.235 A  
ENDROOT
BRANCH   4  14
HETATM   14  C   UNL     1     -10.156  15.313  69.364  1.00  0.00    -0.266 C  
BRANCH  14  15
HETATM   15  C   UNL     1      -9.976  13.964  70.010  1.00  0.00     1.433 C  
HETATM   16  C   UNL     1      -9.709  11.593  71.509  1.00  0.00    11.163 A  
HETATM   17  H   UNL     1      -9.913  11.775  67.554  1.00  0.00     0.000 HD 
HETATM   18  C   UNL     1      -9.471  10.467  72.297  1.00  0.00     7.650 A  
HETATM   19  C   UNL     1      -9.589  11.562  70.124  1.00  0.00     2.381 A  
HETATM   20  O   UNL     1     -10.014  12.785  72.180  1.00  0.00    12.394 OA 
HETATM   21  C   UNL     1     -10.005  13.986  71.497  1.00  0.00     5.797 C  
HETATM   22  C   UNL     1      -9.871  12.785  69.365  1.00  0.00     0.928 C  
HETATM   23  C   UNL     1      -9.060   9.286  71.684  1.00  0.00     0.146 A  
HETATM   24  O   UNL     1     -10.060  15.053  72.104  1.00  0.00     1.711 OA 
HETATM   25  O   UNL     1      -9.987  12.605  68.008  1.00  0.00    -0.207 OA 
HETATM   26  C   UNL     1      -8.898   9.243  70.299  1.00  0.00    -0.254 A  
HETATM   27  C   UNL     1      -9.175  10.375  69.523  1.00  0.00    -0.143 A  
ENDBRANCH  14  15
ENDBRANCH   4  14
TORSDOF 2
ENDMDL
MODEL      238
REMARK 921   NORMALIZED FREE ENERGY PREDICTED BY IDOCK:   49.84 KCAL/MOL
REMARK 922        TOTAL FREE ENERGY PREDICTED BY IDOCK:   54.86 KCAL/MOL
REMARK 923 INTER-LIGAND FREE ENERGY PREDICTED BY IDOCK:   42.56 KCAL/MOL
REMARK 924 INTRA-LIGAND FREE ENERGY PREDICTED BY IDOCK:   12.30 KCAL/MOL
REMARK 927      BINDING AFFINITY PREDICTED BY RF-SCORE:    0.00 PKD
ROOT
HETATM    1  O   UNL     1     -11.863  12.231  65.685  1.00  0.00    -0.406 OA 
HETATM    2  C   UNL     1     -10.850  13.162  65.620  1.00  0.00    -0.278 C  
HETATM    3  H   UNL     1     -11.884  11.414  65.200  1.00  0.00     0.000 HD 
HETATM    4  C   UNL     1     -10.819  14.319  66.306  1.00  0.00    -0.310 C  
HETATM    5  C   UNL     1      -9.683  11.583  64.039  1.00  0.00    -0.248 A  
HETATM    6  C   UNL     1      -9.655  15.229  66.152  1.00  0.00    -0.321 C  
HETATM    7  C   UNL     1      -7.313  13.015  64.395  1.00  0.00    11.562 A  
HETATM    8  O   UNL     1      -8.489  14.695  65.624  1.00  0.00     1.229 OA 
HETATM    9  O   UNL     1      -9.709  16.388  66.557  1.00  0.00    -0.241 OA 
HETATM   10  C   UNL     1      -8.511  13.463  64.949  1.00  0.00     4.258 A  
HETATM   11  C   UNL     1      -7.307  11.836  63.652  1.00  0.00     2.920 A  
HETATM   12  C   UNL     1      -8.496  11.135  63.451  1.00  0.00     0.200 A  
HETATM   13  C   UNL     1      -9.693  12.740  64.827  1.00  0.00     0.074 A  
ENDROOT
BRANCH   4  14
HETATM   14  C   UNL     1     -11.814  14.757  67.360  1.00  0.00    -0.320 C  
BRANCH  14  15
HETATM   15  C   UNL     1     -11.180  15.179  68.661  1.00  0.00    -0.295 C  
HETATM   16  C   UNL     1      -9.713  16.015  70.916  1.00  0.00     1.967 A  
HETATM   17  H   UNL     1     -13.652  15.584  70.794  1.00  0.00     0.000 HD 
HETATM   18  C   UNL     1      -8.926  16.321  72.027  1.00  0.00     9.357 A  
HETATM   19  C   UNL     1     -11.067  15.723  71.032  1.00  0.00    -0.327 A  
HETATM   20  O   UNL     1      -9.065  15.950  69.676  1.00  0.00    -0.226 OA 
HETATM   21  C   UNL     1      -9.712  15.404  68.584  1.00  0.00    -0.210 C  
HETATM   22  C   UNL     1     -11.831  15.426  69.815  1.00  0.00    -0.347 C  
HETATM   23  C   UNL     1      -9.502  16.292  73.294  1.00  0.00    12.512 A  
HETATM   24  O   UNL     1      -9.094  15.147  67.553  1.00  0.00    -0.177 OA 
HETATM   25  O   UNL     1     -13.194  15.410  69.981  1.00  0.00    -0.012 OA 
HETATM   26  C   UNL     1     -10.851  15.966  73.436  1.00  0.00     2.727 A  
HETATM   27  C   UNL     1     -11.632  15.696  72.306  1.00  0.00    -0.534 A  
ENDBRANCH  14  15
ENDBRANCH   4  14
TORSDOF 2
ENDMDL
MODEL      239
REMARK 921   NORMALIZED FREE ENERGY PREDICTED BY IDOCK:   70.89 KCAL/MOL
REMARK 922        TOTAL FREE ENERGY PREDICTED BY IDOCK:   78.36 KCAL/MOL
REMARK 923 INTER-LIGAND FREE ENERGY PREDICTED BY IDOCK:   72.52 KCAL/MOL
REMARK 924 INTRA-LIGAND FREE ENERGY PREDICTED BY IDOCK:    5.84 KCAL/MOL
REMARK 927      BINDING AFFINITY PREDICTED BY RF-SCORE:    0.00 PKD
ROOT
HETATM    1  O   UNL     1      -9.105  14.274  66.710  1.00  0.00    -0.249 OA 
HETATM    2  C   UNL     1      -8.492  15.506  66.659  1.00  0.00    -0.279 C  
HETATM    3  H   UNL     1      -9.409  13.785  65.955  1.00  0.00     0.000 HD 
HETATM    4  C   UNL     1      -8.061  16.199  67.728  1.00  0.00    -0.157 C  
HETATM    5  C   UNL     1      -8.678  15.343  64.150  1.00  0.00     9.864 A  
HETATM    6  C   UNL     1      -7.403  17.517  67.528  1.00  0.00    -0.177 C  
HETATM    7  C   UNL     1      -6.840  17.430  63.902  1.00  0.00     8.883 A  
HETATM    8  O   UNL     1      -6.915  17.804  66.264  1.00  0.00    -0.225 OA 
HETATM    9  O   UNL     1      -7.230  18.280  68.476  1.00  0.00    -0.263 OA 
HETATM   10  C   UNL     1      -7.327  17.049  65.152  1.00  0.00     3.071 A  
HETATM   11  C   UNL     1      -7.284  16.757  62.766  1.00  0.00    22.120 A  
HETATM   12  C   UNL     1      -8.223  15.734  62.887  1.00  0.00    27.446 A  
HETATM   13  C   UNL     1      -8.204  15.981  65.304  1.00  0.00     3.121 A  
ENDROOT
BRANCH   4  14
HETATM   14  C   UNL     1      -8.052  15.713  69.162  1.00  0.00    -0.238 C  
BRANCH  14  15
HETATM   15  C   UNL     1      -7.636  14.273  69.316  1.00  0.00     0.012 C  
HETATM   16  C   UNL     1      -6.711  11.674  69.891  1.00  0.00     0.045 A  
HETATM   17  H   UNL     1      -9.365  12.578  67.088  1.00  0.00     0.000 HD 
HETATM   18  C   UNL     1      -6.139  10.428  70.148  1.00  0.00    -0.097 A  
HETATM   19  C   UNL     1      -7.503  11.903  68.771  1.00  0.00    -0.100 A  
HETATM   20  O   UNL     1      -6.401  12.713  70.779  1.00  0.00    -0.016 OA 
HETATM   21  C   UNL     1      -6.710  14.019  70.452  1.00  0.00     0.203 C  
HETATM   22  C   UNL     1      -8.082  13.237  68.578  1.00  0.00    -0.094 C  
HETATM   23  C   UNL     1      -6.330   9.393  69.238  1.00  0.00    -0.044 A  
HETATM   24  O   UNL     1      -6.261  14.954  71.111  1.00  0.00     0.064 OA 
HETATM   25  O   UNL     1      -9.052  13.308  67.608  1.00  0.00    -0.185 OA 
HETATM   26  C   UNL     1      -7.091   9.612  68.089  1.00  0.00    -0.079 A  
HETATM   27  C   UNL     1      -7.686  10.859  67.866  1.00  0.00    -0.104 A  
ENDBRANCH  14  15
ENDBRANCH   4  14
TORSDOF 2
ENDMDL
